MODEL 1
REMARK VINA RESULT:    -5.063      0.000      0.000
REMARK INTER + INTRA:         -16.148
REMARK INTER:                 -12.758
REMARK INTRA:                  -3.389
REMARK UNBOUND:                -3.389
REMARK SMILES CCCCCCCCCCCCCCCCCCCCCCCCCCCC(=O)[O-]
REMARK SMILES IDX 15 1 16 2 17 3 18 4 19 5 20 6 21 7 22 8 23 9 24 10 25 11
REMARK SMILES IDX 26 12 27 13 28 14 29 15 30 16 14 17 13 18 12 19 11 20 10 21
REMARK SMILES IDX 9 22 8 23 7 24 6 25 5 26 4 27 3 28 2 29 1 30
REMARK H PARENT
REMARK Flexibility Score: inf
ROOT
ATOM      1  C   UNL     1      12.695   4.106  54.095  1.00  0.00     0.000 C 
ENDROOT
BRANCH   1   2
ATOM      2  C   UNL     1      13.017   5.607  53.984  1.00  0.00     0.000 C 
BRANCH   2   3
ATOM      3  C   UNL     1      12.118   6.325  52.965  1.00  0.00     0.000 C 
BRANCH   3   4
ATOM      4  C   UNL     1      11.691   7.726  53.437  1.00  0.00     0.000 C 
BRANCH   4   5
ATOM      5  C   UNL     1      11.439   7.789  54.951  1.00  0.00     0.000 C 
BRANCH   5   6
ATOM      6  C   UNL     1      11.195   9.224  55.448  1.00  0.00     0.000 C 
BRANCH   6   7
ATOM      7  C   UNL     1       9.711   9.627  55.409  1.00  0.00     0.000 C 
BRANCH   7   8
ATOM      8  C   UNL     1       8.746   8.424  55.346  1.00  0.00     0.000 C 
BRANCH   8   9
ATOM      9  C   UNL     1       8.246   8.157  53.916  1.00  0.00     0.000 C 
BRANCH   9  10
ATOM     10  C   UNL     1       7.197   9.181  53.443  1.00  0.00     0.000 C 
BRANCH  10  11
ATOM     11  C   UNL     1       7.619  10.038  52.236  1.00  0.00     0.000 C 
BRANCH  11  12
ATOM     12  C   UNL     1       9.113   9.899  51.892  1.00  0.00     0.006 C 
BRANCH  12  13
ATOM     13  C   UNL     1       9.349   9.746  50.384  1.00  0.00     0.053 C 
BRANCH  13  14
ATOM     14  C   UNL     1       9.713   8.339  50.018  1.00  0.00     0.041 C 
ATOM     15  O   UNL     1       9.548   7.408  50.850  1.00  0.00    -0.550 OA
ATOM     16  O   UNL     1      10.263   8.062  48.773  1.00  0.00    -0.550 OA
ENDBRANCH  13  14
ENDBRANCH  12  13
ENDBRANCH  11  12
ENDBRANCH  10  11
ENDBRANCH   9  10
ENDBRANCH   8   9
ENDBRANCH   7   8
ENDBRANCH   6   7
ENDBRANCH   5   6
ENDBRANCH   4   5
ENDBRANCH   3   4
ENDBRANCH   2   3
ENDBRANCH   1   2
BRANCH   1  17
ATOM     17  C   UNL     1      11.351   3.736  53.434  1.00  0.00     0.000 C 
BRANCH  17  18
ATOM     18  C   UNL     1      10.218   3.458  54.441  1.00  0.00     0.000 C 
BRANCH  18  19
ATOM     19  C   UNL     1       9.464   4.708  54.926  1.00  0.00     0.000 C 
BRANCH  19  20
ATOM     20  C   UNL     1       9.548   4.897  56.448  1.00  0.00     0.000 C 
BRANCH  20  21
ATOM     21  C   UNL     1      11.009   4.902  56.926  1.00  0.00     0.000 C 
BRANCH  21  22
ATOM     22  C   UNL     1      11.443   3.552  57.520  1.00  0.00    -0.000 C 
BRANCH  22  23
ATOM     23  C   UNL     1      12.514   3.708  58.614  1.00  0.00    -0.000 C 
BRANCH  23  24
ATOM     24  C   UNL     1      13.121   2.362  59.049  1.00  0.00    -0.000 C 
BRANCH  24  25
ATOM     25  C   UNL     1      13.506   1.425  57.889  1.00  0.00    -0.000 C 
BRANCH  25  26
ATOM     26  C   UNL     1      14.912   0.822  58.057  1.00  0.00    -0.000 C 
BRANCH  26  27
ATOM     27  C   UNL     1      15.545   0.394  56.720  1.00  0.00    -0.000 C 
BRANCH  27  28
ATOM     28  C   UNL     1      16.802   1.185  56.303  1.00  0.00    -0.000 C 
BRANCH  28  29
ATOM     29  C   UNL     1      16.571   2.259  55.225  1.00  0.00    -0.003 C 
ATOM     30  C   UNL     1      15.649   3.384  55.696  1.00  0.00     0.004 C 
ENDBRANCH  28  29
ENDBRANCH  27  28
ENDBRANCH  26  27
ENDBRANCH  25  26
ENDBRANCH  24  25
ENDBRANCH  23  24
ENDBRANCH  22  23
ENDBRANCH  21  22
ENDBRANCH  20  21
ENDBRANCH  19  20
ENDBRANCH  18  19
ENDBRANCH  17  18
ENDBRANCH   1  17
TORSDOF 26
ENDMDL
MODEL 2
REMARK VINA RESULT:    -4.143      2.377      9.313
REMARK INTER + INTRA:         -13.830
REMARK INTER:                 -10.751
REMARK INTRA:                  -3.078
REMARK UNBOUND:                -3.389
REMARK SMILES CCCCCCCCCCCCCCCCCCCCCCCCCCCC(=O)[O-]
REMARK SMILES IDX 15 1 16 2 17 3 18 4 19 5 20 6 21 7 22 8 23 9 24 10 25 11
REMARK SMILES IDX 26 12 27 13 28 14 29 15 30 16 14 17 13 18 12 19 11 20 10 21
REMARK SMILES IDX 9 22 8 23 7 24 6 25 5 26 4 27 3 28 2 29 1 30
REMARK H PARENT
REMARK Flexibility Score: inf
ROOT
ATOM      1  C   UNL     1      11.169   3.145  56.686  1.00  0.00     0.000 C 
ENDROOT
BRANCH   1   2
ATOM      2  C   UNL     1      12.370   2.248  56.333  1.00  0.00     0.000 C 
BRANCH   2   3
ATOM      3  C   UNL     1      12.955   1.542  57.567  1.00  0.00     0.000 C 
BRANCH   3   4
ATOM      4  C   UNL     1      13.354   2.529  58.677  1.00  0.00     0.000 C 
BRANCH   4   5
ATOM      5  C   UNL     1      13.673   1.828  60.006  1.00  0.00     0.000 C 
BRANCH   5   6
ATOM      6  C   UNL     1      14.570   0.591  59.820  1.00  0.00     0.000 C 
BRANCH   6   7
ATOM      7  C   UNL     1      16.056   0.884  60.089  1.00  0.00     0.000 C 
BRANCH   7   8
ATOM      8  C   UNL     1      16.995  -0.277  59.694  1.00  0.00     0.000 C 
BRANCH   8   9
ATOM      9  C   UNL     1      17.678  -0.033  58.339  1.00  0.00     0.000 C 
BRANCH   9  10
ATOM     10  C   UNL     1      16.775  -0.373  57.137  1.00  0.00     0.000 C 
BRANCH  10  11
ATOM     11  C   UNL     1      16.786   0.663  55.999  1.00  0.00     0.000 C 
BRANCH  11  12
ATOM     12  C   UNL     1      16.190   2.019  56.414  1.00  0.00     0.006 C 
BRANCH  12  13
ATOM     13  C   UNL     1      15.959   2.943  55.212  1.00  0.00     0.053 C 
BRANCH  13  14
ATOM     14  C   UNL     1      15.085   4.109  55.567  1.00  0.00     0.041 C 
ATOM     15  O   UNL     1      15.390   4.854  56.536  1.00  0.00    -0.550 OA
ATOM     16  O   UNL     1      13.920   4.351  54.850  1.00  0.00    -0.550 OA
ENDBRANCH  13  14
ENDBRANCH  12  13
ENDBRANCH  11  12
ENDBRANCH  10  11
ENDBRANCH   9  10
ENDBRANCH   8   9
ENDBRANCH   7   8
ENDBRANCH   6   7
ENDBRANCH   5   6
ENDBRANCH   4   5
ENDBRANCH   3   4
ENDBRANCH   2   3
ENDBRANCH   1   2
BRANCH   1  17
ATOM     17  C   UNL     1      10.480   3.734  55.437  1.00  0.00     0.000 C 
BRANCH  17  18
ATOM     18  C   UNL     1       9.504   4.884  55.750  1.00  0.00     0.000 C 
BRANCH  18  19
ATOM     19  C   UNL     1      10.069   6.295  55.513  1.00  0.00     0.000 C 
BRANCH  19  20
ATOM     20  C   UNL     1      10.802   6.421  54.169  1.00  0.00     0.000 C 
BRANCH  20  21
ATOM     21  C   UNL     1      11.529   7.770  54.059  1.00  0.00     0.000 C 
BRANCH  21  22
ATOM     22  C   UNL     1      11.191   8.723  55.219  1.00  0.00    -0.000 C 
BRANCH  22  23
ATOM     23  C   UNL     1      10.216   9.838  54.799  1.00  0.00    -0.000 C 
BRANCH  23  24
ATOM     24  C   UNL     1       9.049  10.009  55.788  1.00  0.00    -0.000 C 
BRANCH  24  25
ATOM     25  C   UNL     1       7.679   9.556  55.250  1.00  0.00    -0.000 C 
BRANCH  25  26
ATOM     26  C   UNL     1       7.800   8.676  53.993  1.00  0.00    -0.000 C 
BRANCH  26  27
ATOM     27  C   UNL     1       6.942   9.187  52.819  1.00  0.00    -0.000 C 
BRANCH  27  28
ATOM     28  C   UNL     1       7.591   9.062  51.426  1.00  0.00    -0.000 C 
BRANCH  28  29
ATOM     29  C   UNL     1       9.126   8.950  51.427  1.00  0.00    -0.003 C 
ATOM     30  C   UNL     1       9.635   7.743  50.638  1.00  0.00     0.004 C 
ENDBRANCH  28  29
ENDBRANCH  27  28
ENDBRANCH  26  27
ENDBRANCH  25  26
ENDBRANCH  24  25
ENDBRANCH  23  24
ENDBRANCH  22  23
ENDBRANCH  21  22
ENDBRANCH  20  21
ENDBRANCH  19  20
ENDBRANCH  18  19
ENDBRANCH  17  18
ENDBRANCH   1  17
TORSDOF 26
ENDMDL
MODEL 3
REMARK VINA RESULT:    -3.863      2.462      8.931
REMARK INTER + INTRA:         -13.123
REMARK INTER:                 -10.492
REMARK INTRA:                  -2.631
REMARK UNBOUND:                -3.389
REMARK SMILES CCCCCCCCCCCCCCCCCCCCCCCCCCCC(=O)[O-]
REMARK SMILES IDX 15 1 16 2 17 3 18 4 19 5 20 6 21 7 22 8 23 9 24 10 25 11
REMARK SMILES IDX 26 12 27 13 28 14 29 15 30 16 14 17 13 18 12 19 11 20 10 21
REMARK SMILES IDX 9 22 8 23 7 24 6 25 5 26 4 27 3 28 2 29 1 30
REMARK H PARENT
REMARK Flexibility Score: inf
ROOT
ATOM      1  C   UNL     1      11.007   4.705  56.949  1.00  0.00     0.000 C 
ENDROOT
BRANCH   1   2
ATOM      2  C   UNL     1      11.795   3.386  56.862  1.00  0.00     0.000 C 
BRANCH   2   3
ATOM      3  C   UNL     1      12.619   3.112  58.131  1.00  0.00     0.000 C 
BRANCH   3   4
ATOM      4  C   UNL     1      13.457   1.825  58.024  1.00  0.00     0.000 C 
BRANCH   4   5
ATOM      5  C   UNL     1      13.572   1.081  59.363  1.00  0.00     0.000 C 
BRANCH   5   6
ATOM      6  C   UNL     1      14.955   1.252  60.016  1.00  0.00     0.000 C 
BRANCH   6   7
ATOM      7  C   UNL     1      15.733  -0.070  60.125  1.00  0.00     0.000 C 
BRANCH   7   8
ATOM      8  C   UNL     1      17.257   0.094  59.943  1.00  0.00     0.000 C 
BRANCH   8   9
ATOM      9  C   UNL     1      17.656   0.188  58.460  1.00  0.00     0.000 C 
BRANCH   9  10
ATOM     10  C   UNL     1      16.467  -0.011  57.501  1.00  0.00     0.000 C 
BRANCH  10  11
ATOM     11  C   UNL     1      16.814   0.077  56.004  1.00  0.00     0.000 C 
BRANCH  11  12
ATOM     12  C   UNL     1      16.150   1.274  55.302  1.00  0.00     0.006 C 
BRANCH  12  13
ATOM     13  C   UNL     1      16.490   2.606  55.983  1.00  0.00     0.053 C 
BRANCH  13  14
ATOM     14  C   UNL     1      15.430   3.639  55.745  1.00  0.00     0.041 C 
ATOM     15  O   UNL     1      15.522   4.774  56.284  1.00  0.00    -0.550 OA
ATOM     16  O   UNL     1      14.327   3.337  54.956  1.00  0.00    -0.550 OA
ENDBRANCH  13  14
ENDBRANCH  12  13
ENDBRANCH  11  12
ENDBRANCH  10  11
ENDBRANCH   9  10
ENDBRANCH   8   9
ENDBRANCH   7   8
ENDBRANCH   6   7
ENDBRANCH   5   6
ENDBRANCH   4   5
ENDBRANCH   3   4
ENDBRANCH   2   3
ENDBRANCH   1   2
BRANCH   1  17
ATOM     17  C   UNL     1       9.626   4.619  56.266  1.00  0.00     0.000 C 
BRANCH  17  18
ATOM     18  C   UNL     1       9.230   5.897  55.502  1.00  0.00     0.000 C 
BRANCH  18  19
ATOM     19  C   UNL     1       9.912   7.183  55.996  1.00  0.00     0.000 C 
BRANCH  19  20
ATOM     20  C   UNL     1       9.575   8.404  55.127  1.00  0.00     0.000 C 
BRANCH  20  21
ATOM     21  C   UNL     1       8.062   8.673  55.110  1.00  0.00     0.000 C 
BRANCH  21  22
ATOM     22  C   UNL     1       7.629   9.558  53.930  1.00  0.00    -0.000 C 
BRANCH  22  23
ATOM     23  C   UNL     1       8.675   9.586  52.801  1.00  0.00    -0.000 C 
BRANCH  23  24
ATOM     24  C   UNL     1       8.366   8.578  51.679  1.00  0.00    -0.000 C 
BRANCH  24  25
ATOM     25  C   UNL     1       9.608   7.947  51.022  1.00  0.00    -0.000 C 
BRANCH  25  26
ATOM     26  C   UNL     1      10.296   6.912  51.929  1.00  0.00    -0.000 C 
BRANCH  26  27
ATOM     27  C   UNL     1      11.521   7.483  52.668  1.00  0.00    -0.000 C 
BRANCH  27  28
ATOM     28  C   UNL     1      12.354   6.452  53.458  1.00  0.00    -0.000 C 
BRANCH  28  29
ATOM     29  C   UNL     1      12.522   5.084  52.771  1.00  0.00    -0.003 C 
ATOM     30  C   UNL     1      11.413   4.097  53.136  1.00  0.00     0.004 C 
ENDBRANCH  28  29
ENDBRANCH  27  28
ENDBRANCH  26  27
ENDBRANCH  25  26
ENDBRANCH  24  25
ENDBRANCH  23  24
ENDBRANCH  22  23
ENDBRANCH  21  22
ENDBRANCH  20  21
ENDBRANCH  19  20
ENDBRANCH  18  19
ENDBRANCH  17  18
ENDBRANCH   1  17
TORSDOF 26
ENDMDL
MODEL 4
REMARK VINA RESULT:    -3.819      1.974      7.587
REMARK INTER + INTRA:         -13.013
REMARK INTER:                 -10.355
REMARK INTRA:                  -2.658
REMARK UNBOUND:                -3.389
REMARK SMILES CCCCCCCCCCCCCCCCCCCCCCCCCCCC(=O)[O-]
REMARK SMILES IDX 15 1 16 2 17 3 18 4 19 5 20 6 21 7 22 8 23 9 24 10 25 11
REMARK SMILES IDX 26 12 27 13 28 14 29 15 30 16 14 17 13 18 12 19 11 20 10 21
REMARK SMILES IDX 9 22 8 23 7 24 6 25 5 26 4 27 3 28 2 29 1 30
REMARK H PARENT
REMARK Flexibility Score: inf
ROOT
ATOM      1  C   UNL     1      16.172   1.258  55.414  1.00  0.00     0.000 C 
ENDROOT
BRANCH   1   2
ATOM      2  C   UNL     1      15.890   0.216  56.512  1.00  0.00     0.000 C 
BRANCH   2   3
ATOM      3  C   UNL     1      15.248   0.842  57.761  1.00  0.00     0.000 C 
BRANCH   3   4
ATOM      4  C   UNL     1      13.799   1.296  57.515  1.00  0.00     0.000 C 
BRANCH   4   5
ATOM      5  C   UNL     1      13.260   2.193  58.640  1.00  0.00     0.000 C 
BRANCH   5   6
ATOM      6  C   UNL     1      12.669   3.511  58.109  1.00  0.00     0.000 C 
BRANCH   6   7
ATOM      7  C   UNL     1      11.357   3.309  57.333  1.00  0.00     0.000 C 
BRANCH   7   8
ATOM      8  C   UNL     1      10.723   4.627  56.837  1.00  0.00     0.000 C 
BRANCH   8   9
ATOM      9  C   UNL     1       9.787   4.403  55.638  1.00  0.00     0.000 C 
BRANCH   9  10
ATOM     10  C   UNL     1       9.256   5.717  55.033  1.00  0.00     0.000 C 
BRANCH  10  11
ATOM     11  C   UNL     1       9.142   6.892  56.022  1.00  0.00     0.000 C 
BRANCH  11  12
ATOM     12  C   UNL     1       8.503   8.144  55.397  1.00  0.00     0.006 C 
BRANCH  12  13
ATOM     13  C   UNL     1       9.526   9.001  54.641  1.00  0.00     0.053 C 
BRANCH  13  14
ATOM     14  C   UNL     1      10.700   9.356  55.503  1.00  0.00     0.041 C 
ATOM     15  O   UNL     1      10.523   9.987  56.580  1.00  0.00    -0.550 OA
ATOM     16  O   UNL     1      11.987   9.021  55.102  1.00  0.00    -0.550 OA
ENDBRANCH  13  14
ENDBRANCH  12  13
ENDBRANCH  11  12
ENDBRANCH  10  11
ENDBRANCH   9  10
ENDBRANCH   8   9
ENDBRANCH   7   8
ENDBRANCH   6   7
ENDBRANCH   5   6
ENDBRANCH   4   5
ENDBRANCH   3   4
ENDBRANCH   2   3
ENDBRANCH   1   2
BRANCH   1  17
ATOM     17  C   UNL     1      16.672   2.602  55.983  1.00  0.00     0.000 C 
BRANCH  17  18
ATOM     18  C   UNL     1      15.703   3.776  55.747  1.00  0.00     0.000 C 
BRANCH  18  19
ATOM     19  C   UNL     1      14.495   3.447  54.853  1.00  0.00     0.000 C 
BRANCH  19  20
ATOM     20  C   UNL     1      13.423   4.547  54.879  1.00  0.00     0.000 C 
BRANCH  20  21
ATOM     21  C   UNL     1      12.654   4.603  53.550  1.00  0.00     0.000 C 
BRANCH  21  22
ATOM     22  C   UNL     1      12.468   6.039  53.031  1.00  0.00    -0.000 C 
BRANCH  22  23
ATOM     23  C   UNL     1      11.027   6.315  52.567  1.00  0.00    -0.000 C 
BRANCH  23  24
ATOM     24  C   UNL     1      10.918   7.565  51.677  1.00  0.00    -0.000 C 
BRANCH  24  25
ATOM     25  C   UNL     1       9.498   7.867  51.162  1.00  0.00    -0.000 C 
BRANCH  25  26
ATOM     26  C   UNL     1       9.312   9.344  50.773  1.00  0.00    -0.000 C 
BRANCH  26  27
ATOM     27  C   UNL     1       9.849   9.666  49.366  1.00  0.00    -0.000 C 
BRANCH  27  28
ATOM     28  C   UNL     1      10.251   8.442  48.518  1.00  0.00    -0.000 C 
BRANCH  28  29
ATOM     29  C   UNL     1      11.045   8.765  47.239  1.00  0.00    -0.003 C 
ATOM     30  C   UNL     1      10.672  10.119  46.634  1.00  0.00     0.004 C 
ENDBRANCH  28  29
ENDBRANCH  27  28
ENDBRANCH  26  27
ENDBRANCH  25  26
ENDBRANCH  24  25
ENDBRANCH  23  24
ENDBRANCH  22  23
ENDBRANCH  21  22
ENDBRANCH  20  21
ENDBRANCH  19  20
ENDBRANCH  18  19
ENDBRANCH  17  18
ENDBRANCH   1  17
TORSDOF 26
ENDMDL
MODEL 5
REMARK VINA RESULT:    -3.807      1.345      2.050
REMARK INTER + INTRA:         -12.984
REMARK INTER:                 -10.815
REMARK INTRA:                  -2.168
REMARK UNBOUND:                -3.389
REMARK SMILES CCCCCCCCCCCCCCCCCCCCCCCCCCCC(=O)[O-]
REMARK SMILES IDX 15 1 16 2 17 3 18 4 19 5 20 6 21 7 22 8 23 9 24 10 25 11
REMARK SMILES IDX 26 12 27 13 28 14 29 15 30 16 14 17 13 18 12 19 11 20 10 21
REMARK SMILES IDX 9 22 8 23 7 24 6 25 5 26 4 27 3 28 2 29 1 30
REMARK H PARENT
REMARK Flexibility Score: inf
ROOT
ATOM      1  C   UNL     1      12.040   4.059  53.981  1.00  0.00     0.000 C 
ENDROOT
BRANCH   1   2
ATOM      2  C   UNL     1      12.472   4.834  52.723  1.00  0.00     0.000 C 
BRANCH   2   3
ATOM      3  C   UNL     1      11.302   5.588  52.069  1.00  0.00     0.000 C 
BRANCH   3   4
ATOM      4  C   UNL     1      11.367   7.105  52.316  1.00  0.00     0.000 C 
BRANCH   4   5
ATOM      5  C   UNL     1      11.640   7.455  53.787  1.00  0.00     0.000 C 
BRANCH   5   6
ATOM      6  C   UNL     1      10.398   8.020  54.498  1.00  0.00     0.000 C 
BRANCH   6   7
ATOM      7  C   UNL     1      10.531   9.514  54.839  1.00  0.00     0.000 C 
BRANCH   7   8
ATOM      8  C   UNL     1       9.515   9.999  55.895  1.00  0.00     0.000 C 
BRANCH   8   9
ATOM      9  C   UNL     1       8.195   9.212  55.834  1.00  0.00     0.000 C 
BRANCH   9  10
ATOM     10  C   UNL     1       7.135   9.880  54.938  1.00  0.00     0.000 C 
BRANCH  10  11
ATOM     11  C   UNL     1       6.875   9.173  53.595  1.00  0.00     0.000 C 
BRANCH  11  12
ATOM     12  C   UNL     1       7.101  10.088  52.379  1.00  0.00     0.006 C 
BRANCH  12  13
ATOM     13  C   UNL     1       7.518   9.301  51.131  1.00  0.00     0.053 C 
BRANCH  13  14
ATOM     14  C   UNL     1       9.007   9.286  50.955  1.00  0.00     0.041 C 
ATOM     15  O   UNL     1       9.725  10.110  51.582  1.00  0.00    -0.550 OA
ATOM     16  O   UNL     1       9.597   8.385  50.077  1.00  0.00    -0.550 OA
ENDBRANCH  13  14
ENDBRANCH  12  13
ENDBRANCH  11  12
ENDBRANCH  10  11
ENDBRANCH   9  10
ENDBRANCH   8   9
ENDBRANCH   7   8
ENDBRANCH   6   7
ENDBRANCH   5   6
ENDBRANCH   4   5
ENDBRANCH   3   4
ENDBRANCH   2   3
ENDBRANCH   1   2
BRANCH   1  17
ATOM     17  C   UNL     1      10.944   3.014  53.689  1.00  0.00     0.000 C 
BRANCH  17  18
ATOM     18  C   UNL     1       9.648   3.229  54.495  1.00  0.00     0.000 C 
BRANCH  18  19
ATOM     19  C   UNL     1       9.530   4.605  55.172  1.00  0.00     0.000 C 
BRANCH  19  20
ATOM     20  C   UNL     1       9.580   4.516  56.705  1.00  0.00     0.000 C 
BRANCH  20  21
ATOM     21  C   UNL     1      10.968   4.907  57.237  1.00  0.00     0.000 C 
BRANCH  21  22
ATOM     22  C   UNL     1      11.914   3.701  57.369  1.00  0.00    -0.000 C 
BRANCH  22  23
ATOM     23  C   UNL     1      13.227   3.895  56.589  1.00  0.00    -0.000 C 
BRANCH  23  24
ATOM     24  C   UNL     1      14.071   2.610  56.517  1.00  0.00    -0.000 C 
BRANCH  24  25
ATOM     25  C   UNL     1      15.592   2.833  56.619  1.00  0.00    -0.000 C 
BRANCH  25  26
ATOM     26  C   UNL     1      16.372   2.095  55.518  1.00  0.00    -0.000 C 
BRANCH  26  27
ATOM     27  C   UNL     1      16.330   0.563  55.677  1.00  0.00    -0.000 C 
BRANCH  27  28
ATOM     28  C   UNL     1      16.490   0.046  57.122  1.00  0.00    -0.000 C 
BRANCH  28  29
ATOM     29  C   UNL     1      17.842   0.364  57.784  1.00  0.00    -0.003 C 
ATOM     30  C   UNL     1      18.040  -0.366  59.113  1.00  0.00     0.004 C 
ENDBRANCH  28  29
ENDBRANCH  27  28
ENDBRANCH  26  27
ENDBRANCH  25  26
ENDBRANCH  24  25
ENDBRANCH  23  24
ENDBRANCH  22  23
ENDBRANCH  21  22
ENDBRANCH  20  21
ENDBRANCH  19  20
ENDBRANCH  18  19
ENDBRANCH  17  18
ENDBRANCH   1  17
TORSDOF 26
ENDMDL
MODEL 6
REMARK VINA RESULT:    -3.744      1.747      3.383
REMARK INTER + INTRA:         -12.825
REMARK INTER:                  -9.636
REMARK INTRA:                  -3.189
REMARK UNBOUND:                -3.389
REMARK SMILES CCCCCCCCCCCCCCCCCCCCCCCCCCCC(=O)[O-]
REMARK SMILES IDX 15 1 16 2 17 3 18 4 19 5 20 6 21 7 22 8 23 9 24 10 25 11
REMARK SMILES IDX 26 12 27 13 28 14 29 15 30 16 14 17 13 18 12 19 11 20 10 21
REMARK SMILES IDX 9 22 8 23 7 24 6 25 5 26 4 27 3 28 2 29 1 30
REMARK H PARENT
REMARK Flexibility Score: inf
ROOT
ATOM      1  C   UNL     1      11.698   4.624  52.644  1.00  0.00     0.000 C 
ENDROOT
BRANCH   1   2
ATOM      2  C   UNL     1      12.496   5.916  52.390  1.00  0.00     0.000 C 
BRANCH   2   3
ATOM      3  C   UNL     1      11.676   7.180  52.697  1.00  0.00     0.000 C 
BRANCH   3   4
ATOM      4  C   UNL     1      10.541   7.408  51.684  1.00  0.00     0.000 C 
BRANCH   4   5
ATOM      5  C   UNL     1       9.890   8.792  51.825  1.00  0.00     0.000 C 
BRANCH   5   6
ATOM      6  C   UNL     1       8.976   9.137  50.636  1.00  0.00     0.000 C 
BRANCH   6   7
ATOM      7  C   UNL     1       7.556   9.540  51.070  1.00  0.00     0.000 C 
BRANCH   7   8
ATOM      8  C   UNL     1       7.116   8.907  52.407  1.00  0.00     0.000 C 
BRANCH   8   9
ATOM      9  C   UNL     1       6.875   9.965  53.497  1.00  0.00     0.000 C 
BRANCH   9  10
ATOM     10  C   UNL     1       6.882   9.378  54.921  1.00  0.00     0.000 C 
BRANCH  10  11
ATOM     11  C   UNL     1       8.167   9.637  55.728  1.00  0.00     0.000 C 
BRANCH  11  12
ATOM     12  C   UNL     1       9.441   9.191  54.991  1.00  0.00     0.006 C 
BRANCH  12  13
ATOM     13  C   UNL     1      10.100   7.976  55.656  1.00  0.00     0.053 C 
BRANCH  13  14
ATOM     14  C   UNL     1       9.315   6.721  55.423  1.00  0.00     0.041 C 
ATOM     15  O   UNL     1       8.816   6.489  54.289  1.00  0.00    -0.550 OA
ATOM     16  O   UNL     1       9.106   5.825  56.464  1.00  0.00    -0.550 OA
ENDBRANCH  13  14
ENDBRANCH  12  13
ENDBRANCH  11  12
ENDBRANCH  10  11
ENDBRANCH   9  10
ENDBRANCH   8   9
ENDBRANCH   7   8
ENDBRANCH   6   7
ENDBRANCH   5   6
ENDBRANCH   4   5
ENDBRANCH   3   4
ENDBRANCH   2   3
ENDBRANCH   1   2
BRANCH   1  17
ATOM     17  C   UNL     1      12.285   3.781  53.795  1.00  0.00     0.000 C 
BRANCH  17  18
ATOM     18  C   UNL     1      11.262   3.432  54.894  1.00  0.00     0.000 C 
BRANCH  18  19
ATOM     19  C   UNL     1      11.709   3.775  56.325  1.00  0.00     0.000 C 
BRANCH  19  20
ATOM     20  C   UNL     1      12.067   2.528  57.148  1.00  0.00     0.000 C 
BRANCH  20  21
ATOM     21  C   UNL     1      12.358   2.896  58.612  1.00  0.00     0.000 C 
BRANCH  21  22
ATOM     22  C   UNL     1      13.831   2.677  58.997  1.00  0.00    -0.000 C 
BRANCH  22  23
ATOM     23  C   UNL     1      14.073   1.300  59.641  1.00  0.00    -0.000 C 
BRANCH  23  24
ATOM     24  C   UNL     1      15.254   0.545  59.005  1.00  0.00    -0.000 C 
BRANCH  24  25
ATOM     25  C   UNL     1      15.230   0.492  57.466  1.00  0.00    -0.000 C 
BRANCH  25  26
ATOM     26  C   UNL     1      16.624   0.693  56.847  1.00  0.00    -0.000 C 
BRANCH  26  27
ATOM     27  C   UNL     1      16.648   1.793  55.768  1.00  0.00    -0.000 C 
BRANCH  27  28
ATOM     28  C   UNL     1      15.354   2.625  55.647  1.00  0.00    -0.000 C 
BRANCH  28  29
ATOM     29  C   UNL     1      15.566   4.126  55.382  1.00  0.00    -0.003 C 
ATOM     30  C   UNL     1      14.820   5.016  56.377  1.00  0.00     0.004 C 
ENDBRANCH  28  29
ENDBRANCH  27  28
ENDBRANCH  26  27
ENDBRANCH  25  26
ENDBRANCH  24  25
ENDBRANCH  23  24
ENDBRANCH  22  23
ENDBRANCH  21  22
ENDBRANCH  20  21
ENDBRANCH  19  20
ENDBRANCH  18  19
ENDBRANCH  17  18
ENDBRANCH   1  17
TORSDOF 26
ENDMDL
MODEL 7
REMARK VINA RESULT:    -3.651      2.712      9.414
REMARK INTER + INTRA:         -12.590
REMARK INTER:                  -9.991
REMARK INTRA:                  -2.599
REMARK UNBOUND:                -3.389
REMARK SMILES CCCCCCCCCCCCCCCCCCCCCCCCCCCC(=O)[O-]
REMARK SMILES IDX 15 1 16 2 17 3 18 4 19 5 20 6 21 7 22 8 23 9 24 10 25 11
REMARK SMILES IDX 26 12 27 13 28 14 29 15 30 16 14 17 13 18 12 19 11 20 10 21
REMARK SMILES IDX 9 22 8 23 7 24 6 25 5 26 4 27 3 28 2 29 1 30
REMARK H PARENT
REMARK Flexibility Score: inf
ROOT
ATOM      1  C   UNL     1      12.362   4.145  54.824  1.00  0.00     0.000 C 
ENDROOT
BRANCH   1   2
ATOM      2  C   UNL     1      12.980   4.508  56.187  1.00  0.00     0.000 C 
BRANCH   2   3
ATOM      3  C   UNL     1      12.580   3.518  57.293  1.00  0.00     0.000 C 
BRANCH   3   4
ATOM      4  C   UNL     1      12.669   2.052  56.835  1.00  0.00     0.000 C 
BRANCH   4   5
ATOM      5  C   UNL     1      13.225   1.124  57.925  1.00  0.00     0.000 C 
BRANCH   5   6
ATOM      6  C   UNL     1      13.967   1.893  59.032  1.00  0.00     0.000 C 
BRANCH   6   7
ATOM      7  C   UNL     1      14.534   0.971  60.125  1.00  0.00     0.000 C 
BRANCH   7   8
ATOM      8  C   UNL     1      15.520  -0.089  59.588  1.00  0.00     0.000 C 
BRANCH   8   9
ATOM      9  C   UNL     1      16.975   0.406  59.617  1.00  0.00     0.000 C 
BRANCH   9  10
ATOM     10  C   UNL     1      17.753   0.072  58.330  1.00  0.00     0.000 C 
BRANCH  10  11
ATOM     11  C   UNL     1      16.930  -0.632  57.235  1.00  0.00     0.000 C 
BRANCH  11  12
ATOM     12  C   UNL     1      16.632   0.277  56.029  1.00  0.00     0.006 C 
BRANCH  12  13
ATOM     13  C   UNL     1      16.121   1.658  56.457  1.00  0.00     0.053 C 
BRANCH  13  14
ATOM     14  C   UNL     1      16.285   2.674  55.367  1.00  0.00     0.041 C 
ATOM     15  O   UNL     1      15.794   3.827  55.499  1.00  0.00    -0.550 OA
ATOM     16  O   UNL     1      16.951   2.338  54.195  1.00  0.00    -0.550 OA
ENDBRANCH  13  14
ENDBRANCH  12  13
ENDBRANCH  11  12
ENDBRANCH  10  11
ENDBRANCH   9  10
ENDBRANCH   8   9
ENDBRANCH   7   8
ENDBRANCH   6   7
ENDBRANCH   5   6
ENDBRANCH   4   5
ENDBRANCH   3   4
ENDBRANCH   2   3
ENDBRANCH   1   2
BRANCH   1  17
ATOM     17  C   UNL     1      12.610   5.227  53.752  1.00  0.00     0.000 C 
BRANCH  17  18
ATOM     18  C   UNL     1      11.361   5.573  52.918  1.00  0.00     0.000 C 
BRANCH  18  19
ATOM     19  C   UNL     1      11.420   6.932  52.201  1.00  0.00     0.000 C 
BRANCH  19  20
ATOM     20  C   UNL     1      10.043   7.401  51.708  1.00  0.00     0.000 C 
BRANCH  20  21
ATOM     21  C   UNL     1       9.867   8.914  51.911  1.00  0.00     0.000 C 
BRANCH  21  22
ATOM     22  C   UNL     1       8.772   9.511  51.010  1.00  0.00    -0.000 C 
BRANCH  22  23
ATOM     23  C   UNL     1       7.355   9.162  51.498  1.00  0.00    -0.000 C 
BRANCH  23  24
ATOM     24  C   UNL     1       7.343   8.575  52.921  1.00  0.00    -0.000 C 
BRANCH  24  25
ATOM     25  C   UNL     1       7.134   9.611  54.042  1.00  0.00    -0.000 C 
BRANCH  25  26
ATOM     26  C   UNL     1       7.793   9.188  55.367  1.00  0.00    -0.000 C 
BRANCH  26  27
ATOM     27  C   UNL     1       9.328   9.316  55.341  1.00  0.00    -0.000 C 
BRANCH  27  28
ATOM     28  C   UNL     1      10.103   7.994  55.512  1.00  0.00    -0.000 C 
BRANCH  28  29
ATOM     29  C   UNL     1       9.295   6.719  55.205  1.00  0.00    -0.003 C 
ATOM     30  C   UNL     1       9.342   5.698  56.343  1.00  0.00     0.004 C 
ENDBRANCH  28  29
ENDBRANCH  27  28
ENDBRANCH  26  27
ENDBRANCH  25  26
ENDBRANCH  24  25
ENDBRANCH  23  24
ENDBRANCH  22  23
ENDBRANCH  21  22
ENDBRANCH  20  21
ENDBRANCH  19  20
ENDBRANCH  18  19
ENDBRANCH  17  18
ENDBRANCH   1  17
TORSDOF 26
ENDMDL
MODEL 8
REMARK VINA RESULT:    -3.636      2.883      9.419
REMARK INTER + INTRA:         -12.551
REMARK INTER:                 -10.620
REMARK INTRA:                  -1.932
REMARK UNBOUND:                -3.389
REMARK SMILES CCCCCCCCCCCCCCCCCCCCCCCCCCCC(=O)[O-]
REMARK SMILES IDX 15 1 16 2 17 3 18 4 19 5 20 6 21 7 22 8 23 9 24 10 25 11
REMARK SMILES IDX 26 12 27 13 28 14 29 15 30 16 14 17 13 18 12 19 11 20 10 21
REMARK SMILES IDX 9 22 8 23 7 24 6 25 5 26 4 27 3 28 2 29 1 30
REMARK H PARENT
REMARK Flexibility Score: inf
ROOT
ATOM      1  C   UNL     1       9.630   5.335  55.123  1.00  0.00     0.000 C 
ENDROOT
BRANCH   1   2
ATOM      2  C   UNL     1       9.960   4.176  56.082  1.00  0.00     0.000 C 
BRANCH   2   3
ATOM      3  C   UNL     1      11.473   3.989  56.276  1.00  0.00     0.000 C 
BRANCH   3   4
ATOM      4  C   UNL     1      11.810   3.180  57.541  1.00  0.00     0.000 C 
BRANCH   4   5
ATOM      5  C   UNL     1      13.298   2.803  57.623  1.00  0.00     0.000 C 
BRANCH   5   6
ATOM      6  C   UNL     1      13.518   1.402  58.221  1.00  0.00     0.000 C 
BRANCH   6   7
ATOM      7  C   UNL     1      13.964   1.443  59.693  1.00  0.00     0.000 C 
BRANCH   7   8
ATOM      8  C   UNL     1      14.921   0.295  60.080  1.00  0.00     0.000 C 
BRANCH   8   9
ATOM      9  C   UNL     1      16.389   0.754  60.114  1.00  0.00     0.000 C 
BRANCH   9  10
ATOM     10  C   UNL     1      17.351  -0.250  59.451  1.00  0.00     0.000 C 
BRANCH  10  11
ATOM     11  C   UNL     1      17.611  -0.013  57.952  1.00  0.00     0.000 C 
BRANCH  11  12
ATOM     12  C   UNL     1      16.367  -0.256  57.080  1.00  0.00     0.006 C 
BRANCH  12  13
ATOM     13  C   UNL     1      16.508   0.364  55.684  1.00  0.00     0.053 C 
BRANCH  13  14
ATOM     14  C   UNL     1      16.457   1.861  55.732  1.00  0.00     0.041 C 
ATOM     15  O   UNL     1      15.376   2.464  55.496  1.00  0.00    -0.550 OA
ATOM     16  O   UNL     1      17.607   2.590  56.006  1.00  0.00    -0.550 OA
ENDBRANCH  13  14
ENDBRANCH  12  13
ENDBRANCH  11  12
ENDBRANCH  10  11
ENDBRANCH   9  10
ENDBRANCH   8   9
ENDBRANCH   7   8
ENDBRANCH   6   7
ENDBRANCH   5   6
ENDBRANCH   4   5
ENDBRANCH   3   4
ENDBRANCH   2   3
ENDBRANCH   1   2
BRANCH   1  17
ATOM     17  C   UNL     1       9.105   6.584  55.859  1.00  0.00     0.000 C 
BRANCH  17  18
ATOM     18  C   UNL     1       8.584   7.688  54.918  1.00  0.00     0.000 C 
BRANCH  18  19
ATOM     19  C   UNL     1       7.587   8.667  55.560  1.00  0.00     0.000 C 
BRANCH  19  20
ATOM     20  C   UNL     1       7.086   9.733  54.574  1.00  0.00     0.000 C 
BRANCH  20  21
ATOM     21  C   UNL     1       8.115   9.986  53.461  1.00  0.00     0.000 C 
BRANCH  21  22
ATOM     22  C   UNL     1       7.605   9.561  52.074  1.00  0.00    -0.000 C 
BRANCH  22  23
ATOM     23  C   UNL     1       8.632   9.836  50.960  1.00  0.00    -0.000 C 
BRANCH  23  24
ATOM     24  C   UNL     1       9.578   8.647  50.717  1.00  0.00    -0.000 C 
BRANCH  24  25
ATOM     25  C   UNL     1       9.708   7.674  51.904  1.00  0.00    -0.000 C 
BRANCH  25  26
ATOM     26  C   UNL     1      11.125   7.089  52.036  1.00  0.00    -0.000 C 
BRANCH  26  27
ATOM     27  C   UNL     1      11.773   7.390  53.400  1.00  0.00    -0.000 C 
BRANCH  27  28
ATOM     28  C   UNL     1      11.604   8.838  53.906  1.00  0.00    -0.000 C 
BRANCH  28  29
ATOM     29  C   UNL     1      11.840   9.036  55.414  1.00  0.00    -0.003 C 
ATOM     30  C   UNL     1      10.934  10.106  56.023  1.00  0.00     0.004 C 
ENDBRANCH  28  29
ENDBRANCH  27  28
ENDBRANCH  26  27
ENDBRANCH  25  26
ENDBRANCH  24  25
ENDBRANCH  23  24
ENDBRANCH  22  23
ENDBRANCH  21  22
ENDBRANCH  20  21
ENDBRANCH  19  20
ENDBRANCH  18  19
ENDBRANCH  17  18
ENDBRANCH   1  17
TORSDOF 26
ENDMDL
MODEL 9
REMARK VINA RESULT:    -3.550      2.471      9.236
REMARK INTER + INTRA:         -12.336
REMARK INTER:                  -9.851
REMARK INTRA:                  -2.485
REMARK UNBOUND:                -3.389
REMARK SMILES CCCCCCCCCCCCCCCCCCCCCCCCCCCC(=O)[O-]
REMARK SMILES IDX 15 1 16 2 17 3 18 4 19 5 20 6 21 7 22 8 23 9 24 10 25 11
REMARK SMILES IDX 26 12 27 13 28 14 29 15 30 16 14 17 13 18 12 19 11 20 10 21
REMARK SMILES IDX 9 22 8 23 7 24 6 25 5 26 4 27 3 28 2 29 1 30
REMARK H PARENT
REMARK Flexibility Score: inf
ROOT
ATOM      1  C   UNL     1      11.986   3.046  56.864  1.00  0.00     0.000 C 
ENDROOT
BRANCH   1   2
ATOM      2  C   UNL     1      12.051   3.746  58.234  1.00  0.00     0.000 C 
BRANCH   2   3
ATOM      3  C   UNL     1      13.049   3.071  59.189  1.00  0.00     0.000 C 
BRANCH   3   4
ATOM      4  C   UNL     1      13.630   1.768  58.612  1.00  0.00     0.000 C 
BRANCH   4   5
ATOM      5  C   UNL     1      14.054   0.774  59.704  1.00  0.00     0.000 C 
BRANCH   5   6
ATOM      6  C   UNL     1      15.527   0.943  60.115  1.00  0.00     0.000 C 
BRANCH   6   7
ATOM      7  C   UNL     1      16.344  -0.351  59.963  1.00  0.00     0.000 C 
BRANCH   7   8
ATOM      8  C   UNL     1      17.775  -0.120  59.432  1.00  0.00     0.000 C 
BRANCH   8   9
ATOM      9  C   UNL     1      17.776   0.448  58.003  1.00  0.00     0.000 C 
BRANCH   9  10
ATOM     10  C   UNL     1      16.723  -0.209  57.091  1.00  0.00     0.000 C 
BRANCH  10  11
ATOM     11  C   UNL     1      15.753   0.769  56.405  1.00  0.00     0.000 C 
BRANCH  11  12
ATOM     12  C   UNL     1      16.417   1.588  55.284  1.00  0.00     0.006 C 
BRANCH  12  13
ATOM     13  C   UNL     1      16.574   3.066  55.660  1.00  0.00     0.053 C 
BRANCH  13  14
ATOM     14  C   UNL     1      15.255   3.777  55.684  1.00  0.00     0.041 C 
ATOM     15  O   UNL     1      14.331   3.420  54.905  1.00  0.00    -0.550 OA
ATOM     16  O   UNL     1      15.057   4.853  56.540  1.00  0.00    -0.550 OA
ENDBRANCH  13  14
ENDBRANCH  12  13
ENDBRANCH  11  12
ENDBRANCH  10  11
ENDBRANCH   9  10
ENDBRANCH   8   9
ENDBRANCH   7   8
ENDBRANCH   6   7
ENDBRANCH   5   6
ENDBRANCH   4   5
ENDBRANCH   3   4
ENDBRANCH   2   3
ENDBRANCH   1   2
BRANCH   1  17
ATOM     17  C   UNL     1      10.746   3.459  56.044  1.00  0.00     0.000 C 
BRANCH  17  18
ATOM     18  C   UNL     1      10.910   4.800  55.304  1.00  0.00     0.000 C 
BRANCH  18  19
ATOM     19  C   UNL     1      10.348   6.023  56.049  1.00  0.00     0.000 C 
BRANCH  19  20
ATOM     20  C   UNL     1       9.099   6.607  55.372  1.00  0.00     0.000 C 
BRANCH  20  21
ATOM     21  C   UNL     1       9.275   8.106  55.084  1.00  0.00     0.000 C 
BRANCH  21  22
ATOM     22  C   UNL     1       8.109   8.954  55.622  1.00  0.00    -0.000 C 
BRANCH  22  23
ATOM     23  C   UNL     1       7.246   9.550  54.495  1.00  0.00    -0.000 C 
BRANCH  23  24
ATOM     24  C   UNL     1       7.685   9.077  53.097  1.00  0.00    -0.000 C 
BRANCH  24  25
ATOM     25  C   UNL     1       8.535  10.093  52.312  1.00  0.00    -0.000 C 
BRANCH  25  26
ATOM     26  C   UNL     1       9.398   9.427  51.226  1.00  0.00    -0.000 C 
BRANCH  26  27
ATOM     27  C   UNL     1       9.299   7.889  51.242  1.00  0.00    -0.000 C 
BRANCH  27  28
ATOM     28  C   UNL     1      10.632   7.141  51.034  1.00  0.00    -0.000 C 
BRANCH  28  29
ATOM     29  C   UNL     1      11.241   6.525  52.307  1.00  0.00    -0.003 C 
ATOM     30  C   UNL     1      12.046   7.532  53.129  1.00  0.00     0.004 C 
ENDBRANCH  28  29
ENDBRANCH  27  28
ENDBRANCH  26  27
ENDBRANCH  25  26
ENDBRANCH  24  25
ENDBRANCH  23  24
ENDBRANCH  22  23
ENDBRANCH  21  22
ENDBRANCH  20  21
ENDBRANCH  19  20
ENDBRANCH  18  19
ENDBRANCH  17  18
ENDBRANCH   1  17
TORSDOF 26
ENDMDL
