MODEL 1
REMARK VINA RESULT:    -6.128      0.000      0.000
REMARK INTER + INTRA:          -7.068
REMARK INTER:                  -7.024
REMARK INTRA:                  -0.045
REMARK UNBOUND:                -0.045
REMARK SMILES O=C([O-])c1cc(O)c(O)c(O)c1
REMARK SMILES IDX 4 1 5 2 12 3 6 4 10 5 8 6 2 7 1 8 3 9 7 10 11 12 9 14
REMARK H PARENT 7 11 11 13 9 15
REMARK Flexibility Score: inf
ROOT
ATOM      1  C   UNL     1     128.287 133.706 107.780  1.00  0.00     0.005 A 
ATOM      2  C   UNL     1     127.254 133.889 108.712  1.00  0.00     0.060 A 
ATOM      3  C   UNL     1     128.536 134.712 106.833  1.00  0.00     0.060 A 
ATOM      4  C   UNL     1     126.477 135.054 108.709  1.00  0.00     0.162 A 
ATOM      5  C   UNL     1     127.767 135.882 106.819  1.00  0.00     0.162 A 
ATOM      6  C   UNL     1     126.735 136.063 107.751  1.00  0.00     0.200 A 
ENDROOT
BRANCH   1   7
ATOM      7  C   UNL     1     129.097 132.468 107.797  1.00  0.00     0.072 C 
ATOM      8  O   UNL     1     130.110 132.375 108.540  1.00  0.00    -0.545 OA
ATOM      9  O   UNL     1     128.751 131.386 106.994  1.00  0.00    -0.545 OA
ENDBRANCH   1   7
BRANCH   4  10
ATOM     10  O   UNL     1     125.467 135.165 109.667  1.00  0.00    -0.504 OA
ATOM     11  H   UNL     1     125.396 135.924 110.329  1.00  0.00     0.293 HD
ENDBRANCH   4  10
BRANCH   5  12
ATOM     12  O   UNL     1     128.022 136.876 105.875  1.00  0.00    -0.504 OA
ATOM     13  H   UNL     1     128.592 137.685 106.096  1.00  0.00     0.293 HD
ENDBRANCH   5  12
BRANCH   6  14
ATOM     14  O   UNL     1     125.999 137.249 107.693  1.00  0.00    -0.502 OA
ATOM     15  H   UNL     1     125.865 137.791 106.852  1.00  0.00     0.293 HD
ENDBRANCH   6  14
TORSDOF 4
ENDMDL
MODEL 2
REMARK VINA RESULT:    -6.084      1.772      3.044
REMARK INTER + INTRA:          -7.018
REMARK INTER:                  -6.967
REMARK INTRA:                  -0.051
REMARK UNBOUND:                -0.045
REMARK SMILES O=C([O-])c1cc(O)c(O)c(O)c1
REMARK SMILES IDX 4 1 5 2 12 3 6 4 10 5 8 6 2 7 1 8 3 9 7 10 11 12 9 14
REMARK H PARENT 7 11 11 13 9 15
REMARK Flexibility Score: inf
ROOT
ATOM      1  C   UNL     1     127.788 134.204 109.073  1.00  0.00     0.005 A 
ATOM      2  C   UNL     1     127.192 135.065 108.139  1.00  0.00     0.060 A 
ATOM      3  C   UNL     1     127.795 134.569 110.428  1.00  0.00     0.060 A 
ATOM      4  C   UNL     1     126.607 136.272 108.540  1.00  0.00     0.162 A 
ATOM      5  C   UNL     1     127.215 135.774 110.843  1.00  0.00     0.162 A 
ATOM      6  C   UNL     1     126.619 136.632 109.909  1.00  0.00     0.200 A 
ENDROOT
BRANCH   1   7
ATOM      7  C   UNL     1     128.402 132.932 108.630  1.00  0.00     0.072 C 
ATOM      8  O   UNL     1     128.033 132.381 107.559  1.00  0.00    -0.545 OA
ATOM      9  O   UNL     1     129.398 132.327 109.389  1.00  0.00    -0.545 OA
ENDBRANCH   1   7
BRANCH   4  10
ATOM     10  O   UNL     1     126.033 137.077 107.554  1.00  0.00    -0.504 OA
ATOM     11  H   UNL     1     126.562 137.591 106.864  1.00  0.00     0.293 HD
ENDBRANCH   4  10
BRANCH   5  12
ATOM     12  O   UNL     1     127.226 136.128 112.192  1.00  0.00    -0.504 OA
ATOM     13  H   UNL     1     126.711 136.931 112.535  1.00  0.00     0.293 HD
ENDBRANCH   5  12
BRANCH   6  14
ATOM     14  O   UNL     1     126.054 137.821 110.377  1.00  0.00    -0.502 OA
ATOM     15  H   UNL     1     125.925 138.041 111.354  1.00  0.00     0.293 HD
ENDBRANCH   6  14
TORSDOF 4
ENDMDL
MODEL 3
REMARK VINA RESULT:    -6.053      0.328      2.608
REMARK INTER + INTRA:          -6.982
REMARK INTER:                  -6.936
REMARK INTRA:                  -0.046
REMARK UNBOUND:                -0.045
REMARK SMILES O=C([O-])c1cc(O)c(O)c(O)c1
REMARK SMILES IDX 4 1 5 2 12 3 6 4 10 5 8 6 2 7 1 8 3 9 7 10 11 12 9 14
REMARK H PARENT 7 11 11 13 9 15
REMARK Flexibility Score: inf
ROOT
ATOM      1  C   UNL     1     128.200 133.595 107.969  1.00  0.00     0.005 A 
ATOM      2  C   UNL     1     128.540 134.544 106.993  1.00  0.00     0.060 A 
ATOM      3  C   UNL     1     127.141 133.871 108.848  1.00  0.00     0.060 A 
ATOM      4  C   UNL     1     127.840 135.752 106.885  1.00  0.00     0.162 A 
ATOM      5  C   UNL     1     126.433 135.076 108.752  1.00  0.00     0.162 A 
ATOM      6  C   UNL     1     126.774 136.022 107.775  1.00  0.00     0.200 A 
ENDROOT
BRANCH   1   7
ATOM      7  C   UNL     1     128.951 132.324 108.069  1.00  0.00     0.072 C 
ATOM      8  O   UNL     1     128.953 131.503 107.113  1.00  0.00    -0.545 OA
ATOM      9  O   UNL     1     129.669 132.016 109.220  1.00  0.00    -0.545 OA
ENDBRANCH   1   7
BRANCH   4  10
ATOM     10  O   UNL     1     128.237 136.647 105.890  1.00  0.00    -0.504 OA
ATOM     11  H   UNL     1     128.789 136.389 105.084  1.00  0.00     0.293 HD
ENDBRANCH   4  10
BRANCH   5  12
ATOM     12  O   UNL     1     125.381 135.342 109.628  1.00  0.00    -0.504 OA
ATOM     13  H   UNL     1     125.474 136.014 110.381  1.00  0.00     0.293 HD
ENDBRANCH   5  12
BRANCH   6  14
ATOM     14  O   UNL     1     126.035 137.207 107.723  1.00  0.00    -0.502 OA
ATOM     15  H   UNL     1     125.902 137.755 106.886  1.00  0.00     0.293 HD
ENDBRANCH   6  14
TORSDOF 4
ENDMDL
MODEL 4
REMARK VINA RESULT:    -6.030     10.552     12.463
REMARK INTER + INTRA:          -6.955
REMARK INTER:                  -6.904
REMARK INTRA:                  -0.052
REMARK UNBOUND:                -0.045
REMARK SMILES O=C([O-])c1cc(O)c(O)c(O)c1
REMARK SMILES IDX 4 1 5 2 12 3 6 4 10 5 8 6 2 7 1 8 3 9 7 10 11 12 9 14
REMARK H PARENT 7 11 11 13 9 15
REMARK Flexibility Score: inf
ROOT
ATOM      1  C   UNL     1     136.460 134.695 113.868  1.00  0.00     0.005 A 
ATOM      2  C   UNL     1     137.553 134.526 113.004  1.00  0.00     0.060 A 
ATOM      3  C   UNL     1     136.694 134.808 115.247  1.00  0.00     0.060 A 
ATOM      4  C   UNL     1     138.862 134.472 113.498  1.00  0.00     0.162 A 
ATOM      5  C   UNL     1     137.998 134.755 115.755  1.00  0.00     0.162 A 
ATOM      6  C   UNL     1     139.088 134.587 114.890  1.00  0.00     0.200 A 
ENDROOT
BRANCH   1   7
ATOM      7  C   UNL     1     135.083 134.750 113.329  1.00  0.00     0.072 C 
ATOM      8  O   UNL     1     134.877 135.077 112.129  1.00  0.00    -0.545 OA
ATOM      9  O   UNL     1     133.995 134.439 114.138  1.00  0.00    -0.545 OA
ENDBRANCH   1   7
BRANCH   4  10
ATOM     10  O   UNL     1     139.899 134.302 112.577  1.00  0.00    -0.504 OA
ATOM     11  H   UNL     1     140.543 133.524 112.588  1.00  0.00     0.293 HD
ENDBRANCH   4  10
BRANCH   5  12
ATOM     12  O   UNL     1     138.221 134.869 117.127  1.00  0.00    -0.504 OA
ATOM     13  H   UNL     1     138.648 135.696 117.529  1.00  0.00     0.293 HD
ENDBRANCH   5  12
BRANCH   6  14
ATOM     14  O   UNL     1     140.368 134.541 115.449  1.00  0.00    -0.502 OA
ATOM     15  H   UNL     1     141.062 135.266 115.336  1.00  0.00     0.293 HD
ENDBRANCH   6  14
TORSDOF 4
ENDMDL
MODEL 5
REMARK VINA RESULT:    -5.894      9.999     11.689
REMARK INTER + INTRA:          -6.800
REMARK INTER:                  -6.748
REMARK INTRA:                  -0.052
REMARK UNBOUND:                -0.045
REMARK SMILES O=C([O-])c1cc(O)c(O)c(O)c1
REMARK SMILES IDX 4 1 5 2 12 3 6 4 10 5 8 6 2 7 1 8 3 9 7 10 11 12 9 14
REMARK H PARENT 7 11 11 13 9 15
REMARK Flexibility Score: inf
ROOT
ATOM      1  C   UNL     1     135.952 134.666 113.636  1.00  0.00     0.005 A 
ATOM      2  C   UNL     1     136.328 134.751 114.986  1.00  0.00     0.060 A 
ATOM      3  C   UNL     1     136.951 134.558 112.657  1.00  0.00     0.060 A 
ATOM      4  C   UNL     1     137.677 134.729 115.362  1.00  0.00     0.162 A 
ATOM      5  C   UNL     1     138.304 134.535 113.019  1.00  0.00     0.162 A 
ATOM      6  C   UNL     1     138.677 134.620 114.368  1.00  0.00     0.200 A 
ENDROOT
BRANCH   1   7
ATOM      7  C   UNL     1     134.522 134.692 113.257  1.00  0.00     0.072 C 
ATOM      8  O   UNL     1     133.628 134.442 114.108  1.00  0.00    -0.545 OA
ATOM      9  O   UNL     1     134.143 134.995 111.953  1.00  0.00    -0.545 OA
ENDBRANCH   1   7
BRANCH   4  10
ATOM     10  O   UNL     1     137.974 134.818 116.724  1.00  0.00    -0.504 OA
ATOM     11  H   UNL     1     137.859 134.059 117.379  1.00  0.00     0.293 HD
ENDBRANCH   4  10
BRANCH   5  12
ATOM     12  O   UNL     1     139.290 134.426 112.039  1.00  0.00    -0.504 OA
ATOM     13  H   UNL     1     140.222 134.096 112.258  1.00  0.00     0.293 HD
ENDBRANCH   5  12
BRANCH   6  14
ATOM     14  O   UNL     1     140.040 134.591 114.674  1.00  0.00    -0.502 OA
ATOM     15  H   UNL     1     140.434 134.097 115.461  1.00  0.00     0.293 HD
ENDBRANCH   6  14
TORSDOF 4
ENDMDL
MODEL 6
REMARK VINA RESULT:    -5.888      1.493      1.773
REMARK INTER + INTRA:          -6.793
REMARK INTER:                  -6.740
REMARK INTRA:                  -0.053
REMARK UNBOUND:                -0.045
REMARK SMILES O=C([O-])c1cc(O)c(O)c(O)c1
REMARK SMILES IDX 4 1 5 2 12 3 6 4 10 5 8 6 2 7 1 8 3 9 7 10 11 12 9 14
REMARK H PARENT 7 11 11 13 9 15
REMARK Flexibility Score: inf
ROOT
ATOM      1  C   UNL     1     127.954 134.132 108.149  1.00  0.00     0.005 A 
ATOM      2  C   UNL     1     127.939 134.176 109.552  1.00  0.00     0.060 A 
ATOM      3  C   UNL     1     127.342 135.169 107.429  1.00  0.00     0.060 A 
ATOM      4  C   UNL     1     127.326 135.234 110.235  1.00  0.00     0.162 A 
ATOM      5  C   UNL     1     126.724 136.233 108.099  1.00  0.00     0.162 A 
ATOM      6  C   UNL     1     126.711 136.275 109.500  1.00  0.00     0.200 A 
ENDROOT
BRANCH   1   7
ATOM      7  C   UNL     1     128.606 133.006 107.445  1.00  0.00     0.072 C 
ATOM      8  O   UNL     1     129.043 132.015 108.087  1.00  0.00    -0.545 OA
ATOM      9  O   UNL     1     128.744 133.025 106.061  1.00  0.00    -0.545 OA
ENDBRANCH   1   7
BRANCH   4  10
ATOM     10  O   UNL     1     127.351 135.209 111.631  1.00  0.00    -0.504 OA
ATOM     11  H   UNL     1     128.157 134.942 112.178  1.00  0.00     0.293 HD
ENDBRANCH   4  10
BRANCH   5  12
ATOM     12  O   UNL     1     126.119 137.260 107.375  1.00  0.00    -0.504 OA
ATOM     13  H   UNL     1     125.139 137.222 107.119  1.00  0.00     0.293 HD
ENDBRANCH   5  12
BRANCH   6  14
ATOM     14  O   UNL     1     126.082 137.360 110.118  1.00  0.00    -0.502 OA
ATOM     15  H   UNL     1     125.086 137.426 110.269  1.00  0.00     0.293 HD
ENDBRANCH   6  14
TORSDOF 4
ENDMDL
MODEL 7
REMARK VINA RESULT:    -5.750      1.344      3.724
REMARK INTER + INTRA:          -6.635
REMARK INTER:                  -6.589
REMARK INTRA:                  -0.046
REMARK UNBOUND:                -0.045
REMARK SMILES O=C([O-])c1cc(O)c(O)c(O)c1
REMARK SMILES IDX 4 1 5 2 12 3 6 4 10 5 8 6 2 7 1 8 3 9 7 10 11 12 9 14
REMARK H PARENT 7 11 11 13 9 15
REMARK Flexibility Score: inf
ROOT
ATOM      1  C   UNL     1     126.530 134.903 109.089  1.00  0.00     0.005 A 
ATOM      2  C   UNL     1     127.332 133.890 108.541  1.00  0.00     0.060 A 
ATOM      3  C   UNL     1     126.641 136.208 108.584  1.00  0.00     0.060 A 
ATOM      4  C   UNL     1     128.231 134.164 107.503  1.00  0.00     0.162 A 
ATOM      5  C   UNL     1     127.537 136.496 107.547  1.00  0.00     0.162 A 
ATOM      6  C   UNL     1     128.337 135.482 107.000  1.00  0.00     0.200 A 
ENDROOT
BRANCH   1   7
ATOM      7  C   UNL     1     125.585 134.596 110.186  1.00  0.00     0.072 C 
ATOM      8  O   UNL     1     124.612 133.819 109.994  1.00  0.00    -0.545 OA
ATOM      9  O   UNL     1     125.758 135.159 111.446  1.00  0.00    -0.545 OA
ENDBRANCH   1   7
BRANCH   4  10
ATOM     10  O   UNL     1     128.995 133.105 107.008  1.00  0.00    -0.504 OA
ATOM     11  H   UNL     1     128.722 132.527 106.227  1.00  0.00     0.293 HD
ENDBRANCH   4  10
BRANCH   5  12
ATOM     12  O   UNL     1     127.640 137.795 107.051  1.00  0.00    -0.504 OA
ATOM     13  H   UNL     1     126.927 138.491 107.233  1.00  0.00     0.293 HD
ENDBRANCH   5  12
BRANCH   6  14
ATOM     14  O   UNL     1     129.213 135.824 105.967  1.00  0.00    -0.502 OA
ATOM     15  H   UNL     1     130.007 136.437 106.078  1.00  0.00     0.293 HD
ENDBRANCH   6  14
TORSDOF 4
ENDMDL
MODEL 8
REMARK VINA RESULT:    -5.745      1.322      3.670
REMARK INTER + INTRA:          -6.629
REMARK INTER:                  -6.584
REMARK INTRA:                  -0.045
REMARK UNBOUND:                -0.045
REMARK SMILES O=C([O-])c1cc(O)c(O)c(O)c1
REMARK SMILES IDX 4 1 5 2 12 3 6 4 10 5 8 6 2 7 1 8 3 9 7 10 11 12 9 14
REMARK H PARENT 7 11 11 13 9 15
REMARK Flexibility Score: inf
ROOT
ATOM      1  C   UNL     1     126.597 134.834 109.124  1.00  0.00     0.005 A 
ATOM      2  C   UNL     1     126.444 136.057 108.452  1.00  0.00     0.060 A 
ATOM      3  C   UNL     1     127.592 133.942 108.696  1.00  0.00     0.060 A 
ATOM      4  C   UNL     1     127.267 136.395 107.371  1.00  0.00     0.162 A 
ATOM      5  C   UNL     1     128.422 134.266 107.615  1.00  0.00     0.162 A 
ATOM      6  C   UNL     1     128.268 135.489 106.946  1.00  0.00     0.200 A 
ENDROOT
BRANCH   1   7
ATOM      7  C   UNL     1     125.718 134.494 110.264  1.00  0.00     0.072 C 
ATOM      8  O   UNL     1     126.069 134.756 111.445  1.00  0.00    -0.545 OA
ATOM      9  O   UNL     1     124.488 133.881 110.049  1.00  0.00    -0.545 OA
ENDBRANCH   1   7
BRANCH   4  10
ATOM     10  O   UNL     1     127.056 137.629 106.752  1.00  0.00    -0.504 OA
ATOM     11  H   UNL     1     127.539 137.934 105.920  1.00  0.00     0.293 HD
ENDBRANCH   4  10
BRANCH   5  12
ATOM     12  O   UNL     1     129.409 133.374 107.197  1.00  0.00    -0.504 OA
ATOM     13  H   UNL     1     129.174 132.490 106.761  1.00  0.00     0.293 HD
ENDBRANCH   5  12
BRANCH   6  14
ATOM     14  O   UNL     1     129.123 135.763 105.875  1.00  0.00    -0.502 OA
ATOM     15  H   UNL     1     129.094 136.612 105.330  1.00  0.00     0.293 HD
ENDBRANCH   6  14
TORSDOF 4
ENDMDL
MODEL 9
REMARK VINA RESULT:    -5.733      1.860      2.254
REMARK INTER + INTRA:          -6.616
REMARK INTER:                  -6.567
REMARK INTRA:                  -0.049
REMARK UNBOUND:                -0.045
REMARK SMILES O=C([O-])c1cc(O)c(O)c(O)c1
REMARK SMILES IDX 4 1 5 2 12 3 6 4 10 5 8 6 2 7 1 8 3 9 7 10 11 12 9 14
REMARK H PARENT 7 11 11 13 9 15
REMARK Flexibility Score: inf
ROOT
ATOM      1  C   UNL     1     128.639 134.211 108.221  1.00  0.00     0.005 A 
ATOM      2  C   UNL     1     127.414 134.790 107.852  1.00  0.00     0.060 A 
ATOM      3  C   UNL     1     129.720 135.048 108.535  1.00  0.00     0.060 A 
ATOM      4  C   UNL     1     127.261 136.180 107.796  1.00  0.00     0.162 A 
ATOM      5  C   UNL     1     129.581 136.441 108.482  1.00  0.00     0.162 A 
ATOM      6  C   UNL     1     128.357 137.017 108.114  1.00  0.00     0.200 A 
ENDROOT
BRANCH   1   7
ATOM      7  C   UNL     1     128.783 132.739 108.275  1.00  0.00     0.072 C 
ATOM      8  O   UNL     1     128.313 132.015 107.357  1.00  0.00    -0.545 OA
ATOM      9  O   UNL     1     129.442 132.133 109.339  1.00  0.00    -0.545 OA
ENDBRANCH   1   7
BRANCH   4  10
ATOM     10  O   UNL     1     126.013 136.683 107.421  1.00  0.00    -0.504 OA
ATOM     11  H   UNL     1     125.263 136.116 107.051  1.00  0.00     0.293 HD
ENDBRANCH   4  10
BRANCH   5  12
ATOM     12  O   UNL     1     130.661 137.265 108.797  1.00  0.00    -0.504 OA
ATOM     13  H   UNL     1     131.015 137.339 109.743  1.00  0.00     0.293 HD
ENDBRANCH   5  12
BRANCH   6  14
ATOM     14  O   UNL     1     128.272 138.411 108.079  1.00  0.00    -0.502 OA
ATOM     15  H   UNL     1     127.737 138.929 107.397  1.00  0.00     0.293 HD
ENDBRANCH   6  14
TORSDOF 4
ENDMDL
