MODEL 1
REMARK VINA RESULT:    -7.889      0.000      0.000
REMARK INTER + INTRA:          -9.032
REMARK INTER:                  -9.503
REMARK INTRA:                   0.471
REMARK UNBOUND:                 0.471
REMARK SMILES O=c1c(O)c(-c2ccc(O)c(O)c2)oc2cc(O)cc(O)c12
REMARK SMILES IDX 5 1 3 2 2 3 1 4 22 5 20 6 19 7 17 8 16 9 15 10 14 11 6 12
REMARK SMILES IDX 7 13 8 14 9 15 13 16 11 17 10 18 12 20 4 22 21 24 18 26
REMARK H PARENT 10 19 12 21 4 23 21 25 18 27
REMARK Flexibility Score: inf
ROOT
ATOM      1  C   UNL     1      26.916  22.859  33.992  1.00  0.00     0.180 A 
ATOM      2  C   UNL     1      27.176  21.477  33.992  1.00  0.00     0.208 A 
ATOM      3  C   UNL     1      26.408  20.639  34.817  1.00  0.00     0.238 A 
ATOM      4  O   UNL     1      26.610  19.398  34.773  1.00  0.00    -0.285 OA
ATOM      5  C   UNL     1      25.401  21.195  35.642  1.00  0.00     0.111 A 
ATOM      6  C   UNL     1      24.590  20.445  36.548  1.00  0.00     0.134 A 
ATOM      7  C   UNL     1      23.537  21.079  37.217  1.00  0.00     0.093 A 
ATOM      8  C   UNL     1      23.305  22.446  37.067  1.00  0.00     0.123 A 
ATOM      9  C   UNL     1      24.130  23.200  36.231  1.00  0.00     0.094 A 
ATOM     10  C   UNL     1      25.166  22.589  35.520  1.00  0.00     0.146 A 
ATOM     11  O   UNL     1      25.920  23.340  34.727  1.00  0.00    -0.452 OA
ENDROOT
BRANCH   1  12
ATOM     12  C   UNL     1      27.698  23.808  33.168  1.00  0.00     0.025 A 
ATOM     13  C   UNL     1      28.681  23.359  32.271  1.00  0.00     0.016 A 
ATOM     14  C   UNL     1      29.424  24.274  31.522  1.00  0.00     0.051 A 
ATOM     15  C   UNL     1      29.212  25.649  31.661  1.00  0.00     0.157 A 
ATOM     16  C   UNL     1      27.499  25.189  33.325  1.00  0.00     0.062 A 
ATOM     17  C   UNL     1      28.240  26.113  32.578  1.00  0.00     0.158 A 
BRANCH  15  18
ATOM     18  O   UNL     1      29.985  26.510  30.880  1.00  0.00    -0.504 OA
ATOM     19  H   UNL     1      30.968  26.374  30.692  1.00  0.00     0.293 HD
ENDBRANCH  15  18
BRANCH  17  20
ATOM     20  O   UNL     1      27.978  27.471  32.779  1.00  0.00    -0.504 OA
ATOM     21  H   UNL     1      28.455  28.215  32.290  1.00  0.00     0.293 HD
ENDBRANCH  17  20
ENDBRANCH   1  12
BRANCH   2  22
ATOM     22  O   UNL     1      28.160  20.947  33.154  1.00  0.00    -0.502 OA
ATOM     23  H   UNL     1      29.086  20.704  33.486  1.00  0.00     0.293 HD
ENDBRANCH   2  22
BRANCH   6  24
ATOM     24  O   UNL     1      24.794  19.094  36.841  1.00  0.00    -0.507 OA
ATOM     25  H   UNL     1      25.232  18.430  36.220  1.00  0.00     0.293 HD
ENDBRANCH   6  24
BRANCH   8  26
ATOM     26  O   UNL     1      22.258  23.046  37.762  1.00  0.00    -0.508 OA
ATOM     27  H   UNL     1      22.099  22.860  38.746  1.00  0.00     0.293 HD
ENDBRANCH   8  26
TORSDOF 6
ENDMDL
MODEL 2
REMARK VINA RESULT:    -7.671      1.291      6.594
REMARK INTER + INTRA:          -8.769
REMARK INTER:                  -8.726
REMARK INTRA:                  -0.043
REMARK UNBOUND:                 0.471
REMARK SMILES O=c1c(O)c(-c2ccc(O)c(O)c2)oc2cc(O)cc(O)c12
REMARK SMILES IDX 5 1 3 2 2 3 1 4 22 5 20 6 19 7 17 8 16 9 15 10 14 11 6 12
REMARK SMILES IDX 7 13 8 14 9 15 13 16 11 17 10 18 12 20 4 22 21 24 18 26
REMARK H PARENT 10 19 12 21 4 23 21 25 18 27
REMARK Flexibility Score: inf
ROOT
ATOM      1  C   UNL     1      25.860  22.217  34.713  1.00  0.00     0.180 A 
ATOM      2  C   UNL     1      26.756  21.204  34.331  1.00  0.00     0.208 A 
ATOM      3  C   UNL     1      27.861  21.538  33.530  1.00  0.00     0.238 A 
ATOM      4  O   UNL     1      28.689  20.637  33.237  1.00  0.00    -0.285 OA
ATOM      5  C   UNL     1      28.046  22.877  33.109  1.00  0.00     0.111 A 
ATOM      6  C   UNL     1      29.107  23.321  32.263  1.00  0.00     0.134 A 
ATOM      7  C   UNL     1      29.267  24.690  32.017  1.00  0.00     0.093 A 
ATOM      8  C   UNL     1      28.368  25.625  32.531  1.00  0.00     0.123 A 
ATOM      9  C   UNL     1      27.293  25.195  33.309  1.00  0.00     0.094 A 
ATOM     10  C   UNL     1      27.127  23.840  33.603  1.00  0.00     0.146 A 
ATOM     11  O   UNL     1      26.097  23.474  34.356  1.00  0.00    -0.452 OA
ENDROOT
BRANCH   1  12
ATOM     12  C   UNL     1      24.661  21.939  35.535  1.00  0.00     0.025 A 
ATOM     13  C   UNL     1      24.759  21.285  36.774  1.00  0.00     0.016 A 
ATOM     14  C   UNL     1      23.612  21.011  37.520  1.00  0.00     0.051 A 
ATOM     15  C   UNL     1      22.347  21.369  37.043  1.00  0.00     0.157 A 
ATOM     16  C   UNL     1      23.390  22.279  35.044  1.00  0.00     0.062 A 
ATOM     17  C   UNL     1      22.234  22.009  35.786  1.00  0.00     0.158 A 
BRANCH  15  18
ATOM     18  O   UNL     1      21.240  21.071  37.840  1.00  0.00    -0.504 OA
ATOM     19  H   UNL     1      20.869  20.140  37.966  1.00  0.00     0.293 HD
ENDBRANCH  15  18
BRANCH  17  20
ATOM     20  O   UNL     1      21.005  22.388  35.240  1.00  0.00    -0.504 OA
ATOM     21  H   UNL     1      20.184  22.597  35.789  1.00  0.00     0.293 HD
ENDBRANCH  17  20
ENDBRANCH   1  12
BRANCH   2  22
ATOM     22  O   UNL     1      26.568  19.893  34.776  1.00  0.00    -0.502 OA
ATOM     23  H   UNL     1      26.896  19.572  35.679  1.00  0.00     0.293 HD
ENDBRANCH   2  22
BRANCH   6  24
ATOM     24  O   UNL     1      30.006  22.463  31.624  1.00  0.00    -0.507 OA
ATOM     25  H   UNL     1      30.104  21.479  31.825  1.00  0.00     0.293 HD
ENDBRANCH   6  24
BRANCH   8  26
ATOM     26  O   UNL     1      28.548  26.978  32.252  1.00  0.00    -0.508 OA
ATOM     27  H   UNL     1      29.467  27.405  32.272  1.00  0.00     0.293 HD
ENDBRANCH   8  26
TORSDOF 6
ENDMDL
MODEL 3
REMARK VINA RESULT:    -7.605      1.412      1.815
REMARK INTER + INTRA:          -8.689
REMARK INTER:                  -8.358
REMARK INTRA:                  -0.331
REMARK UNBOUND:                 0.471
REMARK SMILES O=c1c(O)c(-c2ccc(O)c(O)c2)oc2cc(O)cc(O)c12
REMARK SMILES IDX 5 1 3 2 2 3 1 4 22 5 20 6 19 7 17 8 16 9 15 10 14 11 6 12
REMARK SMILES IDX 7 13 8 14 9 15 13 16 11 17 10 18 12 20 4 22 21 24 18 26
REMARK H PARENT 10 19 12 21 4 23 21 25 18 27
REMARK Flexibility Score: inf
ROOT
ATOM      1  C   UNL     1      26.284  22.834  35.098  1.00  0.00     0.180 A 
ATOM      2  C   UNL     1      26.719  21.497  35.096  1.00  0.00     0.208 A 
ATOM      3  C   UNL     1      25.843  20.495  35.543  1.00  0.00     0.238 A 
ATOM      4  O   UNL     1      26.218  19.294  35.488  1.00  0.00    -0.285 OA
ATOM      5  C   UNL     1      24.550  20.843  36.002  1.00  0.00     0.111 A 
ATOM      6  C   UNL     1      23.594  19.915  36.516  1.00  0.00     0.134 A 
ATOM      7  C   UNL     1      22.300  20.354  36.819  1.00  0.00     0.093 A 
ATOM      8  C   UNL     1      21.945  21.696  36.691  1.00  0.00     0.123 A 
ATOM      9  C   UNL     1      22.889  22.622  36.247  1.00  0.00     0.094 A 
ATOM     10  C   UNL     1      24.178  22.210  35.901  1.00  0.00     0.146 A 
ATOM     11  O   UNL     1      25.043  23.120  35.472  1.00  0.00    -0.452 OA
ENDROOT
BRANCH   1  12
ATOM     12  C   UNL     1      27.158  23.947  34.663  1.00  0.00     0.025 A 
ATOM     13  C   UNL     1      27.990  24.621  35.572  1.00  0.00     0.016 A 
ATOM     14  C   UNL     1      28.787  25.684  35.144  1.00  0.00     0.051 A 
ATOM     15  C   UNL     1      28.762  26.103  33.810  1.00  0.00     0.157 A 
ATOM     16  C   UNL     1      27.116  24.380  33.329  1.00  0.00     0.062 A 
ATOM     17  C   UNL     1      27.912  25.445  32.891  1.00  0.00     0.158 A 
BRANCH  15  18
ATOM     18  O   UNL     1      29.587  27.169  33.446  1.00  0.00    -0.504 OA
ATOM     19  H   UNL     1      29.245  28.068  33.136  1.00  0.00     0.293 HD
ENDBRANCH  15  18
BRANCH  17  20
ATOM     20  O   UNL     1      27.826  25.813  31.546  1.00  0.00    -0.504 OA
ATOM     21  H   UNL     1      27.760  25.153  30.784  1.00  0.00     0.293 HD
ENDBRANCH  17  20
ENDBRANCH   1  12
BRANCH   2  22
ATOM     22  O   UNL     1      27.991  21.171  34.617  1.00  0.00    -0.502 OA
ATOM     23  H   UNL     1      28.163  20.361  34.035  1.00  0.00     0.293 HD
ENDBRANCH   2  22
BRANCH   6  24
ATOM     24  O   UNL     1      23.873  18.569  36.770  1.00  0.00    -0.507 OA
ATOM     25  H   UNL     1      24.299  17.936  36.110  1.00  0.00     0.293 HD
ENDBRANCH   6  24
BRANCH   8  26
ATOM     26  O   UNL     1      20.652  22.100  37.017  1.00  0.00    -0.508 OA
ATOM     27  H   UNL     1      20.286  22.997  36.721  1.00  0.00     0.293 HD
ENDBRANCH   8  26
TORSDOF 6
ENDMDL
MODEL 4
REMARK VINA RESULT:    -7.601      1.761      7.184
REMARK INTER + INTRA:          -8.685
REMARK INTER:                  -8.366
REMARK INTRA:                  -0.319
REMARK UNBOUND:                 0.471
REMARK SMILES O=c1c(O)c(-c2ccc(O)c(O)c2)oc2cc(O)cc(O)c12
REMARK SMILES IDX 5 1 3 2 2 3 1 4 22 5 20 6 19 7 17 8 16 9 15 10 14 11 6 12
REMARK SMILES IDX 7 13 8 14 9 15 13 16 11 17 10 18 12 20 4 22 21 24 18 26
REMARK H PARENT 10 19 12 21 4 23 21 25 18 27
REMARK Flexibility Score: inf
ROOT
ATOM      1  C   UNL     1      26.845  23.524  34.840  1.00  0.00     0.180 A 
ATOM      2  C   UNL     1      27.341  24.422  35.802  1.00  0.00     0.208 A 
ATOM      3  C   UNL     1      28.212  25.445  35.393  1.00  0.00     0.238 A 
ATOM      4  O   UNL     1      28.608  26.279  36.249  1.00  0.00    -0.285 OA
ATOM      5  C   UNL     1      28.589  25.547  34.033  1.00  0.00     0.111 A 
ATOM      6  C   UNL     1      29.497  26.520  33.514  1.00  0.00     0.134 A 
ATOM      7  C   UNL     1      29.696  26.610  32.131  1.00  0.00     0.093 A 
ATOM      8  C   UNL     1      29.074  25.723  31.254  1.00  0.00     0.123 A 
ATOM      9  C   UNL     1      28.231  24.731  31.755  1.00  0.00     0.094 A 
ATOM     10  C   UNL     1      27.983  24.638  33.127  1.00  0.00     0.146 A 
ATOM     11  O   UNL     1      27.166  23.687  33.562  1.00  0.00    -0.452 OA
ENDROOT
BRANCH   1  12
ATOM     12  C   UNL     1      25.943  22.407  35.198  1.00  0.00     0.025 A 
ATOM     13  C   UNL     1      24.546  22.550  35.148  1.00  0.00     0.016 A 
ATOM     14  C   UNL     1      23.715  21.490  35.513  1.00  0.00     0.051 A 
ATOM     15  C   UNL     1      24.256  20.275  35.947  1.00  0.00     0.157 A 
ATOM     16  C   UNL     1      26.487  21.196  35.654  1.00  0.00     0.062 A 
ATOM     17  C   UNL     1      25.660  20.127  36.022  1.00  0.00     0.158 A 
BRANCH  15  18
ATOM     18  O   UNL     1      23.369  19.253  36.294  1.00  0.00    -0.504 OA
ATOM     19  H   UNL     1      23.255  18.899  37.233  1.00  0.00     0.293 HD
ENDBRANCH  15  18
BRANCH  17  20
ATOM     20  O   UNL     1      26.273  18.948  36.455  1.00  0.00    -0.504 OA
ATOM     21  H   UNL     1      26.762  18.310  35.843  1.00  0.00     0.293 HD
ENDBRANCH  17  20
ENDBRANCH   1  12
BRANCH   2  22
ATOM     22  O   UNL     1      26.938  24.317  37.136  1.00  0.00    -0.502 OA
ATOM     23  H   UNL     1      26.215  23.675  37.438  1.00  0.00     0.293 HD
ENDBRANCH   2  22
BRANCH   6  24
ATOM     24  O   UNL     1      30.242  27.394  34.311  1.00  0.00    -0.507 OA
ATOM     25  H   UNL     1      30.128  28.396  34.327  1.00  0.00     0.293 HD
ENDBRANCH   6  24
BRANCH   8  26
ATOM     26  O   UNL     1      29.308  25.832  29.885  1.00  0.00    -0.508 OA
ATOM     27  H   UNL     1      29.520  26.724  29.452  1.00  0.00     0.293 HD
ENDBRANCH   8  26
TORSDOF 6
ENDMDL
MODEL 5
REMARK VINA RESULT:    -7.404      1.281      6.726
REMARK INTER + INTRA:          -8.448
REMARK INTER:                  -8.566
REMARK INTRA:                   0.118
REMARK UNBOUND:                 0.471
REMARK SMILES O=c1c(O)c(-c2ccc(O)c(O)c2)oc2cc(O)cc(O)c12
REMARK SMILES IDX 5 1 3 2 2 3 1 4 22 5 20 6 19 7 17 8 16 9 15 10 14 11 6 12
REMARK SMILES IDX 7 13 8 14 9 15 13 16 11 17 10 18 12 20 4 22 21 24 18 26
REMARK H PARENT 10 19 12 21 4 23 21 25 18 27
REMARK Flexibility Score: inf
ROOT
ATOM      1  C   UNL     1      25.690  22.084  34.760  1.00  0.00     0.180 A 
ATOM      2  C   UNL     1      26.544  21.091  34.249  1.00  0.00     0.208 A 
ATOM      3  C   UNL     1      27.707  21.479  33.563  1.00  0.00     0.238 A 
ATOM      4  O   UNL     1      28.495  20.586  33.156  1.00  0.00    -0.285 OA
ATOM      5  C   UNL     1      27.992  22.854  33.383  1.00  0.00     0.111 A 
ATOM      6  C   UNL     1      29.120  23.361  32.669  1.00  0.00     0.134 A 
ATOM      7  C   UNL     1      29.372  24.738  32.666  1.00  0.00     0.093 A 
ATOM      8  C   UNL     1      28.505  25.632  33.292  1.00  0.00     0.123 A 
ATOM      9  C   UNL     1      27.367  25.152  33.942  1.00  0.00     0.094 A 
ATOM     10  C   UNL     1      27.107  23.780  33.994  1.00  0.00     0.146 A 
ATOM     11  O   UNL     1      26.020  23.364  34.631  1.00  0.00    -0.452 OA
ENDROOT
BRANCH   1  12
ATOM     12  C   UNL     1      24.436  21.753  35.472  1.00  0.00     0.025 A 
ATOM     13  C   UNL     1      23.247  22.459  35.227  1.00  0.00     0.016 A 
ATOM     14  C   UNL     1      22.082  22.145  35.929  1.00  0.00     0.051 A 
ATOM     15  C   UNL     1      22.081  21.134  36.896  1.00  0.00     0.157 A 
ATOM     16  C   UNL     1      24.442  20.752  36.457  1.00  0.00     0.062 A 
ATOM     17  C   UNL     1      23.278  20.431  37.166  1.00  0.00     0.158 A 
BRANCH  15  18
ATOM     18  O   UNL     1      20.882  20.866  37.558  1.00  0.00    -0.504 OA
ATOM     19  H   UNL     1      20.817  20.646  38.542  1.00  0.00     0.293 HD
ENDBRANCH  15  18
BRANCH  17  20
ATOM     20  O   UNL     1      23.358  19.416  38.123  1.00  0.00    -0.504 OA
ATOM     21  H   UNL     1      24.196  18.886  38.315  1.00  0.00     0.293 HD
ENDBRANCH  17  20
ENDBRANCH   1  12
BRANCH   2  22
ATOM     22  O   UNL     1      26.256  19.739  34.457  1.00  0.00    -0.502 OA
ATOM     23  H   UNL     1      25.322  19.408  34.664  1.00  0.00     0.293 HD
ENDBRANCH   2  22
BRANCH   6  24
ATOM     24  O   UNL     1      29.999  22.563  31.932  1.00  0.00    -0.507 OA
ATOM     25  H   UNL     1      30.267  21.623  32.179  1.00  0.00     0.293 HD
ENDBRANCH   6  24
BRANCH   8  26
ATOM     26  O   UNL     1      28.778  26.997  33.255  1.00  0.00    -0.508 OA
ATOM     27  H   UNL     1      28.314  27.648  33.877  1.00  0.00     0.293 HD
ENDBRANCH   8  26
TORSDOF 6
ENDMDL
MODEL 6
REMARK VINA RESULT:    -6.841      1.581      6.846
REMARK INTER + INTRA:          -7.769
REMARK INTER:                  -7.650
REMARK INTRA:                  -0.119
REMARK UNBOUND:                 0.471
REMARK SMILES O=c1c(O)c(-c2ccc(O)c(O)c2)oc2cc(O)cc(O)c12
REMARK SMILES IDX 5 1 3 2 2 3 1 4 22 5 20 6 19 7 17 8 16 9 15 10 14 11 6 12
REMARK SMILES IDX 7 13 8 14 9 15 13 16 11 17 10 18 12 20 4 22 21 24 18 26
REMARK H PARENT 10 19 12 21 4 23 21 25 18 27
REMARK Flexibility Score: inf
ROOT
ATOM      1  C   UNL     1      25.887  22.090  35.548  1.00  0.00     0.180 A 
ATOM      2  C   UNL     1      27.047  21.345  35.824  1.00  0.00     0.208 A 
ATOM      3  C   UNL     1      28.237  21.662  35.150  1.00  0.00     0.238 A 
ATOM      4  O   UNL     1      29.285  21.027  35.441  1.00  0.00    -0.285 OA
ATOM      5  C   UNL     1      28.249  22.709  34.197  1.00  0.00     0.111 A 
ATOM      6  C   UNL     1      29.389  23.089  33.425  1.00  0.00     0.134 A 
ATOM      7  C   UNL     1      29.321  24.224  32.607  1.00  0.00     0.093 A 
ATOM      8  C   UNL     1      28.139  24.952  32.481  1.00  0.00     0.123 A 
ATOM      9  C   UNL     1      27.002  24.553  33.185  1.00  0.00     0.094 A 
ATOM     10  C   UNL     1      27.048  23.448  34.038  1.00  0.00     0.146 A 
ATOM     11  O   UNL     1      25.948  23.108  34.697  1.00  0.00    -0.452 OA
ENDROOT
BRANCH   1  12
ATOM     12  C   UNL     1      24.591  21.800  36.200  1.00  0.00     0.025 A 
ATOM     13  C   UNL     1      23.967  22.739  37.038  1.00  0.00     0.016 A 
ATOM     14  C   UNL     1      22.757  22.433  37.662  1.00  0.00     0.051 A 
ATOM     15  C   UNL     1      22.152  21.186  37.476  1.00  0.00     0.157 A 
ATOM     16  C   UNL     1      23.997  20.539  36.030  1.00  0.00     0.062 A 
ATOM     17  C   UNL     1      22.782  20.224  36.652  1.00  0.00     0.158 A 
BRANCH  15  18
ATOM     18  O   UNL     1      20.939  20.946  38.125  1.00  0.00    -0.504 OA
ATOM     19  H   UNL     1      20.688  21.344  39.018  1.00  0.00     0.293 HD
ENDBRANCH  15  18
BRANCH  17  20
ATOM     20  O   UNL     1      22.244  18.955  36.426  1.00  0.00    -0.504 OA
ATOM     21  H   UNL     1      21.271  18.783  36.219  1.00  0.00     0.293 HD
ENDBRANCH  17  20
ENDBRANCH   1  12
BRANCH   2  22
ATOM     22  O   UNL     1      27.019  20.330  36.785  1.00  0.00    -0.502 OA
ATOM     23  H   UNL     1      26.258  20.227  37.445  1.00  0.00     0.293 HD
ENDBRANCH   2  22
BRANCH   6  24
ATOM     24  O   UNL     1      30.591  22.377  33.406  1.00  0.00    -0.507 OA
ATOM     25  H   UNL     1      30.733  21.499  32.929  1.00  0.00     0.293 HD
ENDBRANCH   6  24
BRANCH   8  26
ATOM     26  O   UNL     1      28.103  26.066  31.646  1.00  0.00    -0.508 OA
ATOM     27  H   UNL     1      28.787  26.811  31.725  1.00  0.00     0.293 HD
ENDBRANCH   8  26
TORSDOF 6
ENDMDL
MODEL 7
REMARK VINA RESULT:    -6.770      1.748      2.920
REMARK INTER + INTRA:          -7.683
REMARK INTER:                  -8.114
REMARK INTRA:                   0.431
REMARK UNBOUND:                 0.471
REMARK SMILES O=c1c(O)c(-c2ccc(O)c(O)c2)oc2cc(O)cc(O)c12
REMARK SMILES IDX 5 1 3 2 2 3 1 4 22 5 20 6 19 7 17 8 16 9 15 10 14 11 6 12
REMARK SMILES IDX 7 13 8 14 9 15 13 16 11 17 10 18 12 20 4 22 21 24 18 26
REMARK H PARENT 10 19 12 21 4 23 21 25 18 27
REMARK Flexibility Score: inf
ROOT
ATOM      1  C   UNL     1      25.677  21.894  35.106  1.00  0.00     0.180 A 
ATOM      2  C   UNL     1      25.484  20.535  35.406  1.00  0.00     0.208 A 
ATOM      3  C   UNL     1      24.308  20.143  36.066  1.00  0.00     0.238 A 
ATOM      4  O   UNL     1      24.115  18.918  36.283  1.00  0.00    -0.285 OA
ATOM      5  C   UNL     1      23.349  21.118  36.433  1.00  0.00     0.111 A 
ATOM      6  C   UNL     1      22.140  20.840  37.142  1.00  0.00     0.134 A 
ATOM      7  C   UNL     1      21.204  21.862  37.337  1.00  0.00     0.093 A 
ATOM      8  C   UNL     1      21.458  23.164  36.909  1.00  0.00     0.123 A 
ATOM      9  C   UNL     1      22.662  23.460  36.268  1.00  0.00     0.094 A 
ATOM     10  C   UNL     1      23.601  22.454  36.026  1.00  0.00     0.146 A 
ATOM     11  O   UNL     1      24.729  22.775  35.405  1.00  0.00    -0.452 OA
ENDROOT
BRANCH   1  12
ATOM     12  C   UNL     1      26.901  22.386  34.433  1.00  0.00     0.025 A 
ATOM     13  C   UNL     1      26.912  23.604  33.734  1.00  0.00     0.016 A 
ATOM     14  C   UNL     1      28.071  24.035  33.087  1.00  0.00     0.051 A 
ATOM     15  C   UNL     1      29.234  23.259  33.111  1.00  0.00     0.157 A 
ATOM     16  C   UNL     1      28.061  21.595  34.440  1.00  0.00     0.062 A 
ATOM     17  C   UNL     1      29.228  22.020  33.794  1.00  0.00     0.158 A 
BRANCH  15  18
ATOM     18  O   UNL     1      30.360  23.749  32.448  1.00  0.00    -0.504 OA
ATOM     19  H   UNL     1      31.114  24.243  32.904  1.00  0.00     0.293 HD
ENDBRANCH  15  18
BRANCH  17  20
ATOM     20  O   UNL     1      30.347  21.185  33.854  1.00  0.00    -0.504 OA
ATOM     21  H   UNL     1      31.032  21.214  34.595  1.00  0.00     0.293 HD
ENDBRANCH  17  20
ENDBRANCH   1  12
BRANCH   2  22
ATOM     22  O   UNL     1      26.432  19.586  35.014  1.00  0.00    -0.502 OA
ATOM     23  H   UNL     1      27.037  19.115  35.677  1.00  0.00     0.293 HD
ENDBRANCH   2  22
BRANCH   6  24
ATOM     24  O   UNL     1      21.829  19.593  37.693  1.00  0.00    -0.507 OA
ATOM     25  H   UNL     1      20.922  19.332  38.048  1.00  0.00     0.293 HD
ENDBRANCH   6  24
BRANCH   8  26
ATOM     26  O   UNL     1      20.510  24.160  37.134  1.00  0.00    -0.508 OA
ATOM     27  H   UNL     1      20.713  25.136  36.952  1.00  0.00     0.293 HD
ENDBRANCH   8  26
TORSDOF 6
ENDMDL
MODEL 8
REMARK VINA RESULT:    -6.634      2.168      6.348
REMARK INTER + INTRA:          -7.520
REMARK INTER:                  -7.198
REMARK INTRA:                  -0.322
REMARK UNBOUND:                 0.471
REMARK SMILES O=c1c(O)c(-c2ccc(O)c(O)c2)oc2cc(O)cc(O)c12
REMARK SMILES IDX 5 1 3 2 2 3 1 4 22 5 20 6 19 7 17 8 16 9 15 10 14 11 6 12
REMARK SMILES IDX 7 13 8 14 9 15 13 16 11 17 10 18 12 20 4 22 21 24 18 26
REMARK H PARENT 10 19 12 21 4 23 21 25 18 27
REMARK Flexibility Score: inf
ROOT
ATOM      1  C   UNL     1      25.634  21.618  35.512  1.00  0.00     0.180 A 
ATOM      2  C   UNL     1      25.937  20.250  35.627  1.00  0.00     0.208 A 
ATOM      3  C   UNL     1      27.160  19.778  35.124  1.00  0.00     0.238 A 
ATOM      4  O   UNL     1      27.449  18.563  35.279  1.00  0.00    -0.285 OA
ATOM      5  C   UNL     1      28.057  20.677  34.498  1.00  0.00     0.111 A 
ATOM      6  C   UNL     1      29.307  20.301  33.916  1.00  0.00     0.134 A 
ATOM      7  C   UNL     1      30.172  21.294  33.441  1.00  0.00     0.093 A 
ATOM      8  C   UNL     1      29.809  22.640  33.465  1.00  0.00     0.123 A 
ATOM      9  C   UNL     1      28.565  23.012  33.976  1.00  0.00     0.094 A 
ATOM     10  C   UNL     1      27.694  22.049  34.492  1.00  0.00     0.146 A 
ATOM     11  O   UNL     1      26.526  22.446  34.979  1.00  0.00    -0.452 OA
ENDROOT
BRANCH   1  12
ATOM     12  C   UNL     1      24.356  22.185  35.997  1.00  0.00     0.025 A 
ATOM     13  C   UNL     1      24.204  22.619  37.324  1.00  0.00     0.016 A 
ATOM     14  C   UNL     1      22.982  23.127  37.766  1.00  0.00     0.051 A 
ATOM     15  C   UNL     1      21.885  23.202  36.900  1.00  0.00     0.157 A 
ATOM     16  C   UNL     1      23.250  22.239  35.133  1.00  0.00     0.062 A 
ATOM     17  C   UNL     1      22.020  22.748  35.567  1.00  0.00     0.158 A 
BRANCH  15  18
ATOM     18  O   UNL     1      20.692  23.725  37.403  1.00  0.00    -0.504 OA
ATOM     19  H   UNL     1      20.307  23.486  38.305  1.00  0.00     0.293 HD
ENDBRANCH  15  18
BRANCH  17  20
ATOM     20  O   UNL     1      20.968  22.782  34.648  1.00  0.00    -0.504 OA
ATOM     21  H   UNL     1      21.057  23.125  33.702  1.00  0.00     0.293 HD
ENDBRANCH  17  20
ENDBRANCH   1  12
BRANCH   2  22
ATOM     22  O   UNL     1      25.047  19.384  36.269  1.00  0.00    -0.502 OA
ATOM     23  H   UNL     1      24.381  19.704  36.962  1.00  0.00     0.293 HD
ENDBRANCH   2  22
BRANCH   6  24
ATOM     24  O   UNL     1      29.727  18.978  33.759  1.00  0.00    -0.507 OA
ATOM     25  H   UNL     1      30.430  18.671  33.104  1.00  0.00     0.293 HD
ENDBRANCH   6  24
BRANCH   8  26
ATOM     26  O   UNL     1      30.689  23.598  32.968  1.00  0.00    -0.508 OA
ATOM     27  H   UNL     1      31.394  24.027  33.557  1.00  0.00     0.293 HD
ENDBRANCH   8  26
TORSDOF 6
ENDMDL
MODEL 9
REMARK VINA RESULT:    -6.422      1.961      3.449
REMARK INTER + INTRA:          -7.264
REMARK INTER:                  -7.306
REMARK INTRA:                   0.042
REMARK UNBOUND:                 0.471
REMARK SMILES O=c1c(O)c(-c2ccc(O)c(O)c2)oc2cc(O)cc(O)c12
REMARK SMILES IDX 5 1 3 2 2 3 1 4 22 5 20 6 19 7 17 8 16 9 15 10 14 11 6 12
REMARK SMILES IDX 7 13 8 14 9 15 13 16 11 17 10 18 12 20 4 22 21 24 18 26
REMARK H PARENT 10 19 12 21 4 23 21 25 18 27
REMARK Flexibility Score: inf
ROOT
ATOM      1  C   UNL     1      27.708  22.381  34.142  1.00  0.00     0.180 A 
ATOM      2  C   UNL     1      26.364  22.248  34.533  1.00  0.00     0.208 A 
ATOM      3  C   UNL     1      26.008  21.207  35.405  1.00  0.00     0.238 A 
ATOM      4  O   UNL     1      24.813  21.127  35.794  1.00  0.00    -0.285 OA
ATOM      5  C   UNL     1      26.996  20.303  35.863  1.00  0.00     0.111 A 
ATOM      6  C   UNL     1      26.740  19.187  36.718  1.00  0.00     0.134 A 
ATOM      7  C   UNL     1      27.814  18.437  37.213  1.00  0.00     0.093 A 
ATOM      8  C   UNL     1      29.126  18.719  36.834  1.00  0.00     0.123 A 
ATOM      9  C   UNL     1      29.381  19.770  35.952  1.00  0.00     0.094 A 
ATOM     10  C   UNL     1      28.335  20.560  35.470  1.00  0.00     0.146 A 
ATOM     11  O   UNL     1      28.622  21.556  34.642  1.00  0.00    -0.452 OA
ENDROOT
BRANCH   1  12
ATOM     12  C   UNL     1      28.156  23.437  33.207  1.00  0.00     0.025 A 
ATOM     13  C   UNL     1      28.980  23.141  32.109  1.00  0.00     0.016 A 
ATOM     14  C   UNL     1      29.410  24.158  31.255  1.00  0.00     0.051 A 
ATOM     15  C   UNL     1      29.040  25.487  31.484  1.00  0.00     0.157 A 
ATOM     16  C   UNL     1      27.802  24.774  33.452  1.00  0.00     0.062 A 
ATOM     17  C   UNL     1      28.229  25.800  32.600  1.00  0.00     0.158 A 
BRANCH  15  18
ATOM     18  O   UNL     1      29.500  26.455  30.590  1.00  0.00    -0.504 OA
ATOM     19  H   UNL     1      30.401  26.421  30.134  1.00  0.00     0.293 HD
ENDBRANCH  15  18
BRANCH  17  20
ATOM     20  O   UNL     1      27.827  27.104  32.899  1.00  0.00    -0.504 OA
ATOM     21  H   UNL     1      28.088  27.914  32.354  1.00  0.00     0.293 HD
ENDBRANCH  17  20
ENDBRANCH   1  12
BRANCH   2  22
ATOM     22  O   UNL     1      25.409  23.165  34.087  1.00  0.00    -0.502 OA
ATOM     23  H   UNL     1      25.069  23.177  33.133  1.00  0.00     0.293 HD
ENDBRANCH   2  22
BRANCH   6  24
ATOM     24  O   UNL     1      25.460  18.763  37.084  1.00  0.00    -0.507 OA
ATOM     25  H   UNL     1      24.917  18.076  36.584  1.00  0.00     0.293 HD
ENDBRANCH   6  24
BRANCH   8  26
ATOM     26  O   UNL     1      30.168  17.941  37.334  1.00  0.00    -0.508 OA
ATOM     27  H   UNL     1      30.533  18.080  38.269  1.00  0.00     0.293 HD
ENDBRANCH   8  26
TORSDOF 6
ENDMDL
