MODEL 1
REMARK VINA RESULT:    -4.973      0.000      0.000
REMARK INTER + INTRA:          -5.648
REMARK INTER:                  -5.554
REMARK INTRA:                  -0.094
REMARK UNBOUND:                -0.094
REMARK SMILES O=C([O-])c1ccccc1C(=O)[O-]
REMARK SMILES IDX 4 1 9 2 5 3 8 4 6 5 7 6 2 7 1 8 3 9 10 10 11 11 12 12
REMARK H PARENT
REMARK Flexibility Score: inf
ROOT
ATOM      1  C   UNL     1      12.978 -30.467  22.002  1.00  0.00     0.006 A 
ATOM      2  C   UNL     1      13.814 -29.509  22.639  1.00  0.00     0.006 A 
ATOM      3  C   UNL     1      11.583 -30.274  22.016  1.00  0.00     0.010 A 
ATOM      4  C   UNL     1      13.222 -28.430  23.321  1.00  0.00     0.010 A 
ATOM      5  C   UNL     1      11.019 -29.185  22.679  1.00  0.00     0.001 A 
ATOM      6  C   UNL     1      11.836 -28.271  23.341  1.00  0.00     0.001 A 
ENDROOT
BRANCH   1   7
ATOM      7  C   UNL     1      13.506 -31.704  21.382  1.00  0.00     0.072 C 
ATOM      8  O   UNL     1      13.235 -31.977  20.182  1.00  0.00    -0.545 OA
ATOM      9  O   UNL     1      14.248 -32.610  22.130  1.00  0.00    -0.545 OA
ENDBRANCH   1   7
BRANCH   2  10
ATOM     10  C   UNL     1      15.292 -29.551  22.562  1.00  0.00     0.072 C 
ATOM     11  O   UNL     1      15.908 -28.937  21.650  1.00  0.00    -0.545 OA
ATOM     12  O   UNL     1      16.023 -30.216  23.539  1.00  0.00    -0.545 OA
ENDBRANCH   2  10
TORSDOF 2
ENDMDL
MODEL 2
REMARK VINA RESULT:    -4.908      0.056      2.873
REMARK INTER + INTRA:          -5.576
REMARK INTER:                  -5.477
REMARK INTRA:                  -0.099
REMARK UNBOUND:                -0.094
REMARK SMILES O=C([O-])c1ccccc1C(=O)[O-]
REMARK SMILES IDX 4 1 9 2 5 3 8 4 6 5 7 6 2 7 1 8 3 9 10 10 11 11 12 12
REMARK H PARENT
REMARK Flexibility Score: inf
ROOT
ATOM      1  C   UNL     1      13.795 -29.496  22.660  1.00  0.00     0.006 A 
ATOM      2  C   UNL     1      12.967 -30.456  22.014  1.00  0.00     0.006 A 
ATOM      3  C   UNL     1      13.194 -28.414  23.331  1.00  0.00     0.010 A 
ATOM      4  C   UNL     1      11.573 -30.262  22.009  1.00  0.00     0.010 A 
ATOM      5  C   UNL     1      11.809 -28.255  23.331  1.00  0.00     0.001 A 
ATOM      6  C   UNL     1      11.001 -29.170  22.661  1.00  0.00     0.001 A 
ENDROOT
BRANCH   1   7
ATOM      7  C   UNL     1      15.275 -29.544  22.598  1.00  0.00     0.072 C 
ATOM      8  O   UNL     1      15.886 -28.985  21.648  1.00  0.00    -0.545 OA
ATOM      9  O   UNL     1      16.002 -30.258  23.542  1.00  0.00    -0.545 OA
ENDBRANCH   1   7
BRANCH   2  10
ATOM     10  C   UNL     1      13.497 -31.695  21.402  1.00  0.00     0.072 C 
ATOM     11  O   UNL     1      13.366 -31.910  20.167  1.00  0.00    -0.545 OA
ATOM     12  O   UNL     1      14.206 -32.607  22.174  1.00  0.00    -0.545 OA
ENDBRANCH   2  10
TORSDOF 2
ENDMDL
MODEL 3
REMARK VINA RESULT:    -4.831      8.988     10.527
REMARK INTER + INTRA:          -5.490
REMARK INTER:                  -5.259
REMARK INTRA:                  -0.231
REMARK UNBOUND:                -0.094
REMARK SMILES O=C([O-])c1ccccc1C(=O)[O-]
REMARK SMILES IDX 4 1 9 2 5 3 8 4 6 5 7 6 2 7 1 8 3 9 10 10 11 11 12 12
REMARK H PARENT
REMARK Flexibility Score: inf
ROOT
ATOM      1  C   UNL     1      22.404 -25.299  20.672  1.00  0.00     0.006 A 
ATOM      2  C   UNL     1      22.470 -24.592  21.904  1.00  0.00     0.006 A 
ATOM      3  C   UNL     1      23.237 -24.902  19.609  1.00  0.00     0.010 A 
ATOM      4  C   UNL     1      23.319 -23.475  22.007  1.00  0.00     0.010 A 
ATOM      5  C   UNL     1      24.088 -23.805  19.741  1.00  0.00     0.001 A 
ATOM      6  C   UNL     1      24.120 -23.085  20.933  1.00  0.00     0.001 A 
ENDROOT
BRANCH   1   7
ATOM      7  C   UNL     1      21.439 -26.397  20.430  1.00  0.00     0.072 C 
ATOM      8  O   UNL     1      20.258 -26.136  20.077  1.00  0.00    -0.545 OA
ATOM      9  O   UNL     1      21.800 -27.720  20.653  1.00  0.00    -0.545 OA
ENDBRANCH   1   7
BRANCH   2  10
ATOM     10  C   UNL     1      21.735 -25.017  23.118  1.00  0.00     0.072 C 
ATOM     11  O   UNL     1      20.605 -24.530  23.390  1.00  0.00    -0.545 OA
ATOM     12  O   UNL     1      22.257 -26.011  23.937  1.00  0.00    -0.545 OA
ENDBRANCH   2  10
TORSDOF 2
ENDMDL
MODEL 4
REMARK VINA RESULT:    -4.808      9.081     10.839
REMARK INTER + INTRA:          -5.464
REMARK INTER:                  -5.247
REMARK INTRA:                  -0.217
REMARK UNBOUND:                -0.094
REMARK SMILES O=C([O-])c1ccccc1C(=O)[O-]
REMARK SMILES IDX 4 1 9 2 5 3 8 4 6 5 7 6 2 7 1 8 3 9 10 10 11 11 12 12
REMARK H PARENT
REMARK Flexibility Score: inf
ROOT
ATOM      1  C   UNL     1      22.444 -24.521  22.019  1.00  0.00     0.006 A 
ATOM      2  C   UNL     1      22.427 -25.186  20.761  1.00  0.00     0.006 A 
ATOM      3  C   UNL     1      23.271 -23.395  22.186  1.00  0.00     0.010 A 
ATOM      4  C   UNL     1      23.286 -24.739  19.740  1.00  0.00     0.010 A 
ATOM      5  C   UNL     1      24.097 -22.955  21.152  1.00  0.00     0.001 A 
ATOM      6  C   UNL     1      24.113 -23.633  19.936  1.00  0.00     0.001 A 
ENDROOT
BRANCH   1   7
ATOM      7  C   UNL     1      21.679 -25.007  23.191  1.00  0.00     0.072 C 
ATOM      8  O   UNL     1      20.543 -24.527  23.449  1.00  0.00    -0.545 OA
ATOM      9  O   UNL     1      22.228 -25.945  24.056  1.00  0.00    -0.545 OA
ENDBRANCH   1   7
BRANCH   2  10
ATOM     10  C   UNL     1      21.494 -26.292  20.446  1.00  0.00     0.072 C 
ATOM     11  O   UNL     1      20.336 -26.053  20.012  1.00  0.00    -0.545 OA
ATOM     12  O   UNL     1      21.912 -27.612  20.563  1.00  0.00    -0.545 OA
ENDBRANCH   2  10
TORSDOF 2
ENDMDL
MODEL 5
REMARK VINA RESULT:    -4.800      2.357      3.127
REMARK INTER + INTRA:          -5.455
REMARK INTER:                  -5.223
REMARK INTRA:                  -0.232
REMARK UNBOUND:                -0.094
REMARK SMILES O=C([O-])c1ccccc1C(=O)[O-]
REMARK SMILES IDX 4 1 9 2 5 3 8 4 6 5 7 6 2 7 1 8 3 9 10 10 11 11 12 12
REMARK H PARENT
REMARK Flexibility Score: inf
ROOT
ATOM      1  C   UNL     1      14.455 -32.491  21.573  1.00  0.00     0.006 A 
ATOM      2  C   UNL     1      14.482 -32.148  22.953  1.00  0.00     0.006 A 
ATOM      3  C   UNL     1      13.495 -31.890  20.737  1.00  0.00     0.010 A 
ATOM      4  C   UNL     1      13.508 -31.266  23.458  1.00  0.00     0.010 A 
ATOM      5  C   UNL     1      12.554 -31.001  21.255  1.00  0.00     0.001 A 
ATOM      6  C   UNL     1      12.552 -30.699  22.614  1.00  0.00     0.001 A 
ENDROOT
BRANCH   1   7
ATOM      7  C   UNL     1      15.351 -33.514  20.985  1.00  0.00     0.072 C 
ATOM      8  O   UNL     1      15.001 -34.725  20.964  1.00  0.00    -0.545 OA
ATOM      9  O   UNL     1      16.610 -33.167  20.512  1.00  0.00    -0.545 OA
ENDBRANCH   1   7
BRANCH   2  10
ATOM     10  C   UNL     1      15.534 -32.621  23.881  1.00  0.00     0.072 C 
ATOM     11  O   UNL     1      15.369 -33.669  24.561  1.00  0.00    -0.545 OA
ATOM     12  O   UNL     1      16.748 -31.949  23.962  1.00  0.00    -0.545 OA
ENDBRANCH   2  10
TORSDOF 2
ENDMDL
MODEL 6
REMARK VINA RESULT:    -4.772      2.371      3.879
REMARK INTER + INTRA:          -5.424
REMARK INTER:                  -5.211
REMARK INTRA:                  -0.213
REMARK UNBOUND:                -0.094
REMARK SMILES O=C([O-])c1ccccc1C(=O)[O-]
REMARK SMILES IDX 4 1 9 2 5 3 8 4 6 5 7 6 2 7 1 8 3 9 10 10 11 11 12 12
REMARK H PARENT
REMARK Flexibility Score: inf
ROOT
ATOM      1  C   UNL     1      14.546 -32.174  22.991  1.00  0.00     0.006 A 
ATOM      2  C   UNL     1      14.508 -32.509  21.609  1.00  0.00     0.006 A 
ATOM      3  C   UNL     1      13.580 -31.290  23.508  1.00  0.00     0.010 A 
ATOM      4  C   UNL     1      13.545 -31.898  20.784  1.00  0.00     0.010 A 
ATOM      5  C   UNL     1      12.621 -30.714  22.675  1.00  0.00     0.001 A 
ATOM      6  C   UNL     1      12.611 -31.008  21.314  1.00  0.00     0.001 A 
ENDROOT
BRANCH   1   7
ATOM      7  C   UNL     1      15.608 -32.659  23.903  1.00  0.00     0.072 C 
ATOM      8  O   UNL     1      15.444 -33.726  24.554  1.00  0.00    -0.545 OA
ATOM      9  O   UNL     1      16.764 -31.917  24.104  1.00  0.00    -0.545 OA
ENDBRANCH   1   7
BRANCH   2  10
ATOM     10  C   UNL     1      15.393 -33.529  21.002  1.00  0.00     0.072 C 
ATOM     11  O   UNL     1      14.998 -34.716  20.850  1.00  0.00    -0.545 OA
ATOM     12  O   UNL     1      16.649 -33.171  20.529  1.00  0.00    -0.545 OA
ENDBRANCH   2  10
TORSDOF 2
ENDMDL
MODEL 7
REMARK VINA RESULT:    -4.755      3.932      6.300
REMARK INTER + INTRA:          -5.405
REMARK INTER:                  -5.209
REMARK INTRA:                  -0.195
REMARK UNBOUND:                -0.094
REMARK SMILES O=C([O-])c1ccccc1C(=O)[O-]
REMARK SMILES IDX 4 1 9 2 5 3 8 4 6 5 7 6 2 7 1 8 3 9 10 10 11 11 12 12
REMARK H PARENT
REMARK Flexibility Score: inf
ROOT
ATOM      1  C   UNL     1      17.232 -33.340  20.558  1.00  0.00     0.006 A 
ATOM      2  C   UNL     1      15.954 -33.954  20.670  1.00  0.00     0.006 A 
ATOM      3  C   UNL     1      18.243 -33.991  19.826  1.00  0.00     0.010 A 
ATOM      4  C   UNL     1      15.755 -35.226  20.102  1.00  0.00     0.010 A 
ATOM      5  C   UNL     1      18.016 -35.242  19.252  1.00  0.00     0.001 A 
ATOM      6  C   UNL     1      16.778 -35.863  19.400  1.00  0.00     0.001 A 
ENDROOT
BRANCH   1   7
ATOM      7  C   UNL     1      17.573 -32.070  21.241  1.00  0.00     0.072 C 
ATOM      8  O   UNL     1      17.677 -31.003  20.578  1.00  0.00    -0.545 OA
ATOM      9  O   UNL     1      17.846 -32.048  22.603  1.00  0.00    -0.545 OA
ENDBRANCH   1   7
BRANCH   2  10
ATOM     10  C   UNL     1      14.792 -33.288  21.300  1.00  0.00     0.072 C 
ATOM     11  O   UNL     1      13.879 -32.781  20.595  1.00  0.00    -0.545 OA
ATOM     12  O   UNL     1      14.661 -33.274  22.684  1.00  0.00    -0.545 OA
ENDBRANCH   2  10
TORSDOF 2
ENDMDL
MODEL 8
REMARK VINA RESULT:    -4.711      3.894      5.746
REMARK INTER + INTRA:          -5.356
REMARK INTER:                  -5.153
REMARK INTRA:                  -0.203
REMARK UNBOUND:                -0.094
REMARK SMILES O=C([O-])c1ccccc1C(=O)[O-]
REMARK SMILES IDX 4 1 9 2 5 3 8 4 6 5 7 6 2 7 1 8 3 9 10 10 11 11 12 12
REMARK H PARENT
REMARK Flexibility Score: inf
ROOT
ATOM      1  C   UNL     1      15.987 -33.896  20.777  1.00  0.00     0.006 A 
ATOM      2  C   UNL     1      17.235 -33.233  20.617  1.00  0.00     0.006 A 
ATOM      3  C   UNL     1      15.801 -35.158  20.183  1.00  0.00     0.010 A 
ATOM      4  C   UNL     1      18.227 -33.828  19.815  1.00  0.00     0.010 A 
ATOM      5  C   UNL     1      16.807 -35.739  19.411  1.00  0.00     0.001 A 
ATOM      6  C   UNL     1      18.013 -35.070  19.218  1.00  0.00     0.001 A 
ENDROOT
BRANCH   1   7
ATOM      7  C   UNL     1      14.840 -33.282  21.485  1.00  0.00     0.072 C 
ATOM      8  O   UNL     1      14.721 -33.415  22.733  1.00  0.00    -0.545 OA
ATOM      9  O   UNL     1      13.848 -32.611  20.780  1.00  0.00    -0.545 OA
ENDBRANCH   1   7
BRANCH   2  10
ATOM     10  C   UNL     1      17.572 -31.970  21.312  1.00  0.00     0.072 C 
ATOM     11  O   UNL     1      17.509 -30.866  20.708  1.00  0.00    -0.545 OA
ATOM     12  O   UNL     1      17.898 -31.983  22.663  1.00  0.00    -0.545 OA
ENDBRANCH   2  10
TORSDOF 2
ENDMDL
MODEL 9
REMARK VINA RESULT:    -4.630      4.972      7.153
REMARK INTER + INTRA:          -5.265
REMARK INTER:                  -5.032
REMARK INTRA:                  -0.233
REMARK UNBOUND:                -0.094
REMARK SMILES O=C([O-])c1ccccc1C(=O)[O-]
REMARK SMILES IDX 4 1 9 2 5 3 8 4 6 5 7 6 2 7 1 8 3 9 10 10 11 11 12 12
REMARK H PARENT
REMARK Flexibility Score: inf
ROOT
ATOM      1  C   UNL     1      17.387 -35.505  21.931  1.00  0.00     0.006 A 
ATOM      2  C   UNL     1      16.448 -34.897  21.052  1.00  0.00     0.006 A 
ATOM      3  C   UNL     1      18.059 -36.670  21.514  1.00  0.00     0.010 A 
ATOM      4  C   UNL     1      16.169 -35.512  19.817  1.00  0.00     0.010 A 
ATOM      5  C   UNL     1      17.784 -37.249  20.276  1.00  0.00     0.001 A 
ATOM      6  C   UNL     1      16.832 -36.679  19.435  1.00  0.00     0.001 A 
ENDROOT
BRANCH   1   7
ATOM      7  C   UNL     1      17.638 -35.006  23.303  1.00  0.00     0.072 C 
ATOM      8  O   UNL     1      16.948 -35.431  24.267  1.00  0.00    -0.545 OA
ATOM      9  O   UNL     1      18.588 -34.019  23.535  1.00  0.00    -0.545 OA
ENDBRANCH   1   7
BRANCH   2  10
ATOM     10  C   UNL     1      15.794 -33.601  21.343  1.00  0.00     0.072 C 
ATOM     11  O   UNL     1      14.647 -33.562  21.864  1.00  0.00    -0.545 OA
ATOM     12  O   UNL     1      16.468 -32.410  21.105  1.00  0.00    -0.545 OA
ENDBRANCH   2  10
TORSDOF 2
ENDMDL
