MODEL 1
REMARK VINA RESULT:    -2.901      0.000      0.000
REMARK INTER + INTRA:          -3.250
REMARK INTER:                  -3.241
REMARK INTRA:                  -0.010
REMARK UNBOUND:                -0.010
REMARK SMILES CCCC(=O)[O-]
REMARK SMILES IDX 3 1 4 2 5 3 6 4 2 5 1 6
REMARK H PARENT
REMARK Flexibility Score: inf
ROOT
ATOM      1  C   UNL     1      15.017  20.206  -0.085  1.00  0.00     0.052 C 
ENDROOT
BRANCH   1   2
ATOM      2  C   UNL     1      14.117  19.097   0.362  1.00  0.00     0.041 C 
ATOM      3  O   UNL     1      14.564  18.175   1.094  1.00  0.00    -0.550 OA
ATOM      4  O   UNL     1      12.798  19.056  -0.069  1.00  0.00    -0.550 OA
ENDBRANCH   1   2
BRANCH   1   5
ATOM      5  C   UNL     1      14.357  21.013  -1.206  1.00  0.00     0.003 C 
ATOM      6  C   UNL     1      15.330  22.025  -1.804  1.00  0.00     0.004 C 
ENDBRANCH   1   5
TORSDOF 2
ENDMDL
MODEL 2
REMARK VINA RESULT:    -2.860      0.159      1.328
REMARK INTER + INTRA:          -3.204
REMARK INTER:                  -3.192
REMARK INTRA:                  -0.012
REMARK UNBOUND:                -0.010
REMARK SMILES CCCC(=O)[O-]
REMARK SMILES IDX 3 1 4 2 5 3 6 4 2 5 1 6
REMARK H PARENT
REMARK Flexibility Score: inf
ROOT
ATOM      1  C   UNL     1      15.077  20.148  -0.016  1.00  0.00     0.052 C 
ENDROOT
BRANCH   1   2
ATOM      2  C   UNL     1      14.121  19.061   0.368  1.00  0.00     0.041 C 
ATOM      3  O   UNL     1      12.938  19.076  -0.064  1.00  0.00    -0.550 OA
ATOM      4  O   UNL     1      14.523  18.060   1.243  1.00  0.00    -0.550 OA
ENDBRANCH   1   2
BRANCH   1   5
ATOM      5  C   UNL     1      14.497  20.993  -1.153  1.00  0.00     0.003 C 
ATOM      6  C   UNL     1      15.509  22.025  -1.643  1.00  0.00     0.004 C 
ENDBRANCH   1   5
TORSDOF 2
ENDMDL
MODEL 3
REMARK VINA RESULT:    -2.753     10.540     11.908
REMARK INTER + INTRA:          -3.085
REMARK INTER:                  -3.076
REMARK INTRA:                  -0.009
REMARK UNBOUND:                -0.010
REMARK SMILES CCCC(=O)[O-]
REMARK SMILES IDX 3 1 4 2 5 3 6 4 2 5 1 6
REMARK H PARENT
REMARK Flexibility Score: inf
ROOT
ATOM      1  C   UNL     1      14.560  13.397   9.138  1.00  0.00     0.052 C 
ENDROOT
BRANCH   1   2
ATOM      2  C   UNL     1      14.463  13.060   7.683  1.00  0.00     0.041 C 
ATOM      3  O   UNL     1      13.369  12.674   7.193  1.00  0.00    -0.550 OA
ATOM      4  O   UNL     1      15.594  13.124   6.879  1.00  0.00    -0.550 OA
ENDBRANCH   1   2
BRANCH   1   5
ATOM      5  C   UNL     1      14.086  12.219   9.994  1.00  0.00     0.003 C 
ATOM      6  C   UNL     1      13.919  12.631  11.453  1.00  0.00     0.004 C 
ENDBRANCH   1   5
TORSDOF 2
ENDMDL
MODEL 4
REMARK VINA RESULT:    -2.689     24.765     25.224
REMARK INTER + INTRA:          -3.013
REMARK INTER:                  -3.007
REMARK INTRA:                  -0.006
REMARK UNBOUND:                -0.010
REMARK SMILES CCCC(=O)[O-]
REMARK SMILES IDX 3 1 4 2 5 3 6 4 2 5 1 6
REMARK H PARENT
REMARK Flexibility Score: inf
ROOT
ATOM      1  C   UNL     1      -1.052   5.022  11.629  1.00  0.00     0.052 C 
ENDROOT
BRANCH   1   2
ATOM      2  C   UNL     1      -1.602   3.776  11.008  1.00  0.00     0.041 C 
ATOM      3  O   UNL     1      -2.368   3.850  10.011  1.00  0.00    -0.550 OA
ATOM      4  O   UNL     1      -1.307   2.536  11.560  1.00  0.00    -0.550 OA
ENDBRANCH   1   2
BRANCH   1   5
ATOM      5  C   UNL     1      -2.145   5.762  12.404  1.00  0.00     0.003 C 
ATOM      6  C   UNL     1      -1.637   7.101  12.930  1.00  0.00     0.004 C 
ENDBRANCH   1   5
TORSDOF 2
ENDMDL
MODEL 5
REMARK VINA RESULT:    -2.541      2.245      3.008
REMARK INTER + INTRA:          -2.848
REMARK INTER:                  -2.831
REMARK INTRA:                  -0.016
REMARK UNBOUND:                -0.010
REMARK SMILES CCCC(=O)[O-]
REMARK SMILES IDX 3 1 4 2 5 3 6 4 2 5 1 6
REMARK H PARENT
REMARK Flexibility Score: inf
ROOT
ATOM      1  C   UNL     1      13.725  20.546  -0.729  1.00  0.00     0.052 C 
ENDROOT
BRANCH   1   2
ATOM      2  C   UNL     1      15.158  20.527  -0.298  1.00  0.00     0.041 C 
ATOM      3  O   UNL     1      15.600  19.569   0.389  1.00  0.00    -0.550 OA
ATOM      4  O   UNL     1      15.992  21.593  -0.612  1.00  0.00    -0.550 OA
ENDBRANCH   1   2
BRANCH   1   5
ATOM      5  C   UNL     1      12.992  19.308  -0.206  1.00  0.00     0.003 C 
ATOM      6  C   UNL     1      11.831  18.928  -1.120  1.00  0.00     0.004 C 
ENDBRANCH   1   5
TORSDOF 2
ENDMDL
MODEL 6
REMARK VINA RESULT:    -2.511      9.300      9.981
REMARK INTER + INTRA:          -2.815
REMARK INTER:                  -2.799
REMARK INTRA:                  -0.016
REMARK UNBOUND:                -0.010
REMARK SMILES CCCC(=O)[O-]
REMARK SMILES IDX 3 1 4 2 5 3 6 4 2 5 1 6
REMARK H PARENT
REMARK Flexibility Score: inf
ROOT
ATOM      1  C   UNL     1      14.870  14.548   8.422  1.00  0.00     0.052 C 
ENDROOT
BRANCH   1   2
ATOM      2  C   UNL     1      15.466  15.827   7.923  1.00  0.00     0.041 C 
ATOM      3  O   UNL     1      16.442  15.804   7.128  1.00  0.00    -0.550 OA
ATOM      4  O   UNL     1      14.974  17.045   8.375  1.00  0.00    -0.550 OA
ENDBRANCH   1   2
BRANCH   1   5
ATOM      5  C   UNL     1      14.985  13.453   7.358  1.00  0.00     0.003 C 
ATOM      6  C   UNL     1      13.631  12.801   7.090  1.00  0.00     0.004 C 
ENDBRANCH   1   5
TORSDOF 2
ENDMDL
MODEL 7
REMARK VINA RESULT:    -2.492     24.514     25.381
REMARK INTER + INTRA:          -2.794
REMARK INTER:                  -2.756
REMARK INTRA:                  -0.038
REMARK UNBOUND:                -0.010
REMARK SMILES CCCC(=O)[O-]
REMARK SMILES IDX 3 1 4 2 5 3 6 4 2 5 1 6
REMARK H PARENT
REMARK Flexibility Score: inf
ROOT
ATOM      1  C   UNL     1      -0.945   4.947  11.573  1.00  0.00     0.052 C 
ENDROOT
BRANCH   1   2
ATOM      2  C   UNL     1      -1.903   5.817  12.325  1.00  0.00     0.041 C 
ATOM      3  O   UNL     1      -3.121   5.506  12.394  1.00  0.00    -0.550 OA
ATOM      4  O   UNL     1      -1.459   6.998  12.906  1.00  0.00    -0.550 OA
ENDBRANCH   1   2
BRANCH   1   5
ATOM      5  C   UNL     1      -1.676   3.747  10.964  1.00  0.00     0.003 C 
ATOM      6  C   UNL     1      -1.363   2.465  11.728  1.00  0.00     0.004 C 
ENDBRANCH   1   5
TORSDOF 2
ENDMDL
MODEL 8
REMARK VINA RESULT:    -2.488     11.316     12.379
REMARK INTER + INTRA:          -2.789
REMARK INTER:                  -2.782
REMARK INTRA:                  -0.008
REMARK UNBOUND:                -0.010
REMARK SMILES CCCC(=O)[O-]
REMARK SMILES IDX 3 1 4 2 5 3 6 4 2 5 1 6
REMARK H PARENT
REMARK Flexibility Score: inf
ROOT
ATOM      1  C   UNL     1      14.106  12.369   9.576  1.00  0.00     0.052 C 
ENDROOT
BRANCH   1   2
ATOM      2  C   UNL     1      14.436  13.084  10.848  1.00  0.00     0.041 C 
ATOM      3  O   UNL     1      13.723  12.917  11.873  1.00  0.00    -0.550 OA
ATOM      4  O   UNL     1      15.503  13.973  10.889  1.00  0.00    -0.550 OA
ENDBRANCH   1   2
BRANCH   1   5
ATOM      5  C   UNL     1      14.414  13.257   8.367  1.00  0.00     0.003 C 
ATOM      6  C   UNL     1      13.659  12.783   7.129  1.00  0.00     0.004 C 
ENDBRANCH   1   5
TORSDOF 2
ENDMDL
MODEL 9
REMARK VINA RESULT:    -2.432      9.484     10.267
REMARK INTER + INTRA:          -2.726
REMARK INTER:                  -2.714
REMARK INTRA:                  -0.012
REMARK UNBOUND:                -0.010
REMARK SMILES CCCC(=O)[O-]
REMARK SMILES IDX 3 1 4 2 5 3 6 4 2 5 1 6
REMARK H PARENT
REMARK Flexibility Score: inf
ROOT
ATOM      1  C   UNL     1      15.311  14.274   7.502  1.00  0.00     0.052 C 
ENDROOT
BRANCH   1   2
ATOM      2  C   UNL     1      14.322  13.176   7.740  1.00  0.00     0.041 C 
ATOM      3  O   UNL     1      13.612  12.747   6.792  1.00  0.00    -0.550 OA
ATOM      4  O   UNL     1      14.149  12.661   9.018  1.00  0.00    -0.550 OA
ENDBRANCH   1   2
BRANCH   1   5
ATOM      5  C   UNL     1      15.346  15.231   8.697  1.00  0.00     0.003 C 
ATOM      6  C   UNL     1      15.218  16.682   8.244  1.00  0.00     0.004 C 
ENDBRANCH   1   5
TORSDOF 2
ENDMDL
