MODEL 1
REMARK VINA RESULT:    -6.100      0.000      0.000
REMARK INTER + INTRA:          -6.888
REMARK INTER:                  -6.635
REMARK INTRA:                  -0.253
REMARK UNBOUND:                -0.253
REMARK SMILES O=C([O-])c1ccccc1O
REMARK SMILES IDX 4 1 9 2 5 3 8 4 6 5 7 6 2 7 1 8 3 9 10 10
REMARK H PARENT 10 11
REMARK Flexibility Score: inf
ROOT
ATOM      1  C   UNL     1      61.282  64.012  74.304  1.00  0.00     0.039 A 
ATOM      2  C   UNL     1      62.119  63.118  73.593  1.00  0.00     0.124 A 
ATOM      3  C   UNL     1      61.834  65.213  74.793  1.00  0.00     0.014 A 
ATOM      4  C   UNL     1      63.470  63.437  73.389  1.00  0.00     0.047 A 
ATOM      5  C   UNL     1      63.181  65.517  74.584  1.00  0.00     0.001 A 
ATOM      6  C   UNL     1      63.997  64.631  73.882  1.00  0.00     0.004 A 
ENDROOT
BRANCH   1   7
ATOM      7  C   UNL     1      59.846  63.715  74.542  1.00  0.00     0.075 C 
ATOM      8  O   UNL     1      59.323  63.958  75.663  1.00  0.00    -0.545 OA
ATOM      9  O   UNL     1      59.051  63.166  73.543  1.00  0.00    -0.545 OA
ENDBRANCH   1   7
BRANCH   2  10
ATOM     10  O   UNL     1      61.617  61.918  73.090  1.00  0.00    -0.507 OA
ATOM     11  H   UNL     1      61.157  61.241  73.688  1.00  0.00     0.293 HD
ENDBRANCH   2  10
TORSDOF 2
ENDMDL
MODEL 2
REMARK VINA RESULT:    -5.647      1.303      2.868
REMARK INTER + INTRA:          -6.395
REMARK INTER:                  -6.143
REMARK INTRA:                  -0.251
REMARK UNBOUND:                -0.253
REMARK SMILES O=C([O-])c1ccccc1O
REMARK SMILES IDX 4 1 9 2 5 3 8 4 6 5 7 6 2 7 1 8 3 9 10 10
REMARK H PARENT 10 11
REMARK Flexibility Score: inf
ROOT
ATOM      1  C   UNL     1      61.730  64.579  74.610  1.00  0.00     0.039 A 
ATOM      2  C   UNL     1      60.887  65.640  75.018  1.00  0.00     0.124 A 
ATOM      3  C   UNL     1      63.099  64.841  74.403  1.00  0.00     0.014 A 
ATOM      4  C   UNL     1      61.421  66.924  75.208  1.00  0.00     0.047 A 
ATOM      5  C   UNL     1      63.617  66.124  74.595  1.00  0.00     0.001 A 
ATOM      6  C   UNL     1      62.779  67.163  74.997  1.00  0.00     0.004 A 
ENDROOT
BRANCH   1   7
ATOM      7  C   UNL     1      61.207  63.204  74.398  1.00  0.00     0.075 C 
ATOM      8  O   UNL     1      61.610  62.513  73.424  1.00  0.00    -0.545 OA
ATOM      9  O   UNL     1      60.268  62.652  75.261  1.00  0.00    -0.545 OA
ENDBRANCH   1   7
BRANCH   2  10
ATOM     10  O   UNL     1      59.526  65.428  75.235  1.00  0.00    -0.507 OA
ATOM     11  H   UNL     1      58.871  66.199  75.306  1.00  0.00     0.293 HD
ENDBRANCH   2  10
TORSDOF 2
ENDMDL
MODEL 3
REMARK VINA RESULT:    -5.622      1.443      2.278
REMARK INTER + INTRA:          -6.368
REMARK INTER:                  -6.117
REMARK INTRA:                  -0.251
REMARK UNBOUND:                -0.253
REMARK SMILES O=C([O-])c1ccccc1O
REMARK SMILES IDX 4 1 9 2 5 3 8 4 6 5 7 6 2 7 1 8 3 9 10 10
REMARK H PARENT 10 11
REMARK Flexibility Score: inf
ROOT
ATOM      1  C   UNL     1      61.839  64.408  74.636  1.00  0.00     0.039 A 
ATOM      2  C   UNL     1      63.253  64.485  74.631  1.00  0.00     0.124 A 
ATOM      3  C   UNL     1      61.096  65.590  74.834  1.00  0.00     0.014 A 
ATOM      4  C   UNL     1      63.886  65.722  74.821  1.00  0.00     0.047 A 
ATOM      5  C   UNL     1      61.740  66.815  75.023  1.00  0.00     0.001 A 
ATOM      6  C   UNL     1      63.133  66.881  75.016  1.00  0.00     0.004 A 
ENDROOT
BRANCH   1   7
ATOM      7  C   UNL     1      61.126  63.119  74.438  1.00  0.00     0.075 C 
ATOM      8  O   UNL     1      61.423  62.371  73.469  1.00  0.00    -0.545 OA
ATOM      9  O   UNL     1      60.121  62.714  75.308  1.00  0.00    -0.545 OA
ENDBRANCH   1   7
BRANCH   2  10
ATOM     10  O   UNL     1      64.029  63.343  74.439  1.00  0.00    -0.507 OA
ATOM     11  H   UNL     1      64.929  63.229  74.891  1.00  0.00     0.293 HD
ENDBRANCH   2  10
TORSDOF 2
ENDMDL
MODEL 4
REMARK VINA RESULT:    -5.600      1.405      2.557
REMARK INTER + INTRA:          -6.344
REMARK INTER:                  -6.194
REMARK INTRA:                  -0.150
REMARK UNBOUND:                -0.253
REMARK SMILES O=C([O-])c1ccccc1O
REMARK SMILES IDX 4 1 9 2 5 3 8 4 6 5 7 6 2 7 1 8 3 9 10 10
REMARK H PARENT 10 11
REMARK Flexibility Score: inf
ROOT
ATOM      1  C   UNL     1      60.716  63.806  74.707  1.00  0.00     0.039 A 
ATOM      2  C   UNL     1      60.695  65.192  74.995  1.00  0.00     0.124 A 
ATOM      3  C   UNL     1      61.923  63.221  74.274  1.00  0.00     0.014 A 
ATOM      4  C   UNL     1      61.864  65.954  74.846  1.00  0.00     0.047 A 
ATOM      5  C   UNL     1      63.079  63.992  74.129  1.00  0.00     0.001 A 
ATOM      6  C   UNL     1      63.049  65.356  74.415  1.00  0.00     0.004 A 
ENDROOT
BRANCH   1   7
ATOM      7  C   UNL     1      59.503  62.960  74.851  1.00  0.00     0.075 C 
ATOM      8  O   UNL     1      58.594  62.996  73.979  1.00  0.00    -0.545 OA
ATOM      9  O   UNL     1      59.342  62.117  75.944  1.00  0.00    -0.545 OA
ENDBRANCH   1   7
BRANCH   2  10
ATOM     10  O   UNL     1      59.525  65.814  75.426  1.00  0.00    -0.507 OA
ATOM     11  H   UNL     1      59.353  66.799  75.260  1.00  0.00     0.293 HD
ENDBRANCH   2  10
TORSDOF 2
ENDMDL
MODEL 5
REMARK VINA RESULT:    -5.462      1.623      2.486
REMARK INTER + INTRA:          -6.194
REMARK INTER:                  -5.986
REMARK INTRA:                  -0.207
REMARK UNBOUND:                -0.253
REMARK SMILES O=C([O-])c1ccccc1O
REMARK SMILES IDX 4 1 9 2 5 3 8 4 6 5 7 6 2 7 1 8 3 9 10 10
REMARK H PARENT 10 11
REMARK Flexibility Score: inf
ROOT
ATOM      1  C   UNL     1      61.834  65.239  74.585  1.00  0.00     0.039 A 
ATOM      2  C   UNL     1      61.267  64.125  73.920  1.00  0.00     0.124 A 
ATOM      3  C   UNL     1      63.238  65.342  74.659  1.00  0.00     0.014 A 
ATOM      4  C   UNL     1      62.101  63.152  73.351  1.00  0.00     0.047 A 
ATOM      5  C   UNL     1      64.056  64.365  74.088  1.00  0.00     0.001 A 
ATOM      6  C   UNL     1      63.489  63.272  73.435  1.00  0.00     0.004 A 
ENDROOT
BRANCH   1   7
ATOM      7  C   UNL     1      60.988  66.294  75.202  1.00  0.00     0.075 C 
ATOM      8  O   UNL     1      59.815  66.031  75.577  1.00  0.00    -0.545 OA
ATOM      9  O   UNL     1      61.468  67.587  75.376  1.00  0.00    -0.545 OA
ENDBRANCH   1   7
BRANCH   2  10
ATOM     10  O   UNL     1      59.883  63.981  73.822  1.00  0.00    -0.507 OA
ATOM     11  H   UNL     1      59.454  63.085  73.620  1.00  0.00     0.293 HD
ENDBRANCH   2  10
TORSDOF 2
ENDMDL
MODEL 6
REMARK VINA RESULT:    -5.438      0.946      2.195
REMARK INTER + INTRA:          -6.168
REMARK INTER:                  -5.926
REMARK INTRA:                  -0.242
REMARK UNBOUND:                -0.253
REMARK SMILES O=C([O-])c1ccccc1O
REMARK SMILES IDX 4 1 9 2 5 3 8 4 6 5 7 6 2 7 1 8 3 9 10 10
REMARK H PARENT 10 11
REMARK Flexibility Score: inf
ROOT
ATOM      1  C   UNL     1      61.335  64.099  74.324  1.00  0.00     0.039 A 
ATOM      2  C   UNL     1      61.904  65.329  74.734  1.00  0.00     0.124 A 
ATOM      3  C   UNL     1      62.159  63.149  73.688  1.00  0.00     0.014 A 
ATOM      4  C   UNL     1      63.265  65.581  74.503  1.00  0.00     0.047 A 
ATOM      5  C   UNL     1      63.513  63.414  73.464  1.00  0.00     0.001 A 
ATOM      6  C   UNL     1      64.064  64.628  73.871  1.00  0.00     0.004 A 
ENDROOT
BRANCH   1   7
ATOM      7  C   UNL     1      59.899  63.789  74.549  1.00  0.00     0.075 C 
ATOM      8  O   UNL     1      59.339  64.117  75.629  1.00  0.00    -0.545 OA
ATOM      9  O   UNL     1      59.147  63.133  73.582  1.00  0.00    -0.545 OA
ENDBRANCH   1   7
BRANCH   2  10
ATOM     10  O   UNL     1      61.127  66.298  75.367  1.00  0.00    -0.507 OA
ATOM     11  H   UNL     1      60.314  66.052  75.920  1.00  0.00     0.293 HD
ENDBRANCH   2  10
TORSDOF 2
ENDMDL
MODEL 7
REMARK VINA RESULT:    -5.389      1.777      3.434
REMARK INTER + INTRA:          -6.115
REMARK INTER:                  -5.864
REMARK INTRA:                  -0.251
REMARK UNBOUND:                -0.253
REMARK SMILES O=C([O-])c1ccccc1O
REMARK SMILES IDX 4 1 9 2 5 3 8 4 6 5 7 6 2 7 1 8 3 9 10 10
REMARK H PARENT 10 11
REMARK Flexibility Score: inf
ROOT
ATOM      1  C   UNL     1      62.164  64.661  74.446  1.00  0.00     0.039 A 
ATOM      2  C   UNL     1      60.847  64.250  74.763  1.00  0.00     0.124 A 
ATOM      3  C   UNL     1      62.504  66.022  74.592  1.00  0.00     0.014 A 
ATOM      4  C   UNL     1      59.910  65.191  75.214  1.00  0.00     0.047 A 
ATOM      5  C   UNL     1      61.560  66.948  75.042  1.00  0.00     0.001 A 
ATOM      6  C   UNL     1      60.266  66.534  75.352  1.00  0.00     0.004 A 
ENDROOT
BRANCH   1   7
ATOM      7  C   UNL     1      63.190  63.699  73.966  1.00  0.00     0.075 C 
ATOM      8  O   UNL     1      62.920  62.893  73.035  1.00  0.00    -0.545 OA
ATOM      9  O   UNL     1      64.460  63.663  74.529  1.00  0.00    -0.545 OA
ENDBRANCH   1   7
BRANCH   2  10
ATOM     10  O   UNL     1      60.467  62.915  74.634  1.00  0.00    -0.507 OA
ATOM     11  H   UNL     1      60.657  62.386  73.790  1.00  0.00     0.293 HD
ENDBRANCH   2  10
TORSDOF 2
ENDMDL
MODEL 8
REMARK VINA RESULT:    -5.355      2.280      3.092
REMARK INTER + INTRA:          -6.078
REMARK INTER:                  -5.868
REMARK INTRA:                  -0.210
REMARK UNBOUND:                -0.253
REMARK SMILES O=C([O-])c1ccccc1O
REMARK SMILES IDX 4 1 9 2 5 3 8 4 6 5 7 6 2 7 1 8 3 9 10 10
REMARK H PARENT 10 11
REMARK Flexibility Score: inf
ROOT
ATOM      1  C   UNL     1      61.886  65.256  74.587  1.00  0.00     0.039 A 
ATOM      2  C   UNL     1      63.293  65.412  74.574  1.00  0.00     0.124 A 
ATOM      3  C   UNL     1      61.327  64.102  74.003  1.00  0.00     0.014 A 
ATOM      4  C   UNL     1      64.101  64.427  73.987  1.00  0.00     0.047 A 
ATOM      5  C   UNL     1      62.143  63.129  73.420  1.00  0.00     0.001 A 
ATOM      6  C   UNL     1      63.527  63.291  73.413  1.00  0.00     0.004 A 
ENDROOT
BRANCH   1   7
ATOM      7  C   UNL     1      60.993  66.273  75.199  1.00  0.00     0.075 C 
ATOM      8  O   UNL     1      59.830  65.959  75.569  1.00  0.00    -0.545 OA
ATOM      9  O   UNL     1      61.414  67.586  75.375  1.00  0.00    -0.545 OA
ENDBRANCH   1   7
BRANCH   2  10
ATOM     10  O   UNL     1      63.891  66.537  75.141  1.00  0.00    -0.507 OA
ATOM     11  H   UNL     1      63.340  67.290  75.536  1.00  0.00     0.293 HD
ENDBRANCH   2  10
TORSDOF 2
ENDMDL
MODEL 9
REMARK VINA RESULT:    -5.204     20.097     21.371
REMARK INTER + INTRA:          -5.913
REMARK INTER:                  -5.678
REMARK INTRA:                  -0.234
REMARK UNBOUND:                -0.253
REMARK SMILES O=C([O-])c1ccccc1O
REMARK SMILES IDX 4 1 9 2 5 3 8 4 6 5 7 6 2 7 1 8 3 9 10 10
REMARK H PARENT 10 11
REMARK Flexibility Score: inf
ROOT
ATOM      1  C   UNL     1      75.250  60.445  58.039  1.00  0.00     0.039 A 
ATOM      2  C   UNL     1      75.251  61.084  59.303  1.00  0.00     0.124 A 
ATOM      3  C   UNL     1      75.250  61.241  56.876  1.00  0.00     0.014 A 
ATOM      4  C   UNL     1      75.251  62.485  59.377  1.00  0.00     0.047 A 
ATOM      5  C   UNL     1      75.250  62.636  56.966  1.00  0.00     0.001 A 
ATOM      6  C   UNL     1      75.251  63.256  58.214  1.00  0.00     0.004 A 
ENDROOT
BRANCH   1   7
ATOM      7  C   UNL     1      75.250  58.964  57.912  1.00  0.00     0.075 C 
ATOM      8  O   UNL     1      74.611  58.255  58.735  1.00  0.00    -0.545 OA
ATOM      9  O   UNL     1      75.951  58.331  56.893  1.00  0.00    -0.545 OA
ENDBRANCH   1   7
BRANCH   2  10
ATOM     10  O   UNL     1      75.251  60.337  60.480  1.00  0.00    -0.507 OA
ATOM     11  H   UNL     1      74.413  60.227  61.040  1.00  0.00     0.293 HD
ENDBRANCH   2  10
TORSDOF 2
ENDMDL
