MODEL 1
REMARK VINA RESULT:    -4.698      0.000      0.000
REMARK INTER + INTRA:          -8.188
REMARK INTER:                  -7.170
REMARK INTRA:                  -1.017
REMARK UNBOUND:                -1.017
REMARK SMILES CCCCCCCCCCC(=O)[O-]
REMARK SMILES IDX 7 1 8 2 9 3 10 4 11 5 12 6 13 7 6 8 5 9 4 10 3 11 2 12 1 13
REMARK H PARENT
REMARK Flexibility Score: inf
ROOT
ATOM      1  C   UNL     1     -25.463 -31.415 -10.671  1.00  0.00     0.000 C 
ENDROOT
BRANCH   1   2
ATOM      2  C   UNL     1     -24.774 -31.673 -12.016  1.00  0.00     0.000 C 
BRANCH   2   3
ATOM      3  C   UNL     1     -23.965 -32.978 -11.980  1.00  0.00     0.006 C 
BRANCH   3   4
ATOM      4  C   UNL     1     -24.865 -34.220 -12.013  1.00  0.00     0.053 C 
BRANCH   4   5
ATOM      5  C   UNL     1     -24.148 -35.410 -12.575  1.00  0.00     0.041 C 
ATOM      6  O   UNL     1     -24.799 -36.381 -13.041  1.00  0.00    -0.550 OA
ATOM      7  O   UNL     1     -22.759 -35.458 -12.555  1.00  0.00    -0.550 OA
ENDBRANCH   4   5
ENDBRANCH   3   4
ENDBRANCH   2   3
ENDBRANCH   1   2
BRANCH   1   8
ATOM      8  C   UNL     1     -26.984 -31.328 -10.837  1.00  0.00     0.000 C 
BRANCH   8   9
ATOM      9  C   UNL     1     -27.354 -30.681 -12.181  1.00  0.00    -0.000 C 
BRANCH   9  10
ATOM     10  C   UNL     1     -28.438 -31.462 -12.939  1.00  0.00    -0.000 C 
BRANCH  10  11
ATOM     11  C   UNL     1     -28.282 -32.986 -12.791  1.00  0.00    -0.000 C 
BRANCH  11  12
ATOM     12  C   UNL     1     -27.700 -33.643 -14.051  1.00  0.00    -0.003 C 
ATOM     13  C   UNL     1     -27.832 -35.167 -14.042  1.00  0.00     0.004 C 
ENDBRANCH  11  12
ENDBRANCH  10  11
ENDBRANCH   9  10
ENDBRANCH   8   9
ENDBRANCH   1   8
TORSDOF 9
ENDMDL
MODEL 2
REMARK VINA RESULT:    -4.559      0.982      3.175
REMARK INTER + INTRA:          -7.975
REMARK INTER:                  -6.819
REMARK INTRA:                  -1.156
REMARK UNBOUND:                -1.017
REMARK SMILES CCCCCCCCCCC(=O)[O-]
REMARK SMILES IDX 7 1 8 2 9 3 10 4 11 5 12 6 13 7 6 8 5 9 4 10 3 11 2 12 1 13
REMARK H PARENT
REMARK Flexibility Score: inf
ROOT
ATOM      1  C   UNL     1     -27.644 -34.397 -13.081  1.00  0.00     0.000 C 
ENDROOT
BRANCH   1   2
ATOM      2  C   UNL     1     -27.532 -34.475 -11.554  1.00  0.00     0.000 C 
BRANCH   2   3
ATOM      3  C   UNL     1     -26.096 -34.813 -11.124  1.00  0.00     0.006 C 
BRANCH   3   4
ATOM      4  C   UNL     1     -25.060 -34.374 -12.167  1.00  0.00     0.053 C 
BRANCH   4   5
ATOM      5  C   UNL     1     -24.248 -35.532 -12.664  1.00  0.00     0.041 C 
ATOM      6  O   UNL     1     -24.818 -36.546 -13.147  1.00  0.00    -0.550 OA
ATOM      7  O   UNL     1     -22.863 -35.504 -12.562  1.00  0.00    -0.550 OA
ENDBRANCH   4   5
ENDBRANCH   3   4
ENDBRANCH   2   3
ENDBRANCH   1   2
BRANCH   1   8
ATOM      8  C   UNL     1     -28.248 -33.059 -13.523  1.00  0.00     0.000 C 
BRANCH   8   9
ATOM      9  C   UNL     1     -28.152 -32.016 -12.399  1.00  0.00    -0.000 C 
BRANCH   9  10
ATOM     10  C   UNL     1     -27.536 -30.689 -12.869  1.00  0.00    -0.000 C 
BRANCH  10  11
ATOM     11  C   UNL     1     -26.564 -30.090 -11.838  1.00  0.00    -0.000 C 
BRANCH  11  12
ATOM     12  C   UNL     1     -26.362 -31.003 -10.620  1.00  0.00    -0.003 C 
ATOM     13  C   UNL     1     -24.889 -31.202 -10.264  1.00  0.00     0.004 C 
ENDBRANCH  11  12
ENDBRANCH  10  11
ENDBRANCH   9  10
ENDBRANCH   8   9
ENDBRANCH   1   8
TORSDOF 9
ENDMDL
MODEL 3
REMARK VINA RESULT:    -4.525      1.559      2.260
REMARK INTER + INTRA:          -7.924
REMARK INTER:                  -7.037
REMARK INTRA:                  -0.887
REMARK UNBOUND:                -1.017
REMARK SMILES CCCCCCCCCCC(=O)[O-]
REMARK SMILES IDX 7 1 8 2 9 3 10 4 11 5 12 6 13 7 6 8 5 9 4 10 3 11 2 12 1 13
REMARK H PARENT
REMARK Flexibility Score: inf
ROOT
ATOM      1  C   UNL     1     -24.716 -33.342 -11.782  1.00  0.00     0.000 C 
ENDROOT
BRANCH   1   2
ATOM      2  C   UNL     1     -24.959 -34.851 -11.905  1.00  0.00     0.000 C 
BRANCH   2   3
ATOM      3  C   UNL     1     -23.753 -35.553 -12.545  1.00  0.00     0.006 C 
BRANCH   3   4
ATOM      4  C   UNL     1     -22.625 -34.571 -12.889  1.00  0.00     0.053 C 
BRANCH   4   5
ATOM      5  C   UNL     1     -21.275 -35.208 -12.757  1.00  0.00     0.041 C 
ATOM      6  O   UNL     1     -20.979 -35.858 -11.720  1.00  0.00    -0.550 OA
ATOM      7  O   UNL     1     -20.333 -35.055 -13.767  1.00  0.00    -0.550 OA
ENDBRANCH   4   5
ENDBRANCH   3   4
ENDBRANCH   2   3
ENDBRANCH   1   2
BRANCH   1   8
ATOM      8  C   UNL     1     -25.949 -32.629 -11.216  1.00  0.00     0.000 C 
BRANCH   8   9
ATOM      9  C   UNL     1     -26.520 -31.628 -12.232  1.00  0.00    -0.000 C 
BRANCH   9  10
ATOM     10  C   UNL     1     -28.009 -31.866 -12.529  1.00  0.00    -0.000 C 
BRANCH  10  11
ATOM     11  C   UNL     1     -28.314 -33.332 -12.886  1.00  0.00    -0.000 C 
BRANCH  11  12
ATOM     12  C   UNL     1     -27.773 -33.725 -14.268  1.00  0.00    -0.003 C 
ATOM     13  C   UNL     1     -27.582 -35.234 -14.425  1.00  0.00     0.004 C 
ENDBRANCH  11  12
ENDBRANCH  10  11
ENDBRANCH   9  10
ENDBRANCH   8   9
ENDBRANCH   1   8
TORSDOF 9
ENDMDL
MODEL 4
REMARK VINA RESULT:    -4.471      2.153      3.690
REMARK INTER + INTRA:          -7.841
REMARK INTER:                  -6.798
REMARK INTRA:                  -1.044
REMARK UNBOUND:                -1.017
REMARK SMILES CCCCCCCCCCC(=O)[O-]
REMARK SMILES IDX 7 1 8 2 9 3 10 4 11 5 12 6 13 7 6 8 5 9 4 10 3 11 2 12 1 13
REMARK H PARENT
REMARK Flexibility Score: inf
ROOT
ATOM      1  C   UNL     1     -27.429 -31.235 -12.706  1.00  0.00     0.000 C 
ENDROOT
BRANCH   1   2
ATOM      2  C   UNL     1     -27.569 -30.877 -11.222  1.00  0.00     0.000 C 
BRANCH   2   3
ATOM      3  C   UNL     1     -26.233 -31.050 -10.484  1.00  0.00     0.006 C 
BRANCH   3   4
ATOM      4  C   UNL     1     -25.051 -31.195 -11.451  1.00  0.00     0.053 C 
BRANCH   4   5
ATOM      5  C   UNL     1     -23.747 -31.304 -10.721  1.00  0.00     0.041 C 
ATOM      6  O   UNL     1     -22.854 -32.092 -11.131  1.00  0.00    -0.550 OA
ATOM      7  O   UNL     1     -23.531 -30.557  -9.570  1.00  0.00    -0.550 OA
ENDBRANCH   4   5
ENDBRANCH   3   4
ENDBRANCH   2   3
ENDBRANCH   1   2
BRANCH   1   8
ATOM      8  C   UNL     1     -28.394 -32.360 -13.096  1.00  0.00     0.000 C 
BRANCH   8   9
ATOM      9  C   UNL     1     -27.629 -33.585 -13.619  1.00  0.00    -0.000 C 
BRANCH   9  10
ATOM     10  C   UNL     1     -27.648 -34.764 -12.633  1.00  0.00    -0.000 C 
BRANCH  10  11
ATOM     11  C   UNL     1     -26.617 -34.605 -11.501  1.00  0.00    -0.000 C 
BRANCH  11  12
ATOM     12  C   UNL     1     -25.171 -34.753 -11.997  1.00  0.00    -0.003 C 
ATOM     13  C   UNL     1     -24.969 -35.984 -12.882  1.00  0.00     0.004 C 
ENDBRANCH  11  12
ENDBRANCH  10  11
ENDBRANCH   9  10
ENDBRANCH   8   9
ENDBRANCH   1   8
TORSDOF 9
ENDMDL
MODEL 5
REMARK VINA RESULT:    -4.469      1.116      3.239
REMARK INTER + INTRA:          -7.838
REMARK INTER:                  -6.633
REMARK INTRA:                  -1.205
REMARK UNBOUND:                -1.017
REMARK SMILES CCCCCCCCCCC(=O)[O-]
REMARK SMILES IDX 7 1 8 2 9 3 10 4 11 5 12 6 13 7 6 8 5 9 4 10 3 11 2 12 1 13
REMARK H PARENT
REMARK Flexibility Score: inf
ROOT
ATOM      1  C   UNL     1     -28.234 -32.609 -13.260  1.00  0.00     0.000 C 
ENDROOT
BRANCH   1   2
ATOM      2  C   UNL     1     -28.140 -33.448 -11.980  1.00  0.00     0.000 C 
BRANCH   2   3
ATOM      3  C   UNL     1     -27.383 -34.760 -12.237  1.00  0.00     0.006 C 
BRANCH   3   4
ATOM      4  C   UNL     1     -25.997 -34.770 -11.579  1.00  0.00     0.053 C 
BRANCH   4   5
ATOM      5  C   UNL     1     -24.943 -35.283 -12.512  1.00  0.00     0.041 C 
ATOM      6  O   UNL     1     -25.187 -36.258 -13.269  1.00  0.00    -0.550 OA
ATOM      7  O   UNL     1     -23.681 -34.703 -12.520  1.00  0.00    -0.550 OA
ENDBRANCH   4   5
ENDBRANCH   3   4
ENDBRANCH   2   3
ENDBRANCH   1   2
BRANCH   1   8
ATOM      8  C   UNL     1     -27.979 -31.126 -12.967  1.00  0.00     0.000 C 
BRANCH   8   9
ATOM      9  C   UNL     1     -27.905 -30.869 -11.455  1.00  0.00    -0.000 C 
BRANCH   9  10
ATOM     10  C   UNL     1     -26.551 -30.289 -11.015  1.00  0.00    -0.000 C 
BRANCH  10  11
ATOM     11  C   UNL     1     -25.695 -31.307 -10.240  1.00  0.00    -0.000 C 
BRANCH  11  12
ATOM     12  C   UNL     1     -24.340 -31.569 -10.913  1.00  0.00    -0.003 C 
ATOM     13  C   UNL     1     -24.336 -31.214 -12.401  1.00  0.00     0.004 C 
ENDBRANCH  11  12
ENDBRANCH  10  11
ENDBRANCH   9  10
ENDBRANCH   8   9
ENDBRANCH   1   8
TORSDOF 9
ENDMDL
MODEL 6
REMARK VINA RESULT:    -4.378      1.385      3.376
REMARK INTER + INTRA:          -7.698
REMARK INTER:                  -6.866
REMARK INTRA:                  -0.832
REMARK UNBOUND:                -1.017
REMARK SMILES CCCCCCCCCCC(=O)[O-]
REMARK SMILES IDX 7 1 8 2 9 3 10 4 11 5 12 6 13 7 6 8 5 9 4 10 3 11 2 12 1 13
REMARK H PARENT
REMARK Flexibility Score: inf
ROOT
ATOM      1  C   UNL     1     -26.732 -35.431 -13.471  1.00  0.00     0.000 C 
ENDROOT
BRANCH   1   2
ATOM      2  C   UNL     1     -25.828 -34.831 -12.388  1.00  0.00     0.000 C 
BRANCH   2   3
ATOM      3  C   UNL     1     -24.384 -35.333 -12.535  1.00  0.00     0.006 C 
BRANCH   3   4
ATOM      4  C   UNL     1     -23.368 -34.184 -12.549  1.00  0.00     0.053 C 
BRANCH   4   5
ATOM      5  C   UNL     1     -22.000 -34.658 -12.938  1.00  0.00     0.041 C 
ATOM      6  O   UNL     1     -21.441 -35.582 -12.290  1.00  0.00    -0.550 OA
ATOM      7  O   UNL     1     -21.331 -34.056 -13.996  1.00  0.00    -0.550 OA
ENDBRANCH   4   5
ENDBRANCH   3   4
ENDBRANCH   2   3
ENDBRANCH   1   2
BRANCH   1   8
ATOM      8  C   UNL     1     -27.771 -34.411 -13.951  1.00  0.00     0.000 C 
BRANCH   8   9
ATOM      9  C   UNL     1     -28.393 -33.660 -12.764  1.00  0.00    -0.000 C 
BRANCH   9  10
ATOM     10  C   UNL     1     -28.398 -32.136 -12.961  1.00  0.00    -0.000 C 
BRANCH  10  11
ATOM     11  C   UNL     1     -27.797 -31.382 -11.761  1.00  0.00    -0.000 C 
BRANCH  11  12
ATOM     12  C   UNL     1     -26.275 -31.218 -11.872  1.00  0.00    -0.003 C 
ATOM     13  C   UNL     1     -25.560 -31.382 -10.530  1.00  0.00     0.004 C 
ENDBRANCH  11  12
ENDBRANCH  10  11
ENDBRANCH   9  10
ENDBRANCH   8   9
ENDBRANCH   1   8
TORSDOF 9
ENDMDL
MODEL 7
REMARK VINA RESULT:    -4.290      2.758      4.145
REMARK INTER + INTRA:          -7.564
REMARK INTER:                  -6.655
REMARK INTRA:                  -0.909
REMARK UNBOUND:                -1.017
REMARK SMILES CCCCCCCCCCC(=O)[O-]
REMARK SMILES IDX 7 1 8 2 9 3 10 4 11 5 12 6 13 7 6 8 5 9 4 10 3 11 2 12 1 13
REMARK H PARENT
REMARK Flexibility Score: inf
ROOT
ATOM      1  C   UNL     1     -24.033 -32.007 -11.133  1.00  0.00     0.000 C 
ENDROOT
BRANCH   1   2
ATOM      2  C   UNL     1     -24.965 -30.943 -10.542  1.00  0.00     0.000 C 
BRANCH   2   3
ATOM      3  C   UNL     1     -26.427 -31.412 -10.573  1.00  0.00     0.006 C 
BRANCH   3   4
ATOM      4  C   UNL     1     -27.371 -30.333 -11.120  1.00  0.00     0.053 C 
BRANCH   4   5
ATOM      5  C   UNL     1     -27.636 -30.517 -12.583  1.00  0.00     0.041 C 
ATOM      6  O   UNL     1     -28.704 -31.058 -12.971  1.00  0.00    -0.550 OA
ATOM      7  O   UNL     1     -26.687 -30.119 -13.517  1.00  0.00    -0.550 OA
ENDBRANCH   4   5
ENDBRANCH   3   4
ENDBRANCH   2   3
ENDBRANCH   1   2
BRANCH   1   8
ATOM      8  C   UNL     1     -24.725 -32.781 -12.261  1.00  0.00     0.000 C 
BRANCH   8   9
ATOM      9  C   UNL     1     -24.349 -34.270 -12.217  1.00  0.00    -0.000 C 
BRANCH   9  10
ATOM     10  C   UNL     1     -25.520 -35.191 -12.594  1.00  0.00    -0.000 C 
BRANCH  10  11
ATOM     11  C   UNL     1     -26.863 -34.702 -12.023  1.00  0.00    -0.000 C 
BRANCH  11  12
ATOM     12  C   UNL     1     -27.878 -34.355 -13.123  1.00  0.00    -0.003 C 
ATOM     13  C   UNL     1     -27.655 -35.150 -14.410  1.00  0.00     0.004 C 
ENDBRANCH  11  12
ENDBRANCH  10  11
ENDBRANCH   9  10
ENDBRANCH   8   9
ENDBRANCH   1   8
TORSDOF 9
ENDMDL
MODEL 8
REMARK VINA RESULT:    -4.252      1.923      3.400
REMARK INTER + INTRA:          -7.506
REMARK INTER:                  -6.917
REMARK INTRA:                  -0.590
REMARK UNBOUND:                -1.017
REMARK SMILES CCCCCCCCCCC(=O)[O-]
REMARK SMILES IDX 7 1 8 2 9 3 10 4 11 5 12 6 13 7 6 8 5 9 4 10 3 11 2 12 1 13
REMARK H PARENT
REMARK Flexibility Score: inf
ROOT
ATOM      1  C   UNL     1     -25.624 -34.770 -11.478  1.00  0.00     0.000 C 
ENDROOT
BRANCH   1   2
ATOM      2  C   UNL     1     -24.912 -35.519 -12.610  1.00  0.00     0.000 C 
BRANCH   2   3
ATOM      3  C   UNL     1     -23.398 -35.584 -12.361  1.00  0.00     0.006 C 
BRANCH   3   4
ATOM      4  C   UNL     1     -22.663 -34.364 -12.930  1.00  0.00     0.053 C 
BRANCH   4   5
ATOM      5  C   UNL     1     -21.280 -34.713 -13.390  1.00  0.00     0.041 C 
ATOM      6  O   UNL     1     -20.754 -34.091 -14.350  1.00  0.00    -0.550 OA
ATOM      7  O   UNL     1     -20.585 -35.749 -12.777  1.00  0.00    -0.550 OA
ENDBRANCH   4   5
ENDBRANCH   3   4
ENDBRANCH   2   3
ENDBRANCH   1   2
BRANCH   1   8
ATOM      8  C   UNL     1     -27.142 -34.761 -11.691  1.00  0.00     0.000 C 
BRANCH   8   9
ATOM      9  C   UNL     1     -27.489 -34.949 -13.176  1.00  0.00    -0.000 C 
BRANCH   9  10
ATOM     10  C   UNL     1     -27.896 -33.636 -13.863  1.00  0.00    -0.000 C 
BRANCH  10  11
ATOM     11  C   UNL     1     -28.397 -32.577 -12.865  1.00  0.00    -0.000 C 
BRANCH  11  12
ATOM     12  C   UNL     1     -27.455 -31.368 -12.767  1.00  0.00    -0.003 C 
ATOM     13  C   UNL     1     -27.694 -30.529 -11.511  1.00  0.00     0.004 C 
ENDBRANCH  11  12
ENDBRANCH  10  11
ENDBRANCH   9  10
ENDBRANCH   8   9
ENDBRANCH   1   8
TORSDOF 9
ENDMDL
MODEL 9
REMARK VINA RESULT:    -4.250      1.827      3.836
REMARK INTER + INTRA:          -7.503
REMARK INTER:                  -6.493
REMARK INTRA:                  -1.010
REMARK UNBOUND:                -1.017
REMARK SMILES CCCCCCCCCCC(=O)[O-]
REMARK SMILES IDX 7 1 8 2 9 3 10 4 11 5 12 6 13 7 6 8 5 9 4 10 3 11 2 12 1 13
REMARK H PARENT
REMARK Flexibility Score: inf
ROOT
ATOM      1  C   UNL     1     -27.230 -31.005 -10.927  1.00  0.00     0.000 C 
ENDROOT
BRANCH   1   2
ATOM      2  C   UNL     1     -27.480 -30.889 -12.436  1.00  0.00     0.000 C 
BRANCH   2   3
ATOM      3  C   UNL     1     -28.332 -32.060 -12.945  1.00  0.00     0.006 C 
BRANCH   3   4
ATOM      4  C   UNL     1     -27.487 -33.133 -13.644  1.00  0.00     0.053 C 
BRANCH   4   5
ATOM      5  C   UNL     1     -27.717 -34.491 -13.055  1.00  0.00     0.041 C 
ATOM      6  O   UNL     1     -27.904 -35.485 -13.806  1.00  0.00    -0.550 OA
ATOM      7  O   UNL     1     -27.757 -34.653 -11.676  1.00  0.00    -0.550 OA
ENDBRANCH   4   5
ENDBRANCH   3   4
ENDBRANCH   2   3
ENDBRANCH   1   2
BRANCH   1   8
ATOM      8  C   UNL     1     -25.864 -31.641 -10.642  1.00  0.00     0.000 C 
BRANCH   8   9
ATOM      9  C   UNL     1     -24.796 -31.106 -11.608  1.00  0.00    -0.000 C 
BRANCH   9  10
ATOM     10  C   UNL     1     -23.964 -32.225 -12.255  1.00  0.00    -0.000 C 
BRANCH  10  11
ATOM     11  C   UNL     1     -24.450 -33.630 -11.854  1.00  0.00    -0.000 C 
BRANCH  11  12
ATOM     12  C   UNL     1     -23.727 -34.744 -12.624  1.00  0.00    -0.003 C 
ATOM     13  C   UNL     1     -22.287 -34.378 -12.987  1.00  0.00     0.004 C 
ENDBRANCH  11  12
ENDBRANCH  10  11
ENDBRANCH   9  10
ENDBRANCH   8   9
ENDBRANCH   1   8
TORSDOF 9
ENDMDL
