MODEL 1
REMARK VINA RESULT:    -0.491      0.000      0.000
REMARK INTER + INTRA:          -0.868
REMARK INTER:                  -0.678
REMARK INTRA:                  -0.191
REMARK UNBOUND:                -0.191
REMARK SMILES CC[C@@H](CC[C@@H](C)[C@@H]1CC[C@@H]2[C@H]3CC=C4C[C@@H](O)CC[C@@]4(C)[C@H]3CC[C@@]21C)C(C)C
REMARK SMILES IDX 5 1 4 2 3 3 2 4 1 5 28 6 29 7 30 8 6 9 7 10 8 11 9 12 26 13
REMARK SMILES IDX 10 14 11 15 25 16 27 17 12 18 24 19 23 20 13 21 21 22 14 23
REMARK SMILES IDX 15 24 20 25 22 26 16 27 19 28 17 29 18 30
REMARK H PARENT 18 31
REMARK Flexibility Score: inf
ROOT
ATOM      1  C   UNL     1       0.443  -1.120  19.499  1.00  0.00     0.004 C 
ENDROOT
BRANCH   1   2
ATOM      2  C   UNL     1      -0.562  -1.949  18.660  1.00  0.00     0.004 C 
BRANCH   2   3
ATOM      3  C   UNL     1      -1.068  -3.241  19.375  1.00  0.00    -0.009 C 
BRANCH   3   4
ATOM      4  C   UNL     1      -1.206  -4.400  18.348  1.00  0.00     0.000 C 
ATOM      5  C   UNL     1      -0.518  -5.704  18.772  1.00  0.00     0.004 C 
ENDBRANCH   3   4
BRANCH   3   6
ATOM      6  C   UNL     1      -2.375  -3.008  20.210  1.00  0.00    -0.014 C 
ATOM      7  C   UNL     1      -2.093  -2.964  21.724  1.00  0.00     0.007 C 
ATOM      8  C   UNL     1      -3.099  -1.715  19.802  1.00  0.00     0.007 C 
ENDBRANCH   3   6
ENDBRANCH   2   3
ENDBRANCH   1   2
BRANCH   1   9
ATOM      9  C   UNL     1       1.937  -1.490  19.278  1.00  0.00    -0.011 C 
ATOM     10  C   UNL     1       2.053  -2.730  18.361  1.00  0.00     0.008 C 
BRANCH   9  11
ATOM     11  C   UNL     1       2.823  -0.253  18.857  1.00  0.00    -0.002 C 
ATOM     12  C   UNL     1       2.322   0.550  17.662  1.00  0.00     0.005 C 
ATOM     13  C   UNL     1       4.364  -0.477  18.591  1.00  0.00    -0.026 C 
ATOM     14  C   UNL     1       3.502   1.415  17.287  1.00  0.00     0.005 C 
ATOM     15  C   UNL     1       4.732   0.495  17.410  1.00  0.00    -0.001 C 
ATOM     16  C   UNL     1       4.746  -1.941  18.257  1.00  0.00     0.007 C 
ATOM     17  C   UNL     1       5.134  -0.047  19.871  1.00  0.00     0.012 C 
ATOM     18  C   UNL     1       5.060  -0.172  16.018  1.00  0.00     0.000 C 
ATOM     19  C   UNL     1       6.080  -2.012  17.520  1.00  0.00     0.005 C 
ATOM     20  C   UNL     1       5.929  -1.501  16.074  1.00  0.00     0.003 C 
ATOM     21  C   UNL     1       5.665   0.892  15.063  1.00  0.00     0.031 C 
ATOM     22  C   UNL     1       7.295  -1.459  15.251  1.00  0.00    -0.008 C 
ATOM     23  C   UNL     1       7.142   1.023  15.262  1.00  0.00    -0.027 C 
ATOM     24  C   UNL     1       7.918  -0.064  15.335  1.00  0.00    -0.065 C 
ATOM     25  C   UNL     1       8.349  -2.496  15.764  1.00  0.00     0.014 C 
ATOM     26  C   UNL     1       6.997  -1.806  13.762  1.00  0.00     0.016 C 
ATOM     27  C   UNL     1       9.400   0.090  15.598  1.00  0.00     0.063 C 
ATOM     28  C   UNL     1       9.716  -2.403  15.051  1.00  0.00     0.033 C 
ATOM     29  C   UNL     1      10.187  -0.951  14.782  1.00  0.00     0.118 C 
BRANCH  29  30
ATOM     30  O   UNL     1      11.575  -0.847  15.000  1.00  0.00    -0.393 OA
ATOM     31  H   UNL     1      11.734  -0.530  15.929  1.00  0.00     0.210 HD
ENDBRANCH  29  30
ENDBRANCH   9  11
ENDBRANCH   1   9
TORSDOF 7
ENDMDL
MODEL 2
REMARK VINA RESULT:    -0.366      1.410      2.332
REMARK INTER + INTRA:          -0.696
REMARK INTER:                  -0.344
REMARK INTRA:                  -0.352
REMARK UNBOUND:                -0.191
REMARK SMILES CC[C@@H](CC[C@@H](C)[C@@H]1CC[C@@H]2[C@H]3CC=C4C[C@@H](O)CC[C@@]4(C)[C@H]3CC[C@@]21C)C(C)C
REMARK SMILES IDX 5 1 4 2 3 3 2 4 1 5 28 6 29 7 30 8 6 9 7 10 8 11 9 12 26 13
REMARK SMILES IDX 10 14 11 15 25 16 27 17 12 18 24 19 23 20 13 21 21 22 14 23
REMARK SMILES IDX 15 24 20 25 22 26 16 27 19 28 17 29 18 30
REMARK H PARENT 18 31
REMARK Flexibility Score: inf
ROOT
ATOM      1  C   UNL     1       2.015  -1.660  18.343  1.00  0.00     0.004 C 
ENDROOT
BRANCH   1   2
ATOM      2  C   UNL     1       0.928  -2.448  19.118  1.00  0.00     0.004 C 
BRANCH   2   3
ATOM      3  C   UNL     1      -0.473  -2.434  18.430  1.00  0.00    -0.009 C 
BRANCH   3   4
ATOM      4  C   UNL     1      -1.204  -1.097  18.735  1.00  0.00     0.000 C 
ATOM      5  C   UNL     1      -2.475  -0.868  17.908  1.00  0.00     0.004 C 
ENDBRANCH   3   4
BRANCH   3   6
ATOM      6  C   UNL     1      -1.339  -3.695  18.776  1.00  0.00    -0.014 C 
ATOM      7  C   UNL     1      -0.513  -4.995  18.726  1.00  0.00     0.007 C 
ATOM      8  C   UNL     1      -2.001  -3.580  20.159  1.00  0.00     0.007 C 
ENDBRANCH   3   6
ENDBRANCH   2   3
ENDBRANCH   1   2
BRANCH   1   9
ATOM      9  C   UNL     1       2.337  -0.253  18.922  1.00  0.00    -0.011 C 
ATOM     10  C   UNL     1       2.327  -0.294  20.468  1.00  0.00     0.008 C 
BRANCH   9  11
ATOM     11  C   UNL     1       3.616   0.404  18.272  1.00  0.00    -0.002 C 
ATOM     12  C   UNL     1       3.449   0.919  16.846  1.00  0.00     0.005 C 
ATOM     13  C   UNL     1       4.969  -0.412  18.263  1.00  0.00    -0.026 C 
ATOM     14  C   UNL     1       4.865   1.160  16.380  1.00  0.00     0.005 C 
ATOM     15  C   UNL     1       5.672  -0.044  16.905  1.00  0.00    -0.001 C 
ATOM     16  C   UNL     1       4.789  -1.943  18.410  1.00  0.00     0.007 C 
ATOM     17  C   UNL     1       5.838   0.099  19.447  1.00  0.00     0.012 C 
ATOM     18  C   UNL     1       5.739  -1.179  15.810  1.00  0.00     0.000 C 
ATOM     19  C   UNL     1       6.008  -2.697  17.885  1.00  0.00     0.005 C 
ATOM     20  C   UNL     1       6.060  -2.640  16.346  1.00  0.00     0.003 C 
ATOM     21  C   UNL     1       6.696  -0.743  14.668  1.00  0.00     0.031 C 
ATOM     22  C   UNL     1       7.350  -3.331  15.712  1.00  0.00    -0.008 C 
ATOM     23  C   UNL     1       8.117  -1.078  14.992  1.00  0.00    -0.027 C 
ATOM     24  C   UNL     1       8.441  -2.286  15.464  1.00  0.00    -0.065 C 
ATOM     25  C   UNL     1       7.950  -4.457  16.620  1.00  0.00     0.014 C 
ATOM     26  C   UNL     1       6.953  -3.997  14.361  1.00  0.00     0.016 C 
ATOM     27  C   UNL     1       9.875  -2.583  15.844  1.00  0.00     0.063 C 
ATOM     28  C   UNL     1       9.259  -5.069  16.076  1.00  0.00     0.033 C 
ATOM     29  C   UNL     1      10.230  -4.031  15.459  1.00  0.00     0.118 C 
BRANCH  29  30
ATOM     30  O   UNL     1      11.558  -4.353  15.799  1.00  0.00    -0.393 OA
ATOM     31  H   UNL     1      12.082  -3.512  15.888  1.00  0.00     0.210 HD
ENDBRANCH  29  30
ENDBRANCH   9  11
ENDBRANCH   1   9
TORSDOF 7
ENDMDL
MODEL 3
REMARK VINA RESULT:     1.784      3.819      7.192
REMARK INTER + INTRA:           2.271
REMARK INTER:                   3.014
REMARK INTRA:                  -0.743
REMARK UNBOUND:                -0.191
REMARK SMILES CC[C@@H](CC[C@@H](C)[C@@H]1CC[C@@H]2[C@H]3CC=C4C[C@@H](O)CC[C@@]4(C)[C@H]3CC[C@@]21C)C(C)C
REMARK SMILES IDX 5 1 4 2 3 3 2 4 1 5 28 6 29 7 30 8 6 9 7 10 8 11 9 12 26 13
REMARK SMILES IDX 10 14 11 15 25 16 27 17 12 18 24 19 23 20 13 21 21 22 14 23
REMARK SMILES IDX 15 24 20 25 22 26 16 27 19 28 17 29 18 30
REMARK H PARENT 18 31
REMARK Flexibility Score: inf
ROOT
ATOM      1  C   UNL     1       9.024  -5.213  17.411  1.00  0.00     0.004 C 
ENDROOT
BRANCH   1   2
ATOM      2  C   UNL     1       8.617  -6.503  18.168  1.00  0.00     0.004 C 
BRANCH   2   3
ATOM      3  C   UNL     1       7.411  -6.311  19.139  1.00  0.00    -0.009 C 
BRANCH   3   4
ATOM      4  C   UNL     1       7.847  -6.620  20.599  1.00  0.00     0.000 C 
ATOM      5  C   UNL     1       8.114  -5.377  21.455  1.00  0.00     0.004 C 
ENDBRANCH   3   4
BRANCH   3   6
ATOM      6  C   UNL     1       6.136  -7.113  18.701  1.00  0.00    -0.014 C 
ATOM      7  C   UNL     1       4.884  -6.682  19.488  1.00  0.00     0.007 C 
ATOM      8  C   UNL     1       5.852  -6.969  17.197  1.00  0.00     0.007 C 
ENDBRANCH   3   6
ENDBRANCH   2   3
ENDBRANCH   1   2
BRANCH   1   9
ATOM      9  C   UNL     1       9.486  -5.438  15.942  1.00  0.00    -0.011 C 
ATOM     10  C   UNL     1       8.958  -6.793  15.415  1.00  0.00     0.008 C 
BRANCH   9  11
ATOM     11  C   UNL     1       9.207  -4.195  15.010  1.00  0.00    -0.002 C 
ATOM     12  C   UNL     1      10.221  -3.059  15.093  1.00  0.00     0.005 C 
ATOM     13  C   UNL     1       7.793  -3.496  15.078  1.00  0.00    -0.026 C 
ATOM     14  C   UNL     1       9.537  -1.911  14.391  1.00  0.00     0.005 C 
ATOM     15  C   UNL     1       8.072  -1.962  14.868  1.00  0.00    -0.001 C 
ATOM     16  C   UNL     1       7.019  -3.753  16.395  1.00  0.00     0.007 C 
ATOM     17  C   UNL     1       6.941  -4.031  13.893  1.00  0.00     0.012 C 
ATOM     18  C   UNL     1       7.871  -1.025  16.122  1.00  0.00     0.000 C 
ATOM     19  C   UNL     1       5.955  -2.684  16.632  1.00  0.00     0.005 C 
ATOM     20  C   UNL     1       6.609  -1.348  17.032  1.00  0.00     0.003 C 
ATOM     21  C   UNL     1       7.913   0.460  15.672  1.00  0.00     0.031 C 
ATOM     22  C   UNL     1       5.576  -0.146  17.217  1.00  0.00    -0.008 C 
ATOM     23  C   UNL     1       6.570   0.925  15.205  1.00  0.00    -0.027 C 
ATOM     24  C   UNL     1       5.473   0.664  15.923  1.00  0.00    -0.065 C 
ATOM     25  C   UNL     1       4.139  -0.631  17.606  1.00  0.00     0.014 C 
ATOM     26  C   UNL     1       6.076   0.776  18.369  1.00  0.00     0.016 C 
ATOM     27  C   UNL     1       4.117   1.090  15.401  1.00  0.00     0.063 C 
ATOM     28  C   UNL     1       3.097   0.506  17.689  1.00  0.00     0.033 C 
ATOM     29  C   UNL     1       3.233   1.568  16.568  1.00  0.00     0.118 C 
BRANCH  29  30
ATOM     30  O   UNL     1       1.958   1.971  16.128  1.00  0.00    -0.393 OA
ATOM     31  H   UNL     1       1.371   2.108  16.920  1.00  0.00     0.210 HD
ENDBRANCH  29  30
ENDBRANCH   9  11
ENDBRANCH   1   9
TORSDOF 7
ENDMDL
MODEL 4
REMARK VINA RESULT:     2.317      3.077      7.736
REMARK INTER + INTRA:           3.006
REMARK INTER:                   3.882
REMARK INTRA:                  -0.875
REMARK UNBOUND:                -0.191
REMARK SMILES CC[C@@H](CC[C@@H](C)[C@@H]1CC[C@@H]2[C@H]3CC=C4C[C@@H](O)CC[C@@]4(C)[C@H]3CC[C@@]21C)C(C)C
REMARK SMILES IDX 5 1 4 2 3 3 2 4 1 5 28 6 29 7 30 8 6 9 7 10 8 11 9 12 26 13
REMARK SMILES IDX 10 14 11 15 25 16 27 17 12 18 24 19 23 20 13 21 21 22 14 23
REMARK SMILES IDX 15 24 20 25 22 26 16 27 19 28 17 29 18 30
REMARK H PARENT 18 31
REMARK Flexibility Score: inf
ROOT
ATOM      1  C   UNL     1       9.273  -3.323  14.999  1.00  0.00     0.004 C 
ENDROOT
BRANCH   1   2
ATOM      2  C   UNL     1       9.640  -4.377  16.075  1.00  0.00     0.004 C 
BRANCH   2   3
ATOM      3  C   UNL     1       8.554  -5.480  16.276  1.00  0.00    -0.009 C 
BRANCH   3   4
ATOM      4  C   UNL     1       7.333  -5.199  15.356  1.00  0.00     0.000 C 
ATOM      5  C   UNL     1       6.614  -6.459  14.859  1.00  0.00     0.004 C 
ENDBRANCH   3   4
BRANCH   3   6
ATOM      6  C   UNL     1       8.152  -5.678  17.779  1.00  0.00    -0.014 C 
ATOM      7  C   UNL     1       6.627  -5.603  17.984  1.00  0.00     0.007 C 
ATOM      8  C   UNL     1       8.663  -7.014  18.343  1.00  0.00     0.007 C 
ENDBRANCH   3   6
ENDBRANCH   2   3
ENDBRANCH   1   2
BRANCH   1   9
ATOM      9  C   UNL     1       9.563  -1.850  15.405  1.00  0.00    -0.011 C 
ATOM     10  C   UNL     1      10.980  -1.436  14.944  1.00  0.00     0.008 C 
BRANCH   9  11
ATOM     11  C   UNL     1       8.404  -0.858  14.999  1.00  0.00    -0.002 C 
ATOM     12  C   UNL     1       8.581   0.590  15.440  1.00  0.00     0.005 C 
ATOM     13  C   UNL     1       6.917  -1.230  15.381  1.00  0.00    -0.026 C 
ATOM     14  C   UNL     1       7.216   1.202  15.233  1.00  0.00     0.005 C 
ATOM     15  C   UNL     1       6.218   0.137  15.727  1.00  0.00    -0.001 C 
ATOM     16  C   UNL     1       6.794  -2.239  16.550  1.00  0.00     0.007 C 
ATOM     17  C   UNL     1       6.244  -1.848  14.124  1.00  0.00     0.012 C 
ATOM     18  C   UNL     1       5.856   0.385  17.243  1.00  0.00     0.000 C 
ATOM     19  C   UNL     1       5.418  -2.163  17.207  1.00  0.00     0.005 C 
ATOM     20  C   UNL     1       5.282  -0.869  18.033  1.00  0.00     0.003 C 
ATOM     21  C   UNL     1       4.936   1.631  17.359  1.00  0.00     0.031 C 
ATOM     22  C   UNL     1       3.842  -0.662  18.687  1.00  0.00    -0.008 C 
ATOM     23  C   UNL     1       3.501   1.267  17.155  1.00  0.00    -0.027 C 
ATOM     24  C   UNL     1       2.971   0.210  17.780  1.00  0.00    -0.065 C 
ATOM     25  C   UNL     1       3.087  -2.010  18.941  1.00  0.00     0.014 C 
ATOM     26  C   UNL     1       4.012   0.035  20.070  1.00  0.00     0.016 C 
ATOM     27  C   UNL     1       1.532  -0.176  17.511  1.00  0.00     0.063 C 
ATOM     28  C   UNL     1       1.650  -1.830  19.478  1.00  0.00     0.033 C 
ATOM     29  C   UNL     1       0.870  -0.668  18.812  1.00  0.00     0.118 C 
BRANCH  29  30
ATOM     30  O   UNL     1      -0.471  -1.043  18.607  1.00  0.00    -0.393 OA
ATOM     31  H   UNL     1      -1.058  -0.259  18.788  1.00  0.00     0.210 HD
ENDBRANCH  29  30
ENDBRANCH   9  11
ENDBRANCH   1   9
TORSDOF 7
ENDMDL
