MODEL 1
REMARK VINA RESULT:     8.955      0.000      0.000
REMARK INTER + INTRA:           9.453
REMARK INTER:                   9.478
REMARK INTRA:                  -0.025
REMARK UNBOUND:                -0.025
REMARK SMILES C=C(C)[C@H]1CC[C@]2(C)CCCC(=C)[C@@H]2C1
REMARK SMILES IDX 4 1 5 2 6 3 7 4 9 5 10 6 11 7 12 8 13 9 14 10 15 11 8 12
REMARK SMILES IDX 2 13 3 14 1 15
REMARK H PARENT
REMARK Flexibility Score: inf
ROOT
ATOM      1  C   UNL     1     135.831 138.983 165.425  1.00  0.00     0.015 C 
ATOM      2  C   UNL     1     135.604 140.338 164.722  1.00  0.00     0.008 C 
ATOM      3  C   UNL     1     136.443 140.535 163.448  1.00  0.00     0.008 C 
ATOM      4  C   UNL     1     136.393 139.343 162.447  1.00  0.00    -0.026 C 
ATOM      5  C   UNL     1     135.029 139.342 161.689  1.00  0.00     0.008 C 
ATOM      6  C   UNL     1     134.875 138.154 160.724  1.00  0.00     0.005 C 
ATOM      7  C   UNL     1     135.105 136.805 161.416  1.00  0.00     0.031 C 
ATOM      8  C   UNL     1     136.371 136.822 162.244  1.00  0.00    -0.074 C 
ATOM      9  C   UNL     1     137.196 135.764 162.243  1.00  0.00     0.008 C 
ATOM     10  C   UNL     1     136.609 137.987 163.191  1.00  0.00     0.021 C 
ATOM     11  C   UNL     1     135.688 137.827 164.420  1.00  0.00     0.016 C 
ATOM     12  C   UNL     1     137.547 139.559 161.431  1.00  0.00     0.012 C 
ENDROOT
BRANCH   1  13
ATOM     13  C   UNL     1     137.107 138.858 166.265  1.00  0.00    -0.077 C 
ATOM     14  C   UNL     1     137.296 137.794 167.320  1.00  0.00     0.039 C 
ATOM     15  C   UNL     1     138.091 139.757 166.078  1.00  0.00     0.008 C 
ENDBRANCH   1  13
TORSDOF 1
ENDMDL
MODEL 2
REMARK VINA RESULT:    11.684      1.700      4.288
REMARK INTER + INTRA:          12.342
REMARK INTER:                  12.299
REMARK INTRA:                   0.043
REMARK UNBOUND:                -0.025
REMARK SMILES C=C(C)[C@H]1CC[C@]2(C)CCCC(=C)[C@@H]2C1
REMARK SMILES IDX 4 1 5 2 6 3 7 4 9 5 10 6 11 7 12 8 13 9 14 10 15 11 8 12
REMARK SMILES IDX 2 13 3 14 1 15
REMARK H PARENT
REMARK Flexibility Score: inf
ROOT
ATOM      1  C   UNL     1     137.062 136.781 161.159  1.00  0.00     0.015 C 
ATOM      2  C   UNL     1     135.518 136.757 161.152  1.00  0.00     0.008 C 
ATOM      3  C   UNL     1     134.875 137.244 162.462  1.00  0.00     0.008 C 
ATOM      4  C   UNL     1     135.435 138.595 162.997  1.00  0.00    -0.026 C 
ATOM      5  C   UNL     1     134.875 139.777 162.146  1.00  0.00     0.008 C 
ATOM      6  C   UNL     1     135.433 141.146 162.573  1.00  0.00     0.005 C 
ATOM      7  C   UNL     1     136.966 141.174 162.586  1.00  0.00     0.031 C 
ATOM      8  C   UNL     1     137.531 139.975 163.317  1.00  0.00    -0.074 C 
ATOM      9  C   UNL     1     138.575 140.117 164.147  1.00  0.00     0.008 C 
ATOM     10  C   UNL     1     136.997 138.594 162.975  1.00  0.00     0.021 C 
ATOM     11  C   UNL     1     137.574 138.160 161.611  1.00  0.00     0.016 C 
ATOM     12  C   UNL     1     134.944 138.738 164.463  1.00  0.00     0.012 C 
ENDROOT
BRANCH   1  13
ATOM     13  C   UNL     1     137.756 135.638 161.907  1.00  0.00    -0.077 C 
ATOM     14  C   UNL     1     139.138 135.143 161.551  1.00  0.00     0.039 C 
ATOM     15  C   UNL     1     137.093 135.025 162.904  1.00  0.00     0.008 C 
ENDBRANCH   1  13
TORSDOF 1
ENDMDL
MODEL 3
REMARK VINA RESULT:    11.739      1.107      1.415
REMARK INTER + INTRA:          12.400
REMARK INTER:                  12.638
REMARK INTRA:                  -0.237
REMARK UNBOUND:                -0.025
REMARK SMILES C=C(C)[C@H]1CC[C@]2(C)CCCC(=C)[C@@H]2C1
REMARK SMILES IDX 4 1 5 2 6 3 7 4 9 5 10 6 11 7 12 8 13 9 14 10 15 11 8 12
REMARK SMILES IDX 2 13 3 14 1 15
REMARK H PARENT
REMARK Flexibility Score: inf
ROOT
ATOM      1  C   UNL     1     135.515 138.637 164.591  1.00  0.00     0.015 C 
ATOM      2  C   UNL     1     135.233 139.603 163.421  1.00  0.00     0.008 C 
ATOM      3  C   UNL     1     136.260 139.524 162.278  1.00  0.00     0.008 C 
ATOM      4  C   UNL     1     136.567 138.080 161.781  1.00  0.00    -0.026 C 
ATOM      5  C   UNL     1     135.384 137.554 160.911  1.00  0.00     0.008 C 
ATOM      6  C   UNL     1     135.583 136.104 160.433  1.00  0.00     0.005 C 
ATOM      7  C   UNL     1     135.867 135.141 161.591  1.00  0.00     0.031 C 
ATOM      8  C   UNL     1     136.941 135.686 162.508  1.00  0.00    -0.074 C 
ATOM      9  C   UNL     1     137.892 134.876 162.995  1.00  0.00     0.008 C 
ATOM     10  C   UNL     1     136.830 137.124 162.988  1.00  0.00     0.021 C 
ATOM     11  C   UNL     1     135.728 137.207 164.065  1.00  0.00     0.016 C 
ATOM     12  C   UNL     1     137.848 138.166 160.909  1.00  0.00     0.012 C 
ENDROOT
BRANCH   1  13
ATOM     13  C   UNL     1     136.616 139.057 165.571  1.00  0.00    -0.077 C 
ATOM     14  C   UNL     1     137.165 138.137 166.635  1.00  0.00     0.039 C 
ATOM     15  C   UNL     1     137.092 140.314 165.503  1.00  0.00     0.008 C 
ENDBRANCH   1  13
TORSDOF 1
ENDMDL
