MODEL 1
REMARK VINA RESULT:    -3.068      0.000      0.000
REMARK INTER + INTRA:          -3.720
REMARK INTER:                  -3.606
REMARK INTRA:                  -0.114
REMARK UNBOUND:                -0.114
REMARK SMILES O=C([O-])CCC(=O)[O-]
REMARK SMILES IDX 4 1 2 2 1 3 3 4 5 5 6 6 7 7 8 8
REMARK H PARENT
REMARK Flexibility Score: inf
ROOT
ATOM      1  C   UNL     1      23.919  -3.959  -0.237  1.00  0.00     0.059 C 
ENDROOT
BRANCH   1   2
ATOM      2  C   UNL     1      24.413  -2.645   0.287  1.00  0.00     0.042 C 
ATOM      3  O   UNL     1      25.364  -2.607   1.110  1.00  0.00    -0.550 OA
ATOM      4  O   UNL     1      23.847  -1.461  -0.167  1.00  0.00    -0.550 OA
ENDBRANCH   1   2
BRANCH   1   5
ATOM      5  C   UNL     1      22.745  -3.775  -1.204  1.00  0.00     0.059 C 
BRANCH   5   6
ATOM      6  C   UNL     1      21.431  -4.024  -0.529  1.00  0.00     0.042 C 
ATOM      7  O   UNL     1      20.668  -3.061  -0.249  1.00  0.00    -0.550 OA
ATOM      8  O   UNL     1      21.030  -5.323  -0.245  1.00  0.00    -0.550 OA
ENDBRANCH   5   6
ENDBRANCH   1   5
TORSDOF 3
ENDMDL
MODEL 2
REMARK VINA RESULT:    -3.062      0.261      3.693
REMARK INTER + INTRA:          -3.714
REMARK INTER:                  -3.608
REMARK INTRA:                  -0.106
REMARK UNBOUND:                -0.114
REMARK SMILES O=C([O-])CCC(=O)[O-]
REMARK SMILES IDX 4 1 2 2 1 3 3 4 5 5 6 6 7 7 8 8
REMARK H PARENT
REMARK Flexibility Score: inf
ROOT
ATOM      1  C   UNL     1      23.012  -3.760  -1.162  1.00  0.00     0.059 C 
ENDROOT
BRANCH   1   2
ATOM      2  C   UNL     1      21.651  -3.997  -0.581  1.00  0.00     0.042 C 
ATOM      3  O   UNL     1      21.237  -5.170  -0.392  1.00  0.00    -0.550 OA
ATOM      4  O   UNL     1      20.857  -2.918  -0.212  1.00  0.00    -0.550 OA
ENDBRANCH   1   2
BRANCH   1   5
ATOM      5  C   UNL     1      24.106  -3.859  -0.093  1.00  0.00     0.059 C 
BRANCH   5   6
ATOM      6  C   UNL     1      24.516  -2.507   0.403  1.00  0.00     0.042 C 
ATOM      7  O   UNL     1      23.953  -1.471  -0.040  1.00  0.00    -0.550 OA
ATOM      8  O   UNL     1      25.492  -2.393   1.385  1.00  0.00    -0.550 OA
ENDBRANCH   5   6
ENDBRANCH   1   5
TORSDOF 3
ENDMDL
MODEL 3
REMARK VINA RESULT:    -3.045      0.450      3.902
REMARK INTER + INTRA:          -3.693
REMARK INTER:                  -3.597
REMARK INTRA:                  -0.097
REMARK UNBOUND:                -0.114
REMARK SMILES O=C([O-])CCC(=O)[O-]
REMARK SMILES IDX 4 1 2 2 1 3 3 4 5 5 6 6 7 7 8 8
REMARK H PARENT
REMARK Flexibility Score: inf
ROOT
ATOM      1  C   UNL     1      23.123  -3.757  -1.084  1.00  0.00     0.059 C 
ENDROOT
BRANCH   1   2
ATOM      2  C   UNL     1      21.796  -4.080  -0.467  1.00  0.00     0.042 C 
ATOM      3  O   UNL     1      20.817  -3.306  -0.629  1.00  0.00    -0.550 OA
ATOM      4  O   UNL     1      21.633  -5.256   0.252  1.00  0.00    -0.550 OA
ENDBRANCH   1   2
BRANCH   1   5
ATOM      5  C   UNL     1      24.255  -3.823  -0.053  1.00  0.00     0.059 C 
BRANCH   5   6
ATOM      6  C   UNL     1      24.570  -2.470   0.507  1.00  0.00     0.042 C 
ATOM      7  O   UNL     1      25.458  -2.340   1.390  1.00  0.00    -0.550 OA
ATOM      8  O   UNL     1      23.910  -1.347   0.024  1.00  0.00    -0.550 OA
ENDBRANCH   5   6
ENDBRANCH   1   5
TORSDOF 3
ENDMDL
MODEL 4
REMARK VINA RESULT:    -3.022      2.186      4.530
REMARK INTER + INTRA:          -3.666
REMARK INTER:                  -3.607
REMARK INTRA:                  -0.059
REMARK UNBOUND:                -0.114
REMARK SMILES O=C([O-])CCC(=O)[O-]
REMARK SMILES IDX 4 1 2 2 1 3 3 4 5 5 6 6 7 7 8 8
REMARK H PARENT
REMARK Flexibility Score: inf
ROOT
ATOM      1  C   UNL     1      25.044  -2.957   0.583  1.00  0.00     0.059 C 
ENDROOT
BRANCH   1   2
ATOM      2  C   UNL     1      23.733  -3.528   0.136  1.00  0.00     0.042 C 
ATOM      3  O   UNL     1      23.535  -3.787  -1.079  1.00  0.00    -0.550 OA
ATOM      4  O   UNL     1      22.745  -3.811   1.070  1.00  0.00    -0.550 OA
ENDBRANCH   1   2
BRANCH   1   5
ATOM      5  C   UNL     1      24.857  -1.627   1.320  1.00  0.00     0.059 C 
BRANCH   5   6
ATOM      6  C   UNL     1      25.654  -1.583   2.588  1.00  0.00     0.042 C 
ATOM      7  O   UNL     1      26.818  -1.102   2.589  1.00  0.00    -0.550 OA
ATOM      8  O   UNL     1      25.096  -2.036   3.776  1.00  0.00    -0.550 OA
ENDBRANCH   5   6
ENDBRANCH   1   5
TORSDOF 3
ENDMDL
MODEL 5
REMARK VINA RESULT:    -3.017      2.160      2.983
REMARK INTER + INTRA:          -3.661
REMARK INTER:                  -3.593
REMARK INTRA:                  -0.067
REMARK UNBOUND:                -0.114
REMARK SMILES O=C([O-])CCC(=O)[O-]
REMARK SMILES IDX 4 1 2 2 1 3 3 4 5 5 6 6 7 7 8 8
REMARK H PARENT
REMARK Flexibility Score: inf
ROOT
ATOM      1  C   UNL     1      24.862  -1.643   1.284  1.00  0.00     0.059 C 
ENDROOT
BRANCH   1   2
ATOM      2  C   UNL     1      25.591  -1.604   2.593  1.00  0.00     0.042 C 
ATOM      3  O   UNL     1      25.049  -2.056   3.635  1.00  0.00    -0.550 OA
ATOM      4  O   UNL     1      26.885  -1.103   2.652  1.00  0.00    -0.550 OA
ENDBRANCH   1   2
BRANCH   1   5
ATOM      5  C   UNL     1      25.026  -2.998   0.589  1.00  0.00     0.059 C 
BRANCH   5   6
ATOM      6  C   UNL     1      23.711  -3.537   0.114  1.00  0.00     0.042 C 
ATOM      7  O   UNL     1      23.508  -3.722  -1.115  1.00  0.00    -0.550 OA
ATOM      8  O   UNL     1      22.725  -3.873   1.033  1.00  0.00    -0.550 OA
ENDBRANCH   5   6
ENDBRANCH   1   5
TORSDOF 3
ENDMDL
MODEL 6
REMARK VINA RESULT:    -2.990      1.634      2.187
REMARK INTER + INTRA:          -3.628
REMARK INTER:                  -3.529
REMARK INTRA:                  -0.099
REMARK UNBOUND:                -0.114
REMARK SMILES O=C([O-])CCC(=O)[O-]
REMARK SMILES IDX 4 1 2 2 1 3 3 4 5 5 6 6 7 7 8 8
REMARK H PARENT
REMARK Flexibility Score: inf
ROOT
ATOM      1  C   UNL     1      22.527  -4.689   0.477  1.00  0.00     0.059 C 
ENDROOT
BRANCH   1   2
ATOM      2  C   UNL     1      23.545  -3.954  -0.341  1.00  0.00     0.042 C 
ATOM      3  O   UNL     1      23.256  -3.541  -1.493  1.00  0.00    -0.550 OA
ATOM      4  O   UNL     1      24.802  -3.692   0.189  1.00  0.00    -0.550 OA
ENDBRANCH   1   2
BRANCH   1   5
ATOM      5  C   UNL     1      21.200  -4.835  -0.275  1.00  0.00     0.059 C 
BRANCH   5   6
ATOM      6  C   UNL     1      20.178  -3.856   0.215  1.00  0.00     0.042 C 
ATOM      7  O   UNL     1      19.717  -2.977  -0.561  1.00  0.00    -0.550 OA
ATOM      8  O   UNL     1      19.705  -3.939   1.518  1.00  0.00    -0.550 OA
ENDBRANCH   5   6
ENDBRANCH   1   5
TORSDOF 3
ENDMDL
MODEL 7
REMARK VINA RESULT:    -2.919     17.841     18.382
REMARK INTER + INTRA:          -3.545
REMARK INTER:                  -3.434
REMARK INTRA:                  -0.111
REMARK UNBOUND:                -0.114
REMARK SMILES O=C([O-])CCC(=O)[O-]
REMARK SMILES IDX 4 1 2 2 1 3 3 4 5 5 6 6 7 7 8 8
REMARK H PARENT
REMARK Flexibility Score: inf
ROOT
ATOM      1  C   UNL     1      18.386   5.671  16.448  1.00  0.00     0.059 C 
ENDROOT
BRANCH   1   2
ATOM      2  C   UNL     1      19.705   5.169  16.954  1.00  0.00     0.042 C 
ATOM      3  O   UNL     1      19.752   4.413  17.959  1.00  0.00    -0.550 OA
ATOM      4  O   UNL     1      20.877   5.506  16.290  1.00  0.00    -0.550 OA
ENDBRANCH   1   2
BRANCH   1   5
ATOM      5  C   UNL     1      17.588   4.560  15.759  1.00  0.00     0.059 C 
BRANCH   5   6
ATOM      6  C   UNL     1      17.930   4.456  14.304  1.00  0.00     0.042 C 
ATOM      7  O   UNL     1      18.887   3.728  13.928  1.00  0.00    -0.550 OA
ATOM      8  O   UNL     1      17.167   5.131  13.361  1.00  0.00    -0.550 OA
ENDBRANCH   5   6
ENDBRANCH   1   5
TORSDOF 3
ENDMDL
MODEL 8
REMARK VINA RESULT:    -2.907      1.437      3.566
REMARK INTER + INTRA:          -3.531
REMARK INTER:                  -3.425
REMARK INTRA:                  -0.106
REMARK UNBOUND:                -0.114
REMARK SMILES O=C([O-])CCC(=O)[O-]
REMARK SMILES IDX 4 1 2 2 1 3 3 4 5 5 6 6 7 7 8 8
REMARK H PARENT
REMARK Flexibility Score: inf
ROOT
ATOM      1  C   UNL     1      21.401  -4.609  -0.089  1.00  0.00     0.059 C 
ENDROOT
BRANCH   1   2
ATOM      2  C   UNL     1      20.362  -3.707   0.504  1.00  0.00     0.042 C 
ATOM      3  O   UNL     1      19.796  -4.015   1.585  1.00  0.00    -0.550 OA
ATOM      4  O   UNL     1      20.048  -2.506  -0.120  1.00  0.00    -0.550 OA
ENDBRANCH   1   2
BRANCH   1   5
ATOM      5  C   UNL     1      22.241  -3.884  -1.146  1.00  0.00     0.059 C 
BRANCH   5   6
ATOM      6  C   UNL     1      23.551  -3.421  -0.587  1.00  0.00     0.042 C 
ATOM      7  O   UNL     1      23.794  -2.191  -0.474  1.00  0.00    -0.550 OA
ATOM      8  O   UNL     1      24.488  -4.350  -0.153  1.00  0.00    -0.550 OA
ENDBRANCH   5   6
ENDBRANCH   1   5
TORSDOF 3
ENDMDL
MODEL 9
REMARK VINA RESULT:    -2.864     17.772     18.504
REMARK INTER + INTRA:          -3.480
REMARK INTER:                  -3.348
REMARK INTRA:                  -0.132
REMARK UNBOUND:                -0.114
REMARK SMILES O=C([O-])CCC(=O)[O-]
REMARK SMILES IDX 4 1 2 2 1 3 3 4 5 5 6 6 7 7 8 8
REMARK H PARENT
REMARK Flexibility Score: inf
ROOT
ATOM      1  C   UNL     1      17.667   4.504  15.586  1.00  0.00     0.059 C 
ENDROOT
BRANCH   1   2
ATOM      2  C   UNL     1      18.232   4.463  14.198  1.00  0.00     0.042 C 
ATOM      3  O   UNL     1      19.031   3.550  13.865  1.00  0.00    -0.550 OA
ATOM      4  O   UNL     1      17.843   5.414  13.263  1.00  0.00    -0.550 OA
ENDBRANCH   1   2
BRANCH   1   5
ATOM      5  C   UNL     1      18.368   5.558  16.449  1.00  0.00     0.059 C 
BRANCH   5   6
ATOM      6  C   UNL     1      19.653   5.039  17.017  1.00  0.00     0.042 C 
ATOM      7  O   UNL     1      19.642   4.277  18.020  1.00  0.00    -0.550 OA
ATOM      8  O   UNL     1      20.861   5.366  16.414  1.00  0.00    -0.550 OA
ENDBRANCH   5   6
ENDBRANCH   1   5
TORSDOF 3
ENDMDL
