MODEL 1
REMARK VINA RESULT:    -4.908      0.000      0.000
REMARK INTER + INTRA:          -5.214
REMARK INTER:                  -5.195
REMARK INTRA:                  -0.020
REMARK UNBOUND:                -0.020
REMARK SMILES O=C([O-])c1cccnc1
REMARK SMILES IDX 4 1 5 2 9 3 6 4 8 5 7 6 2 7 1 8 3 9
REMARK H PARENT
REMARK Flexibility Score: inf
ROOT
ATOM      1  C   UNL     1      21.554   6.303   7.007  1.00  0.00     0.016 A 
ATOM      2  C   UNL     1      21.416   4.955   7.373  1.00  0.00     0.013 A 
ATOM      3  C   UNL     1      22.674   6.678   6.245  1.00  0.00     0.120 A 
ATOM      4  C   UNL     1      22.375   4.019   6.980  1.00  0.00     0.021 A 
ATOM      5  N   UNL     1      23.594   5.747   5.875  1.00  0.00    -0.264 NA
ATOM      6  C   UNL     1      23.470   4.439   6.223  1.00  0.00     0.111 A 
ENDROOT
BRANCH   1   7
ATOM      7  C   UNL     1      20.549   7.309   7.414  1.00  0.00     0.073 C 
ATOM      8  O   UNL     1      20.126   7.349   8.600  1.00  0.00    -0.545 OA
ATOM      9  O   UNL     1      20.056   8.225   6.492  1.00  0.00    -0.545 OA
ENDBRANCH   1   7
TORSDOF 1
ENDMDL
MODEL 2
REMARK VINA RESULT:    -4.816      2.744      3.698
REMARK INTER + INTRA:          -5.117
REMARK INTER:                  -5.096
REMARK INTRA:                  -0.021
REMARK UNBOUND:                -0.020
REMARK SMILES O=C([O-])c1cccnc1
REMARK SMILES IDX 4 1 5 2 9 3 6 4 8 5 7 6 2 7 1 8 3 9
REMARK H PARENT
REMARK Flexibility Score: inf
ROOT
ATOM      1  C   UNL     1      21.909   5.631   6.795  1.00  0.00     0.016 A 
ATOM      2  C   UNL     1      21.142   5.720   7.967  1.00  0.00     0.013 A 
ATOM      3  C   UNL     1      21.851   6.693   5.875  1.00  0.00     0.120 A 
ATOM      4  C   UNL     1      20.347   6.843   8.202  1.00  0.00     0.021 A 
ATOM      5  N   UNL     1      21.068   7.776   6.127  1.00  0.00    -0.264 NA
ATOM      6  C   UNL     1      20.322   7.873   7.259  1.00  0.00     0.111 A 
ENDROOT
BRANCH   1   7
ATOM      7  C   UNL     1      22.758   4.449   6.528  1.00  0.00     0.073 C 
ATOM      8  O   UNL     1      23.829   4.564   5.875  1.00  0.00    -0.545 OA
ATOM      9  O   UNL     1      22.384   3.194   6.995  1.00  0.00    -0.545 OA
ENDBRANCH   1   7
TORSDOF 1
ENDMDL
MODEL 3
REMARK VINA RESULT:    -4.470      0.927      1.602
REMARK INTER + INTRA:          -4.751
REMARK INTER:                  -4.731
REMARK INTRA:                  -0.019
REMARK UNBOUND:                -0.020
REMARK SMILES O=C([O-])c1cccnc1
REMARK SMILES IDX 4 1 5 2 9 3 6 4 8 5 7 6 2 7 1 8 3 9
REMARK H PARENT
REMARK Flexibility Score: inf
ROOT
ATOM      1  C   UNL     1      21.524   6.341   7.047  1.00  0.00     0.016 A 
ATOM      2  C   UNL     1      22.646   6.691   6.278  1.00  0.00     0.013 A 
ATOM      3  C   UNL     1      21.347   4.990   7.393  1.00  0.00     0.120 A 
ATOM      4  C   UNL     1      23.554   5.711   5.875  1.00  0.00     0.021 A 
ATOM      5  N   UNL     1      22.247   4.055   6.988  1.00  0.00    -0.264 NA
ATOM      6  C   UNL     1      23.335   4.383   6.244  1.00  0.00     0.111 A 
ENDROOT
BRANCH   1   7
ATOM      7  C   UNL     1      20.550   7.365   7.483  1.00  0.00     0.073 C 
ATOM      8  O   UNL     1      20.126   7.382   8.668  1.00  0.00    -0.545 OA
ATOM      9  O   UNL     1      20.088   8.323   6.587  1.00  0.00    -0.545 OA
ENDBRANCH   1   7
TORSDOF 1
ENDMDL
MODEL 4
REMARK VINA RESULT:    -4.007     12.024     12.658
REMARK INTER + INTRA:          -4.261
REMARK INTER:                  -4.243
REMARK INTRA:                  -0.017
REMARK UNBOUND:                -0.020
REMARK SMILES O=C([O-])c1cccnc1
REMARK SMILES IDX 4 1 5 2 9 3 6 4 8 5 7 6 2 7 1 8 3 9
REMARK H PARENT
REMARK Flexibility Score: inf
ROOT
ATOM      1  C   UNL     1      21.001   5.847  19.635  1.00  0.00     0.016 A 
ATOM      2  C   UNL     1      20.099   4.803  19.374  1.00  0.00     0.013 A 
ATOM      3  C   UNL     1      21.841   6.281  18.595  1.00  0.00     0.120 A 
ATOM      4  C   UNL     1      20.049   4.220  18.106  1.00  0.00     0.021 A 
ATOM      5  N   UNL     1      21.772   5.695  17.369  1.00  0.00    -0.264 NA
ATOM      6  C   UNL     1      20.903   4.685  17.105  1.00  0.00     0.111 A 
ENDROOT
BRANCH   1   7
ATOM      7  C   UNL     1      21.069   6.478  20.971  1.00  0.00     0.073 C 
ATOM      8  O   UNL     1      20.770   7.692  21.123  1.00  0.00    -0.545 OA
ATOM      9  O   UNL     1      21.467   5.738  22.079  1.00  0.00    -0.545 OA
ENDBRANCH   1   7
TORSDOF 1
ENDMDL
MODEL 5
REMARK VINA RESULT:    -3.733     11.817     12.507
REMARK INTER + INTRA:          -3.971
REMARK INTER:                  -3.949
REMARK INTRA:                  -0.022
REMARK UNBOUND:                -0.020
REMARK SMILES O=C([O-])c1cccnc1
REMARK SMILES IDX 4 1 5 2 9 3 6 4 8 5 7 6 2 7 1 8 3 9
REMARK H PARENT
REMARK Flexibility Score: inf
ROOT
ATOM      1  C   UNL     1      20.054   4.369  18.985  1.00  0.00     0.016 A 
ATOM      2  C   UNL     1      20.771   4.580  20.173  1.00  0.00     0.013 A 
ATOM      3  C   UNL     1      20.641   4.763  17.770  1.00  0.00     0.120 A 
ATOM      4  C   UNL     1      22.037   5.168  20.133  1.00  0.00     0.021 A 
ATOM      5  N   UNL     1      21.876   5.333  17.759  1.00  0.00    -0.264 NA
ATOM      6  C   UNL     1      22.579   5.542  18.902  1.00  0.00     0.111 A 
ENDROOT
BRANCH   1   7
ATOM      7  C   UNL     1      18.712   3.748  19.006  1.00  0.00     0.073 C 
ATOM      8  O   UNL     1      17.875   3.998  18.099  1.00  0.00    -0.545 OA
ATOM      9  O   UNL     1      18.354   2.879  20.032  1.00  0.00    -0.545 OA
ENDBRANCH   1   7
TORSDOF 1
ENDMDL
MODEL 6
REMARK VINA RESULT:    -2.934     12.508     13.171
REMARK INTER + INTRA:          -3.125
REMARK INTER:                  -3.104
REMARK INTRA:                  -0.021
REMARK UNBOUND:                -0.020
REMARK SMILES O=C([O-])c1cccnc1
REMARK SMILES IDX 4 1 5 2 9 3 6 4 8 5 7 6 2 7 1 8 3 9
REMARK H PARENT
REMARK Flexibility Score: inf
ROOT
ATOM      1  C   UNL     1      21.515   5.765  19.403  1.00  0.00     0.016 A 
ATOM      2  C   UNL     1      21.042   6.760  20.273  1.00  0.00     0.013 A 
ATOM      3  C   UNL     1      21.904   4.529  19.950  1.00  0.00     0.120 A 
ATOM      4  C   UNL     1      20.963   6.514  21.645  1.00  0.00     0.021 A 
ATOM      5  N   UNL     1      21.817   4.315  21.290  1.00  0.00    -0.264 NA
ATOM      6  C   UNL     1      21.360   5.271  22.141  1.00  0.00     0.111 A 
ENDROOT
BRANCH   1   7
ATOM      7  C   UNL     1      21.607   6.006  17.947  1.00  0.00     0.073 C 
ATOM      8  O   UNL     1      21.955   7.133  17.505  1.00  0.00    -0.545 OA
ATOM      9  O   UNL     1      21.308   4.991  17.045  1.00  0.00    -0.545 OA
ENDBRANCH   1   7
TORSDOF 1
ENDMDL
MODEL 7
REMARK VINA RESULT:    -2.575     12.498     13.101
REMARK INTER + INTRA:          -2.745
REMARK INTER:                  -2.725
REMARK INTRA:                  -0.020
REMARK UNBOUND:                -0.020
REMARK SMILES O=C([O-])c1cccnc1
REMARK SMILES IDX 4 1 5 2 9 3 6 4 8 5 7 6 2 7 1 8 3 9
REMARK H PARENT
REMARK Flexibility Score: inf
ROOT
ATOM      1  C   UNL     1      21.530   5.805  19.371  1.00  0.00     0.016 A 
ATOM      2  C   UNL     1      21.912   4.576  19.931  1.00  0.00     0.013 A 
ATOM      3  C   UNL     1      21.054   6.812  20.228  1.00  0.00     0.120 A 
ATOM      4  C   UNL     1      21.818   4.374  21.310  1.00  0.00     0.021 A 
ATOM      5  N   UNL     1      20.971   6.589  21.567  1.00  0.00    -0.264 NA
ATOM      6  C   UNL     1      21.339   5.404  22.121  1.00  0.00     0.111 A 
ENDROOT
BRANCH   1   7
ATOM      7  C   UNL     1      21.622   6.038  17.913  1.00  0.00     0.073 C 
ATOM      8  O   UNL     1      21.997   7.154  17.465  1.00  0.00    -0.545 OA
ATOM      9  O   UNL     1      21.294   5.027  17.016  1.00  0.00    -0.545 OA
ENDBRANCH   1   7
TORSDOF 1
ENDMDL
MODEL 8
REMARK VINA RESULT:    -2.198     22.791     23.544
REMARK INTER + INTRA:          -2.346
REMARK INTER:                  -2.330
REMARK INTRA:                  -0.016
REMARK UNBOUND:                -0.020
REMARK SMILES O=C([O-])c1cccnc1
REMARK SMILES IDX 4 1 5 2 9 3 6 4 8 5 7 6 2 7 1 8 3 9
REMARK H PARENT
REMARK Flexibility Score: inf
ROOT
ATOM      1  C   UNL     1      35.902  -1.581  23.539  1.00  0.00     0.016 A 
ATOM      2  C   UNL     1      36.695  -1.177  24.624  1.00  0.00     0.013 A 
ATOM      3  C   UNL     1      34.588  -2.011  23.794  1.00  0.00     0.120 A 
ATOM      4  C   UNL     1      36.177  -1.205  25.921  1.00  0.00     0.021 A 
ATOM      5  N   UNL     1      34.108  -2.030  25.067  1.00  0.00    -0.264 NA
ATOM      6  C   UNL     1      34.866  -1.640  26.124  1.00  0.00     0.111 A 
ENDROOT
BRANCH   1   7
ATOM      7  C   UNL     1      36.432  -1.559  22.158  1.00  0.00     0.073 C 
ATOM      8  O   UNL     1      36.359  -0.513  21.460  1.00  0.00    -0.545 OA
ATOM      9  O   UNL     1      37.019  -2.695  21.611  1.00  0.00    -0.545 OA
ENDBRANCH   1   7
TORSDOF 1
ENDMDL
MODEL 9
REMARK VINA RESULT:    -2.027     22.289     22.905
REMARK INTER + INTRA:          -2.165
REMARK INTER:                  -2.142
REMARK INTRA:                  -0.023
REMARK UNBOUND:                -0.020
REMARK SMILES O=C([O-])c1cccnc1
REMARK SMILES IDX 4 1 5 2 9 3 6 4 8 5 7 6 2 7 1 8 3 9
REMARK H PARENT
REMARK Flexibility Score: inf
ROOT
ATOM      1  C   UNL     1      35.542  -1.919  23.404  1.00  0.00     0.016 A 
ATOM      2  C   UNL     1      35.800  -3.116  22.718  1.00  0.00     0.013 A 
ATOM      3  C   UNL     1      35.777  -0.703  22.738  1.00  0.00     0.120 A 
ATOM      4  C   UNL     1      36.276  -3.085  21.406  1.00  0.00     0.021 A 
ATOM      5  N   UNL     1      36.241  -0.700  21.460  1.00  0.00    -0.264 NA
ATOM      6  C   UNL     1      36.494  -1.853  20.787  1.00  0.00     0.111 A 
ENDROOT
BRANCH   1   7
ATOM      7  C   UNL     1      35.038  -1.931  24.794  1.00  0.00     0.073 C 
ATOM      8  O   UNL     1      35.164  -0.917  25.531  1.00  0.00    -0.545 OA
ATOM      9  O   UNL     1      34.417  -3.064  25.308  1.00  0.00    -0.545 OA
ENDBRANCH   1   7
TORSDOF 1
ENDMDL
