MODEL 1
REMARK VINA RESULT:    -4.693      0.000      0.000
REMARK INTER + INTRA:          -5.359
REMARK INTER:                  -5.242
REMARK INTRA:                  -0.117
REMARK UNBOUND:                -0.117
REMARK SMILES COc1cc2ccc(=O)oc2cc1OC
REMARK SMILES IDX 3 1 13 2 12 3 11 4 5 5 4 6 6 7 7 8 8 9 9 10 10 11 2 12 1 13
REMARK SMILES IDX 14 14 15 15
REMARK H PARENT
REMARK Flexibility Score: inf
ROOT
ATOM      1  C   UNL     1     131.613 124.544 144.709  1.00  0.00     0.161 A 
ATOM      2  C   UNL     1     132.764 124.998 145.377  1.00  0.00     0.164 A 
ATOM      3  C   UNL     1     133.231 126.309 145.152  1.00  0.00     0.098 A 
ATOM      4  C   UNL     1     132.558 127.158 144.270  1.00  0.00     0.142 A 
ATOM      5  C   UNL     1     131.405 126.702 143.600  1.00  0.00     0.022 A 
ATOM      6  C   UNL     1     130.935 125.401 143.820  1.00  0.00     0.062 A 
ATOM      7  C   UNL     1     130.753 127.577 142.724  1.00  0.00     0.019 A 
ATOM      8  C   UNL     1     131.259 128.864 142.538  1.00  0.00     0.094 A 
ATOM      9  C   UNL     1     132.409 129.246 143.237  1.00  0.00     0.336 A 
ATOM     10  O   UNL     1     132.882 130.402 143.084  1.00  0.00    -0.246 OA
ATOM     11  O   UNL     1     133.008 128.394 144.065  1.00  0.00    -0.423 OA
ENDROOT
BRANCH   1  12
ATOM     12  O   UNL     1     131.176 123.233 144.958  1.00  0.00    -0.493 OA
ATOM     13  C   UNL     1     130.171 122.561 144.206  1.00  0.00     0.278 C 
ENDBRANCH   1  12
BRANCH   2  14
ATOM     14  O   UNL     1     133.414 124.118 146.255  1.00  0.00    -0.493 OA
ATOM     15  C   UNL     1     134.710 123.569 146.035  1.00  0.00     0.278 C 
ENDBRANCH   2  14
TORSDOF 2
ENDMDL
MODEL 2
REMARK VINA RESULT:    -4.661      2.226      6.170
REMARK INTER + INTRA:          -5.323
REMARK INTER:                  -5.217
REMARK INTRA:                  -0.105
REMARK UNBOUND:                -0.117
REMARK SMILES COc1cc2ccc(=O)oc2cc1OC
REMARK SMILES IDX 3 1 13 2 12 3 11 4 5 5 4 6 6 7 7 8 8 9 9 10 10 11 2 12 1 13
REMARK SMILES IDX 14 14 15 15
REMARK H PARENT
REMARK Flexibility Score: inf
ROOT
ATOM      1  C   UNL     1     132.334 131.111 141.898  1.00  0.00     0.161 A 
ATOM      2  C   UNL     1     133.490 130.970 142.685  1.00  0.00     0.164 A 
ATOM      3  C   UNL     1     133.661 129.815 143.474  1.00  0.00     0.098 A 
ATOM      4  C   UNL     1     132.690 128.811 143.479  1.00  0.00     0.142 A 
ATOM      5  C   UNL     1     131.530 128.954 142.691  1.00  0.00     0.022 A 
ATOM      6  C   UNL     1     131.354 130.099 141.905  1.00  0.00     0.062 A 
ATOM      7  C   UNL     1     130.576 127.930 142.717  1.00  0.00     0.019 A 
ATOM      8  C   UNL     1     130.797 126.809 143.517  1.00  0.00     0.094 A 
ATOM      9  C   UNL     1     131.971 126.737 144.273  1.00  0.00     0.336 A 
ATOM     10  O   UNL     1     132.190 125.733 145.000  1.00  0.00    -0.246 OA
ATOM     11  O   UNL     1     132.862 127.724 144.228  1.00  0.00    -0.423 OA
ENDROOT
BRANCH   1  12
ATOM     12  O   UNL     1     132.196 132.275 141.125  1.00  0.00    -0.493 OA
ATOM     13  C   UNL     1     131.499 132.343 139.884  1.00  0.00     0.278 C 
ENDBRANCH   1  12
BRANCH   2  14
ATOM     14  O   UNL     1     134.445 131.999 142.655  1.00  0.00    -0.493 OA
ATOM     15  C   UNL     1     134.511 133.066 143.596  1.00  0.00     0.278 C 
ENDBRANCH   2  14
TORSDOF 2
ENDMDL
MODEL 3
REMARK VINA RESULT:    -4.533      1.794      2.651
REMARK INTER + INTRA:          -5.180
REMARK INTER:                  -5.065
REMARK INTRA:                  -0.114
REMARK UNBOUND:                -0.117
REMARK SMILES COc1cc2ccc(=O)oc2cc1OC
REMARK SMILES IDX 3 1 13 2 12 3 11 4 5 5 4 6 6 7 7 8 8 9 9 10 10 11 2 12 1 13
REMARK SMILES IDX 14 14 15 15
REMARK H PARENT
REMARK Flexibility Score: inf
ROOT
ATOM      1  C   UNL     1     131.167 126.927 143.368  1.00  0.00     0.161 A 
ATOM      2  C   UNL     1     132.407 126.766 144.008  1.00  0.00     0.164 A 
ATOM      3  C   UNL     1     133.276 127.869 144.136  1.00  0.00     0.098 A 
ATOM      4  C   UNL     1     132.911 129.119 143.629  1.00  0.00     0.142 A 
ATOM      5  C   UNL     1     131.668 129.279 142.986  1.00  0.00     0.022 A 
ATOM      6  C   UNL     1     130.800 128.188 142.856  1.00  0.00     0.062 A 
ATOM      7  C   UNL     1     131.332 130.544 142.490  1.00  0.00     0.019 A 
ATOM      8  C   UNL     1     132.230 131.600 142.643  1.00  0.00     0.094 A 
ATOM      9  C   UNL     1     133.446 131.366 143.292  1.00  0.00     0.336 A 
ATOM     10  O   UNL     1     134.270 132.306 143.441  1.00  0.00    -0.246 OA
ATOM     11  O   UNL     1     133.740 130.154 143.755  1.00  0.00    -0.423 OA
ENDROOT
BRANCH   1  12
ATOM     12  O   UNL     1     130.327 125.807 143.258  1.00  0.00    -0.493 OA
ATOM     13  C   UNL     1     129.387 125.602 142.208  1.00  0.00     0.278 C 
ENDBRANCH   1  12
BRANCH   2  14
ATOM     14  O   UNL     1     132.740 125.496 144.505  1.00  0.00    -0.493 OA
ATOM     15  C   UNL     1     132.583 125.095 145.863  1.00  0.00     0.278 C 
ENDBRANCH   2  14
TORSDOF 2
ENDMDL
MODEL 4
REMARK VINA RESULT:    -4.412      4.065      6.433
REMARK INTER + INTRA:          -5.045
REMARK INTER:                  -4.882
REMARK INTRA:                  -0.163
REMARK UNBOUND:                -0.117
REMARK SMILES COc1cc2ccc(=O)oc2cc1OC
REMARK SMILES IDX 3 1 13 2 12 3 11 4 5 5 4 6 6 7 7 8 8 9 9 10 10 11 2 12 1 13
REMARK SMILES IDX 14 14 15 15
REMARK H PARENT
REMARK Flexibility Score: inf
ROOT
ATOM      1  C   UNL     1     133.426 130.146 141.676  1.00  0.00     0.161 A 
ATOM      2  C   UNL     1     132.381 130.411 142.578  1.00  0.00     0.164 A 
ATOM      3  C   UNL     1     132.432 131.563 143.389  1.00  0.00     0.098 A 
ATOM      4  C   UNL     1     133.514 132.442 143.301  1.00  0.00     0.142 A 
ATOM      5  C   UNL     1     134.562 132.176 142.398  1.00  0.00     0.022 A 
ATOM      6  C   UNL     1     134.517 131.033 141.590  1.00  0.00     0.062 A 
ATOM      7  C   UNL     1     135.632 133.076 142.334  1.00  0.00     0.019 A 
ATOM      8  C   UNL     1     135.631 134.200 143.159  1.00  0.00     0.094 A 
ATOM      9  C   UNL     1     134.556 134.398 144.032  1.00  0.00     0.336 A 
ATOM     10  O   UNL     1     134.536 135.406 144.785  1.00  0.00    -0.246 OA
ATOM     11  O   UNL     1     133.552 133.527 144.072  1.00  0.00    -0.423 OA
ENDROOT
BRANCH   1  12
ATOM     12  O   UNL     1     133.342 128.990 140.884  1.00  0.00    -0.493 OA
ATOM     13  C   UNL     1     134.115 127.812 141.091  1.00  0.00     0.278 C 
ENDBRANCH   1  12
BRANCH   2  14
ATOM     14  O   UNL     1     131.309 129.506 142.639  1.00  0.00    -0.493 OA
ATOM     15  C   UNL     1     131.168 128.487 143.625  1.00  0.00     0.278 C 
ENDBRANCH   2  14
TORSDOF 2
ENDMDL
MODEL 5
REMARK VINA RESULT:    -4.386      2.707      6.700
REMARK INTER + INTRA:          -5.016
REMARK INTER:                  -4.902
REMARK INTRA:                  -0.114
REMARK UNBOUND:                -0.117
REMARK SMILES COc1cc2ccc(=O)oc2cc1OC
REMARK SMILES IDX 3 1 13 2 12 3 11 4 5 5 4 6 6 7 7 8 8 9 9 10 10 11 2 12 1 13
REMARK SMILES IDX 14 14 15 15
REMARK H PARENT
REMARK Flexibility Score: inf
ROOT
ATOM      1  C   UNL     1     132.251 132.015 141.961  1.00  0.00     0.161 A 
ATOM      2  C   UNL     1     133.537 132.012 142.528  1.00  0.00     0.164 A 
ATOM      3  C   UNL     1     133.989 130.876 143.230  1.00  0.00     0.098 A 
ATOM      4  C   UNL     1     133.167 129.754 143.364  1.00  0.00     0.142 A 
ATOM      5  C   UNL     1     131.877 129.758 142.797  1.00  0.00     0.022 A 
ATOM      6  C   UNL     1     131.422 130.883 142.099  1.00  0.00     0.062 A 
ATOM      7  C   UNL     1     131.079 128.619 142.949  1.00  0.00     0.019 A 
ATOM      8  C   UNL     1     131.576 127.523 143.653  1.00  0.00     0.094 A 
ATOM      9  C   UNL     1     132.866 127.592 144.189  1.00  0.00     0.336 A 
ATOM     10  O   UNL     1     133.334 126.613 144.828  1.00  0.00    -0.246 OA
ATOM     11  O   UNL     1     133.604 128.687 144.029  1.00  0.00    -0.423 OA
ENDROOT
BRANCH   1  12
ATOM     12  O   UNL     1     131.834 133.163 141.270  1.00  0.00    -0.493 OA
ATOM     13  C   UNL     1     131.246 133.156 139.972  1.00  0.00     0.278 C 
ENDBRANCH   1  12
BRANCH   2  14
ATOM     14  O   UNL     1     134.335 133.156 142.373  1.00  0.00    -0.493 OA
ATOM     15  C   UNL     1     135.748 133.136 142.193  1.00  0.00     0.278 C 
ENDBRANCH   2  14
TORSDOF 2
ENDMDL
MODEL 6
REMARK VINA RESULT:    -4.382      2.029      3.936
REMARK INTER + INTRA:          -5.011
REMARK INTER:                  -4.883
REMARK INTRA:                  -0.128
REMARK UNBOUND:                -0.117
REMARK SMILES COc1cc2ccc(=O)oc2cc1OC
REMARK SMILES IDX 3 1 13 2 12 3 11 4 5 5 4 6 6 7 7 8 8 9 9 10 10 11 2 12 1 13
REMARK SMILES IDX 14 14 15 15
REMARK H PARENT
REMARK Flexibility Score: inf
ROOT
ATOM      1  C   UNL     1     133.041 127.279 143.748  1.00  0.00     0.161 A 
ATOM      2  C   UNL     1     131.651 127.483 143.721  1.00  0.00     0.164 A 
ATOM      3  C   UNL     1     131.138 128.786 143.561  1.00  0.00     0.098 A 
ATOM      4  C   UNL     1     132.003 129.875 143.429  1.00  0.00     0.142 A 
ATOM      5  C   UNL     1     133.398 129.670 143.457  1.00  0.00     0.022 A 
ATOM      6  C   UNL     1     133.913 128.378 143.616  1.00  0.00     0.062 A 
ATOM      7  C   UNL     1     134.237 130.782 143.322  1.00  0.00     0.019 A 
ATOM      8  C   UNL     1     133.676 132.049 143.167  1.00  0.00     0.094 A 
ATOM      9  C   UNL     1     132.283 132.175 143.149  1.00  0.00     0.336 A 
ATOM     10  O   UNL     1     131.757 133.310 143.009  1.00  0.00    -0.246 OA
ATOM     11  O   UNL     1     131.508 131.102 143.279  1.00  0.00    -0.423 OA
ENDROOT
BRANCH   1  12
ATOM     12  O   UNL     1     133.517 125.968 143.909  1.00  0.00    -0.493 OA
ATOM     13  C   UNL     1     133.906 125.397 145.154  1.00  0.00     0.278 C 
ENDBRANCH   1  12
BRANCH   2  14
ATOM     14  O   UNL     1     130.812 126.365 143.856  1.00  0.00    -0.493 OA
ATOM     15  C   UNL     1     130.014 125.824 142.808  1.00  0.00     0.278 C 
ENDBRANCH   2  14
TORSDOF 2
ENDMDL
MODEL 7
REMARK VINA RESULT:    -4.303      3.752      8.131
REMARK INTER + INTRA:          -4.923
REMARK INTER:                  -4.785
REMARK INTRA:                  -0.138
REMARK UNBOUND:                -0.117
REMARK SMILES COc1cc2ccc(=O)oc2cc1OC
REMARK SMILES IDX 3 1 13 2 12 3 11 4 5 5 4 6 6 7 7 8 8 9 9 10 10 11 2 12 1 13
REMARK SMILES IDX 14 14 15 15
REMARK H PARENT
REMARK Flexibility Score: inf
ROOT
ATOM      1  C   UNL     1     133.681 133.532 142.775  1.00  0.00     0.161 A 
ATOM      2  C   UNL     1     132.285 133.578 142.929  1.00  0.00     0.164 A 
ATOM      3  C   UNL     1     131.571 132.390 143.187  1.00  0.00     0.098 A 
ATOM      4  C   UNL     1     132.242 131.170 143.291  1.00  0.00     0.142 A 
ATOM      5  C   UNL     1     133.643 131.124 143.136  1.00  0.00     0.022 A 
ATOM      6  C   UNL     1     134.358 132.300 142.879  1.00  0.00     0.062 A 
ATOM      7  C   UNL     1     134.286 129.886 143.247  1.00  0.00     0.019 A 
ATOM      8  C   UNL     1     133.530 128.742 143.503  1.00  0.00     0.094 A 
ATOM      9  C   UNL     1     132.143 128.865 143.644  1.00  0.00     0.336 A 
ATOM     10  O   UNL     1     131.443 127.845 143.876  1.00  0.00    -0.246 OA
ATOM     11  O   UNL     1     131.558 130.054 143.535  1.00  0.00    -0.423 OA
ENDROOT
BRANCH   1  12
ATOM     12  O   UNL     1     134.361 134.734 142.519  1.00  0.00    -0.493 OA
ATOM     13  C   UNL     1     135.129 135.449 143.482  1.00  0.00     0.278 C 
ENDBRANCH   1  12
BRANCH   2  14
ATOM     14  O   UNL     1     131.644 134.822 142.818  1.00  0.00    -0.493 OA
ATOM     15  C   UNL     1     130.818 135.209 141.724  1.00  0.00     0.278 C 
ENDBRANCH   2  14
TORSDOF 2
ENDMDL
MODEL 8
REMARK VINA RESULT:    -4.299      4.382      7.905
REMARK INTER + INTRA:          -4.918
REMARK INTER:                  -4.802
REMARK INTRA:                  -0.116
REMARK UNBOUND:                -0.117
REMARK SMILES COc1cc2ccc(=O)oc2cc1OC
REMARK SMILES IDX 3 1 13 2 12 3 11 4 5 5 4 6 6 7 7 8 8 9 9 10 10 11 2 12 1 13
REMARK SMILES IDX 14 14 15 15
REMARK H PARENT
REMARK Flexibility Score: inf
ROOT
ATOM      1  C   UNL     1     135.067 133.191 142.806  1.00  0.00     0.161 A 
ATOM      2  C   UNL     1     135.574 132.414 141.751  1.00  0.00     0.164 A 
ATOM      3  C   UNL     1     134.941 131.201 141.409  1.00  0.00     0.098 A 
ATOM      4  C   UNL     1     133.814 130.769 142.112  1.00  0.00     0.142 A 
ATOM      5  C   UNL     1     133.307 131.548 143.171  1.00  0.00     0.022 A 
ATOM      6  C   UNL     1     133.931 132.753 143.516  1.00  0.00     0.062 A 
ATOM      7  C   UNL     1     132.176 131.088 143.856  1.00  0.00     0.019 A 
ATOM      8  C   UNL     1     131.590 129.881 143.476  1.00  0.00     0.094 A 
ATOM      9  C   UNL     1     132.150 129.161 142.415  1.00  0.00     0.336 A 
ATOM     10  O   UNL     1     131.635 128.070 142.056  1.00  0.00    -0.246 OA
ATOM     11  O   UNL     1     133.224 129.622 141.781  1.00  0.00    -0.423 OA
ENDROOT
BRANCH   1  12
ATOM     12  O   UNL     1     135.723 134.392 143.120  1.00  0.00    -0.493 OA
ATOM     13  C   UNL     1     135.547 135.116 144.334  1.00  0.00     0.278 C 
ENDBRANCH   1  12
BRANCH   2  14
ATOM     14  O   UNL     1     136.708 132.879 141.066  1.00  0.00    -0.493 OA
ATOM     15  C   UNL     1     136.730 133.225 139.685  1.00  0.00     0.278 C 
ENDBRANCH   2  14
TORSDOF 2
ENDMDL
MODEL 9
REMARK VINA RESULT:    -4.291      3.335      6.093
REMARK INTER + INTRA:          -4.910
REMARK INTER:                  -4.779
REMARK INTRA:                  -0.131
REMARK UNBOUND:                -0.117
REMARK SMILES COc1cc2ccc(=O)oc2cc1OC
REMARK SMILES IDX 3 1 13 2 12 3 11 4 5 5 4 6 6 7 7 8 8 9 9 10 10 11 2 12 1 13
REMARK SMILES IDX 14 14 15 15
REMARK H PARENT
REMARK Flexibility Score: inf
ROOT
ATOM      1  C   UNL     1     132.331 130.588 142.868  1.00  0.00     0.161 A 
ATOM      2  C   UNL     1     133.009 130.203 141.699  1.00  0.00     0.164 A 
ATOM      3  C   UNL     1     132.777 128.928 141.145  1.00  0.00     0.098 A 
ATOM      4  C   UNL     1     131.878 128.047 141.749  1.00  0.00     0.142 A 
ATOM      5  C   UNL     1     131.198 128.433 142.922  1.00  0.00     0.022 A 
ATOM      6  C   UNL     1     131.425 129.698 143.478  1.00  0.00     0.062 A 
ATOM      7  C   UNL     1     130.304 127.527 143.503  1.00  0.00     0.019 A 
ATOM      8  C   UNL     1     130.113 126.279 142.912  1.00  0.00     0.094 A 
ATOM      9  C   UNL     1     130.823 125.965 141.749  1.00  0.00     0.336 A 
ATOM     10  O   UNL     1     130.665 124.843 141.199  1.00  0.00    -0.246 OA
ATOM     11  O   UNL     1     131.667 126.845 141.217  1.00  0.00    -0.423 OA
ENDROOT
BRANCH   1  12
ATOM     12  O   UNL     1     132.586 131.866 143.393  1.00  0.00    -0.493 OA
ATOM     13  C   UNL     1     131.767 133.009 143.170  1.00  0.00     0.278 C 
ENDBRANCH   1  12
BRANCH   2  14
ATOM     14  O   UNL     1     133.905 131.115 141.119  1.00  0.00    -0.493 OA
ATOM     15  C   UNL     1     135.320 131.071 141.283  1.00  0.00     0.278 C 
ENDBRANCH   2  14
TORSDOF 2
ENDMDL
