MODEL 1
REMARK VINA RESULT:    -5.478      0.000      0.000
REMARK INTER + INTRA:          -6.901
REMARK INTER:                  -6.599
REMARK INTRA:                  -0.302
REMARK UNBOUND:                -0.302
REMARK SMILES O=c1c(O)c(-c2ccc(O)c(O)c2)oc2cc(O)cc(O)c12
REMARK SMILES IDX 5 1 3 2 2 3 1 4 22 5 20 6 19 7 17 8 16 9 15 10 14 11 6 12
REMARK SMILES IDX 7 13 8 14 9 15 13 16 11 17 10 18 12 20 4 22 21 24 18 26
REMARK H PARENT 10 19 12 21 4 23 21 25 18 27
REMARK Flexibility Score: inf
ROOT
ATOM      1  C   UNL     1     -39.442  31.703  14.053  1.00  0.00     0.180 A 
ATOM      2  C   UNL     1     -38.207  32.032  13.467  1.00  0.00     0.208 A 
ATOM      3  C   UNL     1     -37.141  31.125  13.569  1.00  0.00     0.238 A 
ATOM      4  O   UNL     1     -36.055  31.400  12.996  1.00  0.00    -0.285 OA
ATOM      5  C   UNL     1     -37.317  29.906  14.269  1.00  0.00     0.111 A 
ATOM      6  C   UNL     1     -36.295  28.931  14.469  1.00  0.00     0.134 A 
ATOM      7  C   UNL     1     -36.616  27.705  15.063  1.00  0.00     0.093 A 
ATOM      8  C   UNL     1     -37.906  27.444  15.524  1.00  0.00     0.123 A 
ATOM      9  C   UNL     1     -38.900  28.414  15.387  1.00  0.00     0.094 A 
ATOM     10  C   UNL     1     -38.618  29.633  14.766  1.00  0.00     0.146 A 
ATOM     11  O   UNL     1     -39.595  30.525  14.646  1.00  0.00    -0.452 OA
ENDROOT
BRANCH   1  12
ATOM     12  C   UNL     1     -40.604  32.620  14.010  1.00  0.00     0.025 A 
ATOM     13  C   UNL     1     -40.676  33.687  14.919  1.00  0.00     0.016 A 
ATOM     14  C   UNL     1     -41.753  34.576  14.882  1.00  0.00     0.051 A 
ATOM     15  C   UNL     1     -42.766  34.421  13.927  1.00  0.00     0.157 A 
ATOM     16  C   UNL     1     -41.612  32.479  13.039  1.00  0.00     0.062 A 
ATOM     17  C   UNL     1     -42.691  33.370  12.998  1.00  0.00     0.158 A 
BRANCH  15  18
ATOM     18  O   UNL     1     -43.841  35.309  13.894  1.00  0.00    -0.504 OA
ATOM     19  H   UNL     1     -43.854  36.147  14.463  1.00  0.00     0.293 HD
ENDBRANCH  15  18
BRANCH  17  20
ATOM     20  O   UNL     1     -43.676  33.197  12.025  1.00  0.00    -0.504 OA
ATOM     21  H   UNL     1     -44.550  33.706  12.049  1.00  0.00     0.293 HD
ENDBRANCH  17  20
ENDBRANCH   1  12
BRANCH   2  22
ATOM     22  O   UNL     1     -38.062  33.230  12.761  1.00  0.00    -0.502 OA
ATOM     23  H   UNL     1     -38.817  33.641  12.226  1.00  0.00     0.293 HD
ENDBRANCH   2  22
BRANCH   6  24
ATOM     24  O   UNL     1     -34.953  29.127  14.129  1.00  0.00    -0.507 OA
ATOM     25  H   UNL     1     -34.605  29.209  13.185  1.00  0.00     0.293 HD
ENDBRANCH   6  24
BRANCH   8  26
ATOM     26  O   UNL     1     -38.187  26.219  16.125  1.00  0.00    -0.508 OA
ATOM     27  H   UNL     1     -39.015  26.085  16.693  1.00  0.00     0.293 HD
ENDBRANCH   8  26
TORSDOF 6
ENDMDL
MODEL 2
REMARK VINA RESULT:    -4.946      1.579      2.819
REMARK INTER + INTRA:          -6.260
REMARK INTER:                  -6.080
REMARK INTRA:                  -0.180
REMARK UNBOUND:                -0.302
REMARK SMILES O=c1c(O)c(-c2ccc(O)c(O)c2)oc2cc(O)cc(O)c12
REMARK SMILES IDX 5 1 3 2 2 3 1 4 22 5 20 6 19 7 17 8 16 9 15 10 14 11 6 12
REMARK SMILES IDX 7 13 8 14 9 15 13 16 11 17 10 18 12 20 4 22 21 24 18 26
REMARK H PARENT 10 19 12 21 4 23 21 25 18 27
REMARK Flexibility Score: inf
ROOT
ATOM      1  C   UNL     1     -39.463  31.478  13.779  1.00  0.00     0.180 A 
ATOM      2  C   UNL     1     -39.178  30.756  14.951  1.00  0.00     0.208 A 
ATOM      3  C   UNL     1     -38.134  29.818  14.937  1.00  0.00     0.238 A 
ATOM      4  O   UNL     1     -37.848  29.214  16.003  1.00  0.00    -0.285 OA
ATOM      5  C   UNL     1     -37.398  29.602  13.746  1.00  0.00     0.111 A 
ATOM      6  C   UNL     1     -36.346  28.648  13.606  1.00  0.00     0.134 A 
ATOM      7  C   UNL     1     -35.600  28.611  12.422  1.00  0.00     0.093 A 
ATOM      8  C   UNL     1     -35.910  29.447  11.349  1.00  0.00     0.123 A 
ATOM      9  C   UNL     1     -36.975  30.343  11.454  1.00  0.00     0.094 A 
ATOM     10  C   UNL     1     -37.714  30.428  12.636  1.00  0.00     0.146 A 
ATOM     11  O   UNL     1     -38.713  31.300  12.699  1.00  0.00    -0.452 OA
ENDROOT
BRANCH   1  12
ATOM     12  C   UNL     1     -40.565  32.466  13.711  1.00  0.00     0.025 A 
ATOM     13  C   UNL     1     -40.464  33.664  14.434  1.00  0.00     0.016 A 
ATOM     14  C   UNL     1     -41.483  34.618  14.368  1.00  0.00     0.051 A 
ATOM     15  C   UNL     1     -42.609  34.396  13.565  1.00  0.00     0.157 A 
ATOM     16  C   UNL     1     -41.688  32.254  12.890  1.00  0.00     0.062 A 
ATOM     17  C   UNL     1     -42.709  33.209  12.819  1.00  0.00     0.158 A 
BRANCH  15  18
ATOM     18  O   UNL     1     -43.625  35.349  13.502  1.00  0.00    -0.504 OA
ATOM     19  H   UNL     1     -44.259  35.398  12.714  1.00  0.00     0.293 HD
ENDBRANCH  15  18
BRANCH  17  20
ATOM     20  O   UNL     1     -43.810  32.964  12.000  1.00  0.00    -0.504 OA
ATOM     21  H   UNL     1     -44.752  32.907  12.367  1.00  0.00     0.293 HD
ENDBRANCH  17  20
ENDBRANCH   1  12
BRANCH   2  22
ATOM     22  O   UNL     1     -39.902  31.002  16.122  1.00  0.00    -0.502 OA
ATOM     23  H   UNL     1     -39.453  31.147  17.018  1.00  0.00     0.293 HD
ENDBRANCH   2  22
BRANCH   6  24
ATOM     24  O   UNL     1     -36.013  27.704  14.581  1.00  0.00    -0.507 OA
ATOM     25  H   UNL     1     -35.151  27.181  14.605  1.00  0.00     0.293 HD
ENDBRANCH   6  24
BRANCH   8  26
ATOM     26  O   UNL     1     -35.158  29.372  10.179  1.00  0.00    -0.508 OA
ATOM     27  H   UNL     1     -35.271  30.048   9.432  1.00  0.00     0.293 HD
ENDBRANCH   8  26
TORSDOF 6
ENDMDL
MODEL 3
REMARK VINA RESULT:    -4.902      1.543      7.045
REMARK INTER + INTRA:          -6.207
REMARK INTER:                  -5.999
REMARK INTRA:                  -0.207
REMARK UNBOUND:                -0.302
REMARK SMILES O=c1c(O)c(-c2ccc(O)c(O)c2)oc2cc(O)cc(O)c12
REMARK SMILES IDX 5 1 3 2 2 3 1 4 22 5 20 6 19 7 17 8 16 9 15 10 14 11 6 12
REMARK SMILES IDX 7 13 8 14 9 15 13 16 11 17 10 18 12 20 4 22 21 24 18 26
REMARK H PARENT 10 19 12 21 4 23 21 25 18 27
REMARK Flexibility Score: inf
ROOT
ATOM      1  C   UNL     1     -39.514  31.241  14.314  1.00  0.00     0.180 A 
ATOM      2  C   UNL     1     -40.548  31.134  13.368  1.00  0.00     0.208 A 
ATOM      3  C   UNL     1     -41.412  32.223  13.178  1.00  0.00     0.238 A 
ATOM      4  O   UNL     1     -42.302  32.142  12.291  1.00  0.00    -0.285 OA
ATOM      5  C   UNL     1     -41.242  33.401  13.946  1.00  0.00     0.111 A 
ATOM      6  C   UNL     1     -42.084  34.551  13.865  1.00  0.00     0.134 A 
ATOM      7  C   UNL     1     -41.744  35.707  14.577  1.00  0.00     0.093 A 
ATOM      8  C   UNL     1     -40.631  35.734  15.418  1.00  0.00     0.123 A 
ATOM      9  C   UNL     1     -39.835  34.596  15.551  1.00  0.00     0.094 A 
ATOM     10  C   UNL     1     -40.128  33.439  14.825  1.00  0.00     0.146 A 
ATOM     11  O   UNL     1     -39.340  32.381  14.972  1.00  0.00    -0.452 OA
ENDROOT
BRANCH   1  12
ATOM     12  C   UNL     1     -38.579  30.125  14.588  1.00  0.00     0.025 A 
ATOM     13  C   UNL     1     -37.212  30.287  14.315  1.00  0.00     0.016 A 
ATOM     14  C   UNL     1     -36.309  29.256  14.585  1.00  0.00     0.051 A 
ATOM     15  C   UNL     1     -36.757  28.053  15.147  1.00  0.00     0.157 A 
ATOM     16  C   UNL     1     -39.022  28.925  15.172  1.00  0.00     0.062 A 
ATOM     17  C   UNL     1     -38.120  27.890  15.446  1.00  0.00     0.158 A 
BRANCH  15  18
ATOM     18  O   UNL     1     -35.854  27.025  15.414  1.00  0.00    -0.504 OA
ATOM     19  H   UNL     1     -36.095  26.053  15.257  1.00  0.00     0.293 HD
ENDBRANCH  15  18
BRANCH  17  20
ATOM     20  O   UNL     1     -38.595  26.712  16.020  1.00  0.00    -0.504 OA
ATOM     21  H   UNL     1     -39.403  26.698  16.630  1.00  0.00     0.293 HD
ENDBRANCH  17  20
ENDBRANCH   1  12
BRANCH   2  22
ATOM     22  O   UNL     1     -40.684  29.971  12.604  1.00  0.00    -0.502 OA
ATOM     23  H   UNL     1     -41.118  29.131  12.966  1.00  0.00     0.293 HD
ENDBRANCH   2  22
BRANCH   6  24
ATOM     24  O   UNL     1     -43.270  34.599  13.127  1.00  0.00    -0.507 OA
ATOM     25  H   UNL     1     -43.640  33.834  12.583  1.00  0.00     0.293 HD
ENDBRANCH   6  24
BRANCH   8  26
ATOM     26  O   UNL     1     -40.332  36.896  16.124  1.00  0.00    -0.508 OA
ATOM     27  H   UNL     1     -40.938  37.242  16.859  1.00  0.00     0.293 HD
ENDBRANCH   8  26
TORSDOF 6
ENDMDL
MODEL 4
REMARK VINA RESULT:    -4.766      1.481      1.919
REMARK INTER + INTRA:          -6.043
REMARK INTER:                  -6.372
REMARK INTRA:                   0.329
REMARK UNBOUND:                -0.302
REMARK SMILES O=c1c(O)c(-c2ccc(O)c(O)c2)oc2cc(O)cc(O)c12
REMARK SMILES IDX 5 1 3 2 2 3 1 4 22 5 20 6 19 7 17 8 16 9 15 10 14 11 6 12
REMARK SMILES IDX 7 13 8 14 9 15 13 16 11 17 10 18 12 20 4 22 21 24 18 26
REMARK H PARENT 10 19 12 21 4 23 21 25 18 27
REMARK Flexibility Score: inf
ROOT
ATOM      1  C   UNL     1     -40.506  32.597  14.913  1.00  0.00     0.180 A 
ATOM      2  C   UNL     1     -39.335  33.194  14.412  1.00  0.00     0.208 A 
ATOM      3  C   UNL     1     -38.151  32.442  14.373  1.00  0.00     0.238 A 
ATOM      4  O   UNL     1     -37.119  32.962  13.873  1.00  0.00    -0.285 OA
ATOM      5  C   UNL     1     -38.146  31.108  14.849  1.00  0.00     0.111 A 
ATOM      6  C   UNL     1     -36.994  30.267  14.894  1.00  0.00     0.134 A 
ATOM      7  C   UNL     1     -37.134  28.924  15.263  1.00  0.00     0.093 A 
ATOM      8  C   UNL     1     -38.370  28.408  15.651  1.00  0.00     0.123 A 
ATOM      9  C   UNL     1     -39.492  29.237  15.668  1.00  0.00     0.094 A 
ATOM     10  C   UNL     1     -39.391  30.572  15.271  1.00  0.00     0.146 A 
ATOM     11  O   UNL     1     -40.485  31.325  15.291  1.00  0.00    -0.452 OA
ENDROOT
BRANCH   1  12
ATOM     12  C   UNL     1     -41.786  33.335  15.009  1.00  0.00     0.025 A 
ATOM     13  C   UNL     1     -42.713  32.981  16.002  1.00  0.00     0.016 A 
ATOM     14  C   UNL     1     -43.919  33.676  16.124  1.00  0.00     0.051 A 
ATOM     15  C   UNL     1     -44.209  34.746  15.267  1.00  0.00     0.157 A 
ATOM     16  C   UNL     1     -42.072  34.421  14.163  1.00  0.00     0.062 A 
ATOM     17  C   UNL     1     -43.277  35.122  14.285  1.00  0.00     0.158 A 
BRANCH  15  18
ATOM     18  O   UNL     1     -45.414  35.436  15.390  1.00  0.00    -0.504 OA
ATOM     19  H   UNL     1     -45.619  36.004  16.204  1.00  0.00     0.293 HD
ENDBRANCH  15  18
BRANCH  17  20
ATOM     20  O   UNL     1     -43.529  36.191  13.425  1.00  0.00    -0.504 OA
ATOM     21  H   UNL     1     -43.644  37.138  13.764  1.00  0.00     0.293 HD
ENDBRANCH  17  20
ENDBRANCH   1  12
BRANCH   2  22
ATOM     22  O   UNL     1     -39.367  34.504  13.926  1.00  0.00    -0.502 OA
ATOM     23  H   UNL     1     -38.755  34.823  13.184  1.00  0.00     0.293 HD
ENDBRANCH   2  22
BRANCH   6  24
ATOM     24  O   UNL     1     -35.697  30.705  14.615  1.00  0.00    -0.507 OA
ATOM     25  H   UNL     1     -35.099  30.315  13.901  1.00  0.00     0.293 HD
ENDBRANCH   6  24
BRANCH   8  26
ATOM     26  O   UNL     1     -38.469  27.070  16.027  1.00  0.00    -0.508 OA
ATOM     27  H   UNL     1     -38.856  26.799  16.924  1.00  0.00     0.293 HD
ENDBRANCH   8  26
TORSDOF 6
ENDMDL
MODEL 5
REMARK VINA RESULT:    -4.572      1.985      7.093
REMARK INTER + INTRA:          -5.810
REMARK INTER:                  -5.985
REMARK INTRA:                   0.175
REMARK UNBOUND:                -0.302
REMARK SMILES O=c1c(O)c(-c2ccc(O)c(O)c2)oc2cc(O)cc(O)c12
REMARK SMILES IDX 5 1 3 2 2 3 1 4 22 5 20 6 19 7 17 8 16 9 15 10 14 11 6 12
REMARK SMILES IDX 7 13 8 14 9 15 13 16 11 17 10 18 12 20 4 22 21 24 18 26
REMARK H PARENT 10 19 12 21 4 23 21 25 18 27
REMARK Flexibility Score: inf
ROOT
ATOM      1  C   UNL     1     -40.617  32.268  14.744  1.00  0.00     0.180 A 
ATOM      2  C   UNL     1     -39.894  33.293  14.110  1.00  0.00     0.208 A 
ATOM      3  C   UNL     1     -40.497  34.549  13.944  1.00  0.00     0.238 A 
ATOM      4  O   UNL     1     -39.826  35.479  13.424  1.00  0.00    -0.285 OA
ATOM      5  C   UNL     1     -41.821  34.762  14.400  1.00  0.00     0.111 A 
ATOM      6  C   UNL     1     -42.545  35.982  14.249  1.00  0.00     0.134 A 
ATOM      7  C   UNL     1     -43.799  36.121  14.854  1.00  0.00     0.093 A 
ATOM      8  C   UNL     1     -44.385  35.062  15.549  1.00  0.00     0.123 A 
ATOM      9  C   UNL     1     -43.711  33.844  15.652  1.00  0.00     0.094 A 
ATOM     10  C   UNL     1     -42.443  33.688  15.090  1.00  0.00     0.146 A 
ATOM     11  O   UNL     1     -41.831  32.516  15.219  1.00  0.00    -0.452 OA
ENDROOT
BRANCH   1  12
ATOM     12  C   UNL     1     -40.057  30.909  14.932  1.00  0.00     0.025 A 
ATOM     13  C   UNL     1     -40.876  29.790  14.719  1.00  0.00     0.016 A 
ATOM     14  C   UNL     1     -40.364  28.499  14.871  1.00  0.00     0.051 A 
ATOM     15  C   UNL     1     -39.021  28.308  15.222  1.00  0.00     0.157 A 
ATOM     16  C   UNL     1     -38.705  30.713  15.265  1.00  0.00     0.062 A 
ATOM     17  C   UNL     1     -38.187  29.421  15.415  1.00  0.00     0.158 A 
BRANCH  15  18
ATOM     18  O   UNL     1     -38.513  27.018  15.374  1.00  0.00    -0.504 OA
ATOM     19  H   UNL     1     -37.948  26.582  14.656  1.00  0.00     0.293 HD
ENDBRANCH  15  18
BRANCH  17  20
ATOM     20  O   UNL     1     -36.843  29.265  15.750  1.00  0.00    -0.504 OA
ATOM     21  H   UNL     1     -36.552  28.866  16.634  1.00  0.00     0.293 HD
ENDBRANCH  17  20
ENDBRANCH   1  12
BRANCH   2  22
ATOM     22  O   UNL     1     -38.580  33.069  13.687  1.00  0.00    -0.502 OA
ATOM     23  H   UNL     1     -37.891  32.613  14.273  1.00  0.00     0.293 HD
ENDBRANCH   2  22
BRANCH   6  24
ATOM     24  O   UNL     1     -42.091  37.070  13.498  1.00  0.00    -0.507 OA
ATOM     25  H   UNL     1     -41.123  37.339  13.402  1.00  0.00     0.293 HD
ENDBRANCH   6  24
BRANCH   8  26
ATOM     26  O   UNL     1     -45.642  35.230  16.125  1.00  0.00    -0.508 OA
ATOM     27  H   UNL     1     -45.812  35.938  16.829  1.00  0.00     0.293 HD
ENDBRANCH   8  26
TORSDOF 6
ENDMDL
MODEL 6
REMARK VINA RESULT:    -4.557     13.920     16.487
REMARK INTER + INTRA:          -5.792
REMARK INTER:                  -5.469
REMARK INTRA:                  -0.322
REMARK UNBOUND:                -0.302
REMARK SMILES O=c1c(O)c(-c2ccc(O)c(O)c2)oc2cc(O)cc(O)c12
REMARK SMILES IDX 5 1 3 2 2 3 1 4 22 5 20 6 19 7 17 8 16 9 15 10 14 11 6 12
REMARK SMILES IDX 7 13 8 14 9 15 13 16 11 17 10 18 12 20 4 22 21 24 18 26
REMARK H PARENT 10 19 12 21 4 23 21 25 18 27
REMARK Flexibility Score: inf
ROOT
ATOM      1  C   UNL     1     -48.606  32.411   2.587  1.00  0.00     0.180 A 
ATOM      2  C   UNL     1     -47.705  33.201   3.322  1.00  0.00     0.208 A 
ATOM      3  C   UNL     1     -48.048  34.529   3.618  1.00  0.00     0.238 A 
ATOM      4  O   UNL     1     -47.262  35.215   4.322  1.00  0.00    -0.285 OA
ATOM      5  C   UNL     1     -49.281  35.057   3.162  1.00  0.00     0.111 A 
ATOM      6  C   UNL     1     -49.714  36.401   3.370  1.00  0.00     0.134 A 
ATOM      7  C   UNL     1     -51.008  36.776   2.989  1.00  0.00     0.093 A 
ATOM      8  C   UNL     1     -51.861  35.876   2.350  1.00  0.00     0.123 A 
ATOM      9  C   UNL     1     -51.426  34.576   2.089  1.00  0.00     0.094 A 
ATOM     10  C   UNL     1     -50.154  34.162   2.489  1.00  0.00     0.146 A 
ATOM     11  O   UNL     1     -49.782  32.913   2.231  1.00  0.00    -0.452 OA
ENDROOT
BRANCH   1  12
ATOM     12  C   UNL     1     -48.303  31.010   2.215  1.00  0.00     0.025 A 
ATOM     13  C   UNL     1     -47.593  30.748   1.033  1.00  0.00     0.016 A 
ATOM     14  C   UNL     1     -47.278  29.435   0.673  1.00  0.00     0.051 A 
ATOM     15  C   UNL     1     -47.655  28.366   1.496  1.00  0.00     0.157 A 
ATOM     16  C   UNL     1     -48.661  29.936   3.049  1.00  0.00     0.062 A 
ATOM     17  C   UNL     1     -48.345  28.620   2.693  1.00  0.00     0.158 A 
BRANCH  15  18
ATOM     18  O   UNL     1     -47.341  27.057   1.133  1.00  0.00    -0.504 OA
ATOM     19  H   UNL     1     -47.620  26.267   1.702  1.00  0.00     0.293 HD
ENDBRANCH  15  18
BRANCH  17  20
ATOM     20  O   UNL     1     -48.721  27.579   3.542  1.00  0.00    -0.504 OA
ATOM     21  H   UNL     1     -48.971  26.663   3.191  1.00  0.00     0.293 HD
ENDBRANCH  17  20
ENDBRANCH   1  12
BRANCH   2  22
ATOM     22  O   UNL     1     -46.503  32.654   3.781  1.00  0.00    -0.502 OA
ATOM     23  H   UNL     1     -46.392  31.664   3.966  1.00  0.00     0.293 HD
ENDBRANCH   2  22
BRANCH   6  24
ATOM     24  O   UNL     1     -48.909  37.404   3.916  1.00  0.00    -0.507 OA
ATOM     25  H   UNL     1     -49.242  38.309   4.214  1.00  0.00     0.293 HD
ENDBRANCH   6  24
BRANCH   8  26
ATOM     26  O   UNL     1     -53.136  36.288   1.970  1.00  0.00    -0.508 OA
ATOM     27  H   UNL     1     -53.398  37.267   1.968  1.00  0.00     0.293 HD
ENDBRANCH   8  26
TORSDOF 6
ENDMDL
