MODEL 1
REMARK VINA RESULT:    -4.852      0.000      0.000
REMARK INTER + INTRA:          -6.179
REMARK INTER:                  -5.845
REMARK INTRA:                  -0.334
REMARK UNBOUND:                -0.334
REMARK SMILES O=c1c(O)c(-c2ccc(O)c(O)c2)oc2cc(O)cc(O)c12
REMARK SMILES IDX 5 1 3 2 2 3 1 4 22 5 20 6 19 7 17 8 16 9 15 10 14 11 6 12
REMARK SMILES IDX 7 13 8 14 9 15 13 16 11 17 10 18 12 20 4 22 21 24 18 26
REMARK H PARENT 10 19 12 21 4 23 21 25 18 27
REMARK Flexibility Score: inf
ROOT
ATOM      1  C   UNL     1      32.318   6.873  20.434  1.00  0.00     0.180 A 
ATOM      2  C   UNL     1      31.873   6.815  19.102  1.00  0.00     0.208 A 
ATOM      3  C   UNL     1      31.605   5.561  18.529  1.00  0.00     0.238 A 
ATOM      4  O   UNL     1      31.259   5.511  17.320  1.00  0.00    -0.285 OA
ATOM      5  C   UNL     1      31.771   4.384  19.298  1.00  0.00     0.111 A 
ATOM      6  C   UNL     1      31.491   3.065  18.832  1.00  0.00     0.134 A 
ATOM      7  C   UNL     1      31.816   1.965  19.636  1.00  0.00     0.093 A 
ATOM      8  C   UNL     1      32.349   2.138  20.912  1.00  0.00     0.123 A 
ATOM      9  C   UNL     1      32.570   3.426  21.402  1.00  0.00     0.094 A 
ATOM     10  C   UNL     1      32.291   4.542  20.610  1.00  0.00     0.146 A 
ATOM     11  O   UNL     1      32.526   5.750  21.109  1.00  0.00    -0.452 OA
ENDROOT
BRANCH   1  12
ATOM     12  C   UNL     1      32.596   8.159  21.115  1.00  0.00     0.025 A 
ATOM     13  C   UNL     1      33.904   8.670  21.119  1.00  0.00     0.016 A 
ATOM     14  C   UNL     1      34.193   9.870  21.773  1.00  0.00     0.051 A 
ATOM     15  C   UNL     1      33.182  10.569  22.446  1.00  0.00     0.157 A 
ATOM     16  C   UNL     1      31.589   8.854  21.809  1.00  0.00     0.062 A 
ATOM     17  C   UNL     1      31.879  10.057  22.467  1.00  0.00     0.158 A 
BRANCH  15  18
ATOM     18  O   UNL     1      33.467  11.767  23.098  1.00  0.00    -0.504 OA
ATOM     19  H   UNL     1      32.900  12.097  23.870  1.00  0.00     0.293 HD
ENDBRANCH  15  18
BRANCH  17  20
ATOM     20  O   UNL     1      30.878  10.748  23.149  1.00  0.00    -0.504 OA
ATOM     21  H   UNL     1      31.095  11.386  23.905  1.00  0.00     0.293 HD
ENDBRANCH  17  20
ENDBRANCH   1  12
BRANCH   2  22
ATOM     22  O   UNL     1      31.737   7.987  18.354  1.00  0.00    -0.502 OA
ATOM     23  H   UNL     1      32.529   8.563  18.096  1.00  0.00     0.293 HD
ENDBRANCH   2  22
BRANCH   6  24
ATOM     24  O   UNL     1      30.875   2.784  17.610  1.00  0.00    -0.507 OA
ATOM     25  H   UNL     1      30.470   3.476  16.997  1.00  0.00     0.293 HD
ENDBRANCH   6  24
BRANCH   8  26
ATOM     26  O   UNL     1      32.645   1.022  21.691  1.00  0.00    -0.508 OA
ATOM     27  H   UNL     1      33.567   0.602  21.687  1.00  0.00     0.293 HD
ENDBRANCH   8  26
TORSDOF 6
ENDMDL
MODEL 2
REMARK VINA RESULT:    -4.765      0.746      1.445
REMARK INTER + INTRA:          -6.074
REMARK INTER:                  -5.821
REMARK INTRA:                  -0.254
REMARK UNBOUND:                -0.334
REMARK SMILES O=c1c(O)c(-c2ccc(O)c(O)c2)oc2cc(O)cc(O)c12
REMARK SMILES IDX 5 1 3 2 2 3 1 4 22 5 20 6 19 7 17 8 16 9 15 10 14 11 6 12
REMARK SMILES IDX 7 13 8 14 9 15 13 16 11 17 10 18 12 20 4 22 21 24 18 26
REMARK H PARENT 10 19 12 21 4 23 21 25 18 27
REMARK Flexibility Score: inf
ROOT
ATOM      1  C   UNL     1      31.835   6.563  20.562  1.00  0.00     0.180 A 
ATOM      2  C   UNL     1      31.482   6.541  19.201  1.00  0.00     0.208 A 
ATOM      3  C   UNL     1      31.343   5.301  18.555  1.00  0.00     0.238 A 
ATOM      4  O   UNL     1      31.080   5.289  17.324  1.00  0.00    -0.285 OA
ATOM      5  C   UNL     1      31.543   4.102  19.279  1.00  0.00     0.111 A 
ATOM      6  C   UNL     1      31.390   2.792  18.735  1.00  0.00     0.134 A 
ATOM      7  C   UNL     1      31.740   1.677  19.509  1.00  0.00     0.093 A 
ATOM      8  C   UNL     1      32.175   1.823  20.825  1.00  0.00     0.123 A 
ATOM      9  C   UNL     1      32.272   3.096  21.387  1.00  0.00     0.094 A 
ATOM     10  C   UNL     1      31.964   4.229  20.629  1.00  0.00     0.146 A 
ATOM     11  O   UNL     1      32.080   5.424  21.197  1.00  0.00    -0.452 OA
ENDROOT
BRANCH   1  12
ATOM     12  C   UNL     1      31.975   7.829  21.317  1.00  0.00     0.025 A 
ATOM     13  C   UNL     1      30.950   8.229  22.190  1.00  0.00     0.016 A 
ATOM     14  C   UNL     1      31.052   9.431  22.897  1.00  0.00     0.051 A 
ATOM     15  C   UNL     1      32.171  10.256  22.730  1.00  0.00     0.157 A 
ATOM     16  C   UNL     1      33.087   8.671  21.137  1.00  0.00     0.062 A 
ATOM     17  C   UNL     1      33.188   9.877  21.845  1.00  0.00     0.158 A 
BRANCH  15  18
ATOM     18  O   UNL     1      32.277  11.454  23.434  1.00  0.00    -0.504 OA
ATOM     19  H   UNL     1      31.487  11.847  23.932  1.00  0.00     0.293 HD
ENDBRANCH  15  18
BRANCH  17  20
ATOM     20  O   UNL     1      34.295  10.707  21.669  1.00  0.00    -0.504 OA
ATOM     21  H   UNL     1      34.287  11.673  21.974  1.00  0.00     0.293 HD
ENDBRANCH  17  20
ENDBRANCH   1  12
BRANCH   2  22
ATOM     22  O   UNL     1      31.311   7.736  18.499  1.00  0.00    -0.502 OA
ATOM     23  H   UNL     1      31.860   8.565  18.694  1.00  0.00     0.293 HD
ENDBRANCH   2  22
BRANCH   6  24
ATOM     24  O   UNL     1      30.876   2.530  17.463  1.00  0.00    -0.507 OA
ATOM     25  H   UNL     1      29.895   2.541  17.226  1.00  0.00     0.293 HD
ENDBRANCH   6  24
BRANCH   8  26
ATOM     26  O   UNL     1      32.500   0.692  21.571  1.00  0.00    -0.508 OA
ATOM     27  H   UNL     1      31.808  -0.015  21.791  1.00  0.00     0.293 HD
ENDBRANCH   8  26
TORSDOF 6
ENDMDL
MODEL 3
REMARK VINA RESULT:    -4.530      1.576      7.023
REMARK INTER + INTRA:          -5.791
REMARK INTER:                  -5.460
REMARK INTRA:                  -0.331
REMARK UNBOUND:                -0.334
REMARK SMILES O=c1c(O)c(-c2ccc(O)c(O)c2)oc2cc(O)cc(O)c12
REMARK SMILES IDX 5 1 3 2 2 3 1 4 22 5 20 6 19 7 17 8 16 9 15 10 14 11 6 12
REMARK SMILES IDX 7 13 8 14 9 15 13 16 11 17 10 18 12 20 4 22 21 24 18 26
REMARK H PARENT 10 19 12 21 4 23 21 25 18 27
REMARK Flexibility Score: inf
ROOT
ATOM      1  C   UNL     1      32.886   6.668  20.554  1.00  0.00     0.180 A 
ATOM      2  C   UNL     1      34.158   7.123  20.165  1.00  0.00     0.208 A 
ATOM      3  C   UNL     1      34.574   8.403  20.567  1.00  0.00     0.238 A 
ATOM      4  O   UNL     1      35.691   8.826  20.170  1.00  0.00    -0.285 OA
ATOM      5  C   UNL     1      33.722   9.205  21.363  1.00  0.00     0.111 A 
ATOM      6  C   UNL     1      34.057  10.500  21.860  1.00  0.00     0.134 A 
ATOM      7  C   UNL     1      33.086  11.256  22.529  1.00  0.00     0.093 A 
ATOM      8  C   UNL     1      31.816  10.739  22.776  1.00  0.00     0.123 A 
ATOM      9  C   UNL     1      31.496   9.450  22.348  1.00  0.00     0.094 A 
ATOM     10  C   UNL     1      32.431   8.685  21.646  1.00  0.00     0.146 A 
ATOM     11  O   UNL     1      32.084   7.468  21.246  1.00  0.00    -0.452 OA
ENDROOT
BRANCH   1  12
ATOM     12  C   UNL     1      32.387   5.322  20.191  1.00  0.00     0.025 A 
ATOM     13  C   UNL     1      31.628   5.159  19.021  1.00  0.00     0.016 A 
ATOM     14  C   UNL     1      31.130   3.901  18.670  1.00  0.00     0.051 A 
ATOM     15  C   UNL     1      31.369   2.792  19.492  1.00  0.00     0.157 A 
ATOM     16  C   UNL     1      32.608   4.209  21.023  1.00  0.00     0.062 A 
ATOM     17  C   UNL     1      32.106   2.948  20.673  1.00  0.00     0.158 A 
BRANCH  15  18
ATOM     18  O   UNL     1      30.875   1.537  19.145  1.00  0.00    -0.504 OA
ATOM     19  H   UNL     1      29.961   1.425  18.723  1.00  0.00     0.293 HD
ENDBRANCH  15  18
BRANCH  17  20
ATOM     20  O   UNL     1      32.331   1.845  21.495  1.00  0.00    -0.504 OA
ATOM     21  H   UNL     1      32.209   0.898  21.158  1.00  0.00     0.293 HD
ENDBRANCH  17  20
ENDBRANCH   1  12
BRANCH   2  22
ATOM     22  O   UNL     1      34.975   6.326  19.360  1.00  0.00    -0.502 OA
ATOM     23  H   UNL     1      35.714   5.747  19.740  1.00  0.00     0.293 HD
ENDBRANCH   2  22
BRANCH   6  24
ATOM     24  O   UNL     1      35.326  11.073  21.748  1.00  0.00    -0.507 OA
ATOM     25  H   UNL     1      36.147  10.755  22.242  1.00  0.00     0.293 HD
ENDBRANCH   6  24
BRANCH   8  26
ATOM     26  O   UNL     1      30.879  11.513  23.459  1.00  0.00    -0.508 OA
ATOM     27  H   UNL     1      30.727  12.487  23.228  1.00  0.00     0.293 HD
ENDBRANCH   8  26
TORSDOF 6
ENDMDL
MODEL 4
REMARK VINA RESULT:    -4.475      5.170      7.924
REMARK INTER + INTRA:          -5.725
REMARK INTER:                  -5.506
REMARK INTRA:                  -0.219
REMARK UNBOUND:                -0.334
REMARK SMILES O=c1c(O)c(-c2ccc(O)c(O)c2)oc2cc(O)cc(O)c12
REMARK SMILES IDX 5 1 3 2 2 3 1 4 22 5 20 6 19 7 17 8 16 9 15 10 14 11 6 12
REMARK SMILES IDX 7 13 8 14 9 15 13 16 11 17 10 18 12 20 4 22 21 24 18 26
REMARK H PARENT 10 19 12 21 4 23 21 25 18 27
REMARK Flexibility Score: inf
ROOT
ATOM      1  C   UNL     1      37.065   9.775  22.897  1.00  0.00     0.180 A 
ATOM      2  C   UNL     1      38.168  10.644  22.828  1.00  0.00     0.208 A 
ATOM      3  C   UNL     1      39.436  10.165  23.196  1.00  0.00     0.238 A 
ATOM      4  O   UNL     1      40.410  10.962  23.184  1.00  0.00    -0.285 OA
ATOM      5  C   UNL     1      39.587   8.821  23.615  1.00  0.00     0.111 A 
ATOM      6  C   UNL     1      40.831   8.219  23.973  1.00  0.00     0.134 A 
ATOM      7  C   UNL     1      40.843   6.920  24.497  1.00  0.00     0.093 A 
ATOM      8  C   UNL     1      39.668   6.179  24.614  1.00  0.00     0.123 A 
ATOM      9  C   UNL     1      38.455   6.737  24.211  1.00  0.00     0.094 A 
ATOM     10  C   UNL     1      38.404   8.043  23.718  1.00  0.00     0.146 A 
ATOM     11  O   UNL     1      37.228   8.541  23.356  1.00  0.00    -0.452 OA
ENDROOT
BRANCH   1  12
ATOM     12  C   UNL     1      35.703  10.200  22.501  1.00  0.00     0.025 A 
ATOM     13  C   UNL     1      34.987  11.083  23.327  1.00  0.00     0.016 A 
ATOM     14  C   UNL     1      33.693  11.480  22.984  1.00  0.00     0.051 A 
ATOM     15  C   UNL     1      33.089  10.989  21.819  1.00  0.00     0.157 A 
ATOM     16  C   UNL     1      35.084   9.694  21.344  1.00  0.00     0.062 A 
ATOM     17  C   UNL     1      33.785  10.091  21.000  1.00  0.00     0.158 A 
BRANCH  15  18
ATOM     18  O   UNL     1      31.798  11.384  21.472  1.00  0.00    -0.504 OA
ATOM     19  H   UNL     1      31.000  10.778  21.623  1.00  0.00     0.293 HD
ENDBRANCH  15  18
BRANCH  17  20
ATOM     20  O   UNL     1      33.176   9.593  19.849  1.00  0.00    -0.504 OA
ATOM     21  H   UNL     1      32.912   8.619  19.768  1.00  0.00     0.293 HD
ENDBRANCH  17  20
ENDBRANCH   1  12
BRANCH   2  22
ATOM     22  O   UNL     1      37.993  11.972  22.433  1.00  0.00    -0.502 OA
ATOM     23  H   UNL     1      37.225  12.268  21.843  1.00  0.00     0.293 HD
ENDBRANCH   2  22
BRANCH   6  24
ATOM     24  O   UNL     1      42.073   8.837  23.809  1.00  0.00    -0.507 OA
ATOM     25  H   UNL     1      42.466   9.111  22.921  1.00  0.00     0.293 HD
ENDBRANCH   6  24
BRANCH   8  26
ATOM     26  O   UNL     1      39.720   4.884  25.124  1.00  0.00    -0.508 OA
ATOM     27  H   UNL     1      39.553   4.075  24.537  1.00  0.00     0.293 HD
ENDBRANCH   8  26
TORSDOF 6
ENDMDL
MODEL 5
REMARK VINA RESULT:    -4.440      3.657      6.558
REMARK INTER + INTRA:          -5.682
REMARK INTER:                  -5.411
REMARK INTRA:                  -0.271
REMARK UNBOUND:                -0.334
REMARK SMILES O=c1c(O)c(-c2ccc(O)c(O)c2)oc2cc(O)cc(O)c12
REMARK SMILES IDX 5 1 3 2 2 3 1 4 22 5 20 6 19 7 17 8 16 9 15 10 14 11 6 12
REMARK SMILES IDX 7 13 8 14 9 15 13 16 11 17 10 18 12 20 4 22 21 24 18 26
REMARK H PARENT 10 19 12 21 4 23 21 25 18 27
REMARK Flexibility Score: inf
ROOT
ATOM      1  C   UNL     1      35.934  10.111  21.940  1.00  0.00     0.180 A 
ATOM      2  C   UNL     1      35.059  10.955  22.646  1.00  0.00     0.208 A 
ATOM      3  C   UNL     1      33.696  10.624  22.708  1.00  0.00     0.238 A 
ATOM      4  O   UNL     1      32.909  11.411  23.295  1.00  0.00    -0.285 OA
ATOM      5  C   UNL     1      33.227   9.447  22.076  1.00  0.00     0.111 A 
ATOM      6  C   UNL     1      31.874   8.994  22.108  1.00  0.00     0.134 A 
ATOM      7  C   UNL     1      31.499   7.885  21.339  1.00  0.00     0.093 A 
ATOM      8  C   UNL     1      32.438   7.176  20.592  1.00  0.00     0.123 A 
ATOM      9  C   UNL     1      33.775   7.574  20.602  1.00  0.00     0.094 A 
ATOM     10  C   UNL     1      34.174   8.697  21.330  1.00  0.00     0.146 A 
ATOM     11  O   UNL     1      35.454   9.050  21.304  1.00  0.00    -0.452 OA
ENDROOT
BRANCH   1  12
ATOM     12  C   UNL     1      37.387  10.380  21.852  1.00  0.00     0.025 A 
ATOM     13  C   UNL     1      37.940  10.801  20.631  1.00  0.00     0.016 A 
ATOM     14  C   UNL     1      39.312  11.041  20.520  1.00  0.00     0.051 A 
ATOM     15  C   UNL     1      40.154  10.848  21.623  1.00  0.00     0.157 A 
ATOM     16  C   UNL     1      38.240  10.168  22.951  1.00  0.00     0.062 A 
ATOM     17  C   UNL     1      39.617  10.406  22.839  1.00  0.00     0.158 A 
BRANCH  15  18
ATOM     18  O   UNL     1      41.522  11.087  21.517  1.00  0.00    -0.504 OA
ATOM     19  H   UNL     1      42.011  10.984  20.635  1.00  0.00     0.293 HD
ENDBRANCH  15  18
BRANCH  17  20
ATOM     20  O   UNL     1      40.459  10.202  23.931  1.00  0.00    -0.504 OA
ATOM     21  H   UNL     1      41.338  10.696  24.022  1.00  0.00     0.293 HD
ENDBRANCH  17  20
ENDBRANCH   1  12
BRANCH   2  22
ATOM     22  O   UNL     1      35.539  12.123  23.244  1.00  0.00    -0.502 OA
ATOM     23  H   UNL     1      36.396  12.147  23.782  1.00  0.00     0.293 HD
ENDBRANCH   2  22
BRANCH   6  24
ATOM     24  O   UNL     1      30.875   9.575  22.893  1.00  0.00    -0.507 OA
ATOM     25  H   UNL     1      30.846   9.544  23.901  1.00  0.00     0.293 HD
ENDBRANCH   6  24
BRANCH   8  26
ATOM     26  O   UNL     1      32.033   6.067  19.851  1.00  0.00    -0.508 OA
ATOM     27  H   UNL     1      32.550   5.755  19.038  1.00  0.00     0.293 HD
ENDBRANCH   8  26
TORSDOF 6
ENDMDL
MODEL 6
REMARK VINA RESULT:    -4.429      4.191      7.126
REMARK INTER + INTRA:          -5.670
REMARK INTER:                  -5.395
REMARK INTRA:                  -0.275
REMARK UNBOUND:                -0.334
REMARK SMILES O=c1c(O)c(-c2ccc(O)c(O)c2)oc2cc(O)cc(O)c12
REMARK SMILES IDX 5 1 3 2 2 3 1 4 22 5 20 6 19 7 17 8 16 9 15 10 14 11 6 12
REMARK SMILES IDX 7 13 8 14 9 15 13 16 11 17 10 18 12 20 4 22 21 24 18 26
REMARK H PARENT 10 19 12 21 4 23 21 25 18 27
REMARK Flexibility Score: inf
ROOT
ATOM      1  C   UNL     1      36.624  10.132  21.655  1.00  0.00     0.180 A 
ATOM      2  C   UNL     1      36.300   9.005  20.880  1.00  0.00     0.208 A 
ATOM      3  C   UNL     1      34.964   8.576  20.830  1.00  0.00     0.238 A 
ATOM      4  O   UNL     1      34.688   7.535  20.177  1.00  0.00    -0.285 OA
ATOM      5  C   UNL     1      33.968   9.286  21.542  1.00  0.00     0.111 A 
ATOM      6  C   UNL     1      32.578   8.963  21.531  1.00  0.00     0.134 A 
ATOM      7  C   UNL     1      31.701   9.655  22.376  1.00  0.00     0.093 A 
ATOM      8  C   UNL     1      32.152  10.699  23.183  1.00  0.00     0.123 A 
ATOM      9  C   UNL     1      33.499  11.062  23.157  1.00  0.00     0.094 A 
ATOM     10  C   UNL     1      34.404  10.368  22.351  1.00  0.00     0.146 A 
ATOM     11  O   UNL     1      35.680  10.737  22.364  1.00  0.00    -0.452 OA
ENDROOT
BRANCH   1  12
ATOM     12  C   UNL     1      38.006  10.660  21.737  1.00  0.00     0.025 A 
ATOM     13  C   UNL     1      38.532  11.389  20.658  1.00  0.00     0.016 A 
ATOM     14  C   UNL     1      39.840  11.878  20.705  1.00  0.00     0.051 A 
ATOM     15  C   UNL     1      40.646  11.631  21.824  1.00  0.00     0.157 A 
ATOM     16  C   UNL     1      38.826  10.398  22.849  1.00  0.00     0.062 A 
ATOM     17  C   UNL     1      40.139  10.886  22.895  1.00  0.00     0.158 A 
BRANCH  15  18
ATOM     18  O   UNL     1      41.951  12.118  21.874  1.00  0.00    -0.504 OA
ATOM     19  H   UNL     1      42.401  12.514  21.057  1.00  0.00     0.293 HD
ENDBRANCH  15  18
BRANCH  17  20
ATOM     20  O   UNL     1      40.949  10.631  24.002  1.00  0.00    -0.504 OA
ATOM     21  H   UNL     1      41.933  10.417  23.900  1.00  0.00     0.293 HD
ENDBRANCH  17  20
ENDBRANCH   1  12
BRANCH   2  22
ATOM     22  O   UNL     1      37.302   8.306  20.202  1.00  0.00    -0.502 OA
ATOM     23  H   UNL     1      37.097   7.628  19.479  1.00  0.00     0.293 HD
ENDBRANCH   2  22
BRANCH   6  24
ATOM     24  O   UNL     1      32.007   8.000  20.694  1.00  0.00    -0.507 OA
ATOM     25  H   UNL     1      31.191   7.453  20.921  1.00  0.00     0.293 HD
ENDBRANCH   6  24
BRANCH   8  26
ATOM     26  O   UNL     1      31.250  11.376  24.000  1.00  0.00    -0.508 OA
ATOM     27  H   UNL     1      30.377  10.952  24.292  1.00  0.00     0.293 HD
ENDBRANCH   8  26
TORSDOF 6
ENDMDL
MODEL 7
REMARK VINA RESULT:    -4.329      4.751      8.480
REMARK INTER + INTRA:          -5.549
REMARK INTER:                  -5.247
REMARK INTRA:                  -0.302
REMARK UNBOUND:                -0.334
REMARK SMILES O=c1c(O)c(-c2ccc(O)c(O)c2)oc2cc(O)cc(O)c12
REMARK SMILES IDX 5 1 3 2 2 3 1 4 22 5 20 6 19 7 17 8 16 9 15 10 14 11 6 12
REMARK SMILES IDX 7 13 8 14 9 15 13 16 11 17 10 18 12 20 4 22 21 24 18 26
REMARK H PARENT 10 19 12 21 4 23 21 25 18 27
REMARK Flexibility Score: inf
ROOT
ATOM      1  C   UNL     1      36.405  10.609  21.499  1.00  0.00     0.180 A 
ATOM      2  C   UNL     1      37.383  10.163  22.405  1.00  0.00     0.208 A 
ATOM      3  C   UNL     1      38.736  10.243  22.038  1.00  0.00     0.238 A 
ATOM      4  O   UNL     1      39.604   9.793  22.831  1.00  0.00    -0.285 OA
ATOM      5  C   UNL     1      39.095  10.780  20.778  1.00  0.00     0.111 A 
ATOM      6  C   UNL     1      40.436  10.945  20.320  1.00  0.00     0.134 A 
ATOM      7  C   UNL     1      40.670  11.366  19.005  1.00  0.00     0.093 A 
ATOM      8  C   UNL     1      39.614  11.690  18.154  1.00  0.00     0.123 A 
ATOM      9  C   UNL     1      38.299  11.591  18.612  1.00  0.00     0.094 A 
ATOM     10  C   UNL     1      38.033  11.139  19.906  1.00  0.00     0.146 A 
ATOM     11  O   UNL     1      36.768  11.047  20.300  1.00  0.00    -0.452 OA
ENDROOT
BRANCH   1  12
ATOM     12  C   UNL     1      34.960  10.581  21.824  1.00  0.00     0.025 A 
ATOM     13  C   UNL     1      34.411  11.599  22.620  1.00  0.00     0.016 A 
ATOM     14  C   UNL     1      33.055  11.581  22.958  1.00  0.00     0.051 A 
ATOM     15  C   UNL     1      32.232  10.536  22.517  1.00  0.00     0.157 A 
ATOM     16  C   UNL     1      34.134   9.524  21.401  1.00  0.00     0.062 A 
ATOM     17  C   UNL     1      32.774   9.504  21.741  1.00  0.00     0.158 A 
BRANCH  15  18
ATOM     18  O   UNL     1      30.879  10.515  22.849  1.00  0.00    -0.504 OA
ATOM     19  H   UNL     1      30.228   9.896  22.382  1.00  0.00     0.293 HD
ENDBRANCH  15  18
BRANCH  17  20
ATOM     20  O   UNL     1      31.955   8.459  21.315  1.00  0.00    -0.504 OA
ATOM     21  H   UNL     1      31.315   8.570  20.539  1.00  0.00     0.293 HD
ENDBRANCH  17  20
ENDBRANCH   1  12
BRANCH   2  22
ATOM     22  O   UNL     1      37.006   9.616  23.633  1.00  0.00    -0.502 OA
ATOM     23  H   UNL     1      36.277   8.918  23.718  1.00  0.00     0.293 HD
ENDBRANCH   2  22
BRANCH   6  24
ATOM     24  O   UNL     1      41.565  10.737  21.117  1.00  0.00    -0.507 OA
ATOM     25  H   UNL     1      41.697  11.127  22.038  1.00  0.00     0.293 HD
ENDBRANCH   6  24
BRANCH   8  26
ATOM     26  O   UNL     1      39.883  12.122  16.857  1.00  0.00    -0.508 OA
ATOM     27  H   UNL     1      40.727  12.634  16.633  1.00  0.00     0.293 HD
ENDBRANCH   8  26
TORSDOF 6
ENDMDL
MODEL 8
REMARK VINA RESULT:    -3.940      2.849      7.059
REMARK INTER + INTRA:          -5.081
REMARK INTER:                  -4.761
REMARK INTRA:                  -0.319
REMARK UNBOUND:                -0.334
REMARK SMILES O=c1c(O)c(-c2ccc(O)c(O)c2)oc2cc(O)cc(O)c12
REMARK SMILES IDX 5 1 3 2 2 3 1 4 22 5 20 6 19 7 17 8 16 9 15 10 14 11 6 12
REMARK SMILES IDX 7 13 8 14 9 15 13 16 11 17 10 18 12 20 4 22 21 24 18 26
REMARK H PARENT 10 19 12 21 4 23 21 25 18 27
REMARK Flexibility Score: inf
ROOT
ATOM      1  C   UNL     1      34.170   6.901  20.437  1.00  0.00     0.180 A 
ATOM      2  C   UNL     1      32.780   6.806  20.626  1.00  0.00     0.208 A 
ATOM      3  C   UNL     1      32.110   7.851  21.283  1.00  0.00     0.238 A 
ATOM      4  O   UNL     1      30.875   7.736  21.497  1.00  0.00    -0.285 OA
ATOM      5  C   UNL     1      32.834   8.983  21.728  1.00  0.00     0.111 A 
ATOM      6  C   UNL     1      32.252  10.117  22.368  1.00  0.00     0.134 A 
ATOM      7  C   UNL     1      33.081  11.122  22.882  1.00  0.00     0.093 A 
ATOM      8  C   UNL     1      34.465  11.065  22.722  1.00  0.00     0.123 A 
ATOM      9  C   UNL     1      35.041   9.990  22.044  1.00  0.00     0.094 A 
ATOM     10  C   UNL     1      34.243   8.955  21.552  1.00  0.00     0.146 A 
ATOM     11  O   UNL     1      34.830   7.944  20.923  1.00  0.00    -0.452 OA
ENDROOT
BRANCH   1  12
ATOM     12  C   UNL     1      34.941   5.851  19.731  1.00  0.00     0.025 A 
ATOM     13  C   UNL     1      35.026   5.881  18.330  1.00  0.00     0.016 A 
ATOM     14  C   UNL     1      35.730   4.889  17.642  1.00  0.00     0.051 A 
ATOM     15  C   UNL     1      36.346   3.845  18.344  1.00  0.00     0.157 A 
ATOM     16  C   UNL     1      35.544   4.790  20.430  1.00  0.00     0.062 A 
ATOM     17  C   UNL     1      36.248   3.793  19.740  1.00  0.00     0.158 A 
BRANCH  15  18
ATOM     18  O   UNL     1      37.050   2.855  17.662  1.00  0.00    -0.504 OA
ATOM     19  H   UNL     1      36.869   2.653  16.686  1.00  0.00     0.293 HD
ENDBRANCH  15  18
BRANCH  17  20
ATOM     20  O   UNL     1      36.851   2.746  20.435  1.00  0.00    -0.504 OA
ATOM     21  H   UNL     1      36.309   1.974  20.804  1.00  0.00     0.293 HD
ENDBRANCH  17  20
ENDBRANCH   1  12
BRANCH   2  22
ATOM     22  O   UNL     1      32.088   5.670  20.199  1.00  0.00    -0.502 OA
ATOM     23  H   UNL     1      32.405   5.098  19.426  1.00  0.00     0.293 HD
ENDBRANCH   2  22
BRANCH   6  24
ATOM     24  O   UNL     1      30.875  10.318  22.499  1.00  0.00    -0.507 OA
ATOM     25  H   UNL     1      30.423  10.676  23.327  1.00  0.00     0.293 HD
ENDBRANCH   6  24
BRANCH   8  26
ATOM     26  O   UNL     1      35.259  12.090  23.233  1.00  0.00    -0.508 OA
ATOM     27  H   UNL     1      35.240  13.022  22.837  1.00  0.00     0.293 HD
ENDBRANCH   8  26
TORSDOF 6
ENDMDL
MODEL 9
REMARK VINA RESULT:    -3.899      4.782      8.000
REMARK INTER + INTRA:          -5.031
REMARK INTER:                  -4.707
REMARK INTRA:                  -0.324
REMARK UNBOUND:                -0.334
REMARK SMILES O=c1c(O)c(-c2ccc(O)c(O)c2)oc2cc(O)cc(O)c12
REMARK SMILES IDX 5 1 3 2 2 3 1 4 22 5 20 6 19 7 17 8 16 9 15 10 14 11 6 12
REMARK SMILES IDX 7 13 8 14 9 15 13 16 11 17 10 18 12 20 4 22 21 24 18 26
REMARK H PARENT 10 19 12 21 4 23 21 25 18 27
REMARK Flexibility Score: inf
ROOT
ATOM      1  C   UNL     1      36.560  10.264  22.291  1.00  0.00     0.180 A 
ATOM      2  C   UNL     1      37.291  11.158  21.489  1.00  0.00     0.208 A 
ATOM      3  C   UNL     1      38.694  11.085  21.496  1.00  0.00     0.238 A 
ATOM      4  O   UNL     1      39.345  11.923  20.817  1.00  0.00    -0.285 OA
ATOM      5  C   UNL     1      39.346  10.113  22.291  1.00  0.00     0.111 A 
ATOM      6  C   UNL     1      40.760   9.924  22.343  1.00  0.00     0.134 A 
ATOM      7  C   UNL     1      41.302   9.018  23.264  1.00  0.00     0.093 A 
ATOM      8  C   UNL     1      40.480   8.249  24.086  1.00  0.00     0.123 A 
ATOM      9  C   UNL     1      39.094   8.382  24.000  1.00  0.00     0.094 A 
ATOM     10  C   UNL     1      38.524   9.303  23.118  1.00  0.00     0.146 A 
ATOM     11  O   UNL     1      37.202   9.407  23.075  1.00  0.00    -0.452 OA
ENDROOT
BRANCH   1  12
ATOM     12  C   UNL     1      35.079  10.263  22.317  1.00  0.00     0.025 A 
ATOM     13  C   UNL     1      34.404  11.085  23.234  1.00  0.00     0.016 A 
ATOM     14  C   UNL     1      33.008  11.083  23.291  1.00  0.00     0.051 A 
ATOM     15  C   UNL     1      32.267  10.249  22.444  1.00  0.00     0.157 A 
ATOM     16  C   UNL     1      34.332   9.411  21.483  1.00  0.00     0.062 A 
ATOM     17  C   UNL     1      32.931   9.408  21.541  1.00  0.00     0.158 A 
BRANCH  15  18
ATOM     18  O   UNL     1      30.875  10.246  22.497  1.00  0.00    -0.504 OA
ATOM     19  H   UNL     1      30.366  10.877  23.104  1.00  0.00     0.293 HD
ENDBRANCH  15  18
BRANCH  17  20
ATOM     20  O   UNL     1      32.192   8.569  20.709  1.00  0.00    -0.504 OA
ATOM     21  H   UNL     1      31.214   8.376  20.885  1.00  0.00     0.293 HD
ENDBRANCH  17  20
ENDBRANCH   1  12
BRANCH   2  22
ATOM     22  O   UNL     1      36.629  12.124  20.728  1.00  0.00    -0.502 OA
ATOM     23  H   UNL     1      35.735  12.514  21.002  1.00  0.00     0.293 HD
ENDBRANCH   2  22
BRANCH   6  24
ATOM     24  O   UNL     1      41.666  10.575  21.501  1.00  0.00    -0.507 OA
ATOM     25  H   UNL     1      41.419  11.291  20.835  1.00  0.00     0.293 HD
ENDBRANCH   6  24
BRANCH   8  26
ATOM     26  O   UNL     1      41.053   7.346  24.979  1.00  0.00    -0.508 OA
ATOM     27  H   UNL     1      41.116   7.547  25.970  1.00  0.00     0.293 HD
ENDBRANCH   8  26
TORSDOF 6
ENDMDL
