MODEL 1
REMARK VINA RESULT:    -6.148      0.000      0.000
REMARK INTER + INTRA:          -9.650
REMARK INTER:                  -8.304
REMARK INTRA:                  -1.346
REMARK UNBOUND:                -1.346
REMARK SMILES CC[C@H](CC[C@H](C)[C@H]1CC[C@H]2[C@H]3CC(=O)C4=CC(=O)CC[C@@]4(C)[C@H]3CC[C@]12C)C(C)C
REMARK SMILES IDX 4 1 3 2 2 3 1 4 29 5 30 6 31 7 5 8 6 9 7 10 8 11 9 12 27 13
REMARK SMILES IDX 10 14 11 15 26 16 28 17 12 18 25 19 24 20 13 21 22 22 14 23
REMARK SMILES IDX 16 24 21 25 23 26 15 27 17 28 20 29 18 30 19 31
REMARK H PARENT
REMARK Flexibility Score: inf
ROOT
ATOM      1  C   UNL     1       3.840  -1.870  -9.822  1.00  0.00     0.004 C 
ENDROOT
BRANCH   1   2
ATOM      2  C   UNL     1       4.063  -0.394  -9.391  1.00  0.00    -0.009 C 
BRANCH   2   3
ATOM      3  C   UNL     1       5.344   0.253  -9.998  1.00  0.00     0.000 C 
ATOM      4  C   UNL     1       6.481   0.543  -9.016  1.00  0.00     0.004 C 
ENDBRANCH   2   3
BRANCH   2   5
ATOM      5  C   UNL     1       2.748   0.451  -9.507  1.00  0.00    -0.014 C 
ATOM      6  C   UNL     1       2.669   1.674  -8.575  1.00  0.00     0.007 C 
ATOM      7  C   UNL     1       1.477  -0.402  -9.381  1.00  0.00     0.007 C 
ENDBRANCH   2   5
ENDBRANCH   1   2
BRANCH   1   8
ATOM      8  C   UNL     1       5.095  -2.753  -9.677  1.00  0.00     0.004 C 
BRANCH   8   9
ATOM      9  C   UNL     1       4.968  -3.751  -8.487  1.00  0.00    -0.011 C 
ATOM     10  C   UNL     1       4.187  -5.006  -8.912  1.00  0.00     0.008 C 
BRANCH   9  11
ATOM     11  C   UNL     1       4.444  -3.172  -7.125  1.00  0.00    -0.002 C 
ATOM     12  C   UNL     1       2.992  -3.606  -6.775  1.00  0.00     0.005 C 
ATOM     13  C   UNL     1       5.261  -3.323  -5.799  1.00  0.00    -0.026 C 
ATOM     14  C   UNL     1       2.909  -3.688  -5.244  1.00  0.00     0.005 C 
ATOM     15  C   UNL     1       4.166  -2.971  -4.777  1.00  0.00    -0.001 C 
ATOM     16  C   UNL     1       6.392  -2.285  -5.607  1.00  0.00     0.007 C 
ATOM     17  C   UNL     1       5.829  -4.757  -5.636  1.00  0.00     0.012 C 
ATOM     18  C   UNL     1       4.573  -3.020  -3.285  1.00  0.00     0.004 C 
ATOM     19  C   UNL     1       6.930  -2.280  -4.157  1.00  0.00     0.005 C 
ATOM     20  C   UNL     1       5.832  -2.106  -3.056  1.00  0.00     0.003 C 
ATOM     21  C   UNL     1       4.616  -4.442  -2.641  1.00  0.00     0.085 C 
ATOM     22  C   UNL     1       6.408  -2.257  -1.603  1.00  0.00    -0.000 C 
ATOM     23  C   UNL     1       5.854  -4.770  -1.849  1.00  0.00     0.159 C 
ATOM     24  C   UNL     1       6.809  -3.722  -1.414  1.00  0.00     0.005 C 
ATOM     25  C   UNL     1       7.579  -1.231  -1.337  1.00  0.00     0.020 C 
ATOM     26  C   UNL     1       5.305  -1.931  -0.557  1.00  0.00     0.017 C 
ATOM     27  O   UNL     1       6.063  -5.978  -1.551  1.00  0.00    -0.295 OA
ATOM     28  C   UNL     1       8.008  -4.078  -0.919  1.00  0.00     0.055 C 
ATOM     29  C   UNL     1       8.990  -1.803  -1.485  1.00  0.00     0.081 C 
ATOM     30  C   UNL     1       9.084  -3.102  -0.762  1.00  0.00     0.156 C 
ATOM     31  O   UNL     1      10.123  -3.400  -0.114  1.00  0.00    -0.295 OA
ENDBRANCH   9  11
ENDBRANCH   8   9
ENDBRANCH   1   8
TORSDOF 6
ENDMDL
MODEL 2
REMARK VINA RESULT:    -5.987      2.643      7.601
REMARK INTER + INTRA:          -9.433
REMARK INTER:                  -8.207
REMARK INTRA:                  -1.226
REMARK UNBOUND:                -1.346
REMARK SMILES CC[C@H](CC[C@H](C)[C@H]1CC[C@H]2[C@H]3CC(=O)C4=CC(=O)CC[C@@]4(C)[C@H]3CC[C@]12C)C(C)C
REMARK SMILES IDX 4 1 3 2 2 3 1 4 29 5 30 6 31 7 5 8 6 9 7 10 8 11 9 12 27 13
REMARK SMILES IDX 10 14 11 15 26 16 28 17 12 18 25 19 24 20 13 21 22 22 14 23
REMARK SMILES IDX 16 24 21 25 23 26 15 27 17 28 20 29 18 30 19 31
REMARK H PARENT
REMARK Flexibility Score: inf
ROOT
ATOM      1  C   UNL     1       8.014  -1.905  -1.132  1.00  0.00     0.004 C 
ENDROOT
BRANCH   1   2
ATOM      2  C   UNL     1       6.541  -2.218  -0.749  1.00  0.00    -0.009 C 
BRANCH   2   3
ATOM      3  C   UNL     1       6.387  -3.426   0.223  1.00  0.00     0.000 C 
ATOM      4  C   UNL     1       5.346  -4.477  -0.170  1.00  0.00     0.004 C 
ENDBRANCH   2   3
BRANCH   2   5
ATOM      5  C   UNL     1       5.752  -0.921  -0.361  1.00  0.00    -0.014 C 
ATOM      6  C   UNL     1       4.936  -1.014   0.942  1.00  0.00     0.007 C 
ATOM      7  C   UNL     1       4.875  -0.391  -1.505  1.00  0.00     0.007 C 
ENDBRANCH   2   5
ENDBRANCH   1   2
BRANCH   1   8
ATOM      8  C   UNL     1       8.869  -3.163  -1.379  1.00  0.00     0.004 C 
BRANCH   8   9
ATOM      9  C   UNL     1       9.262  -3.313  -2.880  1.00  0.00    -0.011 C 
ATOM     10  C   UNL     1       9.463  -1.933  -3.529  1.00  0.00     0.008 C 
BRANCH   9  11
ATOM     11  C   UNL     1       8.359  -4.246  -3.762  1.00  0.00    -0.002 C 
ATOM     12  C   UNL     1       7.603  -5.336  -2.950  1.00  0.00     0.005 C 
ATOM     13  C   UNL     1       7.310  -3.665  -4.767  1.00  0.00    -0.026 C 
ATOM     14  C   UNL     1       6.276  -5.594  -3.678  1.00  0.00     0.005 C 
ATOM     15  C   UNL     1       6.475  -4.929  -5.032  1.00  0.00    -0.001 C 
ATOM     16  C   UNL     1       7.889  -3.225  -6.133  1.00  0.00     0.007 C 
ATOM     17  C   UNL     1       6.499  -2.502  -4.138  1.00  0.00     0.012 C 
ATOM     18  C   UNL     1       5.277  -4.775  -5.999  1.00  0.00     0.004 C 
ATOM     19  C   UNL     1       6.775  -2.978  -7.177  1.00  0.00     0.005 C 
ATOM     20  C   UNL     1       5.779  -4.170  -7.361  1.00  0.00     0.003 C 
ATOM     21  C   UNL     1       3.988  -4.141  -5.385  1.00  0.00     0.085 C 
ATOM     22  C   UNL     1       4.586  -3.815  -8.318  1.00  0.00    -0.000 C 
ATOM     23  C   UNL     1       3.355  -3.032  -6.184  1.00  0.00     0.159 C 
ATOM     24  C   UNL     1       3.709  -2.784  -7.603  1.00  0.00     0.005 C 
ATOM     25  C   UNL     1       5.103  -3.346  -9.734  1.00  0.00     0.020 C 
ATOM     26  C   UNL     1       3.716  -5.078  -8.575  1.00  0.00     0.017 C 
ATOM     27  O   UNL     1       2.495  -2.308  -5.612  1.00  0.00    -0.295 OA
ATOM     28  C   UNL     1       3.301  -1.652  -8.202  1.00  0.00     0.055 C 
ATOM     29  C   UNL     1       5.146  -1.830  -9.941  1.00  0.00     0.081 C 
ATOM     30  C   UNL     1       3.866  -1.224  -9.480  1.00  0.00     0.156 C 
ATOM     31  O   UNL     1       3.336  -0.280 -10.125  1.00  0.00    -0.295 OA
ENDBRANCH   9  11
ENDBRANCH   8   9
ENDBRANCH   1   8
TORSDOF 6
ENDMDL
MODEL 3
REMARK VINA RESULT:    -5.897      2.766      7.506
REMARK INTER + INTRA:          -9.312
REMARK INTER:                  -7.439
REMARK INTRA:                  -1.872
REMARK UNBOUND:                -1.346
REMARK SMILES CC[C@H](CC[C@H](C)[C@H]1CC[C@H]2[C@H]3CC(=O)C4=CC(=O)CC[C@@]4(C)[C@H]3CC[C@]12C)C(C)C
REMARK SMILES IDX 4 1 3 2 2 3 1 4 29 5 30 6 31 7 5 8 6 9 7 10 8 11 9 12 27 13
REMARK SMILES IDX 10 14 11 15 26 16 28 17 12 18 25 19 24 20 13 21 22 22 14 23
REMARK SMILES IDX 16 24 21 25 23 26 15 27 17 28 20 29 18 30 19 31
REMARK H PARENT
REMARK Flexibility Score: inf
ROOT
ATOM      1  C   UNL     1       7.348  -1.728  -0.853  1.00  0.00     0.004 C 
ENDROOT
BRANCH   1   2
ATOM      2  C   UNL     1       5.821  -1.491  -0.683  1.00  0.00    -0.009 C 
BRANCH   2   3
ATOM      3  C   UNL     1       5.396  -1.151   0.778  1.00  0.00     0.000 C 
ATOM      4  C   UNL     1       5.169  -2.344   1.708  1.00  0.00     0.004 C 
ENDBRANCH   2   3
BRANCH   2   5
ATOM      5  C   UNL     1       5.250  -0.552  -1.800  1.00  0.00    -0.014 C 
ATOM      6  C   UNL     1       4.670   0.784  -1.301  1.00  0.00     0.007 C 
ATOM      7  C   UNL     1       4.244  -1.263  -2.719  1.00  0.00     0.007 C 
ENDBRANCH   2   5
ENDBRANCH   1   2
BRANCH   1   8
ATOM      8  C   UNL     1       7.761  -3.208  -0.728  1.00  0.00     0.004 C 
BRANCH   8   9
ATOM      9  C   UNL     1       6.814  -4.145  -1.539  1.00  0.00    -0.011 C 
ATOM     10  C   UNL     1       6.361  -5.336  -0.678  1.00  0.00     0.008 C 
BRANCH   9  11
ATOM     11  C   UNL     1       7.311  -4.604  -2.955  1.00  0.00    -0.002 C 
ATOM     12  C   UNL     1       7.480  -6.144  -3.092  1.00  0.00     0.005 C 
ATOM     13  C   UNL     1       6.597  -4.140  -4.268  1.00  0.00    -0.026 C 
ATOM     14  C   UNL     1       7.173  -6.498  -4.554  1.00  0.00     0.005 C 
ATOM     15  C   UNL     1       7.194  -5.151  -5.261  1.00  0.00    -0.001 C 
ATOM     16  C   UNL     1       7.005  -2.735  -4.771  1.00  0.00     0.007 C 
ATOM     17  C   UNL     1       5.053  -4.227  -4.140  1.00  0.00     0.012 C 
ATOM     18  C   UNL     1       6.714  -5.043  -6.728  1.00  0.00     0.004 C 
ATOM     19  C   UNL     1       6.524  -2.480  -6.219  1.00  0.00     0.005 C 
ATOM     20  C   UNL     1       6.952  -3.578  -7.249  1.00  0.00     0.003 C 
ATOM     21  C   UNL     1       5.320  -5.676  -7.034  1.00  0.00     0.085 C 
ATOM     22  C   UNL     1       6.316  -3.352  -8.667  1.00  0.00    -0.000 C 
ATOM     23  C   UNL     1       4.363  -4.817  -7.818  1.00  0.00     0.159 C 
ATOM     24  C   UNL     1       4.812  -3.606  -8.547  1.00  0.00     0.005 C 
ATOM     25  C   UNL     1       6.684  -1.928  -9.243  1.00  0.00     0.020 C 
ATOM     26  C   UNL     1       6.890  -4.385  -9.678  1.00  0.00     0.017 C 
ATOM     27  O   UNL     1       3.149  -5.158  -7.848  1.00  0.00    -0.295 OA
ATOM     28  C   UNL     1       3.900  -2.746  -9.033  1.00  0.00     0.055 C 
ATOM     29  C   UNL     1       5.603  -0.859  -9.071  1.00  0.00     0.081 C 
ATOM     30  C   UNL     1       4.282  -1.409  -9.485  1.00  0.00     0.156 C 
ATOM     31  O   UNL     1       3.462  -0.695 -10.121  1.00  0.00    -0.295 OA
ENDBRANCH   9  11
ENDBRANCH   8   9
ENDBRANCH   1   8
TORSDOF 6
ENDMDL
MODEL 4
REMARK VINA RESULT:    -5.816      2.998      7.597
REMARK INTER + INTRA:          -9.202
REMARK INTER:                  -7.192
REMARK INTRA:                  -2.010
REMARK UNBOUND:                -1.346
REMARK SMILES CC[C@H](CC[C@H](C)[C@H]1CC[C@H]2[C@H]3CC(=O)C4=CC(=O)CC[C@@]4(C)[C@H]3CC[C@]12C)C(C)C
REMARK SMILES IDX 4 1 3 2 2 3 1 4 29 5 30 6 31 7 5 8 6 9 7 10 8 11 9 12 27 13
REMARK SMILES IDX 10 14 11 15 26 16 28 17 12 18 25 19 24 20 13 21 22 22 14 23
REMARK SMILES IDX 16 24 21 25 23 26 15 27 17 28 20 29 18 30 19 31
REMARK H PARENT
REMARK Flexibility Score: inf
ROOT
ATOM      1  C   UNL     1       6.335  -1.834  -0.319  1.00  0.00     0.004 C 
ENDROOT
BRANCH   1   2
ATOM      2  C   UNL     1       5.032  -2.090  -1.125  1.00  0.00    -0.009 C 
BRANCH   2   3
ATOM      3  C   UNL     1       4.670  -0.945  -2.118  1.00  0.00     0.000 C 
ATOM      4  C   UNL     1       4.533   0.453  -1.511  1.00  0.00     0.004 C 
ENDBRANCH   2   3
BRANCH   2   5
ATOM      5  C   UNL     1       4.984  -3.544  -1.709  1.00  0.00    -0.014 C 
ATOM      6  C   UNL     1       3.594  -4.024  -2.164  1.00  0.00     0.007 C 
ATOM      7  C   UNL     1       5.632  -4.581  -0.780  1.00  0.00     0.007 C 
ENDBRANCH   2   5
ENDBRANCH   1   2
BRANCH   1   8
ATOM      8  C   UNL     1       7.480  -1.246  -1.167  1.00  0.00     0.004 C 
BRANCH   8   9
ATOM      9  C   UNL     1       8.313  -2.361  -1.869  1.00  0.00    -0.011 C 
ATOM     10  C   UNL     1       9.617  -2.631  -1.100  1.00  0.00     0.008 C 
BRANCH   9  11
ATOM     11  C   UNL     1       8.568  -2.194  -3.410  1.00  0.00    -0.002 C 
ATOM     12  C   UNL     1      10.069  -2.275  -3.810  1.00  0.00     0.005 C 
ATOM     13  C   UNL     1       7.802  -3.055  -4.468  1.00  0.00    -0.026 C 
ATOM     14  C   UNL     1      10.122  -2.885  -5.218  1.00  0.00     0.005 C 
ATOM     15  C   UNL     1       8.682  -2.795  -5.702  1.00  0.00    -0.001 C 
ATOM     16  C   UNL     1       6.385  -2.545  -4.822  1.00  0.00     0.007 C 
ATOM     17  C   UNL     1       7.736  -4.548  -4.051  1.00  0.00     0.012 C 
ATOM     18  C   UNL     1       8.263  -3.506  -7.011  1.00  0.00     0.004 C 
ATOM     19  C   UNL     1       5.826  -3.232  -6.090  1.00  0.00     0.005 C 
ATOM     20  C   UNL     1       6.765  -3.157  -7.339  1.00  0.00     0.003 C 
ATOM     21  C   UNL     1       8.672  -5.009  -7.126  1.00  0.00     0.085 C 
ATOM     22  C   UNL     1       6.222  -3.994  -8.552  1.00  0.00    -0.000 C 
ATOM     23  C   UNL     1       7.585  -5.956  -7.564  1.00  0.00     0.159 C 
ATOM     24  C   UNL     1       6.323  -5.474  -8.175  1.00  0.00     0.005 C 
ATOM     25  C   UNL     1       4.769  -3.533  -8.965  1.00  0.00     0.020 C 
ATOM     26  C   UNL     1       7.119  -3.763  -9.801  1.00  0.00     0.017 C 
ATOM     27  O   UNL     1       7.777  -7.192  -7.404  1.00  0.00    -0.295 OA
ATOM     28  C   UNL     1       5.293  -6.324  -8.333  1.00  0.00     0.055 C 
ATOM     29  C   UNL     1       3.633  -4.401  -8.422  1.00  0.00     0.081 C 
ATOM     30  C   UNL     1       3.950  -5.840  -8.644  1.00  0.00     0.156 C 
ATOM     31  O   UNL     1       3.047  -6.648  -8.989  1.00  0.00    -0.295 OA
ENDBRANCH   9  11
ENDBRANCH   8   9
ENDBRANCH   1   8
TORSDOF 6
ENDMDL
MODEL 5
REMARK VINA RESULT:    -5.586      2.727      7.557
REMARK INTER + INTRA:          -8.892
REMARK INTER:                  -6.669
REMARK INTRA:                  -2.222
REMARK UNBOUND:                -1.346
REMARK SMILES CC[C@H](CC[C@H](C)[C@H]1CC[C@H]2[C@H]3CC(=O)C4=CC(=O)CC[C@@]4(C)[C@H]3CC[C@]12C)C(C)C
REMARK SMILES IDX 4 1 3 2 2 3 1 4 29 5 30 6 31 7 5 8 6 9 7 10 8 11 9 12 27 13
REMARK SMILES IDX 10 14 11 15 26 16 28 17 12 18 25 19 24 20 13 21 22 22 14 23
REMARK SMILES IDX 16 24 21 25 23 26 15 27 17 28 20 29 18 30 19 31
REMARK H PARENT
REMARK Flexibility Score: inf
ROOT
ATOM      1  C   UNL     1       7.904  -1.407  -1.130  1.00  0.00     0.004 C 
ENDROOT
BRANCH   1   2
ATOM      2  C   UNL     1       6.488  -2.040  -1.039  1.00  0.00    -0.009 C 
BRANCH   2   3
ATOM      3  C   UNL     1       6.000  -2.285   0.421  1.00  0.00     0.000 C 
ATOM      4  C   UNL     1       5.614  -3.724   0.770  1.00  0.00     0.004 C 
ENDBRANCH   2   3
BRANCH   2   5
ATOM      5  C   UNL     1       5.468  -1.327  -1.991  1.00  0.00    -0.014 C 
ATOM      6  C   UNL     1       4.861  -0.021  -1.445  1.00  0.00     0.007 C 
ATOM      7  C   UNL     1       4.358  -2.266  -2.488  1.00  0.00     0.007 C 
ENDBRANCH   2   5
ENDBRANCH   1   2
BRANCH   1   8
ATOM      8  C   UNL     1       9.047  -2.437  -1.053  1.00  0.00     0.004 C 
BRANCH   8   9
ATOM      9  C   UNL     1       8.592  -3.847  -1.538  1.00  0.00    -0.011 C 
ATOM     10  C   UNL     1       9.040  -4.933  -0.546  1.00  0.00     0.008 C 
BRANCH   9  11
ATOM     11  C   UNL     1       8.933  -4.234  -3.020  1.00  0.00    -0.002 C 
ATOM     12  C   UNL     1       9.537  -5.659  -3.174  1.00  0.00     0.005 C 
ATOM     13  C   UNL     1       7.879  -4.097  -4.169  1.00  0.00    -0.026 C 
ATOM     14  C   UNL     1       9.087  -6.189  -4.542  1.00  0.00     0.005 C 
ATOM     15  C   UNL     1       8.562  -4.950  -5.252  1.00  0.00    -0.001 C 
ATOM     16  C   UNL     1       7.736  -2.672  -4.756  1.00  0.00     0.007 C 
ATOM     17  C   UNL     1       6.489  -4.632  -3.737  1.00  0.00     0.012 C 
ATOM     18  C   UNL     1       7.808  -5.092  -6.595  1.00  0.00     0.004 C 
ATOM     19  C   UNL     1       6.940  -2.674  -6.083  1.00  0.00     0.005 C 
ATOM     20  C   UNL     1       7.483  -3.663  -7.166  1.00  0.00     0.003 C 
ATOM     21  C   UNL     1       6.644  -6.133  -6.613  1.00  0.00     0.085 C 
ATOM     22  C   UNL     1       6.557  -3.736  -8.432  1.00  0.00    -0.000 C 
ATOM     23  C   UNL     1       5.341  -5.655  -7.199  1.00  0.00     0.159 C 
ATOM     24  C   UNL     1       5.253  -4.419  -8.014  1.00  0.00     0.005 C 
ATOM     25  C   UNL     1       6.356  -2.311  -9.082  1.00  0.00     0.020 C 
ATOM     26  C   UNL     1       7.222  -4.618  -9.527  1.00  0.00     0.017 C 
ATOM     27  O   UNL     1       4.307  -6.345  -6.984  1.00  0.00    -0.295 OA
ATOM     28  C   UNL     1       4.047  -3.907  -8.317  1.00  0.00     0.055 C 
ATOM     29  C   UNL     1       5.051  -1.605  -8.710  1.00  0.00     0.081 C 
ATOM     30  C   UNL     1       3.910  -2.552  -8.848  1.00  0.00     0.156 C 
ATOM     31  O   UNL     1       2.808  -2.161  -9.316  1.00  0.00    -0.295 OA
ENDBRANCH   9  11
ENDBRANCH   8   9
ENDBRANCH   1   8
TORSDOF 6
ENDMDL
MODEL 6
REMARK VINA RESULT:    -5.549      2.476      4.456
REMARK INTER + INTRA:          -8.842
REMARK INTER:                  -6.618
REMARK INTRA:                  -2.224
REMARK UNBOUND:                -1.346
REMARK SMILES CC[C@H](CC[C@H](C)[C@H]1CC[C@H]2[C@H]3CC(=O)C4=CC(=O)CC[C@@]4(C)[C@H]3CC[C@]12C)C(C)C
REMARK SMILES IDX 4 1 3 2 2 3 1 4 29 5 30 6 31 7 5 8 6 9 7 10 8 11 9 12 27 13
REMARK SMILES IDX 10 14 11 15 26 16 28 17 12 18 25 19 24 20 13 21 22 22 14 23
REMARK SMILES IDX 16 24 21 25 23 26 15 27 17 28 20 29 18 30 19 31
REMARK H PARENT
REMARK Flexibility Score: inf
ROOT
ATOM      1  C   UNL     1       7.044  -6.268  -8.512  1.00  0.00     0.004 C 
ENDROOT
BRANCH   1   2
ATOM      2  C   UNL     1       7.097  -6.844  -7.070  1.00  0.00    -0.009 C 
BRANCH   2   3
ATOM      3  C   UNL     1       6.535  -8.292  -6.949  1.00  0.00     0.000 C 
ATOM      4  C   UNL     1       5.106  -8.418  -6.416  1.00  0.00     0.004 C 
ENDBRANCH   2   3
BRANCH   2   5
ATOM      5  C   UNL     1       8.487  -6.589  -6.391  1.00  0.00    -0.014 C 
ATOM      6  C   UNL     1       9.500  -5.804  -7.245  1.00  0.00     0.007 C 
ATOM      7  C   UNL     1       9.128  -7.873  -5.845  1.00  0.00     0.007 C 
ENDBRANCH   2   5
ENDBRANCH   1   2
BRANCH   1   8
ATOM      8  C   UNL     1       6.289  -4.928  -8.615  1.00  0.00     0.004 C 
BRANCH   8   9
ATOM      9  C   UNL     1       4.992  -4.925  -7.750  1.00  0.00    -0.011 C 
ATOM     10  C   UNL     1       3.746  -5.077  -8.638  1.00  0.00     0.008 C 
BRANCH   9  11
ATOM     11  C   UNL     1       4.832  -3.756  -6.714  1.00  0.00    -0.002 C 
ATOM     12  C   UNL     1       3.352  -3.386  -6.410  1.00  0.00     0.005 C 
ATOM     13  C   UNL     1       5.555  -3.782  -5.327  1.00  0.00    -0.026 C 
ATOM     14  C   UNL     1       3.305  -2.903  -4.953  1.00  0.00     0.005 C 
ATOM     15  C   UNL     1       4.768  -2.676  -4.602  1.00  0.00    -0.001 C 
ATOM     16  C   UNL     1       7.033  -3.325  -5.352  1.00  0.00     0.007 C 
ATOM     17  C   UNL     1       5.444  -5.173  -4.650  1.00  0.00     0.012 C 
ATOM     18  C   UNL     1       5.173  -2.387  -3.137  1.00  0.00     0.004 C 
ATOM     19  C   UNL     1       7.578  -3.061  -3.928  1.00  0.00     0.005 C 
ATOM     20  C   UNL     1       6.714  -2.076  -3.073  1.00  0.00     0.003 C 
ATOM     21  C   UNL     1       4.616  -3.382  -2.070  1.00  0.00     0.085 C 
ATOM     22  C   UNL     1       7.225  -1.957  -1.593  1.00  0.00    -0.000 C 
ATOM     23  C   UNL     1       5.618  -3.916  -1.080  1.00  0.00     0.159 C 
ATOM     24  C   UNL     1       6.952  -3.294  -0.900  1.00  0.00     0.005 C 
ATOM     25  C   UNL     1       8.736  -1.503  -1.540  1.00  0.00     0.020 C 
ATOM     26  C   UNL     1       6.420  -0.862  -0.839  1.00  0.00     0.017 C 
ATOM     27  O   UNL     1       5.290  -4.919  -0.390  1.00  0.00    -0.295 OA
ATOM     28  C   UNL     1       7.893  -3.936  -0.185  1.00  0.00     0.055 C 
ATOM     29  C   UNL     1       9.748  -2.633  -1.336  1.00  0.00     0.081 C 
ATOM     30  C   UNL     1       9.294  -3.520  -0.229  1.00  0.00     0.156 C 
ATOM     31  O   UNL     1      10.123  -3.993   0.593  1.00  0.00    -0.295 OA
ENDBRANCH   9  11
ENDBRANCH   8   9
ENDBRANCH   1   8
TORSDOF 6
ENDMDL
MODEL 7
REMARK VINA RESULT:    -5.438      3.014      7.724
REMARK INTER + INTRA:          -8.692
REMARK INTER:                  -6.755
REMARK INTRA:                  -1.937
REMARK UNBOUND:                -1.346
REMARK SMILES CC[C@H](CC[C@H](C)[C@H]1CC[C@H]2[C@H]3CC(=O)C4=CC(=O)CC[C@@]4(C)[C@H]3CC[C@]12C)C(C)C
REMARK SMILES IDX 4 1 3 2 2 3 1 4 29 5 30 6 31 7 5 8 6 9 7 10 8 11 9 12 27 13
REMARK SMILES IDX 10 14 11 15 26 16 28 17 12 18 25 19 24 20 13 21 22 22 14 23
REMARK SMILES IDX 16 24 21 25 23 26 15 27 17 28 20 29 18 30 19 31
REMARK H PARENT
REMARK Flexibility Score: inf
ROOT
ATOM      1  C   UNL     1       4.933  -3.419  -0.796  1.00  0.00     0.004 C 
ENDROOT
BRANCH   1   2
ATOM      2  C   UNL     1       4.881  -1.985  -0.200  1.00  0.00    -0.009 C 
BRANCH   2   3
ATOM      3  C   UNL     1       5.694  -1.822   1.120  1.00  0.00     0.000 C 
ATOM      4  C   UNL     1       4.889  -1.897   2.419  1.00  0.00     0.004 C 
ENDBRANCH   2   3
BRANCH   2   5
ATOM      5  C   UNL     1       5.126  -0.890  -1.295  1.00  0.00    -0.014 C 
ATOM      6  C   UNL     1       4.716   0.540  -0.896  1.00  0.00     0.007 C 
ATOM      7  C   UNL     1       4.518  -1.261  -2.656  1.00  0.00     0.007 C 
ENDBRANCH   2   5
ENDBRANCH   1   2
BRANCH   1   8
ATOM      8  C   UNL     1       6.055  -4.294  -0.206  1.00  0.00     0.004 C 
BRANCH   8   9
ATOM      9  C   UNL     1       7.290  -4.371  -1.153  1.00  0.00    -0.011 C 
ATOM     10  C   UNL     1       8.597  -4.218  -0.357  1.00  0.00     0.008 C 
BRANCH   9  11
ATOM     11  C   UNL     1       7.270  -3.450  -2.425  1.00  0.00    -0.002 C 
ATOM     12  C   UNL     1       8.547  -2.578  -2.588  1.00  0.00     0.005 C 
ATOM     13  C   UNL     1       6.965  -4.021  -3.849  1.00  0.00    -0.026 C 
ATOM     14  C   UNL     1       8.772  -2.395  -4.095  1.00  0.00     0.005 C 
ATOM     15  C   UNL     1       7.457  -2.847  -4.712  1.00  0.00    -0.001 C 
ATOM     16  C   UNL     1       5.462  -4.204  -4.170  1.00  0.00     0.007 C 
ATOM     17  C   UNL     1       7.725  -5.348  -4.109  1.00  0.00     0.012 C 
ATOM     18  C   UNL     1       7.343  -3.021  -6.245  1.00  0.00     0.004 C 
ATOM     19  C   UNL     1       5.222  -4.449  -5.679  1.00  0.00     0.005 C 
ATOM     20  C   UNL     1       5.858  -3.376  -6.622  1.00  0.00     0.003 C 
ATOM     21  C   UNL     1       8.460  -3.885  -6.913  1.00  0.00     0.085 C 
ATOM     22  C   UNL     1       5.715  -3.749  -8.141  1.00  0.00    -0.000 C 
ATOM     23  C   UNL     1       7.987  -4.951  -7.867  1.00  0.00     0.159 C 
ATOM     24  C   UNL     1       6.605  -4.965  -8.406  1.00  0.00     0.005 C 
ATOM     25  C   UNL     1       4.202  -3.962  -8.541  1.00  0.00     0.020 C 
ATOM     26  C   UNL     1       6.234  -2.582  -9.026  1.00  0.00     0.017 C 
ATOM     27  O   UNL     1       8.808  -5.844  -8.210  1.00  0.00    -0.295 OA
ATOM     28  C   UNL     1       6.158  -6.052  -9.060  1.00  0.00     0.055 C 
ATOM     29  C   UNL     1       3.741  -5.420  -8.590  1.00  0.00     0.081 C 
ATOM     30  C   UNL     1       4.736  -6.236  -9.341  1.00  0.00     0.156 C 
ATOM     31  O   UNL     1       4.356  -7.146 -10.125  1.00  0.00    -0.295 OA
ENDBRANCH   9  11
ENDBRANCH   8   9
ENDBRANCH   1   8
TORSDOF 6
ENDMDL
MODEL 8
REMARK VINA RESULT:    -5.306      1.744      3.348
REMARK INTER + INTRA:          -8.513
REMARK INTER:                  -7.203
REMARK INTRA:                  -1.309
REMARK UNBOUND:                -1.346
REMARK SMILES CC[C@H](CC[C@H](C)[C@H]1CC[C@H]2[C@H]3CC(=O)C4=CC(=O)CC[C@@]4(C)[C@H]3CC[C@]12C)C(C)C
REMARK SMILES IDX 4 1 3 2 2 3 1 4 29 5 30 6 31 7 5 8 6 9 7 10 8 11 9 12 27 13
REMARK SMILES IDX 10 14 11 15 26 16 28 17 12 18 25 19 24 20 13 21 22 22 14 23
REMARK SMILES IDX 16 24 21 25 23 26 15 27 17 28 20 29 18 30 19 31
REMARK H PARENT
REMARK Flexibility Score: inf
ROOT
ATOM      1  C   UNL     1       3.464  -1.995  -8.113  1.00  0.00     0.004 C 
ENDROOT
BRANCH   1   2
ATOM      2  C   UNL     1       2.888  -0.992  -9.152  1.00  0.00    -0.009 C 
BRANCH   2   3
ATOM      3  C   UNL     1       1.542  -0.338  -8.717  1.00  0.00     0.000 C 
ATOM      4  C   UNL     1       0.413  -0.371  -9.749  1.00  0.00     0.004 C 
ENDBRANCH   2   3
BRANCH   2   5
ATOM      5  C   UNL     1       3.987  -0.009  -9.685  1.00  0.00    -0.014 C 
ATOM      6  C   UNL     1       5.430  -0.348  -9.267  1.00  0.00     0.007 C 
ATOM      7  C   UNL     1       3.671   1.462  -9.375  1.00  0.00     0.007 C 
ENDBRANCH   2   5
ENDBRANCH   1   2
BRANCH   1   8
ATOM      8  C   UNL     1       3.513  -3.449  -8.620  1.00  0.00     0.004 C 
BRANCH   8   9
ATOM      9  C   UNL     1       4.977  -3.960  -8.778  1.00  0.00    -0.011 C 
ATOM     10  C   UNL     1       5.159  -4.683 -10.123  1.00  0.00     0.008 C 
BRANCH   9  11
ATOM     11  C   UNL     1       5.574  -4.788  -7.585  1.00  0.00    -0.002 C 
ATOM     12  C   UNL     1       6.889  -5.539  -7.939  1.00  0.00     0.005 C 
ATOM     13  C   UNL     1       5.821  -4.144  -6.180  1.00  0.00    -0.026 C 
ATOM     14  C   UNL     1       7.729  -5.596  -6.655  1.00  0.00     0.005 C 
ATOM     15  C   UNL     1       6.742  -5.211  -5.563  1.00  0.00    -0.001 C 
ATOM     16  C   UNL     1       4.571  -4.063  -5.271  1.00  0.00     0.007 C 
ATOM     17  C   UNL     1       6.479  -2.745  -6.299  1.00  0.00     0.012 C 
ATOM     18  C   UNL     1       7.248  -4.938  -4.127  1.00  0.00     0.004 C 
ATOM     19  C   UNL     1       4.945  -3.732  -3.807  1.00  0.00     0.005 C 
ATOM     20  C   UNL     1       6.019  -4.680  -3.180  1.00  0.00     0.003 C 
ATOM     21  C   UNL     1       8.444  -3.941  -4.008  1.00  0.00     0.085 C 
ATOM     22  C   UNL     1       6.471  -4.214  -1.750  1.00  0.00    -0.000 C 
ATOM     23  C   UNL     1       8.295  -2.853  -2.977  1.00  0.00     0.159 C 
ATOM     24  C   UNL     1       7.262  -2.914  -1.915  1.00  0.00     0.005 C 
ATOM     25  C   UNL     1       5.242  -4.098  -0.766  1.00  0.00     0.020 C 
ATOM     26  C   UNL     1       7.425  -5.270  -1.123  1.00  0.00     0.017 C 
ATOM     27  O   UNL     1       9.087  -1.873  -3.032  1.00  0.00    -0.295 OA
ATOM     28  C   UNL     1       7.011  -1.824  -1.168  1.00  0.00     0.055 C 
ATOM     29  C   UNL     1       4.693  -2.682  -0.575  1.00  0.00     0.081 C 
ATOM     30  C   UNL     1       5.818  -1.737  -0.329  1.00  0.00     0.156 C 
ATOM     31  O   UNL     1       5.699  -0.808   0.514  1.00  0.00    -0.295 OA
ENDBRANCH   9  11
ENDBRANCH   8   9
ENDBRANCH   1   8
TORSDOF 6
ENDMDL
MODEL 9
REMARK VINA RESULT:    -5.226      2.494      4.749
REMARK INTER + INTRA:          -8.405
REMARK INTER:                  -6.215
REMARK INTRA:                  -2.190
REMARK UNBOUND:                -1.346
REMARK SMILES CC[C@H](CC[C@H](C)[C@H]1CC[C@H]2[C@H]3CC(=O)C4=CC(=O)CC[C@@]4(C)[C@H]3CC[C@]12C)C(C)C
REMARK SMILES IDX 4 1 3 2 2 3 1 4 29 5 30 6 31 7 5 8 6 9 7 10 8 11 9 12 27 13
REMARK SMILES IDX 10 14 11 15 26 16 28 17 12 18 25 19 24 20 13 21 22 22 14 23
REMARK SMILES IDX 16 24 21 25 23 26 15 27 17 28 20 29 18 30 19 31
REMARK H PARENT
REMARK Flexibility Score: inf
ROOT
ATOM      1  C   UNL     1       7.151  -4.818  -8.227  1.00  0.00     0.004 C 
ENDROOT
BRANCH   1   2
ATOM      2  C   UNL     1       5.651  -4.449  -8.393  1.00  0.00    -0.009 C 
BRANCH   2   3
ATOM      3  C   UNL     1       4.672  -5.585  -7.970  1.00  0.00     0.000 C 
ATOM      4  C   UNL     1       3.749  -6.122  -9.066  1.00  0.00     0.004 C 
ENDBRANCH   2   3
BRANCH   2   5
ATOM      5  C   UNL     1       5.335  -3.024  -7.822  1.00  0.00    -0.014 C 
ATOM      6  C   UNL     1       6.522  -2.306  -7.154  1.00  0.00     0.007 C 
ATOM      7  C   UNL     1       4.111  -3.012  -6.894  1.00  0.00     0.007 C 
ENDBRANCH   2   5
ENDBRANCH   1   2
BRANCH   1   8
ATOM      8  C   UNL     1       7.382  -6.270  -7.765  1.00  0.00     0.004 C 
BRANCH   8   9
ATOM      9  C   UNL     1       8.567  -6.377  -6.757  1.00  0.00    -0.011 C 
ATOM     10  C   UNL     1       9.559  -7.466  -7.198  1.00  0.00     0.008 C 
BRANCH   9  11
ATOM     11  C   UNL     1       8.197  -6.504  -5.237  1.00  0.00    -0.002 C 
ATOM     12  C   UNL     1       9.266  -7.254  -4.392  1.00  0.00     0.005 C 
ATOM     13  C   UNL     1       7.784  -5.259  -4.384  1.00  0.00    -0.026 C 
ATOM     14  C   UNL     1       9.227  -6.647  -2.983  1.00  0.00     0.005 C 
ATOM     15  C   UNL     1       7.932  -5.849  -2.971  1.00  0.00    -0.001 C 
ATOM     16  C   UNL     1       6.305  -4.830  -4.530  1.00  0.00     0.007 C 
ATOM     17  C   UNL     1       8.714  -4.046  -4.654  1.00  0.00     0.012 C 
ATOM     18  C   UNL     1       7.621  -4.900  -1.790  1.00  0.00     0.004 C 
ATOM     19  C   UNL     1       5.886  -3.824  -3.432  1.00  0.00     0.005 C 
ATOM     20  C   UNL     1       6.180  -4.297  -1.969  1.00  0.00     0.003 C 
ATOM     21  C   UNL     1       8.756  -3.897  -1.410  1.00  0.00     0.085 C 
ATOM     22  C   UNL     1       5.875  -3.183  -0.905  1.00  0.00    -0.000 C 
ATOM     23  C   UNL     1       8.336  -2.461  -1.234  1.00  0.00     0.159 C 
ATOM     24  C   UNL     1       6.912  -2.072  -1.087  1.00  0.00     0.005 C 
ATOM     25  C   UNL     1       4.379  -2.687  -1.001  1.00  0.00     0.020 C 
ATOM     26  C   UNL     1       6.047  -3.758   0.530  1.00  0.00     0.017 C 
ATOM     27  O   UNL     1       9.237  -1.580  -1.207  1.00  0.00    -0.295 OA
ATOM     28  C   UNL     1       6.565  -0.775  -1.168  1.00  0.00     0.055 C 
ATOM     29  C   UNL     1       4.174  -1.385  -1.778  1.00  0.00     0.081 C 
ATOM     30  C   UNL     1       5.170  -0.372  -1.331  1.00  0.00     0.156 C 
ATOM     31  O   UNL     1       4.839   0.837  -1.201  1.00  0.00    -0.295 OA
ENDBRANCH   9  11
ENDBRANCH   8   9
ENDBRANCH   1   8
TORSDOF 6
ENDMDL
