MODEL 1
REMARK VINA RESULT:    -3.244      0.000      0.000
REMARK INTER + INTRA:          -4.857
REMARK INTER:                  -4.382
REMARK INTRA:                  -0.475
REMARK UNBOUND:                -0.475
REMARK SMILES CCCCCCCC(=O)[O-]
REMARK SMILES IDX 5 1 6 2 7 3 8 4 9 5 10 6 4 7 3 8 2 9 1 10
REMARK H PARENT
REMARK Flexibility Score: inf
ROOT
ATOM      1  C   UNL     1      -3.535  -2.833  33.958  1.00  0.00     0.000 C 
ENDROOT
BRANCH   1   2
ATOM      2  C   UNL     1      -2.484  -1.947  34.650  1.00  0.00     0.006 C 
BRANCH   2   3
ATOM      3  C   UNL     1      -1.673  -2.723  35.697  1.00  0.00     0.053 C 
BRANCH   3   4
ATOM      4  C   UNL     1      -0.810  -1.815  36.520  1.00  0.00     0.041 C 
ATOM      5  O   UNL     1      -1.336  -0.963  37.284  1.00  0.00    -0.550 OA
ATOM      6  O   UNL     1       0.573  -1.889  36.419  1.00  0.00    -0.550 OA
ENDBRANCH   3   4
ENDBRANCH   2   3
ENDBRANCH   1   2
BRANCH   1   7
ATOM      7  C   UNL     1      -4.966  -2.537  34.437  1.00  0.00     0.000 C 
BRANCH   7   8
ATOM      8  C   UNL     1      -5.347  -3.343  35.691  1.00  0.00    -0.000 C 
BRANCH   8   9
ATOM      9  C   UNL     1      -5.859  -2.448  36.832  1.00  0.00    -0.003 C 
ATOM     10  C   UNL     1      -4.754  -2.039  37.806  1.00  0.00     0.004 C 
ENDBRANCH   8   9
ENDBRANCH   7   8
ENDBRANCH   1   7
TORSDOF 6
ENDMDL
MODEL 2
REMARK VINA RESULT:    -3.183      2.563      4.383
REMARK INTER + INTRA:          -4.775
REMARK INTER:                  -4.151
REMARK INTRA:                  -0.625
REMARK UNBOUND:                -0.475
REMARK SMILES CCCCCCCC(=O)[O-]
REMARK SMILES IDX 5 1 6 2 7 3 8 4 9 5 10 6 4 7 3 8 2 9 1 10
REMARK H PARENT
REMARK Flexibility Score: inf
ROOT
ATOM      1  C   UNL     1      -4.940  -2.105  37.655  1.00  0.00     0.000 C 
ENDROOT
BRANCH   1   2
ATOM      2  C   UNL     1      -5.732  -2.670  36.462  1.00  0.00     0.006 C 
BRANCH   2   3
ATOM      3  C   UNL     1      -4.855  -3.526  35.538  1.00  0.00     0.053 C 
BRANCH   3   4
ATOM      4  C   UNL     1      -4.660  -2.882  34.199  1.00  0.00     0.041 C 
ATOM      5  O   UNL     1      -4.009  -3.477  33.300  1.00  0.00    -0.550 OA
ATOM      6  O   UNL     1      -5.171  -1.614  33.955  1.00  0.00    -0.550 OA
ENDBRANCH   3   4
ENDBRANCH   2   3
ENDBRANCH   1   2
BRANCH   1   7
ATOM      7  C   UNL     1      -4.165  -0.826  37.299  1.00  0.00     0.000 C 
BRANCH   7   8
ATOM      8  C   UNL     1      -2.641  -1.020  37.370  1.00  0.00    -0.000 C 
BRANCH   8   9
ATOM      9  C   UNL     1      -2.000  -1.155  35.979  1.00  0.00    -0.003 C 
ATOM     10  C   UNL     1      -1.267  -2.483  35.790  1.00  0.00     0.004 C 
ENDBRANCH   8   9
ENDBRANCH   7   8
ENDBRANCH   1   7
TORSDOF 6
ENDMDL
MODEL 3
REMARK VINA RESULT:    -3.175      2.410      3.746
REMARK INTER + INTRA:          -4.764
REMARK INTER:                  -4.212
REMARK INTRA:                  -0.552
REMARK UNBOUND:                -0.475
REMARK SMILES CCCCCCCC(=O)[O-]
REMARK SMILES IDX 5 1 6 2 7 3 8 4 9 5 10 6 4 7 3 8 2 9 1 10
REMARK H PARENT
REMARK Flexibility Score: inf
ROOT
ATOM      1  C   UNL     1      -5.708  -2.155  36.708  1.00  0.00     0.000 C 
ENDROOT
BRANCH   1   2
ATOM      2  C   UNL     1      -5.408  -3.335  35.767  1.00  0.00     0.006 C 
BRANCH   2   3
ATOM      3  C   UNL     1      -3.901  -3.532  35.548  1.00  0.00     0.053 C 
BRANCH   3   4
ATOM      4  C   UNL     1      -3.469  -3.064  34.192  1.00  0.00     0.041 C 
ATOM      5  O   UNL     1      -2.703  -2.071  34.080  1.00  0.00    -0.550 OA
ATOM      6  O   UNL     1      -3.936  -3.705  33.052  1.00  0.00    -0.550 OA
ENDBRANCH   3   4
ENDBRANCH   2   3
ENDBRANCH   1   2
BRANCH   1   7
ATOM      7  C   UNL     1      -4.918  -2.230  38.024  1.00  0.00     0.000 C 
BRANCH   7   8
ATOM      8  C   UNL     1      -4.287  -0.882  38.413  1.00  0.00    -0.000 C 
BRANCH   8   9
ATOM      9  C   UNL     1      -3.401  -0.303  37.299  1.00  0.00    -0.003 C 
ATOM     10  C   UNL     1      -1.966  -0.827  37.350  1.00  0.00     0.004 C 
ENDBRANCH   8   9
ENDBRANCH   7   8
ENDBRANCH   1   7
TORSDOF 6
ENDMDL
MODEL 4
REMARK VINA RESULT:    -3.159      1.548      2.286
REMARK INTER + INTRA:          -4.742
REMARK INTER:                  -4.086
REMARK INTRA:                  -0.656
REMARK UNBOUND:                -0.475
REMARK SMILES CCCCCCCC(=O)[O-]
REMARK SMILES IDX 5 1 6 2 7 3 8 4 9 5 10 6 4 7 3 8 2 9 1 10
REMARK H PARENT
REMARK Flexibility Score: inf
ROOT
ATOM      1  C   UNL     1      -5.514  -1.468  34.391  1.00  0.00     0.000 C 
ENDROOT
BRANCH   1   2
ATOM      2  C   UNL     1      -4.649  -2.734  34.258  1.00  0.00     0.006 C 
BRANCH   2   3
ATOM      3  C   UNL     1      -3.151  -2.405  34.177  1.00  0.00     0.053 C 
BRANCH   3   4
ATOM      4  C   UNL     1      -2.419  -2.834  35.413  1.00  0.00     0.041 C 
ATOM      5  O   UNL     1      -1.428  -2.173  35.821  1.00  0.00    -0.550 OA
ATOM      6  O   UNL     1      -2.812  -3.977  36.095  1.00  0.00    -0.550 OA
ENDBRANCH   3   4
ENDBRANCH   2   3
ENDBRANCH   1   2
BRANCH   1   7
ATOM      7  C   UNL     1      -5.693  -1.023  35.851  1.00  0.00     0.000 C 
BRANCH   7   8
ATOM      8  C   UNL     1      -5.898  -2.209  36.809  1.00  0.00    -0.000 C 
BRANCH   8   9
ATOM      9  C   UNL     1      -4.996  -2.125  38.051  1.00  0.00    -0.003 C 
ATOM     10  C   UNL     1      -4.126  -0.869  38.069  1.00  0.00     0.004 C 
ENDBRANCH   8   9
ENDBRANCH   7   8
ENDBRANCH   1   7
TORSDOF 6
ENDMDL
MODEL 5
REMARK VINA RESULT:    -3.133      2.619      3.850
REMARK INTER + INTRA:          -4.707
REMARK INTER:                  -4.197
REMARK INTRA:                  -0.510
REMARK UNBOUND:                -0.475
REMARK SMILES CCCCCCCC(=O)[O-]
REMARK SMILES IDX 5 1 6 2 7 3 8 4 9 5 10 6 4 7 3 8 2 9 1 10
REMARK H PARENT
REMARK Flexibility Score: inf
ROOT
ATOM      1  C   UNL     1      -4.992  -2.600  37.234  1.00  0.00     0.000 C 
ENDROOT
BRANCH   1   2
ATOM      2  C   UNL     1      -5.457  -3.235  35.912  1.00  0.00     0.006 C 
BRANCH   2   3
ATOM      3  C   UNL     1      -5.088  -2.375  34.695  1.00  0.00     0.053 C 
BRANCH   3   4
ATOM      4  C   UNL     1      -3.843  -2.866  34.021  1.00  0.00     0.041 C 
ATOM      5  O   UNL     1      -3.916  -3.744  33.121  1.00  0.00    -0.550 OA
ATOM      6  O   UNL     1      -2.602  -2.378  34.406  1.00  0.00    -0.550 OA
ENDBRANCH   3   4
ENDBRANCH   2   3
ENDBRANCH   1   2
BRANCH   1   7
ATOM      7  C   UNL     1      -5.046  -1.064  37.204  1.00  0.00     0.000 C 
BRANCH   7   8
ATOM      8  C   UNL     1      -6.163  -0.495  38.096  1.00  0.00    -0.000 C 
BRANCH   8   9
ATOM      9  C   UNL     1      -7.542  -0.550  37.419  1.00  0.00    -0.003 C 
ATOM     10  C   UNL     1      -7.633   0.348  36.185  1.00  0.00     0.004 C 
ENDBRANCH   8   9
ENDBRANCH   7   8
ENDBRANCH   1   7
TORSDOF 6
ENDMDL
MODEL 6
REMARK VINA RESULT:    -3.077      1.522      3.551
REMARK INTER + INTRA:          -4.632
REMARK INTER:                  -4.032
REMARK INTRA:                  -0.600
REMARK UNBOUND:                -0.475
REMARK SMILES CCCCCCCC(=O)[O-]
REMARK SMILES IDX 5 1 6 2 7 3 8 4 9 5 10 6 4 7 3 8 2 9 1 10
REMARK H PARENT
REMARK Flexibility Score: inf
ROOT
ATOM      1  C   UNL     1      -5.362  -3.275  35.952  1.00  0.00     0.000 C 
ENDROOT
BRANCH   1   2
ATOM      2  C   UNL     1      -5.970  -2.252  36.928  1.00  0.00     0.006 C 
BRANCH   2   3
ATOM      3  C   UNL     1      -5.007  -1.899  38.070  1.00  0.00     0.053 C 
BRANCH   3   4
ATOM      4  C   UNL     1      -4.083  -0.780  37.695  1.00  0.00     0.041 C 
ATOM      5  O   UNL     1      -2.920  -0.732  38.176  1.00  0.00    -0.550 OA
ATOM      6  O   UNL     1      -4.516   0.223  36.838  1.00  0.00    -0.550 OA
ENDBRANCH   3   4
ENDBRANCH   2   3
ENDBRANCH   1   2
BRANCH   1   7
ATOM      7  C   UNL     1      -5.168  -2.702  34.539  1.00  0.00     0.000 C 
BRANCH   7   8
ATOM      8  C   UNL     1      -3.759  -2.970  33.982  1.00  0.00    -0.000 C 
BRANCH   8   9
ATOM      9  C   UNL     1      -2.725  -1.946  34.478  1.00  0.00    -0.003 C 
ATOM     10  C   UNL     1      -1.684  -2.559  35.414  1.00  0.00     0.004 C 
ENDBRANCH   8   9
ENDBRANCH   7   8
ENDBRANCH   1   7
TORSDOF 6
ENDMDL
MODEL 7
REMARK VINA RESULT:    -3.056      2.523      3.481
REMARK INTER + INTRA:          -4.603
REMARK INTER:                  -4.004
REMARK INTRA:                  -0.598
REMARK UNBOUND:                -0.475
REMARK SMILES CCCCCCCC(=O)[O-]
REMARK SMILES IDX 5 1 6 2 7 3 8 4 9 5 10 6 4 7 3 8 2 9 1 10
REMARK H PARENT
REMARK Flexibility Score: inf
ROOT
ATOM      1  C   UNL     1      -1.984  -1.393  36.850  1.00  0.00     0.000 C 
ENDROOT
BRANCH   1   2
ATOM      2  C   UNL     1      -1.854  -1.922  35.410  1.00  0.00     0.006 C 
BRANCH   2   3
ATOM      3  C   UNL     1      -3.196  -1.906  34.666  1.00  0.00     0.053 C 
BRANCH   3   4
ATOM      4  C   UNL     1      -3.692  -3.292  34.381  1.00  0.00     0.041 C 
ATOM      5  O   UNL     1      -3.878  -4.104  35.325  1.00  0.00    -0.550 OA
ATOM      6  O   UNL     1      -3.921  -3.695  33.072  1.00  0.00    -0.550 OA
ENDBRANCH   3   4
ENDBRANCH   2   3
ENDBRANCH   1   2
BRANCH   1   7
ATOM      7  C   UNL     1      -3.184  -0.450  37.029  1.00  0.00     0.000 C 
BRANCH   7   8
ATOM      8  C   UNL     1      -4.061  -0.832  38.235  1.00  0.00    -0.000 C 
BRANCH   8   9
ATOM      9  C   UNL     1      -4.897  -2.096  37.978  1.00  0.00    -0.003 C 
ATOM     10  C   UNL     1      -6.097  -1.838  37.068  1.00  0.00     0.004 C 
ENDBRANCH   8   9
ENDBRANCH   7   8
ENDBRANCH   1   7
TORSDOF 6
ENDMDL
MODEL 8
REMARK VINA RESULT:    -3.019      2.248      4.533
REMARK INTER + INTRA:          -4.553
REMARK INTER:                  -4.209
REMARK INTRA:                  -0.344
REMARK UNBOUND:                -0.475
REMARK SMILES CCCCCCCC(=O)[O-]
REMARK SMILES IDX 5 1 6 2 7 3 8 4 9 5 10 6 4 7 3 8 2 9 1 10
REMARK H PARENT
REMARK Flexibility Score: inf
ROOT
ATOM      1  C   UNL     1      -3.327  -2.710  34.311  1.00  0.00     0.000 C 
ENDROOT
BRANCH   1   2
ATOM      2  C   UNL     1      -3.952  -3.677  35.332  1.00  0.00     0.006 C 
BRANCH   2   3
ATOM      3  C   UNL     1      -5.410  -3.318  35.651  1.00  0.00     0.053 C 
BRANCH   3   4
ATOM      4  C   UNL     1      -5.520  -2.466  36.879  1.00  0.00     0.041 C 
ATOM      5  O   UNL     1      -4.579  -2.436  37.714  1.00  0.00    -0.550 OA
ATOM      6  O   UNL     1      -6.673  -1.730  37.115  1.00  0.00    -0.550 OA
ENDBRANCH   3   4
ENDBRANCH   2   3
ENDBRANCH   1   2
BRANCH   1   7
ATOM      7  C   UNL     1      -1.998  -2.111  34.799  1.00  0.00     0.000 C 
BRANCH   7   8
ATOM      8  C   UNL     1      -1.461  -2.812  36.058  1.00  0.00    -0.000 C 
BRANCH   8   9
ATOM      9  C   UNL     1      -0.107  -2.245  36.515  1.00  0.00    -0.003 C 
ATOM     10  C   UNL     1       1.030  -2.571  35.546  1.00  0.00     0.004 C 
ENDBRANCH   8   9
ENDBRANCH   7   8
ENDBRANCH   1   7
TORSDOF 6
ENDMDL
MODEL 9
REMARK VINA RESULT:    -3.014      2.715      3.895
REMARK INTER + INTRA:          -4.547
REMARK INTER:                  -4.006
REMARK INTRA:                  -0.541
REMARK UNBOUND:                -0.475
REMARK SMILES CCCCCCCC(=O)[O-]
REMARK SMILES IDX 5 1 6 2 7 3 8 4 9 5 10 6 4 7 3 8 2 9 1 10
REMARK H PARENT
REMARK Flexibility Score: inf
ROOT
ATOM      1  C   UNL     1      -5.417  -2.500  37.200  1.00  0.00     0.000 C 
ENDROOT
BRANCH   1   2
ATOM      2  C   UNL     1      -5.342  -3.317  35.898  1.00  0.00     0.006 C 
BRANCH   2   3
ATOM      3  C   UNL     1      -3.894  -3.606  35.479  1.00  0.00     0.053 C 
BRANCH   3   4
ATOM      4  C   UNL     1      -3.583  -3.045  34.124  1.00  0.00     0.041 C 
ATOM      5  O   UNL     1      -3.948  -3.659  33.087  1.00  0.00    -0.550 OA
ATOM      6  O   UNL     1      -2.865  -1.862  34.007  1.00  0.00    -0.550 OA
ENDBRANCH   3   4
ENDBRANCH   2   3
ENDBRANCH   1   2
BRANCH   1   7
ATOM      7  C   UNL     1      -5.278  -0.988  36.960  1.00  0.00     0.000 C 
BRANCH   7   8
ATOM      8  C   UNL     1      -6.198  -0.482  35.836  1.00  0.00    -0.000 C 
BRANCH   8   9
ATOM      9  C   UNL     1      -5.457   0.409  34.826  1.00  0.00    -0.003 C 
ATOM     10  C   UNL     1      -5.902   0.168  33.384  1.00  0.00     0.004 C 
ENDBRANCH   8   9
ENDBRANCH   7   8
ENDBRANCH   1   7
TORSDOF 6
ENDMDL
