MODEL 1
REMARK VINA RESULT:    -2.880      0.000      0.000
REMARK INTER + INTRA:          -3.405
REMARK INTER:                  -3.385
REMARK INTRA:                  -0.020
REMARK UNBOUND:                -0.020
REMARK SMILES CCCCC(=O)[O-]
REMARK SMILES IDX 4 1 5 2 6 3 7 4 3 5 2 6 1 7
REMARK H PARENT
REMARK Flexibility Score: inf
ROOT
ATOM      1  C   UNL     1       4.419  -1.634  -4.509  1.00  0.00     0.053 C 
ENDROOT
BRANCH   1   2
ATOM      2  C   UNL     1       3.308  -1.926  -3.550  1.00  0.00     0.041 C 
ATOM      3  O   UNL     1       2.188  -2.310  -3.976  1.00  0.00    -0.550 OA
ATOM      4  O   UNL     1       3.495  -1.724  -2.188  1.00  0.00    -0.550 OA
ENDBRANCH   1   2
BRANCH   1   5
ATOM      5  C   UNL     1       5.288  -0.482  -3.987  1.00  0.00     0.006 C 
BRANCH   5   6
ATOM      6  C   UNL     1       5.691   0.501  -5.096  1.00  0.00    -0.003 C 
ATOM      7  C   UNL     1       6.545   1.659  -4.579  1.00  0.00     0.004 C 
ENDBRANCH   5   6
ENDBRANCH   1   5
TORSDOF 3
ENDMDL
MODEL 2
REMARK VINA RESULT:    -2.848      0.118      1.227
REMARK INTER + INTRA:          -3.368
REMARK INTER:                  -3.343
REMARK INTRA:                  -0.025
REMARK UNBOUND:                -0.020
REMARK SMILES CCCCC(=O)[O-]
REMARK SMILES IDX 4 1 5 2 6 3 7 4 3 5 2 6 1 7
REMARK H PARENT
REMARK Flexibility Score: inf
ROOT
ATOM      1  C   UNL     1       4.456  -1.671  -4.552  1.00  0.00     0.053 C 
ENDROOT
BRANCH   1   2
ATOM      2  C   UNL     1       3.379  -1.903  -3.540  1.00  0.00     0.041 C 
ATOM      3  O   UNL     1       3.609  -1.715  -2.316  1.00  0.00    -0.550 OA
ATOM      4  O   UNL     1       2.137  -2.378  -3.942  1.00  0.00    -0.550 OA
ENDBRANCH   1   2
BRANCH   1   5
ATOM      5  C   UNL     1       5.434  -0.598  -4.057  1.00  0.00     0.006 C 
BRANCH   5   6
ATOM      6  C   UNL     1       5.709   0.482  -5.115  1.00  0.00    -0.003 C 
ATOM      7  C   UNL     1       6.458   1.688  -4.547  1.00  0.00     0.004 C 
ENDBRANCH   5   6
ENDBRANCH   1   5
TORSDOF 3
ENDMDL
MODEL 3
REMARK VINA RESULT:    -2.695      6.439      6.916
REMARK INTER + INTRA:          -3.188
REMARK INTER:                  -3.146
REMARK INTRA:                  -0.042
REMARK UNBOUND:                -0.020
REMARK SMILES CCCCC(=O)[O-]
REMARK SMILES IDX 4 1 5 2 6 3 7 4 3 5 2 6 1 7
REMARK H PARENT
REMARK Flexibility Score: inf
ROOT
ATOM      1  C   UNL     1      -1.752  -0.452  -8.234  1.00  0.00     0.053 C 
ENDROOT
BRANCH   1   2
ATOM      2  C   UNL     1      -1.543  -0.842  -6.805  1.00  0.00     0.041 C 
ATOM      3  O   UNL     1      -0.423  -0.666  -6.258  1.00  0.00    -0.550 OA
ATOM      4  O   UNL     1      -2.570  -1.449  -6.092  1.00  0.00    -0.550 OA
ENDBRANCH   1   2
BRANCH   1   5
ATOM      5  C   UNL     1      -0.511   0.267  -8.780  1.00  0.00     0.006 C 
BRANCH   5   6
ATOM      6  C   UNL     1      -0.823   1.689  -9.270  1.00  0.00    -0.003 C 
ATOM      7  C   UNL     1       0.419   2.580  -9.328  1.00  0.00     0.004 C 
ENDBRANCH   5   6
ENDBRANCH   1   5
TORSDOF 3
ENDMDL
MODEL 4
REMARK VINA RESULT:    -2.670      5.833      6.200
REMARK INTER + INTRA:          -3.158
REMARK INTER:                  -3.118
REMARK INTRA:                  -0.040
REMARK UNBOUND:                -0.020
REMARK SMILES CCCCC(=O)[O-]
REMARK SMILES IDX 4 1 5 2 6 3 7 4 3 5 2 6 1 7
REMARK H PARENT
REMARK Flexibility Score: inf
ROOT
ATOM      1  C   UNL     1      -0.792  -0.639  -8.387  1.00  0.00     0.053 C 
ENDROOT
BRANCH   1   2
ATOM      2  C   UNL     1      -0.789  -0.982  -6.930  1.00  0.00     0.041 C 
ATOM      3  O   UNL     1      -1.847  -0.890  -6.256  1.00  0.00    -0.550 OA
ATOM      4  O   UNL     1       0.396  -1.354  -6.306  1.00  0.00    -0.550 OA
ENDBRANCH   1   2
BRANCH   1   5
ATOM      5  C   UNL     1       0.422   0.233  -8.734  1.00  0.00     0.006 C 
BRANCH   5   6
ATOM      6  C   UNL     1       0.061   1.721  -8.865  1.00  0.00    -0.003 C 
ATOM      7  C   UNL     1       1.217   2.564  -9.403  1.00  0.00     0.004 C 
ENDBRANCH   5   6
ENDBRANCH   1   5
TORSDOF 3
ENDMDL
MODEL 5
REMARK VINA RESULT:    -2.579      2.024      3.161
REMARK INTER + INTRA:          -3.051
REMARK INTER:                  -2.971
REMARK INTRA:                  -0.080
REMARK UNBOUND:                -0.020
REMARK SMILES CCCCC(=O)[O-]
REMARK SMILES IDX 4 1 5 2 6 3 7 4 3 5 2 6 1 7
REMARK H PARENT
REMARK Flexibility Score: inf
ROOT
ATOM      1  C   UNL     1       4.632  -2.741  -3.777  1.00  0.00     0.053 C 
ENDROOT
BRANCH   1   2
ATOM      2  C   UNL     1       3.373  -2.101  -3.286  1.00  0.00     0.041 C 
ATOM      3  O   UNL     1       3.376  -1.432  -2.219  1.00  0.00    -0.550 OA
ATOM      4  O   UNL     1       2.183  -2.286  -3.979  1.00  0.00    -0.550 OA
ENDBRANCH   1   2
BRANCH   1   5
ATOM      5  C   UNL     1       5.848  -1.876  -3.418  1.00  0.00     0.006 C 
BRANCH   5   6
ATOM      6  C   UNL     1       6.845  -2.610  -2.509  1.00  0.00    -0.003 C 
ATOM      7  C   UNL     1       6.177  -3.668  -1.630  1.00  0.00     0.004 C 
ENDBRANCH   5   6
ENDBRANCH   1   5
TORSDOF 3
ENDMDL
MODEL 6
REMARK VINA RESULT:    -2.474      8.276      9.516
REMARK INTER + INTRA:          -2.928
REMARK INTER:                  -2.858
REMARK INTRA:                  -0.069
REMARK UNBOUND:                -0.020
REMARK SMILES CCCCC(=O)[O-]
REMARK SMILES IDX 4 1 5 2 6 3 7 4 3 5 2 6 1 7
REMARK H PARENT
REMARK Flexibility Score: inf
ROOT
ATOM      1  C   UNL     1      -4.841  -2.243  -5.448  1.00  0.00     0.053 C 
ENDROOT
BRANCH   1   2
ATOM      2  C   UNL     1      -3.365  -2.353  -5.667  1.00  0.00     0.041 C 
ATOM      3  O   UNL     1      -2.781  -3.456  -5.506  1.00  0.00    -0.550 OA
ATOM      4  O   UNL     1      -2.626  -1.224  -6.001  1.00  0.00    -0.550 OA
ENDBRANCH   1   2
BRANCH   1   5
ATOM      5  C   UNL     1      -5.137  -1.337  -4.246  1.00  0.00     0.006 C 
BRANCH   5   6
ATOM      6  C   UNL     1      -5.879  -2.074  -3.120  1.00  0.00    -0.003 C 
ATOM      7  C   UNL     1      -5.077  -3.246  -2.552  1.00  0.00     0.004 C 
ENDBRANCH   5   6
ENDBRANCH   1   5
TORSDOF 3
ENDMDL
MODEL 7
REMARK VINA RESULT:    -2.469     10.690     10.957
REMARK INTER + INTRA:          -2.921
REMARK INTER:                  -2.894
REMARK INTRA:                  -0.028
REMARK UNBOUND:                -0.020
REMARK SMILES CCCCC(=O)[O-]
REMARK SMILES IDX 4 1 5 2 6 3 7 4 3 5 2 6 1 7
REMARK H PARENT
REMARK Flexibility Score: inf
ROOT
ATOM      1  C   UNL     1      -2.135   5.776   1.074  1.00  0.00     0.053 C 
ENDROOT
BRANCH   1   2
ATOM      2  C   UNL     1      -3.518   5.226   0.922  1.00  0.00     0.041 C 
ATOM      3  O   UNL     1      -4.172   4.866   1.936  1.00  0.00    -0.550 OA
ATOM      4  O   UNL     1      -4.066   5.062  -0.344  1.00  0.00    -0.550 OA
ENDBRANCH   1   2
BRANCH   1   5
ATOM      5  C   UNL     1      -2.087   7.239   0.615  1.00  0.00     0.006 C 
BRANCH   5   6
ATOM      6  C   UNL     1      -0.651   7.761   0.462  1.00  0.00    -0.003 C 
ATOM      7  C   UNL     1       0.357   6.974   1.300  1.00  0.00     0.004 C 
ENDBRANCH   5   6
ENDBRANCH   1   5
TORSDOF 3
ENDMDL
MODEL 8
REMARK VINA RESULT:    -2.459      9.093      9.943
REMARK INTER + INTRA:          -2.910
REMARK INTER:                  -2.801
REMARK INTRA:                  -0.109
REMARK UNBOUND:                -0.020
REMARK SMILES CCCCC(=O)[O-]
REMARK SMILES IDX 4 1 5 2 6 3 7 4 3 5 2 6 1 7
REMARK H PARENT
REMARK Flexibility Score: inf
ROOT
ATOM      1  C   UNL     1      -4.422  -3.752  -4.017  1.00  0.00     0.053 C 
ENDROOT
BRANCH   1   2
ATOM      2  C   UNL     1      -3.981  -4.408  -2.747  1.00  0.00     0.041 C 
ATOM      3  O   UNL     1      -4.804  -4.603  -1.816  1.00  0.00    -0.550 OA
ATOM      4  O   UNL     1      -2.647  -4.757  -2.572  1.00  0.00    -0.550 OA
ENDBRANCH   1   2
BRANCH   1   5
ATOM      5  C   UNL     1      -4.645  -2.250  -3.795  1.00  0.00     0.006 C 
BRANCH   5   6
ATOM      6  C   UNL     1      -6.115  -1.840  -3.974  1.00  0.00    -0.003 C 
ATOM      7  C   UNL     1      -6.871  -1.756  -2.647  1.00  0.00     0.004 C 
ENDBRANCH   5   6
ENDBRANCH   1   5
TORSDOF 3
ENDMDL
MODEL 9
REMARK VINA RESULT:    -2.451      9.026      9.908
REMARK INTER + INTRA:          -2.901
REMARK INTER:                  -2.791
REMARK INTRA:                  -0.110
REMARK UNBOUND:                -0.020
REMARK SMILES CCCCC(=O)[O-]
REMARK SMILES IDX 4 1 5 2 6 3 7 4 3 5 2 6 1 7
REMARK H PARENT
REMARK Flexibility Score: inf
ROOT
ATOM      1  C   UNL     1      -4.214  -3.710  -4.082  1.00  0.00     0.053 C 
ENDROOT
BRANCH   1   2
ATOM      2  C   UNL     1      -3.841  -4.370  -2.792  1.00  0.00     0.041 C 
ATOM      3  O   UNL     1      -2.663  -4.770  -2.603  1.00  0.00    -0.550 OA
ATOM      4  O   UNL     1      -4.809  -4.591  -1.820  1.00  0.00    -0.550 OA
ENDBRANCH   1   2
BRANCH   1   5
ATOM      5  C   UNL     1      -4.603  -2.246  -3.841  1.00  0.00     0.006 C 
BRANCH   5   6
ATOM      6  C   UNL     1      -6.111  -2.001  -4.010  1.00  0.00    -0.003 C 
ATOM      7  C   UNL     1      -6.824  -1.756  -2.680  1.00  0.00     0.004 C 
ENDBRANCH   5   6
ENDBRANCH   1   5
TORSDOF 3
ENDMDL
