MODEL 1
REMARK VINA RESULT:    -4.504      0.000      0.000
REMARK INTER + INTRA:          -5.422
REMARK INTER:                  -5.294
REMARK INTRA:                  -0.129
REMARK UNBOUND:                -0.129
REMARK SMILES O=C([O-])C=Cc1ccc(O)c(O)c1
REMARK SMILES IDX 6 1 13 2 7 3 11 4 8 5 9 6 5 7 4 8 2 9 1 10 3 11 12 12 10 14
REMARK H PARENT 12 13 10 15
REMARK Flexibility Score: inf
ROOT
ATOM      1  C   UNL     1      48.406 -27.327 -31.388  1.00  0.00    -0.022 A 
ATOM      2  C   UNL     1      48.832 -28.003 -32.544  1.00  0.00     0.058 A 
ATOM      3  C   UNL     1      49.359 -26.625 -30.622  1.00  0.00     0.012 A 
ATOM      4  C   UNL     1      50.174 -27.961 -32.946  1.00  0.00     0.157 A 
ATOM      5  C   UNL     1      50.698 -26.584 -31.022  1.00  0.00     0.051 A 
ATOM      6  C   UNL     1      51.108 -27.249 -32.185  1.00  0.00     0.157 A 
ENDROOT
BRANCH   1   7
ATOM      7  C   UNL     1      46.976 -27.411 -31.002  1.00  0.00     0.010 C 
ATOM      8  C   UNL     1      46.231 -28.516 -31.136  1.00  0.00     0.025 C 
BRANCH   8   9
ATOM      9  C   UNL     1      44.818 -28.557 -30.728  1.00  0.00     0.064 C 
ATOM     10  O   UNL     1      43.917 -28.446 -31.599  1.00  0.00    -0.545 OA
ATOM     11  O   UNL     1      44.461 -28.714 -29.393  1.00  0.00    -0.545 OA
ENDBRANCH   8   9
ENDBRANCH   1   7
BRANCH   4  12
ATOM     12  O   UNL     1      50.588 -28.626 -34.099  1.00  0.00    -0.504 OA
ATOM     13  H   UNL     1      51.523 -29.005 -34.186  1.00  0.00     0.293 HD
ENDBRANCH   4  12
BRANCH   6  14
ATOM     14  O   UNL     1      52.443 -27.208 -32.587  1.00  0.00    -0.504 OA
ATOM     15  H   UNL     1      53.083 -26.512 -32.227  1.00  0.00     0.293 HD
ENDBRANCH   6  14
TORSDOF 4
ENDMDL
MODEL 2
REMARK VINA RESULT:    -4.479      1.313      1.629
REMARK INTER + INTRA:          -5.393
REMARK INTER:                  -5.263
REMARK INTRA:                  -0.131
REMARK UNBOUND:                -0.129
REMARK SMILES O=C([O-])C=Cc1ccc(O)c(O)c1
REMARK SMILES IDX 6 1 13 2 7 3 11 4 8 5 9 6 5 7 4 8 2 9 1 10 3 11 12 12 10 14
REMARK H PARENT 12 13 10 15
REMARK Flexibility Score: inf
ROOT
ATOM      1  C   UNL     1      48.116 -28.932 -31.112  1.00  0.00    -0.022 A 
ATOM      2  C   UNL     1      48.314 -28.412 -32.402  1.00  0.00     0.058 A 
ATOM      3  C   UNL     1      49.240 -29.172 -30.297  1.00  0.00     0.012 A 
ATOM      4  C   UNL     1      49.603 -28.111 -32.864  1.00  0.00     0.157 A 
ATOM      5  C   UNL     1      50.525 -28.874 -30.757  1.00  0.00     0.051 A 
ATOM      6  C   UNL     1      50.710 -28.341 -32.039  1.00  0.00     0.157 A 
ENDROOT
BRANCH   1   7
ATOM      7  C   UNL     1      46.732 -29.241 -30.675  1.00  0.00     0.010 C 
ATOM      8  C   UNL     1      45.681 -28.443 -30.908  1.00  0.00     0.025 C 
BRANCH   8   9
ATOM      9  C   UNL     1      44.323 -28.797 -30.465  1.00  0.00     0.064 C 
ATOM     10  O   UNL     1      44.169 -29.481 -29.421  1.00  0.00    -0.545 OA
ATOM     11  O   UNL     1      43.204 -28.390 -31.186  1.00  0.00    -0.545 OA
ENDBRANCH   8   9
ENDBRANCH   1   7
BRANCH   4  12
ATOM     12  O   UNL     1      49.791 -27.587 -34.141  1.00  0.00    -0.504 OA
ATOM     13  H   UNL     1      49.008 -27.383 -34.751  1.00  0.00     0.293 HD
ENDBRANCH   4  12
BRANCH   6  14
ATOM     14  O   UNL     1      51.991 -28.040 -32.501  1.00  0.00    -0.504 OA
ATOM     15  H   UNL     1      52.438 -28.595 -33.221  1.00  0.00     0.293 HD
ENDBRANCH   6  14
TORSDOF 4
ENDMDL
MODEL 3
REMARK VINA RESULT:    -4.465      2.478      6.139
REMARK INTER + INTRA:          -5.376
REMARK INTER:                  -5.241
REMARK INTRA:                  -0.136
REMARK UNBOUND:                -0.129
REMARK SMILES O=C([O-])C=Cc1ccc(O)c(O)c1
REMARK SMILES IDX 6 1 13 2 7 3 11 4 8 5 9 6 5 7 4 8 2 9 1 10 3 11 12 12 10 14
REMARK H PARENT 12 13 10 15
REMARK Flexibility Score: inf
ROOT
ATOM      1  C   UNL     1      50.552 -28.767 -31.074  1.00  0.00    -0.022 A 
ATOM      2  C   UNL     1      50.262 -28.128 -32.291  1.00  0.00     0.058 A 
ATOM      3  C   UNL     1      49.487 -29.288 -30.310  1.00  0.00     0.012 A 
ATOM      4  C   UNL     1      48.942 -28.030 -32.753  1.00  0.00     0.157 A 
ATOM      5  C   UNL     1      48.172 -29.190 -30.770  1.00  0.00     0.051 A 
ATOM      6  C   UNL     1      47.895 -28.564 -31.992  1.00  0.00     0.157 A 
ENDROOT
BRANCH   1   7
ATOM      7  C   UNL     1      51.965 -28.836 -30.626  1.00  0.00     0.010 C 
ATOM      8  C   UNL     1      52.963 -28.151 -31.200  1.00  0.00     0.025 C 
BRANCH   8   9
ATOM      9  C   UNL     1      54.349 -28.241 -30.714  1.00  0.00     0.064 C 
ATOM     10  O   UNL     1      54.619 -28.999 -29.747  1.00  0.00    -0.545 OA
ATOM     11  O   UNL     1      55.366 -27.497 -31.304  1.00  0.00    -0.545 OA
ENDBRANCH   8   9
ENDBRANCH   1   7
BRANCH   4  12
ATOM     12  O   UNL     1      48.663 -27.403 -33.966  1.00  0.00    -0.504 OA
ATOM     13  H   UNL     1      47.835 -27.632 -34.503  1.00  0.00     0.293 HD
ENDBRANCH   4  12
BRANCH   6  14
ATOM     14  O   UNL     1      46.584 -28.466 -32.455  1.00  0.00    -0.504 OA
ATOM     15  H   UNL     1      46.033 -29.290 -32.664  1.00  0.00     0.293 HD
ENDBRANCH   6  14
TORSDOF 4
ENDMDL
MODEL 4
REMARK VINA RESULT:    -4.458      2.740      5.686
REMARK INTER + INTRA:          -5.368
REMARK INTER:                  -5.236
REMARK INTRA:                  -0.132
REMARK UNBOUND:                -0.129
REMARK SMILES O=C([O-])C=Cc1ccc(O)c(O)c1
REMARK SMILES IDX 6 1 13 2 7 3 11 4 8 5 9 6 5 7 4 8 2 9 1 10 3 11 12 12 10 14
REMARK H PARENT 12 13 10 15
REMARK Flexibility Score: inf
ROOT
ATOM      1  C   UNL     1      49.236 -29.166 -30.554  1.00  0.00    -0.022 A 
ATOM      2  C   UNL     1      49.239 -28.386 -31.723  1.00  0.00     0.058 A 
ATOM      3  C   UNL     1      47.999 -29.570 -30.012  1.00  0.00     0.012 A 
ATOM      4  C   UNL     1      48.038 -28.037 -32.357  1.00  0.00     0.157 A 
ATOM      5  C   UNL     1      46.801 -29.222 -30.643  1.00  0.00     0.051 A 
ATOM      6  C   UNL     1      46.817 -28.458 -31.817  1.00  0.00     0.157 A 
ENDROOT
BRANCH   1   7
ATOM      7  C   UNL     1      50.534 -29.499 -29.918  1.00  0.00     0.010 C 
ATOM      8  C   UNL     1      51.711 -29.452 -30.556  1.00  0.00     0.025 C 
BRANCH   8   9
ATOM      9  C   UNL     1      52.976 -29.780 -29.881  1.00  0.00     0.064 C 
ATOM     10  O   UNL     1      54.039 -29.215 -30.245  1.00  0.00    -0.545 OA
ATOM     11  O   UNL     1      53.017 -30.710 -28.846  1.00  0.00    -0.545 OA
ENDBRANCH   8   9
ENDBRANCH   1   7
BRANCH   4  12
ATOM     12  O   UNL     1      48.050 -27.272 -33.521  1.00  0.00    -0.504 OA
ATOM     13  H   UNL     1      48.839 -26.682 -33.760  1.00  0.00     0.293 HD
ENDBRANCH   4  12
BRANCH   6  14
ATOM     14  O   UNL     1      45.624 -28.110 -32.449  1.00  0.00    -0.504 OA
ATOM     15  H   UNL     1      45.222 -28.690 -33.176  1.00  0.00     0.293 HD
ENDBRANCH   6  14
TORSDOF 4
ENDMDL
MODEL 5
REMARK VINA RESULT:    -4.416     15.554     16.767
REMARK INTER + INTRA:          -5.319
REMARK INTER:                  -5.193
REMARK INTRA:                  -0.126
REMARK UNBOUND:                -0.129
REMARK SMILES O=C([O-])C=Cc1ccc(O)c(O)c1
REMARK SMILES IDX 6 1 13 2 7 3 11 4 8 5 9 6 5 7 4 8 2 9 1 10 3 11 12 12 10 14
REMARK H PARENT 12 13 10 15
REMARK Flexibility Score: inf
ROOT
ATOM      1  C   UNL     1      53.320 -38.271 -21.482  1.00  0.00    -0.022 A 
ATOM      2  C   UNL     1      53.527 -37.412 -20.390  1.00  0.00     0.058 A 
ATOM      3  C   UNL     1      52.177 -39.097 -21.488  1.00  0.00     0.012 A 
ATOM      4  C   UNL     1      52.604 -37.354 -19.337  1.00  0.00     0.157 A 
ATOM      5  C   UNL     1      51.257 -39.040 -20.438  1.00  0.00     0.051 A 
ATOM      6  C   UNL     1      51.466 -38.168 -19.362  1.00  0.00     0.157 A 
ENDROOT
BRANCH   1   7
ATOM      7  C   UNL     1      54.332 -38.301 -22.566  1.00  0.00     0.010 C 
ATOM      8  C   UNL     1      55.553 -38.838 -22.432  1.00  0.00     0.025 C 
BRANCH   8   9
ATOM      9  C   UNL     1      56.521 -38.856 -23.540  1.00  0.00     0.064 C 
ATOM     10  O   UNL     1      56.967 -39.956 -23.957  1.00  0.00    -0.545 OA
ATOM     11  O   UNL     1      56.954 -37.674 -24.133  1.00  0.00    -0.545 OA
ENDBRANCH   8   9
ENDBRANCH   1   7
BRANCH   4  12
ATOM     12  O   UNL     1      52.812 -36.492 -18.262  1.00  0.00    -0.504 OA
ATOM     13  H   UNL     1      52.064 -36.256 -17.619  1.00  0.00     0.293 HD
ENDBRANCH   4  12
BRANCH   6  14
ATOM     14  O   UNL     1      50.549 -38.109 -18.314  1.00  0.00    -0.504 OA
ATOM     15  H   UNL     1      49.789 -38.774 -18.236  1.00  0.00     0.293 HD
ENDBRANCH   6  14
TORSDOF 4
ENDMDL
MODEL 6
REMARK VINA RESULT:    -4.306      2.117      6.314
REMARK INTER + INTRA:          -5.190
REMARK INTER:                  -5.052
REMARK INTRA:                  -0.137
REMARK UNBOUND:                -0.129
REMARK SMILES O=C([O-])C=Cc1ccc(O)c(O)c1
REMARK SMILES IDX 6 1 13 2 7 3 11 4 8 5 9 6 5 7 4 8 2 9 1 10 3 11 12 12 10 14
REMARK H PARENT 12 13 10 15
REMARK Flexibility Score: inf
ROOT
ATOM      1  C   UNL     1      46.695 -29.411 -30.389  1.00  0.00    -0.022 A 
ATOM      2  C   UNL     1      46.677 -30.639 -29.707  1.00  0.00     0.058 A 
ATOM      3  C   UNL     1      45.488 -28.699 -30.536  1.00  0.00     0.012 A 
ATOM      4  C   UNL     1      45.487 -31.138 -29.159  1.00  0.00     0.157 A 
ATOM      5  C   UNL     1      44.301 -29.196 -29.991  1.00  0.00     0.051 A 
ATOM      6  C   UNL     1      44.298 -30.414 -29.300  1.00  0.00     0.157 A 
ENDROOT
BRANCH   1   7
ATOM      7  C   UNL     1      47.979 -28.932 -30.958  1.00  0.00     0.010 C 
ATOM      8  C   UNL     1      48.104 -28.421 -32.190  1.00  0.00     0.025 C 
BRANCH   8   9
ATOM      9  C   UNL     1      49.397 -27.947 -32.709  1.00  0.00     0.064 C 
ATOM     10  O   UNL     1      50.272 -27.531 -31.907  1.00  0.00    -0.545 OA
ATOM     11  O   UNL     1      49.667 -27.950 -34.074  1.00  0.00    -0.545 OA
ENDBRANCH   8   9
ENDBRANCH   1   7
BRANCH   4  12
ATOM     12  O   UNL     1      45.479 -32.352 -28.475  1.00  0.00    -0.504 OA
ATOM     13  H   UNL     1      46.113 -33.104 -28.721  1.00  0.00     0.293 HD
ENDBRANCH   4  12
BRANCH   6  14
ATOM     14  O   UNL     1      43.115 -30.912 -28.753  1.00  0.00    -0.504 OA
ATOM     15  H   UNL     1      43.125 -31.608 -28.017  1.00  0.00     0.293 HD
ENDBRANCH   6  14
TORSDOF 4
ENDMDL
MODEL 7
REMARK VINA RESULT:    -4.289      3.035      7.610
REMARK INTER + INTRA:          -5.170
REMARK INTER:                  -5.033
REMARK INTRA:                  -0.137
REMARK UNBOUND:                -0.129
REMARK SMILES O=C([O-])C=Cc1ccc(O)c(O)c1
REMARK SMILES IDX 6 1 13 2 7 3 11 4 8 5 9 6 5 7 4 8 2 9 1 10 3 11 12 12 10 14
REMARK H PARENT 12 13 10 15
REMARK Flexibility Score: inf
ROOT
ATOM      1  C   UNL     1      43.773 -29.046 -30.383  1.00  0.00    -0.022 A 
ATOM      2  C   UNL     1      43.437 -29.980 -29.389  1.00  0.00     0.058 A 
ATOM      3  C   UNL     1      42.744 -28.503 -31.180  1.00  0.00     0.012 A 
ATOM      4  C   UNL     1      42.102 -30.349 -29.174  1.00  0.00     0.157 A 
ATOM      5  C   UNL     1      41.414 -28.872 -30.966  1.00  0.00     0.051 A 
ATOM      6  C   UNL     1      41.088 -29.792 -29.962  1.00  0.00     0.157 A 
ENDROOT
BRANCH   1   7
ATOM      7  C   UNL     1      45.202 -28.696 -30.576  1.00  0.00     0.010 C 
ATOM      8  C   UNL     1      45.714 -28.270 -31.739  1.00  0.00     0.025 C 
BRANCH   8   9
ATOM      9  C   UNL     1      47.137 -27.923 -31.881  1.00  0.00     0.064 C 
ATOM     10  O   UNL     1      47.561 -26.837 -31.410  1.00  0.00    -0.545 OA
ATOM     11  O   UNL     1      48.022 -28.777 -32.532  1.00  0.00    -0.545 OA
ENDBRANCH   8   9
ENDBRANCH   1   7
BRANCH   4  12
ATOM     12  O   UNL     1      41.775 -31.270 -28.180  1.00  0.00    -0.504 OA
ATOM     13  H   UNL     1      40.814 -31.431 -27.901  1.00  0.00     0.293 HD
ENDBRANCH   4  12
BRANCH   6  14
ATOM     14  O   UNL     1      39.761 -30.161 -29.745  1.00  0.00    -0.504 OA
ATOM     15  H   UNL     1      39.496 -30.748 -28.964  1.00  0.00     0.293 HD
ENDBRANCH   6  14
TORSDOF 4
ENDMDL
MODEL 8
REMARK VINA RESULT:    -4.250      3.380      4.465
REMARK INTER + INTRA:          -5.124
REMARK INTER:                  -4.999
REMARK INTRA:                  -0.126
REMARK UNBOUND:                -0.129
REMARK SMILES O=C([O-])C=Cc1ccc(O)c(O)c1
REMARK SMILES IDX 6 1 13 2 7 3 11 4 8 5 9 6 5 7 4 8 2 9 1 10 3 11 12 12 10 14
REMARK H PARENT 12 13 10 15
REMARK Flexibility Score: inf
ROOT
ATOM      1  C   UNL     1      47.368 -29.840 -29.943  1.00  0.00    -0.022 A 
ATOM      2  C   UNL     1      46.282 -29.351 -30.689  1.00  0.00     0.058 A 
ATOM      3  C   UNL     1      48.673 -29.455 -30.313  1.00  0.00     0.012 A 
ATOM      4  C   UNL     1      46.486 -28.476 -31.765  1.00  0.00     0.157 A 
ATOM      5  C   UNL     1      48.876 -28.583 -31.386  1.00  0.00     0.051 A 
ATOM      6  C   UNL     1      47.785 -28.090 -32.113  1.00  0.00     0.157 A 
ENDROOT
BRANCH   1   7
ATOM      7  C   UNL     1      47.098 -30.771 -28.820  1.00  0.00     0.010 C 
ATOM      8  C   UNL     1      46.807 -32.069 -28.981  1.00  0.00     0.025 C 
BRANCH   8   9
ATOM      9  C   UNL     1      46.558 -32.958 -27.836  1.00  0.00     0.064 C 
ATOM     10  O   UNL     1      47.289 -33.968 -27.664  1.00  0.00    -0.545 OA
ATOM     11  O   UNL     1      45.525 -32.703 -26.941  1.00  0.00    -0.545 OA
ENDBRANCH   8   9
ENDBRANCH   1   7
BRANCH   4  12
ATOM     12  O   UNL     1      45.403 -27.988 -32.493  1.00  0.00    -0.504 OA
ATOM     13  H   UNL     1      45.206 -26.996 -32.550  1.00  0.00     0.293 HD
ENDBRANCH   4  12
BRANCH   6  14
ATOM     14  O   UNL     1      47.985 -27.218 -33.183  1.00  0.00    -0.504 OA
ATOM     15  H   UNL     1      47.226 -26.671 -33.569  1.00  0.00     0.293 HD
ENDBRANCH   6  14
TORSDOF 4
ENDMDL
MODEL 9
REMARK VINA RESULT:    -4.218      2.645      6.366
REMARK INTER + INTRA:          -5.087
REMARK INTER:                  -4.954
REMARK INTRA:                  -0.133
REMARK UNBOUND:                -0.129
REMARK SMILES O=C([O-])C=Cc1ccc(O)c(O)c1
REMARK SMILES IDX 6 1 13 2 7 3 11 4 8 5 9 6 5 7 4 8 2 9 1 10 3 11 12 12 10 14
REMARK H PARENT 12 13 10 15
REMARK Flexibility Score: inf
ROOT
ATOM      1  C   UNL     1      50.856 -28.724 -31.425  1.00  0.00    -0.022 A 
ATOM      2  C   UNL     1      49.798 -29.131 -30.595  1.00  0.00     0.058 A 
ATOM      3  C   UNL     1      50.554 -28.140 -32.672  1.00  0.00     0.012 A 
ATOM      4  C   UNL     1      48.465 -28.937 -30.985  1.00  0.00     0.157 A 
ATOM      5  C   UNL     1      49.226 -27.948 -33.061  1.00  0.00     0.051 A 
ATOM      6  C   UNL     1      48.179 -28.343 -32.219  1.00  0.00     0.157 A 
ENDROOT
BRANCH   1   7
ATOM      7  C   UNL     1      52.248 -28.961 -30.970  1.00  0.00     0.010 C 
ATOM      8  C   UNL     1      53.244 -28.078 -31.126  1.00  0.00     0.025 C 
BRANCH   8   9
ATOM      9  C   UNL     1      54.608 -28.350 -30.648  1.00  0.00     0.064 C 
ATOM     10  O   UNL     1      55.550 -27.590 -30.992  1.00  0.00    -0.545 OA
ATOM     11  O   UNL     1      54.876 -29.438 -29.823  1.00  0.00    -0.545 OA
ENDBRANCH   8   9
ENDBRANCH   1   7
BRANCH   4  12
ATOM     12  O   UNL     1      47.421 -29.335 -30.151  1.00  0.00    -0.504 OA
ATOM     13  H   UNL     1      46.963 -30.232 -30.266  1.00  0.00     0.293 HD
ENDBRANCH   4  12
BRANCH   6  14
ATOM     14  O   UNL     1      46.853 -28.150 -32.603  1.00  0.00    -0.504 OA
ATOM     15  H   UNL     1      46.574 -28.178 -33.577  1.00  0.00     0.293 HD
ENDBRANCH   6  14
TORSDOF 4
ENDMDL
