MODEL 1
REMARK VINA RESULT:    -3.965      0.000      0.000
REMARK INTER + INTRA:          -5.123
REMARK INTER:                  -4.892
REMARK INTRA:                  -0.231
REMARK UNBOUND:                -0.231
REMARK SMILES C=CC[C@H](C)C(=O)CC
REMARK SMILES IDX 4 1 5 2 6 3 7 4 8 5 9 6 3 7 2 8 1 9
REMARK H PARENT
REMARK Flexibility Score: inf
ROOT
ATOM      1  C   UNL     1      -3.152  -4.619   3.034  1.00  0.00     0.057 C 
ATOM      2  C   UNL     1      -4.203  -5.585   2.476  1.00  0.00     0.016 C 
ENDROOT
BRANCH   1   3
ATOM      3  C   UNL     1      -3.639  -4.025   4.341  1.00  0.00     0.135 C 
ATOM      4  O   UNL     1      -3.080  -3.040   4.804  1.00  0.00    -0.299 OA
BRANCH   3   5
ATOM      5  C   UNL     1      -4.813  -4.616   5.076  1.00  0.00     0.072 C 
ATOM      6  C   UNL     1      -5.073  -3.871   6.381  1.00  0.00     0.012 C 
ENDBRANCH   3   5
ENDBRANCH   1   3
BRANCH   1   7
ATOM      7  C   UNL     1      -2.830  -3.517   2.003  1.00  0.00     0.038 C 
BRANCH   7   8
ATOM      8  C   UNL     1      -4.070  -2.813   1.518  1.00  0.00    -0.034 C 
ATOM      9  C   UNL     1      -4.010  -1.651   0.863  1.00  0.00     0.004 C 
ENDBRANCH   7   8
ENDBRANCH   1   7
TORSDOF 4
ENDMDL
MODEL 2
REMARK VINA RESULT:    -3.876      1.555      3.963
REMARK INTER + INTRA:          -5.014
REMARK INTER:                  -4.734
REMARK INTRA:                  -0.280
REMARK UNBOUND:                -0.231
REMARK SMILES C=CC[C@H](C)C(=O)CC
REMARK SMILES IDX 4 1 5 2 6 3 7 4 8 5 9 6 3 7 2 8 1 9
REMARK H PARENT
REMARK Flexibility Score: inf
ROOT
ATOM      1  C   UNL     1      -3.598  -4.284   3.653  1.00  0.00     0.057 C 
ATOM      2  C   UNL     1      -2.201  -4.900   3.522  1.00  0.00     0.016 C 
ENDROOT
BRANCH   1   3
ATOM      3  C   UNL     1      -4.043  -3.726   2.315  1.00  0.00     0.135 C 
ATOM      4  O   UNL     1      -5.140  -4.030   1.867  1.00  0.00    -0.299 OA
BRANCH   3   5
ATOM      5  C   UNL     1      -3.163  -2.788   1.530  1.00  0.00     0.072 C 
ATOM      6  C   UNL     1      -3.988  -1.688   0.870  1.00  0.00     0.012 C 
ENDBRANCH   3   5
ENDBRANCH   1   3
BRANCH   1   7
ATOM      7  C   UNL     1      -3.607  -3.195   4.745  1.00  0.00     0.038 C 
BRANCH   7   8
ATOM      8  C   UNL     1      -4.613  -3.485   5.828  1.00  0.00    -0.034 C 
ATOM      9  C   UNL     1      -5.433  -4.537   5.765  1.00  0.00     0.004 C 
ENDBRANCH   7   8
ENDBRANCH   1   7
TORSDOF 4
ENDMDL
MODEL 3
REMARK VINA RESULT:    -3.832      1.701      2.585
REMARK INTER + INTRA:          -4.959
REMARK INTER:                  -4.797
REMARK INTRA:                  -0.162
REMARK UNBOUND:                -0.231
REMARK SMILES C=CC[C@H](C)C(=O)CC
REMARK SMILES IDX 4 1 5 2 6 3 7 4 8 5 9 6 3 7 2 8 1 9
REMARK H PARENT
REMARK Flexibility Score: inf
ROOT
ATOM      1  C   UNL     1      -4.322  -4.275   3.252  1.00  0.00     0.057 C 
ATOM      2  C   UNL     1      -3.461  -3.497   4.254  1.00  0.00     0.016 C 
ENDROOT
BRANCH   1   3
ATOM      3  C   UNL     1      -4.330  -5.748   3.612  1.00  0.00     0.135 C 
ATOM      4  O   UNL     1      -3.657  -6.144   4.554  1.00  0.00    -0.299 OA
BRANCH   3   5
ATOM      5  C   UNL     1      -5.165  -6.735   2.839  1.00  0.00     0.072 C 
ATOM      6  C   UNL     1      -5.332  -8.037   3.616  1.00  0.00     0.012 C 
ENDBRANCH   3   5
ENDBRANCH   1   3
BRANCH   1   7
ATOM      7  C   UNL     1      -3.810  -4.053   1.814  1.00  0.00     0.038 C 
BRANCH   7   8
ATOM      8  C   UNL     1      -3.357  -2.635   1.586  1.00  0.00    -0.034 C 
ATOM      9  C   UNL     1      -4.106  -1.755   0.916  1.00  0.00     0.004 C 
ENDBRANCH   7   8
ENDBRANCH   1   7
TORSDOF 4
ENDMDL
MODEL 4
REMARK VINA RESULT:    -3.817      1.562      1.818
REMARK INTER + INTRA:          -4.941
REMARK INTER:                  -4.681
REMARK INTRA:                  -0.260
REMARK UNBOUND:                -0.231
REMARK SMILES C=CC[C@H](C)C(=O)CC
REMARK SMILES IDX 4 1 5 2 6 3 7 4 8 5 9 6 3 7 2 8 1 9
REMARK H PARENT
REMARK Flexibility Score: inf
ROOT
ATOM      1  C   UNL     1      -3.271  -4.242   3.375  1.00  0.00     0.057 C 
ATOM      2  C   UNL     1      -2.029  -4.967   3.906  1.00  0.00     0.016 C 
ENDROOT
BRANCH   1   3
ATOM      3  C   UNL     1      -4.448  -5.197   3.337  1.00  0.00     0.135 C 
ATOM      4  O   UNL     1      -4.426  -6.155   2.577  1.00  0.00    -0.299 OA
BRANCH   3   5
ATOM      5  C   UNL     1      -5.644  -4.996   4.231  1.00  0.00     0.072 C 
ATOM      6  C   UNL     1      -5.213  -4.677   5.658  1.00  0.00     0.012 C 
ENDBRANCH   3   5
ENDBRANCH   1   3
BRANCH   1   7
ATOM      7  C   UNL     1      -2.991  -3.642   1.982  1.00  0.00     0.038 C 
BRANCH   7   8
ATOM      8  C   UNL     1      -4.107  -2.745   1.515  1.00  0.00    -0.034 C 
ATOM      9  C   UNL     1      -3.872  -1.642   0.799  1.00  0.00     0.004 C 
ENDBRANCH   7   8
ENDBRANCH   1   7
TORSDOF 4
ENDMDL
MODEL 5
REMARK VINA RESULT:    -3.774      1.842      4.227
REMARK INTER + INTRA:          -4.888
REMARK INTER:                  -4.659
REMARK INTRA:                  -0.229
REMARK UNBOUND:                -0.231
REMARK SMILES C=CC[C@H](C)C(=O)CC
REMARK SMILES IDX 4 1 5 2 6 3 7 4 8 5 9 6 3 7 2 8 1 9
REMARK H PARENT
REMARK Flexibility Score: inf
ROOT
ATOM      1  C   UNL     1      -3.914  -4.457   3.566  1.00  0.00     0.057 C 
ATOM      2  C   UNL     1      -3.476  -3.389   4.575  1.00  0.00     0.016 C 
ENDROOT
BRANCH   1   3
ATOM      3  C   UNL     1      -4.244  -3.807   2.237  1.00  0.00     0.135 C 
ATOM      4  O   UNL     1      -5.313  -4.050   1.693  1.00  0.00    -0.299 OA
BRANCH   3   5
ATOM      5  C   UNL     1      -3.284  -2.853   1.576  1.00  0.00     0.072 C 
ATOM      6  C   UNL     1      -4.029  -1.705   0.903  1.00  0.00     0.012 C 
ENDBRANCH   3   5
ENDBRANCH   1   3
BRANCH   1   7
ATOM      7  C   UNL     1      -5.116  -5.254   4.114  1.00  0.00     0.038 C 
BRANCH   7   8
ATOM      8  C   UNL     1      -4.913  -6.742   3.996  1.00  0.00    -0.034 C 
ATOM      9  C   UNL     1      -5.559  -7.471   3.083  1.00  0.00     0.004 C 
ENDBRANCH   7   8
ENDBRANCH   1   7
TORSDOF 4
ENDMDL
MODEL 6
REMARK VINA RESULT:    -3.691      1.385      3.793
REMARK INTER + INTRA:          -4.786
REMARK INTER:                  -4.570
REMARK INTRA:                  -0.215
REMARK UNBOUND:                -0.231
REMARK SMILES C=CC[C@H](C)C(=O)CC
REMARK SMILES IDX 4 1 5 2 6 3 7 4 8 5 9 6 3 7 2 8 1 9
REMARK H PARENT
REMARK Flexibility Score: inf
ROOT
ATOM      1  C   UNL     1      -4.155  -5.286   4.078  1.00  0.00     0.057 C 
ATOM      2  C   UNL     1      -5.365  -5.054   4.991  1.00  0.00     0.016 C 
ENDROOT
BRANCH   1   3
ATOM      3  C   UNL     1      -3.495  -3.962   3.750  1.00  0.00     0.135 C 
ATOM      4  O   UNL     1      -3.385  -3.108   4.619  1.00  0.00    -0.299 OA
BRANCH   3   5
ATOM      5  C   UNL     1      -2.955  -3.681   2.372  1.00  0.00     0.072 C 
ATOM      6  C   UNL     1      -3.815  -2.652   1.647  1.00  0.00     0.012 C 
ENDBRANCH   3   5
ENDBRANCH   1   3
BRANCH   1   7
ATOM      7  C   UNL     1      -4.582  -6.032   2.797  1.00  0.00     0.038 C 
BRANCH   7   8
ATOM      8  C   UNL     1      -5.480  -7.204   3.095  1.00  0.00    -0.034 C 
ATOM      9  C   UNL     1      -5.626  -8.215   2.234  1.00  0.00     0.004 C 
ENDBRANCH   7   8
ENDBRANCH   1   7
TORSDOF 4
ENDMDL
MODEL 7
REMARK VINA RESULT:    -3.600     14.300     15.123
REMARK INTER + INTRA:          -4.673
REMARK INTER:                  -4.435
REMARK INTRA:                  -0.238
REMARK UNBOUND:                -0.231
REMARK SMILES C=CC[C@H](C)C(=O)CC
REMARK SMILES IDX 4 1 5 2 6 3 7 4 8 5 9 6 3 7 2 8 1 9
REMARK H PARENT
REMARK Flexibility Score: inf
ROOT
ATOM      1  C   UNL     1       8.007   4.919   6.654  1.00  0.00     0.057 C 
ATOM      2  C   UNL     1       8.278   6.144   7.535  1.00  0.00     0.016 C 
ENDROOT
BRANCH   1   3
ATOM      3  C   UNL     1       9.256   4.557   5.875  1.00  0.00     0.135 C 
ATOM      4  O   UNL     1       9.430   5.025   4.758  1.00  0.00    -0.299 OA
BRANCH   3   5
ATOM      5  C   UNL     1      10.299   3.639   6.458  1.00  0.00     0.072 C 
ATOM      6  C   UNL     1       9.661   2.378   7.029  1.00  0.00     0.012 C 
ENDBRANCH   3   5
ENDBRANCH   1   3
BRANCH   1   7
ATOM      7  C   UNL     1       6.816   5.186   5.711  1.00  0.00     0.038 C 
BRANCH   7   8
ATOM      8  C   UNL     1       5.573   4.457   6.146  1.00  0.00    -0.034 C 
ATOM      9  C   UNL     1       4.367   5.030   6.099  1.00  0.00     0.004 C 
ENDBRANCH   7   8
ENDBRANCH   1   7
TORSDOF 4
ENDMDL
MODEL 8
REMARK VINA RESULT:    -3.570     14.930     15.623
REMARK INTER + INTRA:          -4.636
REMARK INTER:                  -4.393
REMARK INTRA:                  -0.242
REMARK UNBOUND:                -0.231
REMARK SMILES C=CC[C@H](C)C(=O)CC
REMARK SMILES IDX 4 1 5 2 6 3 7 4 8 5 9 6 3 7 2 8 1 9
REMARK H PARENT
REMARK Flexibility Score: inf
ROOT
ATOM      1  C   UNL     1       7.995   5.718   5.609  1.00  0.00     0.057 C 
ATOM      2  C   UNL     1       9.120   5.139   4.744  1.00  0.00     0.016 C 
ENDROOT
BRANCH   1   3
ATOM      3  C   UNL     1       8.583   6.536   6.741  1.00  0.00     0.135 C 
ATOM      4  O   UNL     1       9.446   7.369   6.502  1.00  0.00    -0.299 OA
BRANCH   3   5
ATOM      5  C   UNL     1       8.113   6.352   8.161  1.00  0.00     0.072 C 
ATOM      6  C   UNL     1       8.922   7.217   9.121  1.00  0.00     0.012 C 
ENDBRANCH   3   5
ENDBRANCH   1   3
BRANCH   1   7
ATOM      7  C   UNL     1       7.090   4.588   6.144  1.00  0.00     0.038 C 
BRANCH   7   8
ATOM      8  C   UNL     1       5.642   4.804   5.791  1.00  0.00    -0.034 C 
ATOM      9  C   UNL     1       4.683   4.804   6.720  1.00  0.00     0.004 C 
ENDBRANCH   7   8
ENDBRANCH   1   7
TORSDOF 4
ENDMDL
MODEL 9
REMARK VINA RESULT:    -3.516      1.824      3.425
REMARK INTER + INTRA:          -4.570
REMARK INTER:                  -4.295
REMARK INTRA:                  -0.275
REMARK UNBOUND:                -0.231
REMARK SMILES C=CC[C@H](C)C(=O)CC
REMARK SMILES IDX 4 1 5 2 6 3 7 4 8 5 9 6 3 7 2 8 1 9
REMARK H PARENT
REMARK Flexibility Score: inf
ROOT
ATOM      1  C   UNL     1      -3.515  -4.522   2.487  1.00  0.00     0.057 C 
ATOM      2  C   UNL     1      -3.679  -3.187   1.750  1.00  0.00     0.016 C 
ENDROOT
BRANCH   1   3
ATOM      3  C   UNL     1      -4.861  -5.206   2.620  1.00  0.00     0.135 C 
ATOM      4  O   UNL     1      -5.877  -4.616   2.280  1.00  0.00    -0.299 OA
BRANCH   3   5
ATOM      5  C   UNL     1      -4.971  -6.612   3.153  1.00  0.00     0.072 C 
ATOM      6  C   UNL     1      -6.238  -7.291   2.645  1.00  0.00     0.012 C 
ENDBRANCH   3   5
ENDBRANCH   1   3
BRANCH   1   7
ATOM      7  C   UNL     1      -2.860  -4.300   3.866  1.00  0.00     0.038 C 
BRANCH   7   8
ATOM      8  C   UNL     1      -3.564  -3.235   4.664  1.00  0.00    -0.034 C 
ATOM      9  C   UNL     1      -4.375  -3.538   5.681  1.00  0.00     0.004 C 
ENDBRANCH   7   8
ENDBRANCH   1   7
TORSDOF 4
ENDMDL
