MODEL 1
REMARK VINA RESULT:    -7.259      0.000      0.000
REMARK INTER + INTRA:         -11.809
REMARK INTER:                  -9.806
REMARK INTRA:                  -2.004
REMARK UNBOUND:                -2.004
REMARK SMILES CC[C@H](CC[C@@H](C)[C@@H]1CC[C@H]2[C@@H]3CC(=O)C4=CC(=O)CC[C@@]4(C)[C@H]3CC[C@@]21C)C(C)C
REMARK SMILES IDX 4 1 3 2 2 3 1 4 29 5 30 6 31 7 5 8 6 9 7 10 8 11 9 12 27 13
REMARK SMILES IDX 10 14 11 15 26 16 28 17 12 18 25 19 24 20 13 21 22 22 14 23
REMARK SMILES IDX 16 24 21 25 23 26 15 27 17 28 20 29 18 30 19 31
REMARK H PARENT
REMARK Flexibility Score: inf
ROOT
ATOM      1  C   UNL     1       5.382  25.289  52.851  1.00  0.00     0.004 C 
ENDROOT
BRANCH   1   2
ATOM      2  C   UNL     1       5.372  25.489  54.392  1.00  0.00    -0.009 C 
BRANCH   2   3
ATOM      3  C   UNL     1       6.365  26.576  54.894  1.00  0.00     0.000 C 
ATOM      4  C   UNL     1       7.104  26.177  56.172  1.00  0.00     0.004 C 
ENDBRANCH   2   3
BRANCH   2   5
ATOM      5  C   UNL     1       3.923  25.651  54.973  1.00  0.00    -0.014 C 
ATOM      6  C   UNL     1       3.611  24.546  55.995  1.00  0.00     0.007 C 
ATOM      7  C   UNL     1       3.641  27.027  55.610  1.00  0.00     0.007 C 
ENDBRANCH   2   5
ENDBRANCH   1   2
BRANCH   1   8
ATOM      8  C   UNL     1       4.494  24.141  52.330  1.00  0.00     0.004 C 
BRANCH   8   9
ATOM      9  C   UNL     1       5.226  22.768  52.347  1.00  0.00    -0.011 C 
ATOM     10  C   UNL     1       4.881  21.983  51.059  1.00  0.00     0.008 C 
BRANCH   9  11
ATOM     11  C   UNL     1       6.767  22.956  52.626  1.00  0.00    -0.002 C 
ATOM     12  C   UNL     1       7.698  22.387  51.518  1.00  0.00     0.005 C 
ATOM     13  C   UNL     1       7.354  22.372  53.952  1.00  0.00    -0.026 C 
ATOM     14  C   UNL     1       8.538  21.265  52.152  1.00  0.00     0.005 C 
ATOM     15  C   UNL     1       7.883  21.008  53.502  1.00  0.00    -0.001 C 
ATOM     16  C   UNL     1       6.376  22.140  55.130  1.00  0.00     0.007 C 
ATOM     17  C   UNL     1       8.497  23.338  54.414  1.00  0.00     0.012 C 
ATOM     18  C   UNL     1       8.700  20.271  54.592  1.00  0.00     0.004 C 
ATOM     19  C   UNL     1       7.078  21.416  56.299  1.00  0.00     0.005 C 
ATOM     20  C   UNL     1       7.820  20.100  55.875  1.00  0.00     0.003 C 
ATOM     21  C   UNL     1       9.106  18.876  54.067  1.00  0.00     0.085 C 
ATOM     22  C   UNL     1       8.602  19.387  57.066  1.00  0.00    -0.000 C 
ATOM     23  C   UNL     1       9.721  18.032  55.134  1.00  0.00     0.159 C 
ATOM     24  C   UNL     1       9.726  18.479  56.541  1.00  0.00     0.005 C 
ATOM     25  C   UNL     1       9.234  20.417  58.057  1.00  0.00     0.020 C 
ATOM     26  C   UNL     1       7.595  18.495  57.834  1.00  0.00     0.017 C 
ATOM     27  O   UNL     1      10.257  16.936  54.811  1.00  0.00    -0.295 OA
ATOM     28  C   UNL     1      10.746  18.103  57.334  1.00  0.00     0.055 C 
ATOM     29  C   UNL     1      10.047  19.762  59.186  1.00  0.00     0.081 C 
ATOM     30  C   UNL     1      10.931  18.666  58.678  1.00  0.00     0.156 C 
ATOM     31  O   UNL     1      11.848  18.217  59.416  1.00  0.00    -0.295 OA
ENDBRANCH   9  11
ENDBRANCH   8   9
ENDBRANCH   1   8
TORSDOF 6
ENDMDL
MODEL 2
REMARK VINA RESULT:    -7.061      2.287      3.798
REMARK INTER + INTRA:         -11.542
REMARK INTER:                  -9.399
REMARK INTRA:                  -2.143
REMARK UNBOUND:                -2.004
REMARK SMILES CC[C@H](CC[C@@H](C)[C@@H]1CC[C@H]2[C@@H]3CC(=O)C4=CC(=O)CC[C@@]4(C)[C@H]3CC[C@@]21C)C(C)C
REMARK SMILES IDX 4 1 3 2 2 3 1 4 29 5 30 6 31 7 5 8 6 9 7 10 8 11 9 12 27 13
REMARK SMILES IDX 10 14 11 15 26 16 28 17 12 18 25 19 24 20 13 21 22 22 14 23
REMARK SMILES IDX 16 24 21 25 23 26 15 27 17 28 20 29 18 30 19 31
REMARK H PARENT
REMARK Flexibility Score: inf
ROOT
ATOM      1  C   UNL     1       6.523  22.366  53.195  1.00  0.00     0.004 C 
ENDROOT
BRANCH   1   2
ATOM      2  C   UNL     1       6.515  22.856  54.670  1.00  0.00    -0.009 C 
BRANCH   2   3
ATOM      3  C   UNL     1       6.241  21.730  55.707  1.00  0.00     0.000 C 
ATOM      4  C   UNL     1       4.874  21.848  56.381  1.00  0.00     0.004 C 
ENDBRANCH   2   3
BRANCH   2   5
ATOM      5  C   UNL     1       7.764  23.738  55.022  1.00  0.00    -0.014 C 
ATOM      6  C   UNL     1       8.370  23.325  56.373  1.00  0.00     0.007 C 
ATOM      7  C   UNL     1       8.870  23.737  53.947  1.00  0.00     0.007 C 
ENDBRANCH   2   5
ENDBRANCH   1   2
BRANCH   1   8
ATOM      8  C   UNL     1       5.995  20.935  52.973  1.00  0.00     0.004 C 
BRANCH   8   9
ATOM      9  C   UNL     1       6.739  20.198  51.822  1.00  0.00    -0.011 C 
ATOM     10  C   UNL     1       7.725  21.172  51.137  1.00  0.00     0.008 C 
BRANCH   9  11
ATOM     11  C   UNL     1       7.375  18.850  52.337  1.00  0.00    -0.002 C 
ATOM     12  C   UNL     1       6.360  17.859  52.976  1.00  0.00     0.005 C 
ATOM     13  C   UNL     1       8.534  18.932  53.382  1.00  0.00    -0.026 C 
ATOM     14  C   UNL     1       6.760  17.676  54.450  1.00  0.00     0.005 C 
ATOM     15  C   UNL     1       7.791  18.766  54.710  1.00  0.00    -0.001 C 
ATOM     16  C   UNL     1       9.347  20.249  53.451  1.00  0.00     0.007 C 
ATOM     17  C   UNL     1       9.507  17.741  53.085  1.00  0.00     0.012 C 
ATOM     18  C   UNL     1       8.730  18.621  55.932  1.00  0.00     0.004 C 
ATOM     19  C   UNL     1      10.340  20.225  54.633  1.00  0.00     0.005 C 
ATOM     20  C   UNL     1       9.680  19.862  56.009  1.00  0.00     0.003 C 
ATOM     21  C   UNL     1       7.881  18.551  57.220  1.00  0.00     0.085 C 
ATOM     22  C   UNL     1      10.714  19.771  57.218  1.00  0.00    -0.000 C 
ATOM     23  C   UNL     1       8.724  18.613  58.452  1.00  0.00     0.159 C 
ATOM     24  C   UNL     1      10.170  18.902  58.363  1.00  0.00     0.005 C 
ATOM     25  C   UNL     1      12.090  19.180  56.774  1.00  0.00     0.020 C 
ATOM     26  C   UNL     1      10.930  21.201  57.773  1.00  0.00     0.017 C 
ATOM     27  O   UNL     1       8.185  18.393  59.571  1.00  0.00    -0.295 OA
ATOM     28  C   UNL     1      10.992  18.364  59.282  1.00  0.00     0.055 C 
ATOM     29  C   UNL     1      13.092  19.023  57.930  1.00  0.00     0.081 C 
ATOM     30  C   UNL     1      12.453  18.434  59.150  1.00  0.00     0.156 C 
ATOM     31  O   UNL     1      13.181  17.994  60.080  1.00  0.00    -0.295 OA
ENDBRANCH   9  11
ENDBRANCH   8   9
ENDBRANCH   1   8
TORSDOF 6
ENDMDL
MODEL 3
REMARK VINA RESULT:    -6.925      3.258      7.985
REMARK INTER + INTRA:         -11.358
REMARK INTER:                 -10.280
REMARK INTRA:                  -1.078
REMARK UNBOUND:                -2.004
REMARK SMILES CC[C@H](CC[C@@H](C)[C@@H]1CC[C@H]2[C@@H]3CC(=O)C4=CC(=O)CC[C@@]4(C)[C@H]3CC[C@@]21C)C(C)C
REMARK SMILES IDX 4 1 3 2 2 3 1 4 29 5 30 6 31 7 5 8 6 9 7 10 8 11 9 12 27 13
REMARK SMILES IDX 10 14 11 15 26 16 28 17 12 18 25 19 24 20 13 21 22 22 14 23
REMARK SMILES IDX 16 24 21 25 23 26 15 27 17 28 20 29 18 30 19 31
REMARK H PARENT
REMARK Flexibility Score: inf
ROOT
ATOM      1  C   UNL     1       9.538  16.491  54.811  1.00  0.00     0.004 C 
ENDROOT
BRANCH   1   2
ATOM      2  C   UNL     1       8.119  15.941  55.129  1.00  0.00    -0.009 C 
BRANCH   2   3
ATOM      3  C   UNL     1       6.994  17.010  55.042  1.00  0.00     0.000 C 
ATOM      4  C   UNL     1       6.306  17.054  53.677  1.00  0.00     0.004 C 
ENDBRANCH   2   3
BRANCH   2   5
ATOM      5  C   UNL     1       7.791  14.623  54.343  1.00  0.00    -0.014 C 
ATOM      6  C   UNL     1       8.881  14.312  53.305  1.00  0.00     0.007 C 
ATOM      7  C   UNL     1       7.573  13.385  55.237  1.00  0.00     0.007 C 
ENDBRANCH   2   5
ENDBRANCH   1   2
BRANCH   1   8
ATOM      8  C   UNL     1       9.776  17.963  55.202  1.00  0.00     0.004 C 
BRANCH   8   9
ATOM      9  C   UNL     1      10.692  18.108  56.451  1.00  0.00    -0.011 C 
ATOM     10  C   UNL     1      12.108  18.543  56.005  1.00  0.00     0.008 C 
BRANCH   9  11
ATOM     11  C   UNL     1      10.017  19.028  57.539  1.00  0.00    -0.002 C 
ATOM     12  C   UNL     1       8.793  18.391  58.255  1.00  0.00     0.005 C 
ATOM     13  C   UNL     1       9.508  20.439  57.100  1.00  0.00    -0.026 C 
ATOM     14  C   UNL     1       7.563  19.253  57.922  1.00  0.00     0.005 C 
ATOM     15  C   UNL     1       8.029  20.177  56.805  1.00  0.00    -0.001 C 
ATOM     16  C   UNL     1      10.142  21.071  55.836  1.00  0.00     0.007 C 
ATOM     17  C   UNL     1       9.716  21.403  58.317  1.00  0.00     0.012 C 
ATOM     18  C   UNL     1       7.216  21.463  56.521  1.00  0.00     0.004 C 
ATOM     19  C   UNL     1       9.422  22.381  55.451  1.00  0.00     0.005 C 
ATOM     20  C   UNL     1       7.865  22.235  55.325  1.00  0.00     0.003 C 
ATOM     21  C   UNL     1       5.768  21.077  56.149  1.00  0.00     0.085 C 
ATOM     22  C   UNL     1       7.113  23.600  54.993  1.00  0.00    -0.000 C 
ATOM     23  C   UNL     1       4.980  22.251  55.667  1.00  0.00     0.159 C 
ATOM     24  C   UNL     1       5.637  23.550  55.420  1.00  0.00     0.005 C 
ATOM     25  C   UNL     1       7.779  24.826  55.694  1.00  0.00     0.020 C 
ATOM     26  C   UNL     1       7.152  23.809  53.459  1.00  0.00     0.017 C 
ATOM     27  O   UNL     1       3.738  22.122  55.493  1.00  0.00    -0.295 OA
ATOM     28  C   UNL     1       4.928  24.678  55.609  1.00  0.00     0.055 C 
ATOM     29  C   UNL     1       7.042  26.152  55.444  1.00  0.00     0.081 C 
ATOM     30  C   UNL     1       5.558  26.004  55.582  1.00  0.00     0.156 C 
ATOM     31  O   UNL     1       4.838  27.034  55.675  1.00  0.00    -0.295 OA
ENDBRANCH   9  11
ENDBRANCH   8   9
ENDBRANCH   1   8
TORSDOF 6
ENDMDL
MODEL 4
REMARK VINA RESULT:    -6.912      2.910      7.250
REMARK INTER + INTRA:         -11.341
REMARK INTER:                  -8.866
REMARK INTRA:                  -2.474
REMARK UNBOUND:                -2.004
REMARK SMILES CC[C@H](CC[C@@H](C)[C@@H]1CC[C@H]2[C@@H]3CC(=O)C4=CC(=O)CC[C@@]4(C)[C@H]3CC[C@@]21C)C(C)C
REMARK SMILES IDX 4 1 3 2 2 3 1 4 29 5 30 6 31 7 5 8 6 9 7 10 8 11 9 12 27 13
REMARK SMILES IDX 10 14 11 15 26 16 28 17 12 18 25 19 24 20 13 21 22 22 14 23
REMARK SMILES IDX 16 24 21 25 23 26 15 27 17 28 20 29 18 30 19 31
REMARK H PARENT
REMARK Flexibility Score: inf
ROOT
ATOM      1  C   UNL     1       9.847  17.941  54.212  1.00  0.00     0.004 C 
ENDROOT
BRANCH   1   2
ATOM      2  C   UNL     1       8.471  18.269  53.568  1.00  0.00    -0.009 C 
BRANCH   2   3
ATOM      3  C   UNL     1       7.254  17.724  54.368  1.00  0.00     0.000 C 
ATOM      4  C   UNL     1       6.784  16.349  53.893  1.00  0.00     0.004 C 
ENDBRANCH   2   3
BRANCH   2   5
ATOM      5  C   UNL     1       8.332  19.780  53.172  1.00  0.00    -0.014 C 
ATOM      6  C   UNL     1       9.548  20.253  52.358  1.00  0.00     0.007 C 
ATOM      7  C   UNL     1       7.041  20.122  52.401  1.00  0.00     0.007 C 
ENDBRANCH   2   5
ENDBRANCH   1   2
BRANCH   1   8
ATOM      8  C   UNL     1       9.789  17.427  55.664  1.00  0.00     0.004 C 
BRANCH   8   9
ATOM      9  C   UNL     1      10.818  18.137  56.589  1.00  0.00    -0.011 C 
ATOM     10  C   UNL     1      11.872  18.867  55.724  1.00  0.00     0.008 C 
BRANCH   9  11
ATOM     11  C   UNL     1      10.087  19.036  57.658  1.00  0.00    -0.002 C 
ATOM     12  C   UNL     1       8.853  18.368  58.329  1.00  0.00     0.005 C 
ATOM     13  C   UNL     1       9.561  20.438  57.208  1.00  0.00    -0.026 C 
ATOM     14  C   UNL     1       7.616  19.204  57.958  1.00  0.00     0.005 C 
ATOM     15  C   UNL     1       8.100  20.144  56.862  1.00  0.00    -0.001 C 
ATOM     16  C   UNL     1      10.224  21.090  55.970  1.00  0.00     0.007 C 
ATOM     17  C   UNL     1       9.706  21.399  58.437  1.00  0.00     0.012 C 
ATOM     18  C   UNL     1       7.268  21.413  56.556  1.00  0.00     0.004 C 
ATOM     19  C   UNL     1       9.487  22.386  55.566  1.00  0.00     0.005 C 
ATOM     20  C   UNL     1       7.939  22.206  55.386  1.00  0.00     0.003 C 
ATOM     21  C   UNL     1       5.842  20.997  56.133  1.00  0.00     0.085 C 
ATOM     22  C   UNL     1       7.169  23.556  55.035  1.00  0.00    -0.000 C 
ATOM     23  C   UNL     1       5.045  22.156  55.630  1.00  0.00     0.159 C 
ATOM     24  C   UNL     1       5.681  23.471  55.412  1.00  0.00     0.005 C 
ATOM     25  C   UNL     1       7.783  24.793  55.765  1.00  0.00     0.020 C 
ATOM     26  C   UNL     1       7.256  23.774  53.505  1.00  0.00     0.017 C 
ATOM     27  O   UNL     1       3.812  22.000  55.414  1.00  0.00    -0.295 OA
ATOM     28  C   UNL     1       4.940  24.581  55.581  1.00  0.00     0.055 C 
ATOM     29  C   UNL     1       7.025  26.103  55.496  1.00  0.00     0.081 C 
ATOM     30  C   UNL     1       5.541  25.921  55.583  1.00  0.00     0.156 C 
ATOM     31  O   UNL     1       4.796  26.934  55.656  1.00  0.00    -0.295 OA
ENDBRANCH   9  11
ENDBRANCH   8   9
ENDBRANCH   1   8
TORSDOF 6
ENDMDL
MODEL 5
REMARK VINA RESULT:    -6.840      3.569      6.310
REMARK INTER + INTRA:         -11.243
REMARK INTER:                  -9.551
REMARK INTRA:                  -1.692
REMARK UNBOUND:                -2.004
REMARK SMILES CC[C@H](CC[C@@H](C)[C@@H]1CC[C@H]2[C@@H]3CC(=O)C4=CC(=O)CC[C@@]4(C)[C@H]3CC[C@@]21C)C(C)C
REMARK SMILES IDX 4 1 3 2 2 3 1 4 29 5 30 6 31 7 5 8 6 9 7 10 8 11 9 12 27 13
REMARK SMILES IDX 10 14 11 15 26 16 28 17 12 18 25 19 24 20 13 21 22 22 14 23
REMARK SMILES IDX 16 24 21 25 23 26 15 27 17 28 20 29 18 30 19 31
REMARK H PARENT
REMARK Flexibility Score: inf
ROOT
ATOM      1  C   UNL     1       8.524  22.796  56.023  1.00  0.00     0.004 C 
ENDROOT
BRANCH   1   2
ATOM      2  C   UNL     1       8.609  23.709  54.768  1.00  0.00    -0.009 C 
BRANCH   2   3
ATOM      3  C   UNL     1       8.938  22.947  53.454  1.00  0.00     0.000 C 
ATOM      4  C   UNL     1      10.372  23.168  52.969  1.00  0.00     0.004 C 
ENDBRANCH   2   3
BRANCH   2   5
ATOM      5  C   UNL     1       7.380  24.676  54.639  1.00  0.00    -0.014 C 
ATOM      6  C   UNL     1       6.059  23.926  54.875  1.00  0.00     0.007 C 
ATOM      7  C   UNL     1       7.437  25.908  55.565  1.00  0.00     0.007 C 
ENDBRANCH   2   5
ENDBRANCH   1   2
BRANCH   1   8
ATOM      8  C   UNL     1       9.834  22.079  56.406  1.00  0.00     0.004 C 
BRANCH   8   9
ATOM      9  C   UNL     1       9.766  20.544  56.164  1.00  0.00    -0.011 C 
ATOM     10  C   UNL     1      10.701  19.821  57.163  1.00  0.00     0.008 C 
BRANCH   9  11
ATOM     11  C   UNL     1       8.271  20.041  56.160  1.00  0.00    -0.002 C 
ATOM     12  C   UNL     1       7.845  19.272  57.443  1.00  0.00     0.005 C 
ATOM     13  C   UNL     1       7.807  19.115  54.990  1.00  0.00    -0.026 C 
ATOM     14  C   UNL     1       7.486  17.837  57.023  1.00  0.00     0.005 C 
ATOM     15  C   UNL     1       7.984  17.717  55.589  1.00  0.00    -0.001 C 
ATOM     16  C   UNL     1       8.608  19.172  53.666  1.00  0.00     0.007 C 
ATOM     17  C   UNL     1       6.306  19.458  54.699  1.00  0.00     0.012 C 
ATOM     18  C   UNL     1       7.415  16.585  54.700  1.00  0.00     0.004 C 
ATOM     19  C   UNL     1       8.123  18.089  52.678  1.00  0.00     0.005 C 
ATOM     20  C   UNL     1       8.087  16.645  53.288  1.00  0.00     0.003 C 
ATOM     21  C   UNL     1       7.727  15.220  55.352  1.00  0.00     0.085 C 
ATOM     22  C   UNL     1       7.524  15.537  52.291  1.00  0.00    -0.000 C 
ATOM     23  C   UNL     1       7.386  14.077  54.453  1.00  0.00     0.159 C 
ATOM     24  C   UNL     1       6.987  14.313  53.051  1.00  0.00     0.005 C 
ATOM     25  C   UNL     1       6.376  16.086  51.386  1.00  0.00     0.020 C 
ATOM     26  C   UNL     1       8.693  15.058  51.395  1.00  0.00     0.017 C 
ATOM     27  O   UNL     1       7.425  12.905  54.917  1.00  0.00    -0.295 OA
ATOM     28  C   UNL     1       6.124  13.457  52.474  1.00  0.00     0.055 C 
ATOM     29  C   UNL     1       5.768  15.026  50.453  1.00  0.00     0.081 C 
ATOM     30  C   UNL     1       5.523  13.729  51.162  1.00  0.00     0.156 C 
ATOM     31  O   UNL     1       4.791  12.857  50.623  1.00  0.00    -0.295 OA
ENDBRANCH   9  11
ENDBRANCH   8   9
ENDBRANCH   1   8
TORSDOF 6
ENDMDL
MODEL 6
REMARK VINA RESULT:    -6.809      3.980      7.064
REMARK INTER + INTRA:         -11.202
REMARK INTER:                  -9.132
REMARK INTRA:                  -2.070
REMARK UNBOUND:                -2.004
REMARK SMILES CC[C@H](CC[C@@H](C)[C@@H]1CC[C@H]2[C@@H]3CC(=O)C4=CC(=O)CC[C@@]4(C)[C@H]3CC[C@@]21C)C(C)C
REMARK SMILES IDX 4 1 3 2 2 3 1 4 29 5 30 6 31 7 5 8 6 9 7 10 8 11 9 12 27 13
REMARK SMILES IDX 10 14 11 15 26 16 28 17 12 18 25 19 24 20 13 21 22 22 14 23
REMARK SMILES IDX 16 24 21 25 23 26 15 27 17 28 20 29 18 30 19 31
REMARK H PARENT
REMARK Flexibility Score: inf
ROOT
ATOM      1  C   UNL     1       9.740  20.910  58.670  1.00  0.00     0.004 C 
ENDROOT
BRANCH   1   2
ATOM      2  C   UNL     1       9.800  19.359  58.737  1.00  0.00    -0.009 C 
BRANCH   2   3
ATOM      3  C   UNL     1      11.242  18.779  58.683  1.00  0.00     0.000 C 
ATOM      4  C   UNL     1      12.089  19.369  57.554  1.00  0.00     0.004 C 
ENDBRANCH   2   3
BRANCH   2   5
ATOM      5  C   UNL     1       8.933  18.769  59.904  1.00  0.00    -0.014 C 
ATOM      6  C   UNL     1       8.995  19.670  61.148  1.00  0.00     0.007 C 
ATOM      7  C   UNL     1       7.457  18.512  59.536  1.00  0.00     0.007 C 
ENDBRANCH   2   5
ENDBRANCH   1   2
BRANCH   1   8
ATOM      8  C   UNL     1       9.146  21.492  57.372  1.00  0.00     0.004 C 
BRANCH   8   9
ATOM      9  C   UNL     1       8.334  20.439  56.565  1.00  0.00    -0.011 C 
ATOM     10  C   UNL     1       6.832  20.808  56.598  1.00  0.00     0.008 C 
BRANCH   9  11
ATOM     11  C   UNL     1       8.944  20.242  55.124  1.00  0.00    -0.002 C 
ATOM     12  C   UNL     1       8.116  20.887  53.978  1.00  0.00     0.005 C 
ATOM     13  C   UNL     1       9.209  18.784  54.628  1.00  0.00    -0.026 C 
ATOM     14  C   UNL     1       7.640  19.751  53.056  1.00  0.00     0.005 C 
ATOM     15  C   UNL     1       7.940  18.474  53.830  1.00  0.00    -0.001 C 
ATOM     16  C   UNL     1       9.381  17.679  55.700  1.00  0.00     0.007 C 
ATOM     17  C   UNL     1      10.489  18.830  53.726  1.00  0.00     0.012 C 
ATOM     18  C   UNL     1       8.007  17.136  53.053  1.00  0.00     0.004 C 
ATOM     19  C   UNL     1       9.474  16.283  55.047  1.00  0.00     0.005 C 
ATOM     20  C   UNL     1       8.301  15.969  54.052  1.00  0.00     0.003 C 
ATOM     21  C   UNL     1       6.649  16.882  52.362  1.00  0.00     0.085 C 
ATOM     22  C   UNL     1       8.431  14.556  53.327  1.00  0.00    -0.000 C 
ATOM     23  C   UNL     1       6.573  15.516  51.761  1.00  0.00     0.159 C 
ATOM     24  C   UNL     1       7.635  14.521  52.013  1.00  0.00     0.005 C 
ATOM     25  C   UNL     1       9.915  14.193  53.004  1.00  0.00     0.020 C 
ATOM     26  C   UNL     1       7.836  13.478  54.267  1.00  0.00     0.017 C 
ATOM     27  O   UNL     1       5.595  15.231  51.018  1.00  0.00    -0.295 OA
ATOM     28  C   UNL     1       7.907  13.614  51.057  1.00  0.00     0.055 C 
ATOM     29  C   UNL     1      10.071  12.862  52.250  1.00  0.00     0.081 C 
ATOM     30  C   UNL     1       9.074  12.726  51.140  1.00  0.00     0.156 C 
ATOM     31  O   UNL     1       9.237  11.834  50.266  1.00  0.00    -0.295 OA
ENDBRANCH   9  11
ENDBRANCH   8   9
ENDBRANCH   1   8
TORSDOF 6
ENDMDL
MODEL 7
REMARK VINA RESULT:    -6.804      1.737      2.505
REMARK INTER + INTRA:         -11.193
REMARK INTER:                  -9.261
REMARK INTRA:                  -1.932
REMARK UNBOUND:                -2.004
REMARK SMILES CC[C@H](CC[C@@H](C)[C@@H]1CC[C@H]2[C@@H]3CC(=O)C4=CC(=O)CC[C@@]4(C)[C@H]3CC[C@@]21C)C(C)C
REMARK SMILES IDX 4 1 3 2 2 3 1 4 29 5 30 6 31 7 5 8 6 9 7 10 8 11 9 12 27 13
REMARK SMILES IDX 10 14 11 15 26 16 28 17 12 18 25 19 24 20 13 21 22 22 14 23
REMARK SMILES IDX 16 24 21 25 23 26 15 27 17 28 20 29 18 30 19 31
REMARK H PARENT
REMARK Flexibility Score: inf
ROOT
ATOM      1  C   UNL     1       4.642  24.634  55.990  1.00  0.00     0.004 C 
ENDROOT
BRANCH   1   2
ATOM      2  C   UNL     1       3.994  25.933  55.435  1.00  0.00    -0.009 C 
BRANCH   2   3
ATOM      3  C   UNL     1       3.373  26.846  56.530  1.00  0.00     0.000 C 
ATOM      4  C   UNL     1       4.166  26.847  57.837  1.00  0.00     0.004 C 
ENDBRANCH   2   3
BRANCH   2   5
ATOM      5  C   UNL     1       4.934  26.701  54.440  1.00  0.00    -0.014 C 
ATOM      6  C   UNL     1       6.390  26.688  54.934  1.00  0.00     0.007 C 
ATOM      7  C   UNL     1       4.885  26.185  52.988  1.00  0.00     0.007 C 
ENDBRANCH   2   5
ENDBRANCH   1   2
BRANCH   1   8
ATOM      8  C   UNL     1       4.016  23.318  55.485  1.00  0.00     0.004 C 
BRANCH   8   9
ATOM      9  C   UNL     1       4.987  22.507  54.579  1.00  0.00    -0.011 C 
ATOM     10  C   UNL     1       4.342  22.297  53.189  1.00  0.00     0.008 C 
BRANCH   9  11
ATOM     11  C   UNL     1       6.421  23.162  54.563  1.00  0.00    -0.002 C 
ATOM     12  C   UNL     1       6.977  23.463  53.142  1.00  0.00     0.005 C 
ATOM     13  C   UNL     1       7.588  22.404  55.274  1.00  0.00    -0.026 C 
ATOM     14  C   UNL     1       8.243  22.611  52.952  1.00  0.00     0.005 C 
ATOM     15  C   UNL     1       8.230  21.633  54.118  1.00  0.00    -0.001 C 
ATOM     16  C   UNL     1       7.214  21.385  56.379  1.00  0.00     0.007 C 
ATOM     17  C   UNL     1       8.543  23.490  55.877  1.00  0.00     0.012 C 
ATOM     18  C   UNL     1       9.551  20.924  54.505  1.00  0.00     0.004 C 
ATOM     19  C   UNL     1       8.461  20.613  56.864  1.00  0.00     0.005 C 
ATOM     20  C   UNL     1       9.290  19.956  55.706  1.00  0.00     0.003 C 
ATOM     21  C   UNL     1      10.061  20.107  53.297  1.00  0.00     0.085 C 
ATOM     22  C   UNL     1      10.612  19.215  56.198  1.00  0.00    -0.000 C 
ATOM     23  C   UNL     1      11.222  19.238  53.658  1.00  0.00     0.159 C 
ATOM     24  C   UNL     1      11.643  19.088  55.065  1.00  0.00     0.005 C 
ATOM     25  C   UNL     1      11.294  19.956  57.392  1.00  0.00     0.020 C 
ATOM     26  C   UNL     1      10.223  17.784  56.643  1.00  0.00     0.017 C 
ATOM     27  O   UNL     1      11.850  18.647  52.737  1.00  0.00    -0.295 OA
ATOM     28  C   UNL     1      12.945  18.873  55.328  1.00  0.00     0.055 C 
ATOM     29  C   UNL     1      12.606  19.301  57.853  1.00  0.00     0.081 C 
ATOM     30  C   UNL     1      13.477  18.915  56.697  1.00  0.00     0.156 C 
ATOM     31  O   UNL     1      14.684  18.620  56.902  1.00  0.00    -0.295 OA
ENDBRANCH   9  11
ENDBRANCH   8   9
ENDBRANCH   1   8
TORSDOF 6
ENDMDL
MODEL 8
REMARK VINA RESULT:    -6.774      1.913      4.321
REMARK INTER + INTRA:         -11.154
REMARK INTER:                  -8.974
REMARK INTRA:                  -2.180
REMARK UNBOUND:                -2.004
REMARK SMILES CC[C@H](CC[C@@H](C)[C@@H]1CC[C@H]2[C@@H]3CC(=O)C4=CC(=O)CC[C@@]4(C)[C@H]3CC[C@@]21C)C(C)C
REMARK SMILES IDX 4 1 3 2 2 3 1 4 29 5 30 6 31 7 5 8 6 9 7 10 8 11 9 12 27 13
REMARK SMILES IDX 10 14 11 15 26 16 28 17 12 18 25 19 24 20 13 21 22 22 14 23
REMARK SMILES IDX 16 24 21 25 23 26 15 27 17 28 20 29 18 30 19 31
REMARK H PARENT
REMARK Flexibility Score: inf
ROOT
ATOM      1  C   UNL     1       6.276  22.540  50.982  1.00  0.00     0.004 C 
ENDROOT
BRANCH   1   2
ATOM      2  C   UNL     1       7.630  21.789  51.117  1.00  0.00    -0.009 C 
BRANCH   2   3
ATOM      3  C   UNL     1       8.505  22.273  52.308  1.00  0.00     0.000 C 
ATOM      4  C   UNL     1       9.317  21.151  52.956  1.00  0.00     0.004 C 
ENDBRANCH   2   3
BRANCH   2   5
ATOM      5  C   UNL     1       7.466  20.230  51.055  1.00  0.00    -0.014 C 
ATOM      6  C   UNL     1       5.983  19.828  51.097  1.00  0.00     0.007 C 
ATOM      7  C   UNL     1       8.138  19.566  49.835  1.00  0.00     0.007 C 
ENDBRANCH   2   5
ENDBRANCH   1   2
BRANCH   1   8
ATOM      8  C   UNL     1       6.128  23.794  51.867  1.00  0.00     0.004 C 
BRANCH   8   9
ATOM      9  C   UNL     1       4.664  24.020  52.340  1.00  0.00    -0.011 C 
ATOM     10  C   UNL     1       3.754  22.917  51.750  1.00  0.00     0.008 C 
BRANCH   9  11
ATOM     11  C   UNL     1       4.597  24.179  53.907  1.00  0.00    -0.002 C 
ATOM     12  C   UNL     1       5.436  25.359  54.473  1.00  0.00     0.005 C 
ATOM     13  C   UNL     1       5.013  22.959  54.791  1.00  0.00    -0.026 C 
ATOM     14  C   UNL     1       6.521  24.759  55.384  1.00  0.00     0.005 C 
ATOM     15  C   UNL     1       6.481  23.264  55.100  1.00  0.00    -0.001 C 
ATOM     16  C   UNL     1       4.942  21.550  54.151  1.00  0.00     0.007 C 
ATOM     17  C   UNL     1       4.110  22.988  56.071  1.00  0.00     0.012 C 
ATOM     18  C   UNL     1       7.111  22.297  56.133  1.00  0.00     0.004 C 
ATOM     19  C   UNL     1       5.534  20.482  55.096  1.00  0.00     0.005 C 
ATOM     20  C   UNL     1       6.973  20.825  55.619  1.00  0.00     0.003 C 
ATOM     21  C   UNL     1       8.607  22.637  56.300  1.00  0.00     0.085 C 
ATOM     22  C   UNL     1       7.558  19.758  56.646  1.00  0.00    -0.000 C 
ATOM     23  C   UNL     1       9.325  21.621  57.128  1.00  0.00     0.159 C 
ATOM     24  C   UNL     1       8.654  20.369  57.534  1.00  0.00     0.005 C 
ATOM     25  C   UNL     1       6.452  19.169  57.579  1.00  0.00     0.020 C 
ATOM     26  C   UNL     1       8.200  18.608  55.830  1.00  0.00     0.017 C 
ATOM     27  O   UNL     1      10.509  21.857  57.492  1.00  0.00    -0.295 OA
ATOM     28  C   UNL     1       9.001  19.803  58.704  1.00  0.00     0.055 C 
ATOM     29  C   UNL     1       6.994  18.179  58.624  1.00  0.00     0.081 C 
ATOM     30  C   UNL     1       8.247  18.680  59.275  1.00  0.00     0.156 C 
ATOM     31  O   UNL     1       8.662  18.126  60.327  1.00  0.00    -0.295 OA
ENDBRANCH   9  11
ENDBRANCH   8   9
ENDBRANCH   1   8
TORSDOF 6
ENDMDL
