MODEL 1
REMARK VINA RESULT:    -8.323      0.000      0.000
REMARK INTER + INTRA:         -14.468
REMARK INTER:                 -13.189
REMARK INTRA:                  -1.279
REMARK UNBOUND:                -1.279
REMARK SMILES C[C@H]1O[C@@H](O[C@H]2CC[C@@]3(C)[C@@H](CC[C@@]4(C)[C@@H]3C=C[C@@]35OC[C@]6(CCC(C)(C)C[C@@H]63)[C@@H](O)C[C@]45C)[C@@]2(C)CO)[C@@H](O)[C@@H](O[C@H]2O[C@H](CO)[C@H](O)[C@@H](O)[C@@H]2O)[C@@H]1O
REMARK SMILES IDX 1 1 2 2 54 3 41 4 39 5 4 6 3 7 55 8 42 10 43 11 52 12 44 13
REMARK SMILES IDX 50 14 45 15 48 16 53 17 51 19 46 21 47 22 49 24 5 26 6 27
REMARK SMILES IDX 7 28 35 29 8 30 11 31 36 32 9 33 12 34 10 35 16 36 13 37
REMARK SMILES IDX 14 38 17 39 15 40 33 41 18 42 19 43 32 44 34 45 29 46 20 47
REMARK SMILES IDX 30 48 22 49 28 50 21 51 23 52 25 53 24 54 26 55 27 56 37 57
REMARK SMILES IDX 38 58 31 60 40 62
REMARK H PARENT 55 9 53 18 51 20 47 23 49 25 38 59 31 61 40 63
REMARK Flexibility Score: inf
ROOT
ATOM      1  C   UNL     1      -5.294 -17.790  43.751  1.00  0.00     0.041 C 
ATOM      2  C   UNL     1      -5.370 -19.283  44.087  1.00  0.00     0.150 C 
ATOM      3  C   UNL     1      -5.467 -19.513  45.621  1.00  0.00     0.175 C 
ATOM      4  C   UNL     1      -4.937 -20.928  46.009  1.00  0.00     0.186 C 
ATOM      5  C   UNL     1      -4.681 -21.943  44.846  1.00  0.00     0.202 C 
ATOM      6  C   UNL     1      -4.459 -21.322  43.421  1.00  0.00     0.282 C 
ATOM      7  O   UNL     1      -4.239 -19.928  43.539  1.00  0.00    -0.344 OA
ENDROOT
BRANCH   3   8
ATOM      8  O   UNL     1      -6.814 -19.398  46.012  1.00  0.00    -0.388 OA
ATOM      9  H   UNL     1      -6.859 -18.658  46.674  1.00  0.00     0.211 HD
ENDBRANCH   3   8
BRANCH   4  10
ATOM     10  O   UNL     1      -4.026 -20.995  47.122  1.00  0.00    -0.341 OA
BRANCH  10  11
ATOM     11  C   UNL     1      -4.141 -21.943  48.195  1.00  0.00     0.282 C 
ATOM     12  C   UNL     1      -4.375 -21.536  49.708  1.00  0.00     0.202 C 
ATOM     13  O   UNL     1      -3.420 -23.136  47.917  1.00  0.00    -0.341 OA
ATOM     14  C   UNL     1      -3.409 -22.178  50.741  1.00  0.00     0.179 C 
ATOM     15  C   UNL     1      -2.342 -23.432  48.779  1.00  0.00     0.178 C 
ATOM     16  C   UNL     1      -2.758 -23.508  50.266  1.00  0.00     0.177 C 
BRANCH  12  17
ATOM     17  O   UNL     1      -5.709 -21.814  50.092  1.00  0.00    -0.385 OA
ATOM     18  H   UNL     1      -6.280 -21.097  49.701  1.00  0.00     0.211 HD
ENDBRANCH  12  17
BRANCH  14  19
ATOM     19  O   UNL     1      -2.447 -21.246  51.182  1.00  0.00    -0.387 OA
ATOM     20  H   UNL     1      -2.959 -20.496  51.556  1.00  0.00     0.211 HD
ENDBRANCH  14  19
BRANCH  15  21
ATOM     21  C   UNL     1      -1.715 -24.746  48.284  1.00  0.00     0.191 C 
BRANCH  21  22
ATOM     22  O   UNL     1      -1.264 -25.502  49.385  1.00  0.00    -0.394 OA
ATOM     23  H   UNL     1      -0.304 -25.694  49.222  1.00  0.00     0.210 HD
ENDBRANCH  21  22
ENDBRANCH  15  21
BRANCH  16  24
ATOM     24  O   UNL     1      -3.651 -24.577  50.459  1.00  0.00    -0.387 OA
ATOM     25  H   UNL     1      -4.570 -24.203  50.408  1.00  0.00     0.211 HD
ENDBRANCH  16  24
ENDBRANCH  10  11
ENDBRANCH   4  10
BRANCH   6  26
ATOM     26  O   UNL     1      -3.308 -21.885  42.783  1.00  0.00    -0.346 OA
BRANCH  26  27
ATOM     27  C   UNL     1      -2.274 -20.984  42.361  1.00  0.00     0.130 C 
ATOM     28  C   UNL     1      -1.506 -20.483  43.647  1.00  0.00     0.033 C 
ATOM     29  C   UNL     1      -1.394 -21.690  41.239  1.00  0.00     0.020 C 
ATOM     30  C   UNL     1       0.013 -20.107  43.513  1.00  0.00     0.010 C 
ATOM     31  C   UNL     1       0.021 -21.033  41.232  1.00  0.00     0.006 C 
ATOM     32  C   UNL     1      -2.097 -21.387  39.877  1.00  0.00     0.017 C 
ATOM     33  C   UNL     1       0.792 -21.096  42.600  1.00  0.00    -0.022 C 
ATOM     34  C   UNL     1       0.915 -21.278  40.004  1.00  0.00     0.005 C 
ATOM     35  C   UNL     1       0.740 -22.440  43.436  1.00  0.00     0.012 C 
ATOM     36  C   UNL     1       2.351 -20.752  42.358  1.00  0.00     0.024 C 
ATOM     37  C   UNL     1       2.027 -20.209  39.887  1.00  0.00     0.008 C 
ATOM     38  C   UNL     1       2.698 -19.671  41.242  1.00  0.00    -0.017 C 
ATOM     39  C   UNL     1       3.134 -22.022  41.921  1.00  0.00    -0.024 C 
ATOM     40  C   UNL     1       2.058 -18.293  41.565  1.00  0.00     0.013 C 
ATOM     41  C   UNL     1       4.344 -19.449  41.072  1.00  0.00     0.009 C 
ATOM     42  C   UNL     1       4.391 -21.944  41.487  1.00  0.00     0.005 C 
ATOM     43  C   UNL     1       5.122 -20.674  41.716  1.00  0.00     0.096 C 
ATOM     44  C   UNL     1       4.983 -18.200  41.806  1.00  0.00     0.043 C 
ATOM     45  C   UNL     1       4.639 -19.195  39.556  1.00  0.00     0.015 C 
ATOM     46  C   UNL     1       6.592 -20.783  41.344  1.00  0.00     0.037 C 
ATOM     47  O   UNL     1       5.168 -20.517  43.147  1.00  0.00    -0.369 OA
ATOM     48  C   UNL     1       6.564 -18.241  41.893  1.00  0.00     0.124 C 
ATOM     49  C   UNL     1       7.157 -19.688  42.214  1.00  0.00     0.026 C 
ATOM     50  C   UNL     1       7.208 -20.813  39.941  1.00  0.00     0.014 C 
ATOM     51  C   UNL     1       6.492 -20.124  43.513  1.00  0.00     0.171 C 
ATOM     52  C   UNL     1       8.727 -19.741  42.204  1.00  0.00     0.013 C 
ATOM     53  C   UNL     1       8.718 -21.234  40.034  1.00  0.00    -0.035 C 
ATOM     54  C   UNL     1       9.321 -20.970  41.465  1.00  0.00     0.007 C 
ATOM     55  C   UNL     1       8.834 -22.747  39.711  1.00  0.00     0.011 C 
ATOM     56  C   UNL     1       9.531 -20.459  38.980  1.00  0.00     0.011 C 
BRANCH  29  57
ATOM     57  C   UNL     1      -1.350 -23.259  41.383  1.00  0.00     0.165 C 
BRANCH  57  58
ATOM     58  O   UNL     1      -2.503 -23.880  40.901  1.00  0.00    -0.396 OA
ATOM     59  H   UNL     1      -2.293 -24.844  40.763  1.00  0.00     0.210 HD
ENDBRANCH  57  58
ENDBRANCH  29  57
BRANCH  48  60
ATOM     60  O   UNL     1       7.136 -17.713  40.722  1.00  0.00    -0.392 OA
ATOM     61  H   UNL     1       6.500 -17.051  40.340  1.00  0.00     0.210 HD
ENDBRANCH  48  60
ENDBRANCH  26  27
ENDBRANCH   6  26
BRANCH   5  62
ATOM     62  O   UNL     1      -3.631 -22.780  45.216  1.00  0.00    -0.385 OA
ATOM     63  H   UNL     1      -2.831 -22.205  45.333  1.00  0.00     0.211 HD
ENDBRANCH   5  62
TORSDOF 14
ENDMDL
MODEL 2
REMARK VINA RESULT:    -8.237      1.568      1.948
REMARK INTER + INTRA:         -14.331
REMARK INTER:                 -13.631
REMARK INTRA:                  -0.700
REMARK UNBOUND:                -1.279
REMARK SMILES C[C@H]1O[C@@H](O[C@H]2CC[C@@]3(C)[C@@H](CC[C@@]4(C)[C@@H]3C=C[C@@]35OC[C@]6(CCC(C)(C)C[C@@H]63)[C@@H](O)C[C@]45C)[C@@]2(C)CO)[C@@H](O)[C@@H](O[C@H]2O[C@H](CO)[C@H](O)[C@@H](O)[C@@H]2O)[C@@H]1O
REMARK SMILES IDX 1 1 2 2 54 3 41 4 39 5 4 6 3 7 55 8 42 10 43 11 52 12 44 13
REMARK SMILES IDX 50 14 45 15 48 16 53 17 51 19 46 21 47 22 49 24 5 26 6 27
REMARK SMILES IDX 7 28 35 29 8 30 11 31 36 32 9 33 12 34 10 35 16 36 13 37
REMARK SMILES IDX 14 38 17 39 15 40 33 41 18 42 19 43 32 44 34 45 29 46 20 47
REMARK SMILES IDX 30 48 22 49 28 50 21 51 23 52 25 53 24 54 26 55 27 56 37 57
REMARK SMILES IDX 38 58 31 60 40 62
REMARK H PARENT 55 9 53 18 51 20 47 23 49 25 38 59 31 61 40 63
REMARK Flexibility Score: inf
ROOT
ATOM      1  C   UNL     1      -4.694 -17.509  43.880  1.00  0.00     0.041 C 
ATOM      2  C   UNL     1      -5.021 -18.989  44.099  1.00  0.00     0.150 C 
ATOM      3  C   UNL     1      -5.089 -19.335  45.612  1.00  0.00     0.175 C 
ATOM      4  C   UNL     1      -4.804 -20.850  45.854  1.00  0.00     0.186 C 
ATOM      5  C   UNL     1      -4.787 -21.786  44.601  1.00  0.00     0.202 C 
ATOM      6  C   UNL     1      -4.521 -21.088  43.219  1.00  0.00     0.282 C 
ATOM      7  O   UNL     1      -4.049 -19.771  43.435  1.00  0.00    -0.344 OA
ENDROOT
BRANCH   3   8
ATOM      8  O   UNL     1      -6.375 -19.022  46.092  1.00  0.00    -0.388 OA
ATOM      9  H   UNL     1      -6.674 -18.209  45.605  1.00  0.00     0.211 HD
ENDBRANCH   3   8
BRANCH   4  10
ATOM     10  O   UNL     1      -3.871 -21.174  46.902  1.00  0.00    -0.341 OA
BRANCH  10  11
ATOM     11  C   UNL     1      -4.134 -22.133  47.939  1.00  0.00     0.282 C 
ATOM     12  C   UNL     1      -4.323 -21.749  49.465  1.00  0.00     0.202 C 
ATOM     13  O   UNL     1      -3.589 -23.406  47.622  1.00  0.00    -0.341 OA
ATOM     14  C   UNL     1      -3.472 -22.559  50.479  1.00  0.00     0.179 C 
ATOM     15  C   UNL     1      -2.575 -23.886  48.480  1.00  0.00     0.178 C 
ATOM     16  C   UNL     1      -3.014 -23.952  49.961  1.00  0.00     0.177 C 
BRANCH  12  17
ATOM     17  O   UNL     1      -5.689 -21.844  49.830  1.00  0.00    -0.385 OA
ATOM     18  H   UNL     1      -5.735 -22.428  50.635  1.00  0.00     0.211 HD
ENDBRANCH  12  17
BRANCH  14  19
ATOM     19  O   UNL     1      -2.390 -21.792  50.959  1.00  0.00    -0.387 OA
ATOM     20  H   UNL     1      -1.710 -21.825  50.251  1.00  0.00     0.211 HD
ENDBRANCH  14  19
BRANCH  15  21
ATOM     21  C   UNL     1      -2.138 -25.258  47.942  1.00  0.00     0.191 C 
BRANCH  21  22
ATOM     22  O   UNL     1      -1.476 -25.978  48.956  1.00  0.00    -0.394 OA
ATOM     23  H   UNL     1      -0.635 -26.322  48.557  1.00  0.00     0.210 HD
ENDBRANCH  21  22
ENDBRANCH  15  21
BRANCH  16  24
ATOM     24  O   UNL     1      -4.054 -24.887  50.110  1.00  0.00    -0.387 OA
ATOM     25  H   UNL     1      -4.267 -25.235  49.204  1.00  0.00     0.211 HD
ENDBRANCH  16  24
ENDBRANCH  10  11
ENDBRANCH   4  10
BRANCH   6  26
ATOM     26  O   UNL     1      -3.519 -21.785  42.470  1.00  0.00    -0.346 OA
BRANCH  26  27
ATOM     27  C   UNL     1      -2.255 -21.133  42.284  1.00  0.00     0.130 C 
ATOM     28  C   UNL     1      -1.795 -20.549  43.677  1.00  0.00     0.033 C 
ATOM     29  C   UNL     1      -1.250 -22.139  41.570  1.00  0.00     0.020 C 
ATOM     30  C   UNL     1      -0.256 -20.434  43.969  1.00  0.00     0.010 C 
ATOM     31  C   UNL     1       0.210 -21.714  41.919  1.00  0.00     0.006 C 
ATOM     32  C   UNL     1      -1.473 -21.962  40.033  1.00  0.00     0.017 C 
ATOM     33  C   UNL     1       0.540 -21.667  43.454  1.00  0.00    -0.022 C 
ATOM     34  C   UNL     1       1.346 -22.291  41.057  1.00  0.00     0.005 C 
ATOM     35  C   UNL     1      -0.002 -22.831  44.381  1.00  0.00     0.012 C 
ATOM     36  C   UNL     1       2.140 -21.608  43.661  1.00  0.00     0.024 C 
ATOM     37  C   UNL     1       2.631 -21.436  41.163  1.00  0.00     0.008 C 
ATOM     38  C   UNL     1       2.988 -20.790  42.589  1.00  0.00    -0.017 C 
ATOM     39  C   UNL     1       2.754 -23.036  43.628  1.00  0.00    -0.024 C 
ATOM     40  C   UNL     1       2.562 -19.298  42.544  1.00  0.00     0.013 C 
ATOM     41  C   UNL     1       4.627 -20.851  42.902  1.00  0.00     0.009 C 
ATOM     42  C   UNL     1       4.073 -23.222  43.592  1.00  0.00     0.005 C 
ATOM     43  C   UNL     1       4.942 -22.056  43.887  1.00  0.00     0.096 C 
ATOM     44  C   UNL     1       5.264 -19.609  43.650  1.00  0.00     0.043 C 
ATOM     45  C   UNL     1       5.377 -20.898  41.530  1.00  0.00     0.015 C 
ATOM     46  C   UNL     1       6.407 -22.447  43.994  1.00  0.00     0.037 C 
ATOM     47  O   UNL     1       4.616 -21.674  45.237  1.00  0.00    -0.369 OA
ATOM     48  C   UNL     1       6.719 -19.875  44.218  1.00  0.00     0.124 C 
ATOM     49  C   UNL     1       6.907 -21.322  44.865  1.00  0.00     0.026 C 
ATOM     50  C   UNL     1       7.372 -22.801  42.858  1.00  0.00     0.014 C 
ATOM     51  C   UNL     1       5.835 -21.431  45.941  1.00  0.00     0.171 C 
ATOM     52  C   UNL     1       8.377 -21.612  45.339  1.00  0.00     0.013 C 
ATOM     53  C   UNL     1       8.685 -23.424  43.452  1.00  0.00    -0.035 C 
ATOM     54  C   UNL     1       8.904 -23.022  44.960  1.00  0.00     0.007 C 
ATOM     55  C   UNL     1       8.593 -24.969  43.352  1.00  0.00     0.011 C 
ATOM     56  C   UNL     1       9.894 -22.966  42.615  1.00  0.00     0.011 C 
BRANCH  29  57
ATOM     57  C   UNL     1      -1.552 -23.651  41.896  1.00  0.00     0.165 C 
BRANCH  57  58
ATOM     58  O   UNL     1      -2.610 -24.167  41.147  1.00  0.00    -0.396 OA
ATOM     59  H   UNL     1      -2.237 -24.502  40.286  1.00  0.00     0.210 HD
ENDBRANCH  57  58
ENDBRANCH  29  57
BRANCH  48  60
ATOM     60  O   UNL     1       7.686 -19.640  43.224  1.00  0.00    -0.392 OA
ATOM     61  H   UNL     1       7.747 -20.453  42.655  1.00  0.00     0.210 HD
ENDBRANCH  48  60
ENDBRANCH  26  27
ENDBRANCH   6  26
BRANCH   5  62
ATOM     62  O   UNL     1      -3.889 -22.823  44.839  1.00  0.00    -0.385 OA
ATOM     63  H   UNL     1      -4.054 -23.514  44.146  1.00  0.00     0.211 HD
ENDBRANCH   5  62
TORSDOF 14
ENDMDL
MODEL 3
REMARK VINA RESULT:    -7.968      2.627     11.339
REMARK INTER + INTRA:         -13.905
REMARK INTER:                 -11.522
REMARK INTRA:                  -2.383
REMARK UNBOUND:                -1.279
REMARK SMILES C[C@H]1O[C@@H](O[C@H]2CC[C@@]3(C)[C@@H](CC[C@@]4(C)[C@@H]3C=C[C@@]35OC[C@]6(CCC(C)(C)C[C@@H]63)[C@@H](O)C[C@]45C)[C@@]2(C)CO)[C@@H](O)[C@@H](O[C@H]2O[C@H](CO)[C@H](O)[C@@H](O)[C@@H]2O)[C@@H]1O
REMARK SMILES IDX 1 1 2 2 54 3 41 4 39 5 4 6 3 7 55 8 42 10 43 11 52 12 44 13
REMARK SMILES IDX 50 14 45 15 48 16 53 17 51 19 46 21 47 22 49 24 5 26 6 27
REMARK SMILES IDX 7 28 35 29 8 30 11 31 36 32 9 33 12 34 10 35 16 36 13 37
REMARK SMILES IDX 14 38 17 39 15 40 33 41 18 42 19 43 32 44 34 45 29 46 20 47
REMARK SMILES IDX 30 48 22 49 28 50 21 51 23 52 25 53 24 54 26 55 27 56 37 57
REMARK SMILES IDX 38 58 31 60 40 62
REMARK H PARENT 55 9 53 18 51 20 47 23 49 25 38 59 31 61 40 63
REMARK Flexibility Score: inf
ROOT
ATOM      1  C   UNL     1       6.590 -22.601  44.011  1.00  0.00     0.041 C 
ATOM      2  C   UNL     1       6.563 -22.639  42.480  1.00  0.00     0.150 C 
ATOM      3  C   UNL     1       7.884 -22.085  41.878  1.00  0.00     0.175 C 
ATOM      4  C   UNL     1       7.658 -21.549  40.430  1.00  0.00     0.186 C 
ATOM      5  C   UNL     1       6.297 -21.896  39.741  1.00  0.00     0.202 C 
ATOM      6  C   UNL     1       5.108 -22.261  40.700  1.00  0.00     0.282 C 
ATOM      7  O   UNL     1       5.443 -21.905  42.029  1.00  0.00    -0.344 OA
ENDROOT
BRANCH   3   8
ATOM      8  O   UNL     1       8.837 -23.121  41.846  1.00  0.00    -0.388 OA
ATOM      9  H   UNL     1       8.778 -23.594  42.718  1.00  0.00     0.211 HD
ENDBRANCH   3   8
BRANCH   4  10
ATOM     10  O   UNL     1       8.214 -20.257  40.125  1.00  0.00    -0.341 OA
BRANCH  10  11
ATOM     11  C   UNL     1       7.861 -19.050  40.819  1.00  0.00     0.282 C 
ATOM     12  C   UNL     1       7.782 -18.934  42.397  1.00  0.00     0.202 C 
ATOM     13  O   UNL     1       7.007 -18.228  40.035  1.00  0.00    -0.341 OA
ATOM     14  C   UNL     1       6.478 -18.314  42.968  1.00  0.00     0.179 C 
ATOM     15  C   UNL     1       5.709 -18.005  40.545  1.00  0.00     0.178 C 
ATOM     16  C   UNL     1       5.713 -17.402  41.968  1.00  0.00     0.177 C 
BRANCH  12  17
ATOM     17  O   UNL     1       8.892 -18.207  42.893  1.00  0.00    -0.385 OA
ATOM     18  H   UNL     1       9.547 -18.874  43.236  1.00  0.00     0.211 HD
ENDBRANCH  12  17
BRANCH  14  19
ATOM     19  O   UNL     1       5.644 -19.310  43.521  1.00  0.00    -0.387 OA
ATOM     20  H   UNL     1       5.217 -18.891  44.300  1.00  0.00     0.211 HD
ENDBRANCH  14  19
BRANCH  15  21
ATOM     21  C   UNL     1       4.975 -17.107  39.536  1.00  0.00     0.191 C 
BRANCH  21  22
ATOM     22  O   UNL     1       4.137 -16.206  40.223  1.00  0.00    -0.394 OA
ATOM     23  H   UNL     1       3.240 -16.278  39.805  1.00  0.00     0.210 HD
ENDBRANCH  21  22
ENDBRANCH  15  21
BRANCH  16  24
ATOM     24  O   UNL     1       6.292 -16.121  41.944  1.00  0.00    -0.387 OA
ATOM     25  H   UNL     1       6.479 -15.867  42.886  1.00  0.00     0.211 HD
ENDBRANCH  16  24
ENDBRANCH  10  11
ENDBRANCH   4  10
BRANCH   6  26
ATOM     26  O   UNL     1       3.920 -21.541  40.350  1.00  0.00    -0.346 OA
BRANCH  26  27
ATOM     27  C   UNL     1       2.662 -22.100  40.754  1.00  0.00     0.130 C 
ATOM     28  C   UNL     1       2.954 -23.371  41.646  1.00  0.00     0.033 C 
ATOM     29  C   UNL     1       1.773 -20.959  41.416  1.00  0.00     0.020 C 
ATOM     30  C   UNL     1       1.920 -23.753  42.764  1.00  0.00     0.010 C 
ATOM     31  C   UNL     1       0.743 -21.626  42.379  1.00  0.00     0.006 C 
ATOM     32  C   UNL     1       0.998 -20.274  40.245  1.00  0.00     0.017 C 
ATOM     33  C   UNL     1       1.371 -22.508  43.517  1.00  0.00    -0.022 C 
ATOM     34  C   UNL     1      -0.456 -20.779  42.840  1.00  0.00     0.005 C 
ATOM     35  C   UNL     1       2.659 -21.972  44.267  1.00  0.00     0.012 C 
ATOM     36  C   UNL     1       0.257 -22.804  44.648  1.00  0.00     0.024 C 
ATOM     37  C   UNL     1      -1.618 -21.665  43.346  1.00  0.00     0.008 C 
ATOM     38  C   UNL     1      -1.247 -22.997  44.162  1.00  0.00    -0.017 C 
ATOM     39  C   UNL     1       0.184 -21.634  45.670  1.00  0.00    -0.024 C 
ATOM     40  C   UNL     1      -1.381 -24.196  43.185  1.00  0.00     0.013 C 
ATOM     41  C   UNL     1      -2.293 -23.251  45.439  1.00  0.00     0.009 C 
ATOM     42  C   UNL     1      -0.786 -21.570  46.580  1.00  0.00     0.005 C 
ATOM     43  C   UNL     1      -1.612 -22.783  46.795  1.00  0.00     0.096 C 
ATOM     44  C   UNL     1      -2.702 -24.749  45.748  1.00  0.00     0.043 C 
ATOM     45  C   UNL     1      -3.648 -22.548  45.096  1.00  0.00     0.015 C 
ATOM     46  C   UNL     1      -2.551 -22.635  47.980  1.00  0.00     0.037 C 
ATOM     47  O   UNL     1      -0.689 -23.793  47.244  1.00  0.00    -0.369 OA
ATOM     48  C   UNL     1      -3.401 -24.950  47.155  1.00  0.00     0.124 C 
ATOM     49  C   UNL     1      -2.750 -24.088  48.331  1.00  0.00     0.026 C 
ATOM     50  C   UNL     1      -3.843 -21.816  48.061  1.00  0.00     0.014 C 
ATOM     51  C   UNL     1      -1.278 -24.476  48.354  1.00  0.00     0.171 C 
ATOM     52  C   UNL     1      -3.508 -24.220  49.701  1.00  0.00     0.013 C 
ATOM     53  C   UNL     1      -4.316 -21.717  49.555  1.00  0.00    -0.035 C 
ATOM     54  C   UNL     1      -3.722 -22.874  50.445  1.00  0.00     0.007 C 
ATOM     55  C   UNL     1      -3.857 -20.353  50.133  1.00  0.00     0.011 C 
ATOM     56  C   UNL     1      -5.855 -21.763  49.610  1.00  0.00     0.011 C 
BRANCH  29  57
ATOM     57  C   UNL     1       2.629 -19.830  42.107  1.00  0.00     0.165 C 
BRANCH  57  58
ATOM     58  O   UNL     1       2.492 -18.588  41.486  1.00  0.00    -0.396 OA
ATOM     59  H   UNL     1       1.520 -18.425  41.345  1.00  0.00     0.210 HD
ENDBRANCH  57  58
ENDBRANCH  29  57
BRANCH  48  60
ATOM     60  O   UNL     1      -4.782 -24.703  47.058  1.00  0.00    -0.392 OA
ATOM     61  H   UNL     1      -4.959 -23.794  47.421  1.00  0.00     0.210 HD
ENDBRANCH  48  60
ENDBRANCH  26  27
ENDBRANCH   6  26
BRANCH   5  62
ATOM     62  O   UNL     1       5.965 -20.856  38.876  1.00  0.00    -0.385 OA
ATOM     63  H   UNL     1       5.788 -20.058  39.438  1.00  0.00     0.211 HD
ENDBRANCH   5  62
TORSDOF 14
ENDMDL
MODEL 4
REMARK VINA RESULT:    -7.834      1.557      2.857
REMARK INTER + INTRA:         -13.692
REMARK INTER:                 -12.186
REMARK INTRA:                  -1.506
REMARK UNBOUND:                -1.279
REMARK SMILES C[C@H]1O[C@@H](O[C@H]2CC[C@@]3(C)[C@@H](CC[C@@]4(C)[C@@H]3C=C[C@@]35OC[C@]6(CCC(C)(C)C[C@@H]63)[C@@H](O)C[C@]45C)[C@@]2(C)CO)[C@@H](O)[C@@H](O[C@H]2O[C@H](CO)[C@H](O)[C@@H](O)[C@@H]2O)[C@@H]1O
REMARK SMILES IDX 1 1 2 2 54 3 41 4 39 5 4 6 3 7 55 8 42 10 43 11 52 12 44 13
REMARK SMILES IDX 50 14 45 15 48 16 53 17 51 19 46 21 47 22 49 24 5 26 6 27
REMARK SMILES IDX 7 28 35 29 8 30 11 31 36 32 9 33 12 34 10 35 16 36 13 37
REMARK SMILES IDX 14 38 17 39 15 40 33 41 18 42 19 43 32 44 34 45 29 46 20 47
REMARK SMILES IDX 30 48 22 49 28 50 21 51 23 52 25 53 24 54 26 55 27 56 37 57
REMARK SMILES IDX 38 58 31 60 40 62
REMARK H PARENT 55 9 53 18 51 20 47 23 49 25 38 59 31 61 40 63
REMARK Flexibility Score: inf
ROOT
ATOM      1  C   UNL     1      -2.983 -18.671  44.594  1.00  0.00     0.041 C 
ATOM      2  C   UNL     1      -3.820 -19.931  44.355  1.00  0.00     0.150 C 
ATOM      3  C   UNL     1      -4.783 -20.204  45.544  1.00  0.00     0.175 C 
ATOM      4  C   UNL     1      -5.160 -21.716  45.624  1.00  0.00     0.186 C 
ATOM      5  C   UNL     1      -4.776 -22.616  44.404  1.00  0.00     0.202 C 
ATOM      6  C   UNL     1      -3.616 -22.084  43.488  1.00  0.00     0.282 C 
ATOM      7  O   UNL     1      -2.946 -21.020  44.139  1.00  0.00    -0.344 OA
ENDROOT
BRANCH   3   8
ATOM      8  O   UNL     1      -5.954 -19.442  45.364  1.00  0.00    -0.388 OA
ATOM      9  H   UNL     1      -5.739 -18.514  45.647  1.00  0.00     0.211 HD
ENDBRANCH   3   8
BRANCH   4  10
ATOM     10  O   UNL     1      -5.080 -22.335  46.921  1.00  0.00    -0.341 OA
BRANCH  10  11
ATOM     11  C   UNL     1      -3.962 -22.186  47.811  1.00  0.00     0.282 C 
ATOM     12  C   UNL     1      -2.960 -23.360  48.168  1.00  0.00     0.202 C 
ATOM     13  O   UNL     1      -4.200 -21.178  48.784  1.00  0.00    -0.341 OA
ATOM     14  C   UNL     1      -2.697 -23.592  49.680  1.00  0.00     0.179 C 
ATOM     15  C   UNL     1      -4.246 -21.603  50.130  1.00  0.00     0.178 C 
ATOM     16  C   UNL     1      -2.967 -22.349  50.574  1.00  0.00     0.177 C 
BRANCH  12  17
ATOM     17  O   UNL     1      -1.721 -23.166  47.510  1.00  0.00    -0.385 OA
ATOM     18  H   UNL     1      -1.828 -23.507  46.580  1.00  0.00     0.211 HD
ENDBRANCH  12  17
BRANCH  14  19
ATOM     19  O   UNL     1      -3.381 -24.736  50.143  1.00  0.00    -0.387 OA
ATOM     20  H   UNL     1      -4.270 -24.697  49.728  1.00  0.00     0.211 HD
ENDBRANCH  14  19
BRANCH  15  21
ATOM     21  C   UNL     1      -4.520 -20.357  50.988  1.00  0.00     0.191 C 
BRANCH  21  22
ATOM     22  O   UNL     1      -3.763 -19.271  50.504  1.00  0.00    -0.394 OA
ATOM     23  H   UNL     1      -3.461 -19.520  49.592  1.00  0.00     0.210 HD
ENDBRANCH  21  22
ENDBRANCH  15  21
BRANCH  16  24
ATOM     24  O   UNL     1      -1.866 -21.476  50.532  1.00  0.00    -0.387 OA
ATOM     25  H   UNL     1      -1.555 -21.442  49.589  1.00  0.00     0.211 HD
ENDBRANCH  16  24
ENDBRANCH  10  11
ENDBRANCH   4  10
BRANCH   6  26
ATOM     26  O   UNL     1      -2.647 -23.107  43.230  1.00  0.00    -0.346 OA
BRANCH  26  27
ATOM     27  C   UNL     1      -1.590 -22.803  42.309  1.00  0.00     0.130 C 
ATOM     28  C   UNL     1      -1.665 -21.263  41.967  1.00  0.00     0.033 C 
ATOM     29  C   UNL     1      -0.213 -23.331  42.905  1.00  0.00     0.020 C 
ATOM     30  C   UNL     1      -0.334 -20.511  41.609  1.00  0.00     0.010 C 
ATOM     31  C   UNL     1       0.950 -22.500  42.280  1.00  0.00     0.006 C 
ATOM     32  C   UNL     1      -0.077 -24.817  42.442  1.00  0.00     0.017 C 
ATOM     33  C   UNL     1       0.857 -20.949  42.507  1.00  0.00    -0.022 C 
ATOM     34  C   UNL     1       2.377 -23.062  42.407  1.00  0.00     0.005 C 
ATOM     35  C   UNL     1       0.417 -20.418  43.933  1.00  0.00     0.012 C 
ATOM     36  C   UNL     1       2.281 -20.267  42.170  1.00  0.00     0.024 C 
ATOM     37  C   UNL     1       3.327 -22.445  41.354  1.00  0.00     0.008 C 
ATOM     38  C   UNL     1       3.132 -20.896  40.981  1.00  0.00    -0.017 C 
ATOM     39  C   UNL     1       3.230 -20.335  43.400  1.00  0.00    -0.024 C 
ATOM     40  C   UNL     1       2.361 -20.834  39.634  1.00  0.00     0.013 C 
ATOM     41  C   UNL     1       4.596 -20.120  40.774  1.00  0.00     0.009 C 
ATOM     42  C   UNL     1       4.517 -20.004  43.300  1.00  0.00     0.005 C 
ATOM     43  C   UNL     1       4.951 -19.286  42.077  1.00  0.00     0.096 C 
ATOM     44  C   UNL     1       4.680 -19.034  39.625  1.00  0.00     0.043 C 
ATOM     45  C   UNL     1       5.655 -21.196  40.362  1.00  0.00     0.015 C 
ATOM     46  C   UNL     1       6.391 -18.808  42.174  1.00  0.00     0.037 C 
ATOM     47  O   UNL     1       4.206 -18.053  42.078  1.00  0.00    -0.369 OA
ATOM     48  C   UNL     1       5.960 -18.105  39.707  1.00  0.00     0.124 C 
ATOM     49  C   UNL     1       6.346 -17.664  41.192  1.00  0.00     0.026 C 
ATOM     50  C   UNL     1       7.670 -19.644  42.063  1.00  0.00     0.014 C 
ATOM     51  C   UNL     1       5.102 -16.988  41.753  1.00  0.00     0.171 C 
ATOM     52  C   UNL     1       7.671 -16.823  41.274  1.00  0.00     0.013 C 
ATOM     53  C   UNL     1       8.904 -18.788  42.521  1.00  0.00    -0.035 C 
ATOM     54  C   UNL     1       8.623 -17.241  42.428  1.00  0.00     0.007 C 
ATOM     55  C   UNL     1       9.242 -19.149  43.992  1.00  0.00     0.011 C 
ATOM     56  C   UNL     1      10.125 -19.144  41.652  1.00  0.00     0.011 C 
BRANCH  29  57
ATOM     57  C   UNL     1      -0.186 -23.348  44.481  1.00  0.00     0.165 C 
BRANCH  57  58
ATOM     58  O   UNL     1      -1.009 -24.334  45.027  1.00  0.00    -0.396 OA
ATOM     59  H   UNL     1      -1.928 -23.957  45.098  1.00  0.00     0.210 HD
ENDBRANCH  57  58
ENDBRANCH  29  57
BRANCH  48  60
ATOM     60  O   UNL     1       7.053 -18.716  39.066  1.00  0.00    -0.392 OA
ATOM     61  H   UNL     1       7.452 -18.054  38.441  1.00  0.00     0.210 HD
ENDBRANCH  48  60
ENDBRANCH  26  27
ENDBRANCH   6  26
BRANCH   5  62
ATOM     62  O   UNL     1      -4.518 -23.902  44.872  1.00  0.00    -0.385 OA
ATOM     63  H   UNL     1      -4.738 -23.908  45.839  1.00  0.00     0.211 HD
ENDBRANCH   5  62
TORSDOF 14
ENDMDL
MODEL 5
REMARK VINA RESULT:    -7.661      3.237      5.505
REMARK INTER + INTRA:         -13.418
REMARK INTER:                 -10.602
REMARK INTRA:                  -2.816
REMARK UNBOUND:                -1.279
REMARK SMILES C[C@H]1O[C@@H](O[C@H]2CC[C@@]3(C)[C@@H](CC[C@@]4(C)[C@@H]3C=C[C@@]35OC[C@]6(CCC(C)(C)C[C@@H]63)[C@@H](O)C[C@]45C)[C@@]2(C)CO)[C@@H](O)[C@@H](O[C@H]2O[C@H](CO)[C@H](O)[C@@H](O)[C@@H]2O)[C@@H]1O
REMARK SMILES IDX 1 1 2 2 54 3 41 4 39 5 4 6 3 7 55 8 42 10 43 11 52 12 44 13
REMARK SMILES IDX 50 14 45 15 48 16 53 17 51 19 46 21 47 22 49 24 5 26 6 27
REMARK SMILES IDX 7 28 35 29 8 30 11 31 36 32 9 33 12 34 10 35 16 36 13 37
REMARK SMILES IDX 14 38 17 39 15 40 33 41 18 42 19 43 32 44 34 45 29 46 20 47
REMARK SMILES IDX 30 48 22 49 28 50 21 51 23 52 25 53 24 54 26 55 27 56 37 57
REMARK SMILES IDX 38 58 31 60 40 62
REMARK H PARENT 55 9 53 18 51 20 47 23 49 25 38 59 31 61 40 63
REMARK Flexibility Score: inf
ROOT
ATOM      1  C   UNL     1      -7.181 -21.835  39.252  1.00  0.00     0.041 C 
ATOM      2  C   UNL     1      -6.673 -22.058  40.680  1.00  0.00     0.150 C 
ATOM      3  C   UNL     1      -7.799 -21.821  41.724  1.00  0.00     0.175 C 
ATOM      4  C   UNL     1      -7.202 -21.438  43.114  1.00  0.00     0.186 C 
ATOM      5  C   UNL     1      -5.661 -21.624  43.310  1.00  0.00     0.202 C 
ATOM      6  C   UNL     1      -4.795 -21.654  42.000  1.00  0.00     0.282 C 
ATOM      7  O   UNL     1      -5.572 -21.201  40.906  1.00  0.00    -0.344 OA
ENDROOT
BRANCH   3   8
ATOM      8  O   UNL     1      -8.553 -23.004  41.853  1.00  0.00    -0.388 OA
ATOM      9  H   UNL     1      -7.963 -23.753  41.573  1.00  0.00     0.211 HD
ENDBRANCH   3   8
BRANCH   4  10
ATOM     10  O   UNL     1      -7.796 -20.310  43.784  1.00  0.00    -0.341 OA
BRANCH  10  11
ATOM     11  C   UNL     1      -7.722 -18.960  43.296  1.00  0.00     0.282 C 
ATOM     12  C   UNL     1      -8.245 -18.510  41.870  1.00  0.00     0.202 C 
ATOM     13  O   UNL     1      -6.628 -18.258  43.871  1.00  0.00    -0.341 OA
ATOM     14  C   UNL     1      -7.249 -17.685  41.011  1.00  0.00     0.179 C 
ATOM     15  C   UNL     1      -5.618 -17.833  42.980  1.00  0.00     0.178 C 
ATOM     16  C   UNL     1      -6.154 -16.947  41.833  1.00  0.00     0.177 C 
BRANCH  12  17
ATOM     17  O   UNL     1      -9.454 -17.783  41.998  1.00  0.00    -0.385 OA
ATOM     18  H   UNL     1     -10.123 -18.223  41.406  1.00  0.00     0.211 HD
ENDBRANCH  12  17
BRANCH  14  19
ATOM     19  O   UNL     1      -6.695 -18.475  39.982  1.00  0.00    -0.387 OA
ATOM     20  H   UNL     1      -7.251 -19.284  39.942  1.00  0.00     0.211 HD
ENDBRANCH  14  19
BRANCH  15  21
ATOM     21  C   UNL     1      -4.549 -17.114  43.819  1.00  0.00     0.191 C 
BRANCH  21  22
ATOM     22  O   UNL     1      -4.288 -17.852  44.991  1.00  0.00    -0.394 OA
ATOM     23  H   UNL     1      -3.901 -18.719  44.699  1.00  0.00     0.210 HD
ENDBRANCH  21  22
ENDBRANCH  15  21
BRANCH  16  24
ATOM     24  O   UNL     1      -6.671 -15.749  42.356  1.00  0.00    -0.387 OA
ATOM     25  H   UNL     1      -7.469 -15.986  42.899  1.00  0.00     0.211 HD
ENDBRANCH  16  24
ENDBRANCH  10  11
ENDBRANCH   4  10
BRANCH   6  26
ATOM     26  O   UNL     1      -3.660 -20.787  42.108  1.00  0.00    -0.346 OA
BRANCH  26  27
ATOM     27  C   UNL     1      -2.379 -21.321  41.744  1.00  0.00     0.130 C 
ATOM     28  C   UNL     1      -2.003 -20.762  40.316  1.00  0.00     0.033 C 
ATOM     29  C   UNL     1      -1.343 -21.032  42.916  1.00  0.00     0.020 C 
ATOM     30  C   UNL     1      -0.485 -20.564  39.967  1.00  0.00     0.010 C 
ATOM     31  C   UNL     1       0.097 -21.023  42.314  1.00  0.00     0.006 C 
ATOM     32  C   UNL     1      -1.465 -22.227  43.914  1.00  0.00     0.017 C 
ATOM     33  C   UNL     1       0.329 -19.985  41.158  1.00  0.00    -0.022 C 
ATOM     34  C   UNL     1       1.279 -21.139  43.292  1.00  0.00     0.005 C 
ATOM     35  C   UNL     1      -0.284 -18.532  41.311  1.00  0.00     0.012 C 
ATOM     36  C   UNL     1       1.913 -19.802  40.906  1.00  0.00     0.024 C 
ATOM     37  C   UNL     1       2.565 -21.617  42.576  1.00  0.00     0.008 C 
ATOM     38  C   UNL     1       2.837 -21.086  41.085  1.00  0.00    -0.017 C 
ATOM     39  C   UNL     1       2.512 -18.758  41.891  1.00  0.00    -0.024 C 
ATOM     40  C   UNL     1       2.432 -22.220  40.105  1.00  0.00     0.013 C 
ATOM     41  C   UNL     1       4.451 -20.741  40.837  1.00  0.00     0.009 C 
ATOM     42  C   UNL     1       3.828 -18.579  41.995  1.00  0.00     0.005 C 
ATOM     43  C   UNL     1       4.689 -19.175  40.944  1.00  0.00     0.096 C 
ATOM     44  C   UNL     1       5.053 -21.093  39.416  1.00  0.00     0.043 C 
ATOM     45  C   UNL     1       5.287 -21.612  41.833  1.00  0.00     0.015 C 
ATOM     46  C   UNL     1       6.140 -18.742  41.080  1.00  0.00     0.037 C 
ATOM     47  O   UNL     1       4.282 -18.541  39.717  1.00  0.00    -0.369 OA
ATOM     48  C   UNL     1       6.466 -20.435  39.132  1.00  0.00     0.124 C 
ATOM     49  C   UNL     1       6.596 -18.931  39.654  1.00  0.00     0.026 C 
ATOM     50  C   UNL     1       7.172 -19.217  42.108  1.00  0.00     0.014 C 
ATOM     51  C   UNL     1       5.457 -18.169  38.993  1.00  0.00     0.171 C 
ATOM     52  C   UNL     1       8.029 -18.319  39.456  1.00  0.00     0.013 C 
ATOM     53  C   UNL     1       8.437 -18.288  42.057  1.00  0.00    -0.035 C 
ATOM     54  C   UNL     1       8.564 -17.531  40.682  1.00  0.00     0.007 C 
ATOM     55  C   UNL     1       8.334 -17.242  43.199  1.00  0.00     0.011 C 
ATOM     56  C   UNL     1       9.702 -19.132  42.300  1.00  0.00     0.011 C 
BRANCH  29  57
ATOM     57  C   UNL     1      -1.682 -19.728  43.734  1.00  0.00     0.165 C 
BRANCH  57  58
ATOM     58  O   UNL     1      -2.504 -19.976  44.833  1.00  0.00    -0.396 OA
ATOM     59  H   UNL     1      -2.523 -20.961  44.982  1.00  0.00     0.210 HD
ENDBRANCH  57  58
ENDBRANCH  29  57
BRANCH  48  60
ATOM     60  O   UNL     1       7.497 -21.237  39.652  1.00  0.00    -0.392 OA
ATOM     61  H   UNL     1       7.676 -20.943  40.585  1.00  0.00     0.210 HD
ENDBRANCH  48  60
ENDBRANCH  26  27
ENDBRANCH   6  26
BRANCH   5  62
ATOM     62  O   UNL     1      -5.212 -20.657  44.206  1.00  0.00    -0.385 OA
ATOM     63  H   UNL     1      -4.231 -20.777  44.293  1.00  0.00     0.211 HD
ENDBRANCH   5  62
TORSDOF 14
ENDMDL
MODEL 6
REMARK VINA RESULT:    -7.557      1.333      2.433
REMARK INTER + INTRA:         -13.253
REMARK INTER:                 -13.430
REMARK INTRA:                   0.177
REMARK UNBOUND:                -1.279
REMARK SMILES C[C@H]1O[C@@H](O[C@H]2CC[C@@]3(C)[C@@H](CC[C@@]4(C)[C@@H]3C=C[C@@]35OC[C@]6(CCC(C)(C)C[C@@H]63)[C@@H](O)C[C@]45C)[C@@]2(C)CO)[C@@H](O)[C@@H](O[C@H]2O[C@H](CO)[C@H](O)[C@@H](O)[C@@H]2O)[C@@H]1O
REMARK SMILES IDX 1 1 2 2 54 3 41 4 39 5 4 6 3 7 55 8 42 10 43 11 52 12 44 13
REMARK SMILES IDX 50 14 45 15 48 16 53 17 51 19 46 21 47 22 49 24 5 26 6 27
REMARK SMILES IDX 7 28 35 29 8 30 11 31 36 32 9 33 12 34 10 35 16 36 13 37
REMARK SMILES IDX 14 38 17 39 15 40 33 41 18 42 19 43 32 44 34 45 29 46 20 47
REMARK SMILES IDX 30 48 22 49 28 50 21 51 23 52 25 53 24 54 26 55 27 56 37 57
REMARK SMILES IDX 38 58 31 60 40 62
REMARK H PARENT 55 9 53 18 51 20 47 23 49 25 38 59 31 61 40 63
REMARK Flexibility Score: inf
ROOT
ATOM      1  C   UNL     1      -5.817 -17.746  43.935  1.00  0.00     0.041 C 
ATOM      2  C   UNL     1      -5.857 -19.270  44.084  1.00  0.00     0.150 C 
ATOM      3  C   UNL     1      -5.813 -19.693  45.578  1.00  0.00     0.175 C 
ATOM      4  C   UNL     1      -5.245 -21.138  45.735  1.00  0.00     0.186 C 
ATOM      5  C   UNL     1      -5.092 -21.994  44.434  1.00  0.00     0.202 C 
ATOM      6  C   UNL     1      -5.002 -21.195  43.086  1.00  0.00     0.282 C 
ATOM      7  O   UNL     1      -4.777 -19.823  43.360  1.00  0.00    -0.344 OA
ENDROOT
BRANCH   3   8
ATOM      8  O   UNL     1      -7.120 -19.650  46.100  1.00  0.00    -0.388 OA
ATOM      9  H   UNL     1      -7.280 -20.522  46.550  1.00  0.00     0.211 HD
ENDBRANCH   3   8
BRANCH   4  10
ATOM     10  O   UNL     1      -4.237 -21.331  46.745  1.00  0.00    -0.341 OA
BRANCH  10  11
ATOM     11  C   UNL     1      -4.363 -22.259  47.835  1.00  0.00     0.282 C 
ATOM     12  C   UNL     1      -4.555 -21.821  49.345  1.00  0.00     0.202 C 
ATOM     13  O   UNL     1      -3.686 -23.478  47.562  1.00  0.00    -0.341 OA
ATOM     14  C   UNL     1      -3.593 -22.478  50.370  1.00  0.00     0.179 C 
ATOM     15  C   UNL     1      -2.602 -23.796  48.411  1.00  0.00     0.178 C 
ATOM     16  C   UNL     1      -2.993 -23.836  49.905  1.00  0.00     0.177 C 
BRANCH  12  17
ATOM     17  O   UNL     1      -5.891 -22.049  49.757  1.00  0.00    -0.385 OA
ATOM     18  H   UNL     1      -6.322 -22.607  49.052  1.00  0.00     0.211 HD
ENDBRANCH  12  17
BRANCH  14  19
ATOM     19  O   UNL     1      -2.592 -21.571  50.779  1.00  0.00    -0.387 OA
ATOM     20  H   UNL     1      -1.834 -21.726  50.175  1.00  0.00     0.211 HD
ENDBRANCH  14  19
BRANCH  15  21
ATOM     21  C   UNL     1      -2.027 -25.137  47.925  1.00  0.00     0.191 C 
BRANCH  21  22
ATOM     22  O   UNL     1      -1.506 -25.855  49.020  1.00  0.00    -0.394 OA
ATOM     23  H   UNL     1      -1.813 -25.385  49.839  1.00  0.00     0.210 HD
ENDBRANCH  21  22
ENDBRANCH  15  21
BRANCH  16  24
ATOM     24  O   UNL     1      -3.916 -24.872  50.131  1.00  0.00    -0.387 OA
ATOM     25  H   UNL     1      -4.759 -24.619  49.669  1.00  0.00     0.211 HD
ENDBRANCH  16  24
ENDBRANCH  10  11
ENDBRANCH   4  10
BRANCH   6  26
ATOM     26  O   UNL     1      -3.910 -21.655  42.281  1.00  0.00    -0.346 OA
BRANCH  26  27
ATOM     27  C   UNL     1      -2.601 -21.646  42.868  1.00  0.00     0.130 C 
ATOM     28  C   UNL     1      -1.862 -22.975  42.439  1.00  0.00     0.033 C 
ATOM     29  C   UNL     1      -1.875 -20.279  42.498  1.00  0.00     0.020 C 
ATOM     30  C   UNL     1      -0.298 -22.949  42.300  1.00  0.00     0.010 C 
ATOM     31  C   UNL     1      -0.332 -20.502  42.567  1.00  0.00     0.006 C 
ATOM     32  C   UNL     1      -2.286 -19.253  43.602  1.00  0.00     0.017 C 
ATOM     33  C   UNL     1       0.218 -21.641  41.636  1.00  0.00    -0.022 C 
ATOM     34  C   UNL     1       0.567 -19.255  42.621  1.00  0.00     0.005 C 
ATOM     35  C   UNL     1      -0.357 -21.760  40.165  1.00  0.00     0.012 C 
ATOM     36  C   UNL     1       1.821 -21.503  41.504  1.00  0.00     0.024 C 
ATOM     37  C   UNL     1       1.969 -19.588  43.182  1.00  0.00     0.008 C 
ATOM     38  C   UNL     1       2.621 -21.000  42.786  1.00  0.00    -0.017 C 
ATOM     39  C   UNL     1       2.199 -20.486  40.391  1.00  0.00    -0.024 C 
ATOM     40  C   UNL     1       2.427 -21.959  43.992  1.00  0.00     0.013 C 
ATOM     41  C   UNL     1       4.259 -20.865  42.493  1.00  0.00     0.009 C 
ATOM     42  C   UNL     1       3.454 -20.071  40.229  1.00  0.00     0.005 C 
ATOM     43  C   UNL     1       4.525 -20.824  40.928  1.00  0.00     0.096 C 
ATOM     44  C   UNL     1       5.179 -22.059  42.976  1.00  0.00     0.043 C 
ATOM     45  C   UNL     1       4.788 -19.627  43.290  1.00  0.00     0.015 C 
ATOM     46  C   UNL     1       5.913 -20.365  40.512  1.00  0.00     0.037 C 
ATOM     47  O   UNL     1       4.458 -22.160  40.393  1.00  0.00    -0.369 OA
ATOM     48  C   UNL     1       6.642 -22.032  42.370  1.00  0.00     0.124 C 
ATOM     49  C   UNL     1       6.699 -21.613  40.831  1.00  0.00     0.026 C 
ATOM     50  C   UNL     1       6.639 -19.079  40.916  1.00  0.00     0.014 C 
ATOM     51  C   UNL     1       5.788 -22.595  40.106  1.00  0.00     0.171 C 
ATOM     52  C   UNL     1       8.159 -21.496  40.264  1.00  0.00     0.013 C 
ATOM     53  C   UNL     1       7.913 -18.885  40.019  1.00  0.00    -0.035 C 
ATOM     54  C   UNL     1       8.405 -20.240  39.384  1.00  0.00     0.007 C 
ATOM     55  C   UNL     1       7.572 -17.890  38.878  1.00  0.00     0.011 C 
ATOM     56  C   UNL     1       9.045 -18.269  40.862  1.00  0.00     0.011 C 
BRANCH  29  57
ATOM     57  C   UNL     1      -2.355 -19.676  41.123  1.00  0.00     0.165 C 
BRANCH  57  58
ATOM     58  O   UNL     1      -3.419 -18.784  41.264  1.00  0.00    -0.396 OA
ATOM     59  H   UNL     1      -4.095 -19.211  41.858  1.00  0.00     0.210 HD
ENDBRANCH  57  58
ENDBRANCH  29  57
BRANCH  48  60
ATOM     60  O   UNL     1       7.481 -21.211  43.145  1.00  0.00    -0.392 OA
ATOM     61  H   UNL     1       7.916 -20.554  42.537  1.00  0.00     0.210 HD
ENDBRANCH  48  60
ENDBRANCH  26  27
ENDBRANCH   6  26
BRANCH   5  62
ATOM     62  O   UNL     1      -4.009 -22.855  44.600  1.00  0.00    -0.385 OA
ATOM     63  H   UNL     1      -3.546 -22.580  45.432  1.00  0.00     0.211 HD
ENDBRANCH   5  62
TORSDOF 14
ENDMDL
MODEL 7
REMARK VINA RESULT:    -7.552      2.055      3.310
REMARK INTER + INTRA:         -13.245
REMARK INTER:                 -11.382
REMARK INTRA:                  -1.863
REMARK UNBOUND:                -1.279
REMARK SMILES C[C@H]1O[C@@H](O[C@H]2CC[C@@]3(C)[C@@H](CC[C@@]4(C)[C@@H]3C=C[C@@]35OC[C@]6(CCC(C)(C)C[C@@H]63)[C@@H](O)C[C@]45C)[C@@]2(C)CO)[C@@H](O)[C@@H](O[C@H]2O[C@H](CO)[C@H](O)[C@@H](O)[C@@H]2O)[C@@H]1O
REMARK SMILES IDX 1 1 2 2 54 3 41 4 39 5 4 6 3 7 55 8 42 10 43 11 52 12 44 13
REMARK SMILES IDX 50 14 45 15 48 16 53 17 51 19 46 21 47 22 49 24 5 26 6 27
REMARK SMILES IDX 7 28 35 29 8 30 11 31 36 32 9 33 12 34 10 35 16 36 13 37
REMARK SMILES IDX 14 38 17 39 15 40 33 41 18 42 19 43 32 44 34 45 29 46 20 47
REMARK SMILES IDX 30 48 22 49 28 50 21 51 23 52 25 53 24 54 26 55 27 56 37 57
REMARK SMILES IDX 38 58 31 60 40 62
REMARK H PARENT 55 9 53 18 51 20 47 23 49 25 38 59 31 61 40 63
REMARK Flexibility Score: inf
ROOT
ATOM      1  C   UNL     1      -4.518 -17.174  43.750  1.00  0.00     0.041 C 
ATOM      2  C   UNL     1      -5.077 -18.539  43.338  1.00  0.00     0.150 C 
ATOM      3  C   UNL     1      -5.905 -19.180  44.486  1.00  0.00     0.175 C 
ATOM      4  C   UNL     1      -5.947 -20.734  44.347  1.00  0.00     0.186 C 
ATOM      5  C   UNL     1      -5.435 -21.347  43.002  1.00  0.00     0.202 C 
ATOM      6  C   UNL     1      -4.458 -20.452  42.160  1.00  0.00     0.282 C 
ATOM      7  O   UNL     1      -4.001 -19.370  42.953  1.00  0.00    -0.344 OA
ENDROOT
BRANCH   3   8
ATOM      8  O   UNL     1      -7.218 -18.673  44.436  1.00  0.00    -0.388 OA
ATOM      9  H   UNL     1      -7.276 -18.106  43.622  1.00  0.00     0.211 HD
ENDBRANCH   3   8
BRANCH   4  10
ATOM     10  O   UNL     1      -5.679 -21.497  45.538  1.00  0.00    -0.341 OA
BRANCH  10  11
ATOM     11  C   UNL     1      -4.700 -21.127  46.522  1.00  0.00     0.282 C 
ATOM     12  C   UNL     1      -3.255 -21.769  46.611  1.00  0.00     0.202 C 
ATOM     13  O   UNL     1      -5.313 -20.666  47.719  1.00  0.00    -0.341 OA
ATOM     14  C   UNL     1      -2.827 -22.287  48.010  1.00  0.00     0.179 C 
ATOM     15  C   UNL     1      -5.082 -21.438  48.879  1.00  0.00     0.178 C 
ATOM     16  C   UNL     1      -3.580 -21.620  49.196  1.00  0.00     0.177 C 
BRANCH  12  17
ATOM     17  O   UNL     1      -2.281 -20.855  46.141  1.00  0.00    -0.385 OA
ATOM     18  H   UNL     1      -2.480 -20.686  45.179  1.00  0.00     0.211 HD
ENDBRANCH  12  17
BRANCH  14  19
ATOM     19  O   UNL     1      -2.887 -23.695  48.070  1.00  0.00    -0.387 OA
ATOM     20  H   UNL     1      -1.962 -24.003  47.952  1.00  0.00     0.211 HD
ENDBRANCH  14  19
BRANCH  15  21
ATOM     21  C   UNL     1      -5.841 -20.761  50.031  1.00  0.00     0.191 C 
BRANCH  21  22
ATOM     22  O   UNL     1      -5.181 -21.015  51.250  1.00  0.00    -0.394 OA
ATOM     23  H   UNL     1      -4.983 -20.131  51.655  1.00  0.00     0.210 HD
ENDBRANCH  21  22
ENDBRANCH  15  21
BRANCH  16  24
ATOM     24  O   UNL     1      -3.000 -20.375  49.497  1.00  0.00    -0.387 OA
ATOM     25  H   UNL     1      -2.250 -20.240  48.859  1.00  0.00     0.211 HD
ENDBRANCH  16  24
ENDBRANCH  10  11
ENDBRANCH   4  10
BRANCH   6  26
ATOM     26  O   UNL     1      -3.305 -21.192  41.741  1.00  0.00    -0.346 OA
BRANCH  26  27
ATOM     27  C   UNL     1      -2.106 -21.050  42.516  1.00  0.00     0.130 C 
ATOM     28  C   UNL     1      -1.794 -22.440  43.198  1.00  0.00     0.033 C 
ATOM     29  C   UNL     1      -0.962 -20.438  41.595  1.00  0.00     0.020 C 
ATOM     30  C   UNL     1      -0.296 -22.812  43.484  1.00  0.00     0.010 C 
ATOM     31  C   UNL     1       0.423 -20.850  42.184  1.00  0.00     0.006 C 
ATOM     32  C   UNL     1      -1.108 -18.885  41.689  1.00  0.00     0.017 C 
ATOM     33  C   UNL     1       0.653 -22.398  42.324  1.00  0.00    -0.022 C 
ATOM     34  C   UNL     1       1.663 -20.080  41.698  1.00  0.00     0.005 C 
ATOM     35  C   UNL     1       0.178 -23.343  41.146  1.00  0.00     0.012 C 
ATOM     36  C   UNL     1       2.223 -22.692  42.560  1.00  0.00     0.024 C 
ATOM     37  C   UNL     1       2.844 -20.221  42.687  1.00  0.00     0.008 C 
ATOM     38  C   UNL     1       3.045 -21.634  43.421  1.00  0.00    -0.017 C 
ATOM     39  C   UNL     1       2.981 -22.757  41.204  1.00  0.00    -0.024 C 
ATOM     40  C   UNL     1       2.472 -21.500  44.857  1.00  0.00     0.013 C 
ATOM     41  C   UNL     1       4.660 -22.042  43.545  1.00  0.00     0.009 C 
ATOM     42  C   UNL     1       4.312 -22.803  41.157  1.00  0.00     0.005 C 
ATOM     43  C   UNL     1       5.037 -23.095  42.418  1.00  0.00     0.096 C 
ATOM     44  C   UNL     1       5.119 -22.769  44.874  1.00  0.00     0.043 C 
ATOM     45  C   UNL     1       5.492 -20.718  43.525  1.00  0.00     0.015 C 
ATOM     46  C   UNL     1       6.525 -23.302  42.188  1.00  0.00     0.037 C 
ATOM     47  O   UNL     1       4.592 -24.406  42.814  1.00  0.00    -0.369 OA
ATOM     48  C   UNL     1       6.556 -23.429  44.786  1.00  0.00     0.124 C 
ATOM     49  C   UNL     1       6.853 -24.150  43.392  1.00  0.00     0.026 C 
ATOM     50  C   UNL     1       7.588 -22.238  41.895  1.00  0.00     0.014 C 
ATOM     51  C   UNL     1       5.735 -25.167  43.211  1.00  0.00     0.171 C 
ATOM     52  C   UNL     1       8.313 -24.718  43.276  1.00  0.00     0.013 C 
ATOM     53  C   UNL     1       8.920 -22.933  41.437  1.00  0.00    -0.035 C 
ATOM     54  C   UNL     1       9.005 -24.432  41.916  1.00  0.00     0.007 C 
ATOM     55  C   UNL     1       8.994 -22.896  39.888  1.00  0.00     0.011 C 
ATOM     56  C   UNL     1      10.124 -22.146  41.988  1.00  0.00     0.011 C 
BRANCH  29  57
ATOM     57  C   UNL     1      -1.125 -20.813  40.073  1.00  0.00     0.165 C 
BRANCH  57  58
ATOM     58  O   UNL     1      -2.048 -20.002  39.410  1.00  0.00    -0.396 OA
ATOM     59  H   UNL     1      -2.905 -20.042  39.916  1.00  0.00     0.210 HD
ENDBRANCH  57  58
ENDBRANCH  29  57
BRANCH  48  60
ATOM     60  O   UNL     1       7.552 -22.482  45.083  1.00  0.00    -0.392 OA
ATOM     61  H   UNL     1       7.310 -22.039  45.940  1.00  0.00     0.210 HD
ENDBRANCH  48  60
ENDBRANCH  26  27
ENDBRANCH   6  26
BRANCH   5  62
ATOM     62  O   UNL     1      -4.888 -22.599  43.272  1.00  0.00    -0.385 OA
ATOM     63  H   UNL     1      -5.059 -23.167  42.477  1.00  0.00     0.211 HD
ENDBRANCH   5  62
TORSDOF 14
ENDMDL
MODEL 8
REMARK VINA RESULT:    -7.390      3.662      5.412
REMARK INTER + INTRA:         -12.989
REMARK INTER:                 -10.524
REMARK INTRA:                  -2.465
REMARK UNBOUND:                -1.279
REMARK SMILES C[C@H]1O[C@@H](O[C@H]2CC[C@@]3(C)[C@@H](CC[C@@]4(C)[C@@H]3C=C[C@@]35OC[C@]6(CCC(C)(C)C[C@@H]63)[C@@H](O)C[C@]45C)[C@@]2(C)CO)[C@@H](O)[C@@H](O[C@H]2O[C@H](CO)[C@H](O)[C@@H](O)[C@@H]2O)[C@@H]1O
REMARK SMILES IDX 1 1 2 2 54 3 41 4 39 5 4 6 3 7 55 8 42 10 43 11 52 12 44 13
REMARK SMILES IDX 50 14 45 15 48 16 53 17 51 19 46 21 47 22 49 24 5 26 6 27
REMARK SMILES IDX 7 28 35 29 8 30 11 31 36 32 9 33 12 34 10 35 16 36 13 37
REMARK SMILES IDX 14 38 17 39 15 40 33 41 18 42 19 43 32 44 34 45 29 46 20 47
REMARK SMILES IDX 30 48 22 49 28 50 21 51 23 52 25 53 24 54 26 55 27 56 37 57
REMARK SMILES IDX 38 58 31 60 40 62
REMARK H PARENT 55 9 53 18 51 20 47 23 49 25 38 59 31 61 40 63
REMARK Flexibility Score: inf
ROOT
ATOM      1  C   UNL     1      -4.485 -18.503  44.556  1.00  0.00     0.041 C 
ATOM      2  C   UNL     1      -4.207 -18.125  43.098  1.00  0.00     0.150 C 
ATOM      3  C   UNL     1      -5.495 -17.624  42.389  1.00  0.00     0.175 C 
ATOM      4  C   UNL     1      -5.399 -17.825  40.844  1.00  0.00     0.186 C 
ATOM      5  C   UNL     1      -4.000 -18.203  40.256  1.00  0.00     0.202 C 
ATOM      6  C   UNL     1      -2.981 -18.857  41.256  1.00  0.00     0.282 C 
ATOM      7  O   UNL     1      -3.658 -19.247  42.437  1.00  0.00    -0.344 OA
ENDROOT
BRANCH   3   8
ATOM      8  O   UNL     1      -5.663 -16.254  42.668  1.00  0.00    -0.388 OA
ATOM      9  H   UNL     1      -6.408 -15.932  42.095  1.00  0.00     0.211 HD
ENDBRANCH   3   8
BRANCH   4  10
ATOM     10  O   UNL     1      -6.542 -18.416  40.197  1.00  0.00    -0.341 OA
BRANCH  10  11
ATOM     11  C   UNL     1      -7.385 -19.406  40.809  1.00  0.00     0.282 C 
ATOM     12  C   UNL     1      -8.647 -19.056  41.701  1.00  0.00     0.202 C 
ATOM     13  O   UNL     1      -6.669 -20.602  41.084  1.00  0.00    -0.341 OA
ATOM     14  C   UNL     1      -8.719 -19.763  43.081  1.00  0.00     0.179 C 
ATOM     15  C   UNL     1      -6.545 -20.959  42.445  1.00  0.00     0.178 C 
ATOM     16  C   UNL     1      -7.907 -21.087  43.164  1.00  0.00     0.177 C 
BRANCH  12  17
ATOM     17  O   UNL     1      -9.841 -19.318  40.986  1.00  0.00    -0.385 OA
ATOM     18  H   UNL     1     -10.474 -19.749  41.624  1.00  0.00     0.211 HD
ENDBRANCH  12  17
BRANCH  14  19
ATOM     19  O   UNL     1      -8.387 -18.873  44.124  1.00  0.00    -0.387 OA
ATOM     20  H   UNL     1      -9.189 -18.818  44.688  1.00  0.00     0.211 HD
ENDBRANCH  14  19
BRANCH  15  21
ATOM     21  C   UNL     1      -5.736 -22.265  42.497  1.00  0.00     0.191 C 
BRANCH  21  22
ATOM     22  O   UNL     1      -4.569 -22.071  43.264  1.00  0.00    -0.394 OA
ATOM     23  H   UNL     1      -4.394 -22.927  43.735  1.00  0.00     0.210 HD
ENDBRANCH  21  22
ENDBRANCH  15  21
BRANCH  16  24
ATOM     24  O   UNL     1      -8.648 -22.142  42.603  1.00  0.00    -0.387 OA
ATOM     25  H   UNL     1      -9.500 -21.756  42.267  1.00  0.00     0.211 HD
ENDBRANCH  16  24
ENDBRANCH  10  11
ENDBRANCH   4  10
BRANCH   6  26
ATOM     26  O   UNL     1      -2.385 -20.032  40.696  1.00  0.00    -0.346 OA
BRANCH  26  27
ATOM     27  C   UNL     1      -0.953 -20.071  40.603  1.00  0.00     0.130 C 
ATOM     28  C   UNL     1      -0.372 -18.909  41.501  1.00  0.00     0.033 C 
ATOM     29  C   UNL     1      -0.451 -21.544  40.933  1.00  0.00     0.020 C 
ATOM     30  C   UNL     1       1.039 -19.109  42.161  1.00  0.00     0.010 C 
ATOM     31  C   UNL     1       1.023 -21.463  41.441  1.00  0.00     0.006 C 
ATOM     32  C   UNL     1      -0.476 -22.329  39.583  1.00  0.00     0.017 C 
ATOM     33  C   UNL     1       1.243 -20.552  42.702  1.00  0.00    -0.022 C 
ATOM     34  C   UNL     1       1.842 -22.765  41.464  1.00  0.00     0.005 C 
ATOM     35  C   UNL     1       0.188 -20.624  43.881  1.00  0.00     0.012 C 
ATOM     36  C   UNL     1       2.691 -20.864  43.347  1.00  0.00     0.024 C 
ATOM     37  C   UNL     1       3.362 -22.481  41.491  1.00  0.00     0.008 C 
ATOM     38  C   UNL     1       3.876 -21.223  42.346  1.00  0.00    -0.017 C 
ATOM     39  C   UNL     1       2.616 -22.084  44.308  1.00  0.00    -0.024 C 
ATOM     40  C   UNL     1       4.153 -20.064  41.351  1.00  0.00     0.013 C 
ATOM     41  C   UNL     1       5.299 -21.563  43.152  1.00  0.00     0.009 C 
ATOM     42  C   UNL     1       3.717 -22.638  44.810  1.00  0.00     0.005 C 
ATOM     43  C   UNL     1       4.990 -21.887  44.676  1.00  0.00     0.096 C 
ATOM     44  C   UNL     1       6.368 -20.400  43.249  1.00  0.00     0.043 C 
ATOM     45  C   UNL     1       6.036 -22.697  42.366  1.00  0.00     0.015 C 
ATOM     46  C   UNL     1       6.125 -22.541  45.448  1.00  0.00     0.037 C 
ATOM     47  O   UNL     1       4.781 -20.659  45.397  1.00  0.00    -0.369 OA
ATOM     48  C   UNL     1       7.520 -20.668  44.303  1.00  0.00     0.124 C 
ATOM     49  C   UNL     1       7.012 -21.340  45.660  1.00  0.00     0.026 C 
ATOM     50  C   UNL     1       6.905 -23.807  45.082  1.00  0.00     0.014 C 
ATOM     51  C   UNL     1       5.937 -20.408  46.200  1.00  0.00     0.171 C 
ATOM     52  C   UNL     1       8.172 -21.690  46.660  1.00  0.00     0.013 C 
ATOM     53  C   UNL     1       7.771 -24.269  46.308  1.00  0.00    -0.035 C 
ATOM     54  C   UNL     1       8.049 -23.091  47.317  1.00  0.00     0.007 C 
ATOM     55  C   UNL     1       7.016 -25.401  47.053  1.00  0.00     0.011 C 
ATOM     56  C   UNL     1       9.108 -24.843  45.804  1.00  0.00     0.011 C 
BRANCH  29  57
ATOM     57  C   UNL     1      -1.406 -22.317  41.920  1.00  0.00     0.165 C 
BRANCH  57  58
ATOM     58  O   UNL     1      -2.509 -22.880  41.278  1.00  0.00    -0.396 OA
ATOM     59  H   UNL     1      -3.182 -22.159  41.143  1.00  0.00     0.210 HD
ENDBRANCH  57  58
ENDBRANCH  29  57
BRANCH  48  60
ATOM     60  O   UNL     1       8.552 -21.427  43.723  1.00  0.00    -0.392 OA
ATOM     61  H   UNL     1       9.145 -20.807  43.220  1.00  0.00     0.210 HD
ENDBRANCH  48  60
ENDBRANCH  26  27
ENDBRANCH   6  26
BRANCH   5  62
ATOM     62  O   UNL     1      -4.197 -18.994  39.126  1.00  0.00    -0.385 OA
ATOM     63  H   UNL     1      -5.087 -19.422  39.225  1.00  0.00     0.211 HD
ENDBRANCH   5  62
TORSDOF 14
ENDMDL
MODEL 9
REMARK VINA RESULT:    -7.317      2.400      4.460
REMARK INTER + INTRA:         -12.873
REMARK INTER:                 -10.122
REMARK INTRA:                  -2.751
REMARK UNBOUND:                -1.279
REMARK SMILES C[C@H]1O[C@@H](O[C@H]2CC[C@@]3(C)[C@@H](CC[C@@]4(C)[C@@H]3C=C[C@@]35OC[C@]6(CCC(C)(C)C[C@@H]63)[C@@H](O)C[C@]45C)[C@@]2(C)CO)[C@@H](O)[C@@H](O[C@H]2O[C@H](CO)[C@H](O)[C@@H](O)[C@@H]2O)[C@@H]1O
REMARK SMILES IDX 1 1 2 2 54 3 41 4 39 5 4 6 3 7 55 8 42 10 43 11 52 12 44 13
REMARK SMILES IDX 50 14 45 15 48 16 53 17 51 19 46 21 47 22 49 24 5 26 6 27
REMARK SMILES IDX 7 28 35 29 8 30 11 31 36 32 9 33 12 34 10 35 16 36 13 37
REMARK SMILES IDX 14 38 17 39 15 40 33 41 18 42 19 43 32 44 34 45 29 46 20 47
REMARK SMILES IDX 30 48 22 49 28 50 21 51 23 52 25 53 24 54 26 55 27 56 37 57
REMARK SMILES IDX 38 58 31 60 40 62
REMARK H PARENT 55 9 53 18 51 20 47 23 49 25 38 59 31 61 40 63
REMARK Flexibility Score: inf
ROOT
ATOM      1  C   UNL     1      -4.503 -18.207  40.458  1.00  0.00     0.041 C 
ATOM      2  C   UNL     1      -4.602 -19.726  40.627  1.00  0.00     0.150 C 
ATOM      3  C   UNL     1      -6.080 -20.185  40.762  1.00  0.00     0.175 C 
ATOM      4  C   UNL     1      -6.177 -21.543  41.523  1.00  0.00     0.186 C 
ATOM      5  C   UNL     1      -4.846 -22.330  41.760  1.00  0.00     0.202 C 
ATOM      6  C   UNL     1      -3.524 -21.485  41.710  1.00  0.00     0.282 C 
ATOM      7  O   UNL     1      -3.839 -20.105  41.754  1.00  0.00    -0.344 OA
ENDROOT
BRANCH   3   8
ATOM      8  O   UNL     1      -6.627 -20.334  39.473  1.00  0.00    -0.388 OA
ATOM      9  H   UNL     1      -5.971 -20.858  38.941  1.00  0.00     0.211 HD
ENDBRANCH   3   8
BRANCH   4  10
ATOM     10  O   UNL     1      -7.161 -21.628  42.571  1.00  0.00    -0.341 OA
BRANCH  10  11
ATOM     11  C   UNL     1      -7.152 -20.802  43.746  1.00  0.00     0.282 C 
ATOM     12  C   UNL     1      -7.310 -19.225  43.714  1.00  0.00     0.202 C 
ATOM     13  O   UNL     1      -6.382 -21.385  44.788  1.00  0.00    -0.341 OA
ATOM     14  C   UNL     1      -6.244 -18.420  44.504  1.00  0.00     0.179 C 
ATOM     15  C   UNL     1      -5.234 -20.670  45.196  1.00  0.00     0.178 C 
ATOM     16  C   UNL     1      -5.548 -19.223  45.640  1.00  0.00     0.177 C 
BRANCH  12  17
ATOM     17  O   UNL     1      -8.599 -18.852  44.167  1.00  0.00    -0.385 OA
ATOM     18  H   UNL     1      -8.671 -19.147  45.116  1.00  0.00     0.211 HD
ENDBRANCH  12  17
BRANCH  14  19
ATOM     19  O   UNL     1      -5.311 -17.822  43.631  1.00  0.00    -0.387 OA
ATOM     20  H   UNL     1      -4.551 -18.443  43.593  1.00  0.00     0.211 HD
ENDBRANCH  14  19
BRANCH  15  21
ATOM     21  C   UNL     1      -4.565 -21.488  46.312  1.00  0.00     0.191 C 
BRANCH  21  22
ATOM     22  O   UNL     1      -3.603 -22.354  45.755  1.00  0.00    -0.394 OA
ATOM     23  H   UNL     1      -3.984 -23.270  45.804  1.00  0.00     0.210 HD
ENDBRANCH  21  22
ENDBRANCH  15  21
BRANCH  16  24
ATOM     24  O   UNL     1      -6.363 -19.240  46.786  1.00  0.00    -0.387 OA
ATOM     25  H   UNL     1      -6.423 -18.305  47.117  1.00  0.00     0.211 HD
ENDBRANCH  16  24
ENDBRANCH  10  11
ENDBRANCH   4  10
BRANCH   6  26
ATOM     26  O   UNL     1      -2.683 -21.769  42.835  1.00  0.00    -0.346 OA
BRANCH  26  27
ATOM     27  C   UNL     1      -1.320 -22.129  42.571  1.00  0.00     0.130 C 
ATOM     28  C   UNL     1      -1.035 -21.880  41.038  1.00  0.00     0.033 C 
ATOM     29  C   UNL     1      -0.373 -21.372  43.601  1.00  0.00     0.020 C 
ATOM     30  C   UNL     1       0.424 -21.496  40.601  1.00  0.00     0.010 C 
ATOM     31  C   UNL     1       1.048 -21.245  42.969  1.00  0.00     0.006 C 
ATOM     32  C   UNL     1      -0.282 -22.285  44.865  1.00  0.00     0.017 C 
ATOM     33  C   UNL     1       1.097 -20.499  41.587  1.00  0.00    -0.022 C 
ATOM     34  C   UNL     1       2.217 -20.893  43.905  1.00  0.00     0.005 C 
ATOM     35  C   UNL     1       0.219 -19.194  41.399  1.00  0.00     0.012 C 
ATOM     36  C   UNL     1       2.622 -20.093  41.246  1.00  0.00     0.024 C 
ATOM     37  C   UNL     1       3.579 -21.287  43.287  1.00  0.00     0.008 C 
ATOM     38  C   UNL     1       3.768 -21.100  41.704  1.00  0.00    -0.017 C 
ATOM     39  C   UNL     1       2.999 -18.746  41.924  1.00  0.00    -0.024 C 
ATOM     40  C   UNL     1       3.597 -22.495  41.045  1.00  0.00     0.013 C 
ATOM     41  C   UNL     1       5.292 -20.533  41.326  1.00  0.00     0.009 C 
ATOM     42  C   UNL     1       4.256 -18.306  41.938  1.00  0.00     0.005 C 
ATOM     43  C   UNL     1       5.230 -18.972  41.037  1.00  0.00     0.096 C 
ATOM     44  C   UNL     1       5.970 -21.107  40.015  1.00  0.00     0.043 C 
ATOM     45  C   UNL     1       6.262 -20.959  42.477  1.00  0.00     0.015 C 
ATOM     46  C   UNL     1       6.571 -18.258  41.015  1.00  0.00     0.037 C 
ATOM     47  O   UNL     1       4.728 -18.748  39.706  1.00  0.00    -0.369 OA
ATOM     48  C   UNL     1       7.237 -20.288  39.532  1.00  0.00     0.124 C 
ATOM     49  C   UNL     1       7.075 -18.705  39.666  1.00  0.00     0.026 C 
ATOM     50  C   UNL     1       7.658 -18.263  42.094  1.00  0.00     0.014 C 
ATOM     51  C   UNL     1       5.822 -18.355  38.875  1.00  0.00     0.171 C 
ATOM     52  C   UNL     1       8.370 -17.905  39.276  1.00  0.00     0.013 C 
ATOM     53  C   UNL     1       8.727 -17.158  41.775  1.00  0.00    -0.035 C 
ATOM     54  C   UNL     1       8.729 -16.754  40.253  1.00  0.00     0.007 C 
ATOM     55  C   UNL     1       8.413 -15.901  42.629  1.00  0.00     0.011 C 
ATOM     56  C   UNL     1      10.125 -17.666  42.176  1.00  0.00     0.011 C 
BRANCH  29  57
ATOM     57  C   UNL     1      -0.963 -19.993  44.085  1.00  0.00     0.165 C 
BRANCH  57  58
ATOM     58  O   UNL     1      -1.815 -20.123  45.183  1.00  0.00    -0.396 OA
ATOM     59  H   UNL     1      -1.918 -19.222  45.595  1.00  0.00     0.210 HD
ENDBRANCH  57  58
ENDBRANCH  29  57
BRANCH  48  60
ATOM     60  O   UNL     1       8.393 -20.732  40.199  1.00  0.00    -0.392 OA
ATOM     61  H   UNL     1       9.012 -21.114  39.521  1.00  0.00     0.210 HD
ENDBRANCH  48  60
ENDBRANCH  26  27
ENDBRANCH   6  26
BRANCH   5  62
ATOM     62  O   UNL     1      -4.963 -23.041  42.952  1.00  0.00    -0.385 OA
ATOM     63  H   UNL     1      -4.105 -22.932  43.439  1.00  0.00     0.211 HD
ENDBRANCH   5  62
TORSDOF 14
ENDMDL
