MODEL 1
REMARK VINA RESULT:    -3.761      0.000      0.000
REMARK INTER + INTRA:          -4.542
REMARK INTER:                  -4.421
REMARK INTRA:                  -0.120
REMARK UNBOUND:                -0.120
REMARK SMILES O=C([O-])CCC(=O)[O-]
REMARK SMILES IDX 4 1 2 2 1 3 3 4 5 5 6 6 7 7 8 8
REMARK H PARENT
REMARK Flexibility Score: inf
ROOT
ATOM      1  C   UNL     1       9.152 -25.743   9.925  1.00  0.00     0.059 C 
ENDROOT
BRANCH   1   2
ATOM      2  C   UNL     1       9.390 -26.405   8.604  1.00  0.00     0.042 C 
ATOM      3  O   UNL     1       8.417 -26.721   7.869  1.00  0.00    -0.550 OA
ATOM      4  O   UNL     1      10.684 -26.718   8.206  1.00  0.00    -0.550 OA
ENDBRANCH   1   2
BRANCH   1   5
ATOM      5  C   UNL     1      10.403 -25.836  10.802  1.00  0.00     0.059 C 
BRANCH   5   6
ATOM      6  C   UNL     1      10.290 -26.986  11.752  1.00  0.00     0.042 C 
ATOM      7  O   UNL     1       9.861 -26.802  12.922  1.00  0.00    -0.550 OA
ATOM      8  O   UNL     1      10.612 -28.270  11.330  1.00  0.00    -0.550 OA
ENDBRANCH   5   6
ENDBRANCH   1   5
TORSDOF 3
ENDMDL
MODEL 2
REMARK VINA RESULT:    -3.755      0.178      1.159
REMARK INTER + INTRA:          -4.534
REMARK INTER:                  -4.413
REMARK INTRA:                  -0.122
REMARK UNBOUND:                -0.120
REMARK SMILES O=C([O-])CCC(=O)[O-]
REMARK SMILES IDX 4 1 2 2 1 3 3 4 5 5 6 6 7 7 8 8
REMARK H PARENT
REMARK Flexibility Score: inf
ROOT
ATOM      1  C   UNL     1       9.218 -25.727   9.773  1.00  0.00     0.059 C 
ENDROOT
BRANCH   1   2
ATOM      2  C   UNL     1       9.339 -26.436   8.461  1.00  0.00     0.042 C 
ATOM      3  O   UNL     1       8.306 -26.752   7.814  1.00  0.00    -0.550 OA
ATOM      4  O   UNL     1      10.591 -26.792   7.977  1.00  0.00    -0.550 OA
ENDBRANCH   1   2
BRANCH   1   5
ATOM      5  C   UNL     1      10.486 -25.924  10.607  1.00  0.00     0.059 C 
BRANCH   5   6
ATOM      6  C   UNL     1      10.312 -27.064  11.560  1.00  0.00     0.042 C 
ATOM      7  O   UNL     1      10.635 -28.232  11.217  1.00  0.00    -0.550 OA
ATOM      8  O   UNL     1       9.839 -26.829  12.845  1.00  0.00    -0.550 OA
ENDBRANCH   5   6
ENDBRANCH   1   5
TORSDOF 3
ENDMDL
MODEL 3
REMARK VINA RESULT:    -3.750      0.077      3.641
REMARK INTER + INTRA:          -4.528
REMARK INTER:                  -4.408
REMARK INTRA:                  -0.120
REMARK UNBOUND:                -0.120
REMARK SMILES O=C([O-])CCC(=O)[O-]
REMARK SMILES IDX 4 1 2 2 1 3 3 4 5 5 6 6 7 7 8 8
REMARK H PARENT
REMARK Flexibility Score: inf
ROOT
ATOM      1  C   UNL     1      10.370 -25.848  10.854  1.00  0.00     0.059 C 
ENDROOT
BRANCH   1   2
ATOM      2  C   UNL     1      10.254 -27.006  11.796  1.00  0.00     0.042 C 
ATOM      3  O   UNL     1       9.841 -26.826  12.972  1.00  0.00    -0.550 OA
ATOM      4  O   UNL     1      10.648 -28.274  11.390  1.00  0.00    -0.550 OA
ENDBRANCH   1   2
BRANCH   1   5
ATOM      5  C   UNL     1       9.123 -25.751   9.972  1.00  0.00     0.059 C 
BRANCH   5   6
ATOM      6  C   UNL     1       9.344 -26.466   8.676  1.00  0.00     0.042 C 
ATOM      7  O   UNL     1       8.363 -26.775   7.949  1.00  0.00    -0.550 OA
ATOM      8  O   UNL     1      10.635 -26.747   8.248  1.00  0.00    -0.550 OA
ENDBRANCH   5   6
ENDBRANCH   1   5
TORSDOF 3
ENDMDL
MODEL 4
REMARK VINA RESULT:    -3.676      1.422      3.914
REMARK INTER + INTRA:          -4.441
REMARK INTER:                  -4.321
REMARK INTRA:                  -0.120
REMARK UNBOUND:                -0.120
REMARK SMILES O=C([O-])CCC(=O)[O-]
REMARK SMILES IDX 4 1 2 2 1 3 3 4 5 5 6 6 7 7 8 8
REMARK H PARENT
REMARK Flexibility Score: inf
ROOT
ATOM      1  C   UNL     1       9.506 -25.375   9.328  1.00  0.00     0.059 C 
ENDROOT
BRANCH   1   2
ATOM      2  C   UNL     1       9.675 -25.970  10.691  1.00  0.00     0.042 C 
ATOM      3  O   UNL     1       9.365 -25.305  11.715  1.00  0.00    -0.550 OA
ATOM      4  O   UNL     1      10.218 -27.240  10.833  1.00  0.00    -0.550 OA
ENDBRANCH   1   2
BRANCH   1   5
ATOM      5  C   UNL     1       9.176 -26.466   8.307  1.00  0.00     0.059 C 
BRANCH   5   6
ATOM      6  C   UNL     1      10.283 -26.600   7.309  1.00  0.00     0.042 C 
ATOM      7  O   UNL     1      10.022 -26.855   6.103  1.00  0.00    -0.550 OA
ATOM      8  O   UNL     1      11.600 -26.395   7.700  1.00  0.00    -0.550 OA
ENDBRANCH   5   6
ENDBRANCH   1   5
TORSDOF 3
ENDMDL
MODEL 5
REMARK VINA RESULT:    -3.615      9.070     10.316
REMARK INTER + INTRA:          -4.370
REMARK INTER:                  -4.320
REMARK INTRA:                  -0.050
REMARK UNBOUND:                -0.120
REMARK SMILES O=C([O-])CCC(=O)[O-]
REMARK SMILES IDX 4 1 2 2 1 3 3 4 5 5 6 6 7 7 8 8
REMARK H PARENT
REMARK Flexibility Score: inf
ROOT
ATOM      1  C   UNL     1      18.655 -29.725  10.814  1.00  0.00     0.059 C 
ENDROOT
BRANCH   1   2
ATOM      2  C   UNL     1      19.046 -29.706  12.259  1.00  0.00     0.042 C 
ATOM      3  O   UNL     1      20.125 -29.162  12.615  1.00  0.00    -0.550 OA
ATOM      4  O   UNL     1      18.244 -30.331  13.205  1.00  0.00    -0.550 OA
ENDBRANCH   1   2
BRANCH   1   5
ATOM      5  C   UNL     1      19.713 -29.019   9.964  1.00  0.00     0.059 C 
BRANCH   5   6
ATOM      6  C   UNL     1      19.067 -28.271   8.840  1.00  0.00     0.042 C 
ATOM      7  O   UNL     1      17.902 -28.570   8.468  1.00  0.00    -0.550 OA
ATOM      8  O   UNL     1      19.733 -27.213   8.236  1.00  0.00    -0.550 OA
ENDBRANCH   5   6
ENDBRANCH   1   5
TORSDOF 3
ENDMDL
MODEL 6
REMARK VINA RESULT:    -3.601      1.641      2.316
REMARK INTER + INTRA:          -4.353
REMARK INTER:                  -4.201
REMARK INTRA:                  -0.152
REMARK UNBOUND:                -0.120
REMARK SMILES O=C([O-])CCC(=O)[O-]
REMARK SMILES IDX 4 1 2 2 1 3 3 4 5 5 6 6 7 7 8 8
REMARK H PARENT
REMARK Flexibility Score: inf
ROOT
ATOM      1  C   UNL     1      10.035 -24.981   8.898  1.00  0.00     0.059 C 
ENDROOT
BRANCH   1   2
ATOM      2  C   UNL     1      11.413 -25.487   8.607  1.00  0.00     0.042 C 
ATOM      3  O   UNL     1      11.592 -26.364   7.721  1.00  0.00    -0.550 OA
ATOM      4  O   UNL     1      12.494 -25.026   9.348  1.00  0.00    -0.550 OA
ENDBRANCH   1   2
BRANCH   1   5
ATOM      5  C   UNL     1       9.224 -26.040   9.647  1.00  0.00     0.059 C 
BRANCH   5   6
ATOM      6  C   UNL     1       9.748 -26.211  11.039  1.00  0.00     0.042 C 
ATOM      7  O   UNL     1      10.287 -27.296  11.384  1.00  0.00    -0.550 OA
ATOM      8  O   UNL     1       9.684 -25.156  11.940  1.00  0.00    -0.550 OA
ENDBRANCH   5   6
ENDBRANCH   1   5
TORSDOF 3
ENDMDL
MODEL 7
REMARK VINA RESULT:    -3.533      1.909      2.215
REMARK INTER + INTRA:          -4.273
REMARK INTER:                  -4.153
REMARK INTRA:                  -0.120
REMARK UNBOUND:                -0.120
REMARK SMILES O=C([O-])CCC(=O)[O-]
REMARK SMILES IDX 4 1 2 2 1 3 3 4 5 5 6 6 7 7 8 8
REMARK H PARENT
REMARK Flexibility Score: inf
ROOT
ATOM      1  C   UNL     1      11.858 -26.258   8.863  1.00  0.00     0.059 C 
ENDROOT
BRANCH   1   2
ATOM      2  C   UNL     1      11.197 -26.179   7.523  1.00  0.00     0.042 C 
ATOM      3  O   UNL     1      10.301 -27.007   7.209  1.00  0.00    -0.550 OA
ATOM      4  O   UNL     1      11.603 -25.221   6.603  1.00  0.00    -0.550 OA
ENDBRANCH   1   2
BRANCH   1   5
ATOM      5  C   UNL     1      11.213 -25.269   9.837  1.00  0.00     0.059 C 
BRANCH   5   6
ATOM      6  C   UNL     1      10.018 -25.887  10.493  1.00  0.00     0.042 C 
ATOM      7  O   UNL     1       8.870 -25.407  10.299  1.00  0.00    -0.550 OA
ATOM      8  O   UNL     1      10.167 -27.021  11.281  1.00  0.00    -0.550 OA
ENDBRANCH   5   6
ENDBRANCH   1   5
TORSDOF 3
ENDMDL
MODEL 8
REMARK VINA RESULT:    -3.508     15.615     16.545
REMARK INTER + INTRA:          -4.244
REMARK INTER:                  -4.142
REMARK INTRA:                  -0.102
REMARK UNBOUND:                -0.120
REMARK SMILES O=C([O-])CCC(=O)[O-]
REMARK SMILES IDX 4 1 2 2 1 3 3 4 5 5 6 6 7 7 8 8
REMARK H PARENT
REMARK Flexibility Score: inf
ROOT
ATOM      1  C   UNL     1       1.404 -29.075  23.143  1.00  0.00     0.059 C 
ENDROOT
BRANCH   1   2
ATOM      2  C   UNL     1       0.561 -30.235  23.572  1.00  0.00     0.042 C 
ATOM      3  O   UNL     1       0.376 -31.207  22.793  1.00  0.00    -0.550 OA
ATOM      4  O   UNL     1      -0.061 -30.220  24.814  1.00  0.00    -0.550 OA
ENDBRANCH   1   2
BRANCH   1   5
ATOM      5  C   UNL     1       1.944 -28.327  24.363  1.00  0.00     0.059 C 
BRANCH   5   6
ATOM      6  C   UNL     1       3.171 -29.003  24.890  1.00  0.00     0.042 C 
ATOM      7  O   UNL     1       3.425 -28.983  26.123  1.00  0.00    -0.550 OA
ATOM      8  O   UNL     1       4.008 -29.697  24.025  1.00  0.00    -0.550 OA
ENDBRANCH   5   6
ENDBRANCH   1   5
TORSDOF 3
ENDMDL
MODEL 9
REMARK VINA RESULT:    -3.446      1.468      3.890
REMARK INTER + INTRA:          -4.170
REMARK INTER:                  -4.048
REMARK INTRA:                  -0.122
REMARK UNBOUND:                -0.120
REMARK SMILES O=C([O-])CCC(=O)[O-]
REMARK SMILES IDX 4 1 2 2 1 3 3 4 5 5 6 6 7 7 8 8
REMARK H PARENT
REMARK Flexibility Score: inf
ROOT
ATOM      1  C   UNL     1      10.431 -27.477  10.736  1.00  0.00     0.059 C 
ENDROOT
BRANCH   1   2
ATOM      2  C   UNL     1      10.428 -27.378  12.229  1.00  0.00     0.042 C 
ATOM      3  O   UNL     1      10.045 -28.353  12.928  1.00  0.00    -0.550 OA
ATOM      4  O   UNL     1      10.800 -26.191  12.848  1.00  0.00    -0.550 OA
ENDBRANCH   1   2
BRANCH   1   5
ATOM      5  C   UNL     1       9.756 -26.251  10.117  1.00  0.00     0.059 C 
BRANCH   5   6
ATOM      6  C   UNL     1      10.717 -25.514   9.238  1.00  0.00     0.042 C 
ATOM      7  O   UNL     1      11.858 -25.201   9.670  1.00  0.00    -0.550 OA
ATOM      8  O   UNL     1      10.371 -25.215   7.927  1.00  0.00    -0.550 OA
ENDBRANCH   5   6
ENDBRANCH   1   5
TORSDOF 3
ENDMDL
