MODEL 1
REMARK VINA RESULT:    -6.077      0.000      0.000
REMARK INTER + INTRA:          -8.189
REMARK INTER:                  -8.564
REMARK INTRA:                   0.375
REMARK UNBOUND:                 0.375
REMARK SMILES CC1=CCC(=C(C)C)C(=O)CC(C)=CCC1
REMARK SMILES IDX 12 1 14 2 13 3 15 4 16 5 2 6 1 7 3 8 11 10 9 11 10 12 5 13
REMARK SMILES IDX 6 14 7 15 8 16 4 17
REMARK H PARENT
REMARK Flexibility Score: 60.00
ROOT
ATOM      1  C   UNL     1      25.940  57.246 142.227  1.00  0.00    -0.070 C 
ATOM      2  C   UNL     1      25.194  56.623 141.278  1.00  0.00    -0.027 C 
ATOM      3  C   UNL     1      25.670  56.883 143.666  1.00  0.00     0.039 C 
ENDROOT
BRANCH   2   4
ATOM      4  C   UNL     1      25.223  56.904 139.794  1.00  0.00     0.032 C 
BRANCH   4   5
ATOM      5  C   UNL     1      26.198  56.003 139.025  1.00  0.00     0.034 C 
BRANCH   5   6
ATOM      6  C   UNL     1      27.204  56.846 138.268  1.00  0.00    -0.077 C 
ATOM      7  C   UNL     1      26.748  57.549 137.014  1.00  0.00     0.039 C 
ATOM      8  C   UNL     1      28.470  57.065 138.698  1.00  0.00    -0.023 CG0
ATOM      9  G   UNL     1      29.107  56.438 139.916  1.00  0.00     0.000 G0
ENDBRANCH   5   6
ENDBRANCH   4   5
ENDBRANCH   2   4
BRANCH   1  10
ATOM     10  C   UNL     1      27.076  58.220 141.929  1.00  0.00     0.111 C 
BRANCH  10  11
ATOM     11  C   UNL     1      28.452  57.636 142.132  1.00  0.00     0.163 C 
ATOM     12  O   UNL     1      28.754  57.241 143.291  1.00  0.00    -0.294 OA
BRANCH  11  13
ATOM     13  C   UNL     1      29.432  57.457 141.009  1.00  0.00    -0.002 C 
ATOM     14  C   UNL     1      30.559  58.232 140.933  1.00  0.00    -0.069 C 
ATOM     15  C   UNL     1      31.512  58.139 139.761  1.00  0.00     0.039 C 
ATOM     16  C   UNL     1      30.943  59.189 142.041  1.00  0.00     0.039 C 
BRANCH  13  17
ATOM     17  C   UNL     1      29.121  56.433 139.920  1.00  0.00     0.066 CG0
ATOM     18  G   UNL     1      28.477  57.066 138.709  1.00  0.00     0.000 G0
ENDBRANCH  13  17
ENDBRANCH  11  13
ENDBRANCH  10  11
ENDBRANCH   1  10
TORSDOF 0
ENDMDL
MODEL 2
REMARK VINA RESULT:    -5.956      1.433      2.253
REMARK INTER + INTRA:          -8.019
REMARK INTER:                  -8.266
REMARK INTRA:                   0.247
REMARK UNBOUND:                 0.375
REMARK SMILES CC1=CCC(=C(C)C)C(=O)CC(C)=CCC1
REMARK SMILES IDX 12 1 14 2 13 3 15 4 16 5 2 6 1 7 3 8 11 10 9 11 10 12 5 13
REMARK SMILES IDX 6 14 7 15 8 16 4 17
REMARK H PARENT
REMARK Flexibility Score: 60.00
ROOT
ATOM      1  C   UNL     1      27.212  59.619 140.320  1.00  0.00    -0.070 C 
ATOM      2  C   UNL     1      26.404  59.327 139.267  1.00  0.00    -0.027 C 
ATOM      3  C   UNL     1      28.169  60.774 140.156  1.00  0.00     0.039 C 
ENDROOT
BRANCH   2   4
ATOM      4  C   UNL     1      25.449  58.160 139.173  1.00  0.00     0.032 C 
BRANCH   4   5
ATOM      5  C   UNL     1      26.042  56.950 138.441  1.00  0.00     0.034 C 
BRANCH   5   6
ATOM      6  C   UNL     1      26.387  55.856 139.432  1.00  0.00    -0.077 C 
ATOM      7  C   UNL     1      25.305  54.888 139.836  1.00  0.00     0.039 C 
ATOM      8  C   UNL     1      27.637  55.655 139.916  1.00  0.00    -0.023 CG0
ATOM      9  G   UNL     1      28.841  56.524 139.639  1.00  0.00     0.000 G0
ENDBRANCH   5   6
ENDBRANCH   4   5
ENDBRANCH   2   4
BRANCH   1  10
ATOM     10  C   UNL     1      27.158  58.912 141.671  1.00  0.00     0.111 C 
BRANCH  10  11
ATOM     11  C   UNL     1      28.133  57.769 141.803  1.00  0.00     0.163 C 
ATOM     12  O   UNL     1      28.007  57.007 142.801  1.00  0.00    -0.294 OA
BRANCH  11  13
ATOM     13  C   UNL     1      29.189  57.478 140.777  1.00  0.00    -0.002 C 
ATOM     14  C   UNL     1      30.415  58.085 140.843  1.00  0.00    -0.069 C 
ATOM     15  C   UNL     1      31.461  57.883 139.768  1.00  0.00     0.039 C 
ATOM     16  C   UNL     1      30.813  58.950 142.018  1.00  0.00     0.039 C 
BRANCH  13  17
ATOM     17  C   UNL     1      28.851  56.535 139.624  1.00  0.00     0.066 CG0
ATOM     18  G   UNL     1      27.655  55.665 139.931  1.00  0.00     0.000 G0
ENDBRANCH  13  17
ENDBRANCH  11  13
ENDBRANCH  10  11
ENDBRANCH   1  10
TORSDOF 0
ENDMDL
MODEL 3
REMARK VINA RESULT:    -5.802      1.759      2.590
REMARK INTER + INTRA:          -7.802
REMARK INTER:                  -8.559
REMARK INTRA:                   0.757
REMARK UNBOUND:                 0.375
REMARK SMILES CC1=CCC(=C(C)C)C(=O)CC(C)=CCC1
REMARK SMILES IDX 12 1 14 2 13 3 15 4 16 5 2 6 1 7 3 8 11 10 9 11 10 12 5 13
REMARK SMILES IDX 6 14 7 15 8 16 4 17
REMARK H PARENT
REMARK Flexibility Score: 60.00
ROOT
ATOM      1  C   UNL     1      25.084  56.352 139.903  1.00  0.00    -0.070 C 
ATOM      2  C   UNL     1      25.108  57.004 138.712  1.00  0.00    -0.027 C 
ATOM      3  C   UNL     1      24.071  55.246 140.064  1.00  0.00     0.039 C 
ENDROOT
BRANCH   2   4
ATOM      4  C   UNL     1      25.963  58.201 138.367  1.00  0.00     0.032 C 
BRANCH   4   5
ATOM      5  C   UNL     1      27.333  57.821 137.790  1.00  0.00     0.034 C 
BRANCH   5   6
ATOM      6  C   UNL     1      28.361  58.877 138.145  1.00  0.00    -0.077 C 
ATOM      7  C   UNL     1      28.246  60.234 137.500  1.00  0.00     0.039 C 
ATOM      8  C   UNL     1      29.333  58.690 139.071  1.00  0.00    -0.023 CG0
ATOM      9  G   UNL     1      29.613  57.401 139.807  1.00  0.00     0.000 G0
ENDBRANCH   5   6
ENDBRANCH   4   5
ENDBRANCH   2   4
BRANCH   1  10
ATOM     10  C   UNL     1      26.060  56.609 141.047  1.00  0.00     0.111 C 
BRANCH  10  11
ATOM     11  C   UNL     1      27.485  56.225 140.735  1.00  0.00     0.163 C 
ATOM     12  O   UNL     1      27.683  55.096 140.208  1.00  0.00    -0.294 OA
BRANCH  11  13
ATOM     13  C   UNL     1      28.645  57.147 140.971  1.00  0.00    -0.002 C 
ATOM     14  C   UNL     1      28.796  57.790 142.172  1.00  0.00    -0.069 C 
ATOM     15  C   UNL     1      29.901  58.798 142.402  1.00  0.00     0.039 C 
ATOM     16  C   UNL     1      27.898  57.491 143.353  1.00  0.00     0.039 C 
BRANCH  13  17
ATOM     17  C   UNL     1      29.626  57.401 139.828  1.00  0.00     0.066 CG0
ATOM     18  G   UNL     1      29.313  58.676 139.081  1.00  0.00     0.000 G0
ENDBRANCH  13  17
ENDBRANCH  11  13
ENDBRANCH  10  11
ENDBRANCH   1  10
TORSDOF 0
ENDMDL
MODEL 4
REMARK VINA RESULT:    -5.580      2.131      3.852
REMARK INTER + INTRA:          -7.489
REMARK INTER:                  -7.674
REMARK INTRA:                   0.185
REMARK UNBOUND:                 0.375
REMARK SMILES CC1=CCC(=C(C)C)C(=O)CC(C)=CCC1
REMARK SMILES IDX 12 1 14 2 13 3 15 4 16 5 2 6 1 7 3 8 11 10 9 11 10 12 5 13
REMARK SMILES IDX 6 14 7 15 8 16 4 17
REMARK H PARENT
REMARK Flexibility Score: 60.00
ROOT
ATOM      1  C   UNL     1      28.061  59.319 137.426  1.00  0.00    -0.070 C 
ATOM      2  C   UNL     1      27.149  58.464 136.894  1.00  0.00    -0.027 C 
ATOM      3  C   UNL     1      28.267  60.635 136.717  1.00  0.00     0.039 C 
ENDROOT
BRANCH   2   4
ATOM      4  C   UNL     1      26.856  57.062 137.375  1.00  0.00     0.032 C 
BRANCH   4   5
ATOM      5  C   UNL     1      25.787  57.009 138.474  1.00  0.00     0.034 C 
BRANCH   5   6
ATOM      6  C   UNL     1      26.217  56.061 139.576  1.00  0.00    -0.077 C 
ATOM      7  C   UNL     1      26.311  54.590 139.259  1.00  0.00     0.039 C 
ATOM      8  C   UNL     1      26.595  56.474 140.810  1.00  0.00    -0.023 CG0
ATOM      9  G   UNL     1      26.554  57.897 141.314  1.00  0.00     0.000 G0
ENDBRANCH   5   6
ENDBRANCH   4   5
ENDBRANCH   2   4
BRANCH   1  10
ATOM     10  C   UNL     1      28.823  59.071 138.723  1.00  0.00     0.111 C 
BRANCH  10  11
ATOM     11  C   UNL     1      28.083  59.508 139.963  1.00  0.00     0.163 C 
ATOM     12  O   UNL     1      27.565  60.658 139.958  1.00  0.00    -0.294 OA
BRANCH  11  13
ATOM     13  C   UNL     1      27.894  58.614 141.153  1.00  0.00    -0.002 C 
ATOM     14  C   UNL     1      28.916  58.406 142.042  1.00  0.00    -0.069 C 
ATOM     15  C   UNL     1      28.783  57.435 143.195  1.00  0.00     0.039 C 
ATOM     16  C   UNL     1      30.218  59.172 141.951  1.00  0.00     0.039 C 
BRANCH  13  17
ATOM     17  C   UNL     1      26.558  57.894 141.327  1.00  0.00     0.066 CG0
ATOM     18  G   UNL     1      26.602  56.476 140.807  1.00  0.00     0.000 G0
ENDBRANCH  13  17
ENDBRANCH  11  13
ENDBRANCH  10  11
ENDBRANCH   1  10
TORSDOF 0
ENDMDL
MODEL 5
REMARK VINA RESULT:    -5.575      1.950      4.010
REMARK INTER + INTRA:          -7.481
REMARK INTER:                  -7.889
REMARK INTRA:                   0.408
REMARK UNBOUND:                 0.375
REMARK SMILES CC1=CCC(=C(C)C)C(=O)CC(C)=CCC1
REMARK SMILES IDX 12 1 14 2 13 3 15 4 16 5 2 6 1 7 3 8 11 10 9 11 10 12 5 13
REMARK SMILES IDX 6 14 7 15 8 16 4 17
REMARK H PARENT
REMARK Flexibility Score: 60.00
ROOT
ATOM      1  C   UNL     1      27.589  60.034 140.872  1.00  0.00    -0.070 C 
ATOM      2  C   UNL     1      27.415  59.500 142.109  1.00  0.00    -0.027 C 
ATOM      3  C   UNL     1      26.396  60.706 140.236  1.00  0.00     0.039 C 
ENDROOT
BRANCH   2   4
ATOM      4  C   UNL     1      28.434  58.699 142.884  1.00  0.00     0.032 C 
BRANCH   4   5
ATOM      5  C   UNL     1      28.489  57.223 142.468  1.00  0.00     0.034 C 
BRANCH   5   6
ATOM      6  C   UNL     1      27.153  56.790 141.897  1.00  0.00    -0.077 C 
ATOM      7  C   UNL     1      25.964  56.734 142.822  1.00  0.00     0.039 C 
ATOM      8  C   UNL     1      26.953  56.525 140.584  1.00  0.00    -0.023 CG0
ATOM      9  G   UNL     1      28.020  56.515 139.514  1.00  0.00     0.000 G0
ENDBRANCH   5   6
ENDBRANCH   4   5
ENDBRANCH   2   4
BRANCH   1  10
ATOM     10  C   UNL     1      28.919  60.068 140.125  1.00  0.00     0.111 C 
BRANCH  10  11
ATOM     11  C   UNL     1      29.284  58.763 139.463  1.00  0.00     0.163 C 
ATOM     12  O   UNL     1      30.498  58.421 139.477  1.00  0.00    -0.294 OA
BRANCH  11  13
ATOM     13  C   UNL     1      28.262  57.847 138.854  1.00  0.00    -0.002 C 
ATOM     14  C   UNL     1      27.527  58.243 137.768  1.00  0.00    -0.069 C 
ATOM     15  C   UNL     1      26.424  57.378 137.196  1.00  0.00     0.039 C 
ATOM     16  C   UNL     1      27.808  59.543 137.047  1.00  0.00     0.039 C 
BRANCH  13  17
ATOM     17  C   UNL     1      28.017  56.486 139.503  1.00  0.00     0.066 CG0
ATOM     18  G   UNL     1      26.955  56.549 140.576  1.00  0.00     0.000 G0
ENDBRANCH  13  17
ENDBRANCH  11  13
ENDBRANCH  10  11
ENDBRANCH   1  10
TORSDOF 0
ENDMDL
MODEL 6
REMARK VINA RESULT:    -5.435      1.798      5.018
REMARK INTER + INTRA:          -7.284
REMARK INTER:                  -7.774
REMARK INTRA:                   0.489
REMARK UNBOUND:                 0.375
REMARK SMILES CC1=CCC(=C(C)C)C(=O)CC(C)=CCC1
REMARK SMILES IDX 12 1 14 2 13 3 15 4 16 5 2 6 1 7 3 8 11 10 9 11 10 12 5 13
REMARK SMILES IDX 6 14 7 15 8 16 4 17
REMARK H PARENT
REMARK Flexibility Score: 60.00
ROOT
ATOM      1  C   UNL     1      30.281  58.033 140.256  1.00  0.00    -0.070 C 
ATOM      2  C   UNL     1      30.415  58.188 141.599  1.00  0.00    -0.027 C 
ATOM      3  C   UNL     1      31.547  57.869 139.451  1.00  0.00     0.039 C 
ENDROOT
BRANCH   2   4
ATOM      4  C   UNL     1      29.300  58.467 142.579  1.00  0.00     0.032 C 
BRANCH   4   5
ATOM      5  C   UNL     1      28.488  57.219 142.946  1.00  0.00     0.034 C 
BRANCH   5   6
ATOM      6  C   UNL     1      27.020  57.573 143.087  1.00  0.00    -0.077 C 
ATOM      7  C   UNL     1      26.631  58.615 144.104  1.00  0.00     0.039 C 
ATOM      8  C   UNL     1      26.049  57.058 142.296  1.00  0.00    -0.023 CG0
ATOM      9  G   UNL     1      26.243  55.996 141.238  1.00  0.00     0.000 G0
ENDBRANCH   5   6
ENDBRANCH   4   5
ENDBRANCH   2   4
BRANCH   1  10
ATOM     10  C   UNL     1      28.945  57.935 139.527  1.00  0.00     0.111 C 
BRANCH  10  11
ATOM     11  C   UNL     1      28.239  56.616 139.717  1.00  0.00     0.163 C 
ATOM     12  O   UNL     1      28.949  55.574 139.759  1.00  0.00    -0.294 OA
BRANCH  11  13
ATOM     13  C   UNL     1      26.754  56.510 139.913  1.00  0.00    -0.002 C 
ATOM     14  C   UNL     1      25.887  56.931 138.940  1.00  0.00    -0.069 C 
ATOM     15  C   UNL     1      24.389  56.925 139.152  1.00  0.00     0.039 C 
ATOM     16  C   UNL     1      26.375  57.380 137.579  1.00  0.00     0.039 C 
BRANCH  13  17
ATOM     17  C   UNL     1      26.226  55.974 141.242  1.00  0.00     0.066 CG0
ATOM     18  G   UNL     1      26.063  57.067 142.273  1.00  0.00     0.000 G0
ENDBRANCH  13  17
ENDBRANCH  11  13
ENDBRANCH  10  11
ENDBRANCH   1  10
TORSDOF 0
ENDMDL
MODEL 7
REMARK VINA RESULT:    -5.407      1.960      3.942
REMARK INTER + INTRA:          -7.244
REMARK INTER:                  -7.901
REMARK INTRA:                   0.657
REMARK UNBOUND:                 0.375
REMARK SMILES CC1=CCC(=C(C)C)C(=O)CC(C)=CCC1
REMARK SMILES IDX 12 1 14 2 13 3 15 4 16 5 2 6 1 7 3 8 11 10 9 11 10 12 5 13
REMARK SMILES IDX 6 14 7 15 8 16 4 17
REMARK H PARENT
REMARK Flexibility Score: 60.00
ROOT
ATOM      1  C   UNL     1      26.202  56.672 140.569  1.00  0.00    -0.070 C 
ATOM      2  C   UNL     1      26.262  57.197 141.821  1.00  0.00    -0.027 C 
ATOM      3  C   UNL     1      24.939  56.910 139.780  1.00  0.00     0.039 C 
ENDROOT
BRANCH   2   4
ATOM      4  C   UNL     1      27.378  56.999 142.818  1.00  0.00     0.032 C 
BRANCH   4   5
ATOM      5  C   UNL     1      28.425  58.120 142.788  1.00  0.00     0.034 C 
BRANCH   5   6
ATOM      6  C   UNL     1      27.820  59.386 142.213  1.00  0.00    -0.077 C 
ATOM      7  C   UNL     1      26.822  60.145 143.050  1.00  0.00     0.039 C 
ATOM      8  C   UNL     1      28.186  59.913 141.020  1.00  0.00    -0.023 CG0
ATOM      9  G   UNL     1      29.155  59.292 140.042  1.00  0.00     0.000 G0
ENDBRANCH   5   6
ENDBRANCH   4   5
ENDBRANCH   2   4
BRANCH   1  10
ATOM     10  C   UNL     1      27.351  55.934 139.888  1.00  0.00     0.111 C 
BRANCH  10  11
ATOM     11  C   UNL     1      28.579  56.781 139.667  1.00  0.00     0.163 C 
ATOM     12  O   UNL     1      29.703  56.240 139.852  1.00  0.00    -0.294 OA
BRANCH  11  13
ATOM     13  C   UNL     1      28.509  58.201 139.185  1.00  0.00    -0.002 C 
ATOM     14  C   UNL     1      27.917  58.506 137.987  1.00  0.00    -0.069 C 
ATOM     15  C   UNL     1      27.920  59.914 137.434  1.00  0.00     0.039 C 
ATOM     16  C   UNL     1      27.183  57.462 137.174  1.00  0.00     0.039 C 
BRANCH  13  17
ATOM     17  C   UNL     1      29.161  59.295 140.028  1.00  0.00     0.066 CG0
ATOM     18  G   UNL     1      28.192  59.913 141.008  1.00  0.00     0.000 G0
ENDBRANCH  13  17
ENDBRANCH  11  13
ENDBRANCH  10  11
ENDBRANCH   1  10
TORSDOF 0
ENDMDL
MODEL 8
REMARK VINA RESULT:    -5.290      2.089      4.813
REMARK INTER + INTRA:          -7.081
REMARK INTER:                  -7.665
REMARK INTRA:                   0.584
REMARK UNBOUND:                 0.375
REMARK SMILES CC1=CCC(=C(C)C)C(=O)CC(C)=CCC1
REMARK SMILES IDX 12 1 14 2 13 3 15 4 16 5 2 6 1 7 3 8 11 10 9 11 10 12 5 13
REMARK SMILES IDX 6 14 7 15 8 16 4 17
REMARK H PARENT
REMARK Flexibility Score: 60.00
ROOT
ATOM      1  C   UNL     1      27.697  59.727 138.316  1.00  0.00    -0.070 C 
ATOM      2  C   UNL     1      28.696  60.331 139.011  1.00  0.00    -0.027 C 
ATOM      3  C   UNL     1      27.780  59.769 136.810  1.00  0.00     0.039 C 
ENDROOT
BRANCH   2   4
ATOM      4  C   UNL     1      28.764  60.498 140.510  1.00  0.00     0.032 C 
BRANCH   4   5
ATOM      5  C   UNL     1      30.015  59.866 141.135  1.00  0.00     0.034 C 
BRANCH   5   6
ATOM      6  C   UNL     1      30.232  58.473 140.577  1.00  0.00    -0.077 C 
ATOM      7  C   UNL     1      31.429  58.235 139.692  1.00  0.00     0.039 C 
ATOM      8  C   UNL     1      29.450  57.413 140.893  1.00  0.00    -0.023 CG0
ATOM      9  G   UNL     1      28.205  57.458 141.747  1.00  0.00     0.000 G0
ENDBRANCH   5   6
ENDBRANCH   4   5
ENDBRANCH   2   4
BRANCH   1  10
ATOM     10  C   UNL     1      26.551  58.947 138.954  1.00  0.00     0.111 C 
BRANCH  10  11
ATOM     11  C   UNL     1      26.942  57.575 139.444  1.00  0.00     0.163 C 
ATOM     12  O   UNL     1      27.339  56.740 138.585  1.00  0.00    -0.294 OA
BRANCH  11  13
ATOM     13  C   UNL     1      26.929  57.197 140.896  1.00  0.00    -0.002 C 
ATOM     14  C   UNL     1      25.804  56.671 141.473  1.00  0.00    -0.069 C 
ATOM     15  C   UNL     1      25.734  56.372 142.955  1.00  0.00     0.039 C 
ATOM     16  C   UNL     1      24.583  56.312 140.654  1.00  0.00     0.039 C 
BRANCH  13  17
ATOM     17  C   UNL     1      28.179  57.461 141.734  1.00  0.00     0.066 CG0
ATOM     18  G   UNL     1      29.441  57.418 140.905  1.00  0.00     0.000 G0
ENDBRANCH  13  17
ENDBRANCH  11  13
ENDBRANCH  10  11
ENDBRANCH   1  10
TORSDOF 0
ENDMDL
MODEL 9
REMARK VINA RESULT:    -4.994      1.943      3.891
REMARK INTER + INTRA:          -6.663
REMARK INTER:                  -6.946
REMARK INTRA:                   0.283
REMARK UNBOUND:                 0.375
REMARK SMILES CC1=CCC(=C(C)C)C(=O)CC(C)=CCC1
REMARK SMILES IDX 12 1 14 2 13 3 15 4 16 5 2 6 1 7 3 8 11 10 9 11 10 12 5 13
REMARK SMILES IDX 6 14 7 15 8 16 4 17
REMARK H PARENT
REMARK Flexibility Score: 60.00
ROOT
ATOM      1  C   UNL     1      26.968  57.165 138.139  1.00  0.00    -0.070 C 
ATOM      2  C   UNL     1      25.881  56.797 138.867  1.00  0.00    -0.027 C 
ATOM      3  C   UNL     1      26.741  57.516 136.689  1.00  0.00     0.039 C 
ENDROOT
BRANCH   2   4
ATOM      4  C   UNL     1      25.889  56.309 140.296  1.00  0.00     0.032 C 
BRANCH   4   5
ATOM      5  C   UNL     1      25.576  57.413 141.315  1.00  0.00     0.034 C 
BRANCH   5   6
ATOM      6  C   UNL     1      26.539  57.336 142.483  1.00  0.00    -0.077 C 
ATOM      7  C   UNL     1      26.336  56.250 143.508  1.00  0.00     0.039 C 
ATOM      8  C   UNL     1      27.619  58.144 142.614  1.00  0.00    -0.023 CG0
ATOM      9  G   UNL     1      27.977  59.292 141.700  1.00  0.00     0.000 G0
ENDBRANCH   5   6
ENDBRANCH   4   5
ENDBRANCH   2   4
BRANCH   1  10
ATOM     10  C   UNL     1      28.375  57.321 138.708  1.00  0.00     0.111 C 
BRANCH  10  11
ATOM     11  C   UNL     1      28.662  58.694 139.264  1.00  0.00     0.163 C 
ATOM     12  O   UNL     1      28.505  59.680 138.493  1.00  0.00    -0.294 OA
BRANCH  11  13
ATOM     13  C   UNL     1      29.062  58.925 140.692  1.00  0.00    -0.002 C 
ATOM     14  C   UNL     1      30.361  58.751 141.092  1.00  0.00    -0.069 C 
ATOM     15  C   UNL     1      30.771  58.883 142.542  1.00  0.00     0.039 C 
ATOM     16  C   UNL     1      31.468  58.466 140.100  1.00  0.00     0.039 C 
BRANCH  13  17
ATOM     17  C   UNL     1      27.983  59.304 141.704  1.00  0.00     0.066 CG0
ATOM     18  G   UNL     1      27.623  58.152 142.612  1.00  0.00     0.000 G0
ENDBRANCH  13  17
ENDBRANCH  11  13
ENDBRANCH  10  11
ENDBRANCH   1  10
TORSDOF 0
ENDMDL
