MODEL 1
REMARK VINA RESULT:    -5.273      0.000      0.000
REMARK INTER + INTRA:          -7.157
REMARK INTER:                  -6.814
REMARK INTRA:                  -0.343
REMARK UNBOUND:                -0.343
REMARK SMILES CCO[C@H]1O[C@@H](CO)[C@@H](O)[C@H](O)[C@@H]1O
REMARK SMILES IDX 4 1 13 2 11 3 9 4 6 5 5 6 3 7 2 8 1 9 14 10 12 12 7 14 8 15
REMARK SMILES IDX 10 17
REMARK H PARENT 14 11 12 13 8 16 10 18
REMARK Flexibility Score: inf
ROOT
ATOM      1  C   UNL     1     233.201 239.057 238.900  1.00  0.00     0.281 C 
ATOM      2  C   UNL     1     232.321 240.119 239.620  1.00  0.00     0.202 C 
ATOM      3  C   UNL     1     233.180 240.956 240.609  1.00  0.00     0.179 C 
ATOM      4  C   UNL     1     234.393 240.153 241.098  1.00  0.00     0.177 C 
ATOM      5  C   UNL     1     235.253 239.674 239.876  1.00  0.00     0.178 C 
ATOM      6  O   UNL     1     234.504 239.559 238.668  1.00  0.00    -0.341 OA
ENDROOT
BRANCH   1   7
ATOM      7  O   UNL     1     232.649 238.504 237.709  1.00  0.00    -0.350 OA
BRANCH   7   8
ATOM      8  C   UNL     1     233.386 238.728 236.515  1.00  0.00     0.160 C 
ATOM      9  C   UNL     1     233.762 237.457 235.752  1.00  0.00     0.035 C 
ENDBRANCH   7   8
ENDBRANCH   1   7
BRANCH   2  10
ATOM     10  O   UNL     1     231.279 239.458 240.295  1.00  0.00    -0.385 OA
ATOM     11  H   UNL     1     230.887 240.106 240.937  1.00  0.00     0.211 HD
ENDBRANCH   2  10
BRANCH   3  12
ATOM     12  O   UNL     1     232.416 241.377 241.712  1.00  0.00    -0.387 OA
ATOM     13  H   UNL     1     232.945 242.082 242.169  1.00  0.00     0.211 HD
ENDBRANCH   3  12
BRANCH   5  14
ATOM     14  C   UNL     1     236.443 240.605 239.597  1.00  0.00     0.191 C 
BRANCH  14  15
ATOM     15  O   UNL     1     237.593 240.106 240.222  1.00  0.00    -0.394 OA
ATOM     16  H   UNL     1     238.339 240.697 239.941  1.00  0.00     0.210 HD
ENDBRANCH  14  15
ENDBRANCH   5  14
BRANCH   4  17
ATOM     17  O   UNL     1     235.141 240.927 242.003  1.00  0.00    -0.387 OA
ATOM     18  H   UNL     1     235.124 240.445 242.870  1.00  0.00     0.211 HD
ENDBRANCH   4  17
TORSDOF 7
ENDMDL
MODEL 2
REMARK VINA RESULT:    -5.065      1.464      4.048
REMARK INTER + INTRA:          -6.888
REMARK INTER:                  -6.704
REMARK INTRA:                  -0.185
REMARK UNBOUND:                -0.343
REMARK SMILES CCO[C@H]1O[C@@H](CO)[C@@H](O)[C@H](O)[C@@H]1O
REMARK SMILES IDX 4 1 13 2 11 3 9 4 6 5 5 6 3 7 2 8 1 9 14 10 12 12 7 14 8 15
REMARK SMILES IDX 10 17
REMARK H PARENT 14 11 12 13 8 16 10 18
REMARK Flexibility Score: inf
ROOT
ATOM      1  C   UNL     1     233.581 240.267 241.110  1.00  0.00     0.281 C 
ATOM      2  C   UNL     1     232.713 239.279 240.278  1.00  0.00     0.202 C 
ATOM      3  C   UNL     1     233.380 238.997 238.903  1.00  0.00     0.179 C 
ATOM      4  C   UNL     1     234.264 240.173 238.468  1.00  0.00     0.177 C 
ATOM      5  C   UNL     1     235.347 240.471 239.566  1.00  0.00     0.178 C 
ATOM      6  O   UNL     1     234.959 240.047 240.871  1.00  0.00    -0.341 OA
ENDROOT
BRANCH   1   7
ATOM      7  O   UNL     1     233.306 240.302 242.507  1.00  0.00    -0.350 OA
BRANCH   7   8
ATOM      8  C   UNL     1     233.585 241.528 243.169  1.00  0.00     0.160 C 
ATOM      9  C   UNL     1     232.763 242.719 242.673  1.00  0.00     0.035 C 
ENDBRANCH   7   8
ENDBRANCH   1   7
BRANCH   2  10
ATOM     10  O   UNL     1     231.433 239.837 240.110  1.00  0.00    -0.385 OA
ATOM     11  H   UNL     1     231.494 240.796 240.360  1.00  0.00     0.211 HD
ENDBRANCH   2  10
BRANCH   3  12
ATOM     12  O   UNL     1     232.414 238.742 237.914  1.00  0.00    -0.387 OA
ATOM     13  H   UNL     1     232.286 237.757 237.890  1.00  0.00     0.211 HD
ENDBRANCH   3  12
BRANCH   5  14
ATOM     14  C   UNL     1     236.698 239.813 239.247  1.00  0.00     0.191 C 
BRANCH  14  15
ATOM     15  O   UNL     1     237.592 240.030 240.304  1.00  0.00    -0.394 OA
ATOM     16  H   UNL     1     238.192 239.239 240.326  1.00  0.00     0.210 HD
ENDBRANCH  14  15
ENDBRANCH   5  14
BRANCH   4  17
ATOM     17  O   UNL     1     234.840 239.898 237.216  1.00  0.00    -0.387 OA
ATOM     18  H   UNL     1     234.265 239.214 236.784  1.00  0.00     0.211 HD
ENDBRANCH   4  17
TORSDOF 7
ENDMDL
MODEL 3
REMARK VINA RESULT:    -5.017      1.545      3.426
REMARK INTER + INTRA:          -6.827
REMARK INTER:                  -6.473
REMARK INTRA:                  -0.353
REMARK UNBOUND:                -0.343
REMARK SMILES CCO[C@H]1O[C@@H](CO)[C@@H](O)[C@H](O)[C@@H]1O
REMARK SMILES IDX 4 1 13 2 11 3 9 4 6 5 5 6 3 7 2 8 1 9 14 10 12 12 7 14 8 15
REMARK SMILES IDX 10 17
REMARK H PARENT 14 11 12 13 8 16 10 18
REMARK Flexibility Score: inf
ROOT
ATOM      1  C   UNL     1     234.500 239.994 237.541  1.00  0.00     0.281 C 
ATOM      2  C   UNL     1     235.704 240.136 238.517  1.00  0.00     0.202 C 
ATOM      3  C   UNL     1     235.209 240.144 239.990  1.00  0.00     0.179 C 
ATOM      4  C   UNL     1     233.769 240.665 240.084  1.00  0.00     0.177 C 
ATOM      5  C   UNL     1     232.821 239.800 239.180  1.00  0.00     0.178 C 
ATOM      6  O   UNL     1     233.498 239.163 238.098  1.00  0.00    -0.341 OA
ENDROOT
BRANCH   1   7
ATOM      7  O   UNL     1     234.826 239.579 236.217  1.00  0.00    -0.350 OA
BRANCH   7   8
ATOM      8  C   UNL     1     233.896 238.708 235.588  1.00  0.00     0.160 C 
ATOM      9  C   UNL     1     233.938 238.733 234.059  1.00  0.00     0.035 C 
ENDBRANCH   7   8
ENDBRANCH   1   7
BRANCH   2  10
ATOM     10  O   UNL     1     236.393 241.323 238.212  1.00  0.00    -0.385 OA
ATOM     11  H   UNL     1     235.965 241.712 237.405  1.00  0.00     0.211 HD
ENDBRANCH   2  10
BRANCH   3  12
ATOM     12  O   UNL     1     236.049 240.927 240.802  1.00  0.00    -0.387 OA
ATOM     13  H   UNL     1     236.974 240.602 240.649  1.00  0.00     0.211 HD
ENDBRANCH   3  12
BRANCH   5  14
ATOM     14  C   UNL     1     232.090 238.708 239.976  1.00  0.00     0.191 C 
BRANCH  14  15
ATOM     15  O   UNL     1     231.005 239.268 240.664  1.00  0.00    -0.394 OA
ATOM     16  H   UNL     1     230.427 238.508 240.934  1.00  0.00     0.210 HD
ENDBRANCH  14  15
ENDBRANCH   5  14
BRANCH   4  17
ATOM     17  O   UNL     1     233.355 240.677 241.428  1.00  0.00    -0.387 OA
ATOM     18  H   UNL     1     232.559 240.088 241.485  1.00  0.00     0.211 HD
ENDBRANCH   4  17
TORSDOF 7
ENDMDL
MODEL 4
REMARK VINA RESULT:    -4.964      1.643      3.591
REMARK INTER + INTRA:          -6.757
REMARK INTER:                  -6.518
REMARK INTRA:                  -0.239
REMARK UNBOUND:                -0.343
REMARK SMILES CCO[C@H]1O[C@@H](CO)[C@@H](O)[C@H](O)[C@@H]1O
REMARK SMILES IDX 4 1 13 2 11 3 9 4 6 5 5 6 3 7 2 8 1 9 14 10 12 12 7 14 8 15
REMARK SMILES IDX 10 17
REMARK H PARENT 14 11 12 13 8 16 10 18
REMARK Flexibility Score: inf
ROOT
ATOM      1  C   UNL     1     234.812 239.584 239.385  1.00  0.00     0.281 C 
ATOM      2  C   UNL     1     235.582 239.961 240.684  1.00  0.00     0.202 C 
ATOM      3  C   UNL     1     234.593 240.449 241.779  1.00  0.00     0.179 C 
ATOM      4  C   UNL     1     233.326 241.044 241.150  1.00  0.00     0.177 C 
ATOM      5  C   UNL     1     232.643 239.990 240.208  1.00  0.00     0.178 C 
ATOM      6  O   UNL     1     233.552 239.017 239.696  1.00  0.00    -0.341 OA
ENDROOT
BRANCH   1   7
ATOM      7  O   UNL     1     235.524 238.765 238.462  1.00  0.00    -0.350 OA
BRANCH   7   8
ATOM      8  C   UNL     1     236.020 239.416 237.301  1.00  0.00     0.160 C 
ATOM      9  C   UNL     1     235.333 240.744 236.976  1.00  0.00     0.035 C 
ENDBRANCH   7   8
ENDBRANCH   1   7
BRANCH   2  10
ATOM     10  O   UNL     1     236.522 240.960 240.375  1.00  0.00    -0.385 OA
ATOM     11  H   UNL     1     236.774 240.843 239.422  1.00  0.00     0.211 HD
ENDBRANCH   2  10
BRANCH   3  12
ATOM     12  O   UNL     1     235.196 241.403 242.617  1.00  0.00    -0.387 OA
ATOM     13  H   UNL     1     235.928 241.820 242.091  1.00  0.00     0.211 HD
ENDBRANCH   3  12
BRANCH   5  14
ATOM     14  C   UNL     1     231.501 239.235 240.906  1.00  0.00     0.191 C 
BRANCH  14  15
ATOM     15  O   UNL     1     231.179 238.082 240.177  1.00  0.00    -0.394 OA
ATOM     16  H   UNL     1     230.419 237.658 240.653  1.00  0.00     0.210 HD
ENDBRANCH  14  15
ENDBRANCH   5  14
BRANCH   4  17
ATOM     17  O   UNL     1     232.459 241.492 242.162  1.00  0.00    -0.387 OA
ATOM     18  H   UNL     1     231.567 241.604 241.742  1.00  0.00     0.211 HD
ENDBRANCH   4  17
TORSDOF 7
ENDMDL
MODEL 5
REMARK VINA RESULT:    -4.882      1.795      4.404
REMARK INTER + INTRA:          -6.652
REMARK INTER:                  -6.261
REMARK INTRA:                  -0.391
REMARK UNBOUND:                -0.343
REMARK SMILES CCO[C@H]1O[C@@H](CO)[C@@H](O)[C@H](O)[C@@H]1O
REMARK SMILES IDX 4 1 13 2 11 3 9 4 6 5 5 6 3 7 2 8 1 9 14 10 12 12 7 14 8 15
REMARK SMILES IDX 10 17
REMARK H PARENT 14 11 12 13 8 16 10 18
REMARK Flexibility Score: inf
ROOT
ATOM      1  C   UNL     1     233.696 240.873 240.664  1.00  0.00     0.281 C 
ATOM      2  C   UNL     1     232.825 239.650 241.074  1.00  0.00     0.202 C 
ATOM      3  C   UNL     1     232.641 238.686 239.869  1.00  0.00     0.179 C 
ATOM      4  C   UNL     1     232.754 239.442 238.538  1.00  0.00     0.177 C 
ATOM      5  C   UNL     1     234.133 240.187 238.454  1.00  0.00     0.178 C 
ATOM      6  O   UNL     1     234.690 240.490 239.732  1.00  0.00    -0.341 OA
ENDROOT
BRANCH   1   7
ATOM      7  O   UNL     1     234.265 241.612 241.740  1.00  0.00    -0.350 OA
BRANCH   7   8
ATOM      8  C   UNL     1     234.652 240.859 242.882  1.00  0.00     0.160 C 
ATOM      9  C   UNL     1     234.033 241.337 244.197  1.00  0.00     0.035 C 
ENDBRANCH   7   8
ENDBRANCH   1   7
BRANCH   2  10
ATOM     10  O   UNL     1     231.582 240.117 241.537  1.00  0.00    -0.385 OA
ATOM     11  H   UNL     1     231.423 239.700 242.423  1.00  0.00     0.211 HD
ENDBRANCH   2  10
BRANCH   3  12
ATOM     12  O   UNL     1     231.402 238.025 239.933  1.00  0.00    -0.387 OA
ATOM     13  H   UNL     1     231.137 238.014 240.890  1.00  0.00     0.211 HD
ENDBRANCH   3  12
BRANCH   5  14
ATOM     14  C   UNL     1     235.184 239.387 237.668  1.00  0.00     0.191 C 
BRANCH  14  15
ATOM     15  O   UNL     1     235.031 239.624 236.296  1.00  0.00    -0.394 OA
ATOM     16  H   UNL     1     235.948 239.659 235.918  1.00  0.00     0.210 HD
ENDBRANCH  14  15
ENDBRANCH   5  14
BRANCH   4  17
ATOM     17  O   UNL     1     232.567 238.550 237.468  1.00  0.00    -0.387 OA
ATOM     18  H   UNL     1     231.801 237.969 237.713  1.00  0.00     0.211 HD
ENDBRANCH   4  17
TORSDOF 7
ENDMDL
MODEL 6
REMARK VINA RESULT:    -4.880      1.808      5.100
REMARK INTER + INTRA:          -6.649
REMARK INTER:                  -6.511
REMARK INTRA:                  -0.138
REMARK UNBOUND:                -0.343
REMARK SMILES CCO[C@H]1O[C@@H](CO)[C@@H](O)[C@H](O)[C@@H]1O
REMARK SMILES IDX 4 1 13 2 11 3 9 4 6 5 5 6 3 7 2 8 1 9 14 10 12 12 7 14 8 15
REMARK SMILES IDX 10 17
REMARK H PARENT 14 11 12 13 8 16 10 18
REMARK Flexibility Score: inf
ROOT
ATOM      1  C   UNL     1     234.711 240.207 241.399  1.00  0.00     0.281 C 
ATOM      2  C   UNL     1     235.394 240.823 240.144  1.00  0.00     0.202 C 
ATOM      3  C   UNL     1     234.943 240.075 238.858  1.00  0.00     0.179 C 
ATOM      4  C   UNL     1     234.537 238.630 239.178  1.00  0.00     0.177 C 
ATOM      5  C   UNL     1     233.402 238.614 240.263  1.00  0.00     0.178 C 
ATOM      6  O   UNL     1     233.399 239.773 241.093  1.00  0.00    -0.341 OA
ENDROOT
BRANCH   1   7
ATOM      7  O   UNL     1     234.718 241.023 242.567  1.00  0.00    -0.350 OA
BRANCH   7   8
ATOM      8  C   UNL     1     233.453 241.271 243.164  1.00  0.00     0.160 C 
ATOM      9  C   UNL     1     232.842 242.630 242.817  1.00  0.00     0.035 C 
ENDBRANCH   7   8
ENDBRANCH   1   7
BRANCH   2  10
ATOM     10  O   UNL     1     236.789 240.745 240.307  1.00  0.00    -0.385 OA
ATOM     11  H   UNL     1     237.202 241.032 239.451  1.00  0.00     0.211 HD
ENDBRANCH   2  10
BRANCH   3  12
ATOM     12  O   UNL     1     235.961 240.076 237.889  1.00  0.00    -0.387 OA
ATOM     13  H   UNL     1     236.545 239.299 238.091  1.00  0.00     0.211 HD
ENDBRANCH   3  12
BRANCH   5  14
ATOM     14  C   UNL     1     232.002 238.484 239.642  1.00  0.00     0.191 C 
BRANCH  14  15
ATOM     15  O   UNL     1     231.036 238.443 240.657  1.00  0.00    -0.394 OA
ATOM     16  H   UNL     1     230.653 239.357 240.710  1.00  0.00     0.210 HD
ENDBRANCH  14  15
ENDBRANCH   5  14
BRANCH   4  17
ATOM     17  O   UNL     1     234.151 237.973 237.996  1.00  0.00    -0.387 OA
ATOM     18  H   UNL     1     234.601 237.089 238.003  1.00  0.00     0.211 HD
ENDBRANCH   4  17
TORSDOF 7
ENDMDL
MODEL 7
REMARK VINA RESULT:    -4.815      1.355      4.644
REMARK INTER + INTRA:          -6.565
REMARK INTER:                  -6.394
REMARK INTRA:                  -0.171
REMARK UNBOUND:                -0.343
REMARK SMILES CCO[C@H]1O[C@@H](CO)[C@@H](O)[C@H](O)[C@@H]1O
REMARK SMILES IDX 4 1 13 2 11 3 9 4 6 5 5 6 3 7 2 8 1 9 14 10 12 12 7 14 8 15
REMARK SMILES IDX 10 17
REMARK H PARENT 14 11 12 13 8 16 10 18
REMARK Flexibility Score: inf
ROOT
ATOM      1  C   UNL     1     233.642 240.029 240.626  1.00  0.00     0.281 C 
ATOM      2  C   UNL     1     235.058 240.667 240.722  1.00  0.00     0.202 C 
ATOM      3  C   UNL     1     235.945 240.201 239.534  1.00  0.00     0.179 C 
ATOM      4  C   UNL     1     235.490 238.832 239.012  1.00  0.00     0.177 C 
ATOM      5  C   UNL     1     233.977 238.887 238.595  1.00  0.00     0.178 C 
ATOM      6  O   UNL     1     233.241 239.901 239.275  1.00  0.00    -0.341 OA
ENDROOT
BRANCH   1   7
ATOM      7  O   UNL     1     232.628 240.662 241.401  1.00  0.00    -0.350 OA
BRANCH   7   8
ATOM      8  C   UNL     1     232.768 242.063 241.592  1.00  0.00     0.160 C 
ATOM      9  C   UNL     1     232.732 242.511 243.054  1.00  0.00     0.035 C 
ENDBRANCH   7   8
ENDBRANCH   1   7
BRANCH   2  10
ATOM     10  O   UNL     1     235.634 240.301 241.952  1.00  0.00    -0.385 OA
ATOM     11  H   UNL     1     235.873 239.339 241.890  1.00  0.00     0.211 HD
ENDBRANCH   2  10
BRANCH   3  12
ATOM     12  O   UNL     1     237.299 240.139 239.906  1.00  0.00    -0.387 OA
ATOM     13  H   UNL     1     237.733 240.951 239.535  1.00  0.00     0.211 HD
ENDBRANCH   3  12
BRANCH   5  14
ATOM     14  C   UNL     1     233.795 239.115 237.086  1.00  0.00     0.191 C 
BRANCH  14  15
ATOM     15  O   UNL     1     232.675 238.406 236.631  1.00  0.00    -0.394 OA
ATOM     16  H   UNL     1     232.821 238.250 235.662  1.00  0.00     0.210 HD
ENDBRANCH  14  15
ENDBRANCH   5  14
BRANCH   4  17
ATOM     17  O   UNL     1     236.319 238.429 237.950  1.00  0.00    -0.387 OA
ATOM     18  H   UNL     1     236.802 237.620 238.259  1.00  0.00     0.211 HD
ENDBRANCH   4  17
TORSDOF 7
ENDMDL
MODEL 8
REMARK VINA RESULT:    -4.754      7.798     10.965
REMARK INTER + INTRA:          -6.487
REMARK INTER:                  -6.233
REMARK INTRA:                  -0.254
REMARK UNBOUND:                -0.343
REMARK SMILES CCO[C@H]1O[C@@H](CO)[C@@H](O)[C@H](O)[C@@H]1O
REMARK SMILES IDX 4 1 13 2 11 3 9 4 6 5 5 6 3 7 2 8 1 9 14 10 12 12 7 14 8 15
REMARK SMILES IDX 10 17
REMARK H PARENT 14 11 12 13 8 16 10 18
REMARK Flexibility Score: inf
ROOT
ATOM      1  C   UNL     1     235.889 238.820 230.592  1.00  0.00     0.281 C 
ATOM      2  C   UNL     1     235.222 239.420 229.320  1.00  0.00     0.202 C 
ATOM      3  C   UNL     1     235.278 238.402 228.146  1.00  0.00     0.179 C 
ATOM      4  C   UNL     1     236.468 237.446 228.305  1.00  0.00     0.177 C 
ATOM      5  C   UNL     1     236.385 236.704 229.686  1.00  0.00     0.178 C 
ATOM      6  O   UNL     1     235.651 237.426 230.672  1.00  0.00    -0.341 OA
ENDROOT
BRANCH   1   7
ATOM      7  O   UNL     1     235.563 239.463 231.820  1.00  0.00    -0.350 OA
BRANCH   7   8
ATOM      8  C   UNL     1     234.606 238.803 232.638  1.00  0.00     0.160 C 
ATOM      9  C   UNL     1     233.155 239.203 232.366  1.00  0.00     0.035 C 
ENDBRANCH   7   8
ENDBRANCH   1   7
BRANCH   2  10
ATOM     10  O   UNL     1     235.887 240.612 228.983  1.00  0.00    -0.385 OA
ATOM     11  H   UNL     1     236.842 240.384 228.835  1.00  0.00     0.211 HD
ENDBRANCH   2  10
BRANCH   3  12
ATOM     12  O   UNL     1     235.364 239.062 226.908  1.00  0.00    -0.387 OA
ATOM     13  H   UNL     1     234.498 239.529 226.775  1.00  0.00     0.211 HD
ENDBRANCH   3  12
BRANCH   5  14
ATOM     14  C   UNL     1     235.750 235.310 229.564  1.00  0.00     0.191 C 
BRANCH  14  15
ATOM     15  O   UNL     1     234.397 235.372 229.923  1.00  0.00    -0.394 OA
ATOM     16  H   UNL     1     234.378 235.446 230.913  1.00  0.00     0.210 HD
ENDBRANCH  14  15
ENDBRANCH   5  14
BRANCH   4  17
ATOM     17  O   UNL     1     236.503 236.549 227.222  1.00  0.00    -0.387 OA
ATOM     18  H   UNL     1     237.445 236.249 227.133  1.00  0.00     0.211 HD
ENDBRANCH   4  17
TORSDOF 7
ENDMDL
MODEL 9
REMARK VINA RESULT:    -4.707      1.477      4.118
REMARK INTER + INTRA:          -6.426
REMARK INTER:                  -6.233
REMARK INTRA:                  -0.193
REMARK UNBOUND:                -0.343
REMARK SMILES CCO[C@H]1O[C@@H](CO)[C@@H](O)[C@H](O)[C@@H]1O
REMARK SMILES IDX 4 1 13 2 11 3 9 4 6 5 5 6 3 7 2 8 1 9 14 10 12 12 7 14 8 15
REMARK SMILES IDX 10 17
REMARK H PARENT 14 11 12 13 8 16 10 18
REMARK Flexibility Score: inf
ROOT
ATOM      1  C   UNL     1     235.437 239.776 240.213  1.00  0.00     0.281 C 
ATOM      2  C   UNL     1     234.630 240.139 241.493  1.00  0.00     0.202 C 
ATOM      3  C   UNL     1     233.116 240.258 241.165  1.00  0.00     0.179 C 
ATOM      4  C   UNL     1     232.901 240.643 239.695  1.00  0.00     0.177 C 
ATOM      5  C   UNL     1     233.598 239.597 238.754  1.00  0.00     0.178 C 
ATOM      6  O   UNL     1     234.686 238.917 239.374  1.00  0.00    -0.341 OA
ENDROOT
BRANCH   1   7
ATOM      7  O   UNL     1     236.744 239.255 240.435  1.00  0.00    -0.350 OA
BRANCH   7   8
ATOM      8  C   UNL     1     236.817 237.888 240.815  1.00  0.00     0.160 C 
ATOM      9  C   UNL     1     237.629 237.624 242.084  1.00  0.00     0.035 C 
ENDBRANCH   7   8
ENDBRANCH   1   7
BRANCH   2  10
ATOM     10  O   UNL     1     235.128 241.348 242.011  1.00  0.00    -0.385 OA
ATOM     11  H   UNL     1     235.317 241.943 241.239  1.00  0.00     0.211 HD
ENDBRANCH   2  10
BRANCH   3  12
ATOM     12  O   UNL     1     232.490 241.203 241.997  1.00  0.00    -0.387 OA
ATOM     13  H   UNL     1     232.070 240.693 242.738  1.00  0.00     0.211 HD
ENDBRANCH   3  12
BRANCH   5  14
ATOM     14  C   UNL     1     232.618 238.531 238.238  1.00  0.00     0.191 C 
BRANCH  14  15
ATOM     15  O   UNL     1     232.661 238.486 236.838  1.00  0.00    -0.394 OA
ATOM     16  H   UNL     1     233.185 239.280 236.552  1.00  0.00     0.210 HD
ENDBRANCH  14  15
ENDBRANCH   5  14
BRANCH   4  17
ATOM     17  O   UNL     1     231.524 240.760 239.431  1.00  0.00    -0.387 OA
ATOM     18  H   UNL     1     231.441 241.101 238.504  1.00  0.00     0.211 HD
ENDBRANCH   4  17
TORSDOF 7
ENDMDL
