MODEL 1
REMARK VINA RESULT:    -5.254      0.000      0.000
REMARK INTER + INTRA:          -5.655
REMARK INTER:                  -5.561
REMARK INTRA:                  -0.094
REMARK UNBOUND:                -0.094
REMARK SMILES C=C(C)[C@@H]1CC=C(C)C(=O)C1
REMARK SMILES IDX 8 1 7 2 6 3 5 4 4 5 11 6 9 7 10 8 2 9 1 10 3 11
REMARK H PARENT
REMARK Flexibility Score: inf
ROOT
ATOM      1  C   UNL     1     216.734 149.875 183.219  1.00  0.00     0.048 C 
ATOM      2  C   UNL     1     215.422 150.609 183.168  1.00  0.00    -0.012 C 
ATOM      3  C   UNL     1     214.802 150.965 184.307  1.00  0.00    -0.019 C 
ATOM      4  C   UNL     1     213.529 151.770 184.307  1.00  0.00     0.036 C 
ATOM      5  C   UNL     1     212.688 151.479 183.049  1.00  0.00     0.025 C 
ATOM      6  C   UNL     1     213.526 151.712 181.779  1.00  0.00     0.089 C 
ATOM      7  C   UNL     1     214.826 150.959 181.856  1.00  0.00     0.158 C 
ATOM      8  O   UNL     1     215.431 150.667 180.788  1.00  0.00    -0.295 OA
ENDROOT
BRANCH   5   9
ATOM      9  C   UNL     1     211.402 152.297 183.032  1.00  0.00    -0.077 C 
ATOM     10  C   UNL     1     210.415 152.030 182.160  1.00  0.00     0.008 C 
ATOM     11  C   UNL     1     211.217 153.434 184.004  1.00  0.00     0.039 C 
ENDBRANCH   5   9
TORSDOF 1
ENDMDL
MODEL 2
REMARK VINA RESULT:    -4.958      1.362      2.011
REMARK INTER + INTRA:          -5.342
REMARK INTER:                  -5.247
REMARK INTRA:                  -0.095
REMARK UNBOUND:                -0.094
REMARK SMILES C=C(C)[C@@H]1CC=C(C)C(=O)C1
REMARK SMILES IDX 8 1 7 2 6 3 5 4 4 5 11 6 9 7 10 8 2 9 1 10 3 11
REMARK H PARENT
REMARK Flexibility Score: inf
ROOT
ATOM      1  C   UNL     1     216.688 149.877 182.343  1.00  0.00     0.048 C 
ATOM      2  C   UNL     1     215.312 150.461 182.508  1.00  0.00    -0.012 C 
ATOM      3  C   UNL     1     214.674 150.997 181.453  1.00  0.00    -0.019 C 
ATOM      4  C   UNL     1     213.266 151.521 181.551  1.00  0.00     0.036 C 
ATOM      5  C   UNL     1     212.970 152.059 182.964  1.00  0.00     0.025 C 
ATOM      6  C   UNL     1     213.267 150.980 184.021  1.00  0.00     0.089 C 
ATOM      7  C   UNL     1     214.650 150.421 183.836  1.00  0.00     0.158 C 
ATOM      8  O   UNL     1     215.229 149.875 184.814  1.00  0.00    -0.295 OA
ENDROOT
BRANCH   5   9
ATOM      9  C   UNL     1     211.543 152.582 183.079  1.00  0.00    -0.077 C 
ATOM     10  C   UNL     1     210.566 152.128 182.276  1.00  0.00     0.008 C 
ATOM     11  C   UNL     1     211.203 153.629 184.109  1.00  0.00     0.039 C 
ENDBRANCH   5   9
TORSDOF 1
ENDMDL
MODEL 3
REMARK VINA RESULT:    -4.910      2.620      3.527
REMARK INTER + INTRA:          -5.291
REMARK INTER:                  -5.200
REMARK INTRA:                  -0.091
REMARK UNBOUND:                -0.094
REMARK SMILES C=C(C)[C@@H]1CC=C(C)C(=O)C1
REMARK SMILES IDX 8 1 7 2 6 3 5 4 4 5 11 6 9 7 10 8 2 9 1 10 3 11
REMARK H PARENT
REMARK Flexibility Score: inf
ROOT
ATOM      1  C   UNL     1     212.235 150.994 178.729  1.00  0.00     0.048 C 
ATOM      2  C   UNL     1     212.276 151.518 180.138  1.00  0.00    -0.012 C 
ATOM      3  C   UNL     1     211.995 150.704 181.171  1.00  0.00    -0.019 C 
ATOM      4  C   UNL     1     212.102 151.162 182.602  1.00  0.00     0.036 C 
ATOM      5  C   UNL     1     211.807 152.669 182.727  1.00  0.00     0.025 C 
ATOM      6  C   UNL     1     212.723 153.474 181.787  1.00  0.00     0.089 C 
ATOM      7  C   UNL     1     212.653 152.932 180.386  1.00  0.00     0.158 C 
ATOM      8  O   UNL     1     212.963 153.682 179.420  1.00  0.00    -0.295 OA
ENDROOT
BRANCH   5   9
ATOM      9  C   UNL     1     211.924 153.147 184.169  1.00  0.00    -0.077 C 
ATOM     10  C   UNL     1     211.114 154.102 184.657  1.00  0.00     0.008 C 
ATOM     11  C   UNL     1     212.963 152.547 185.081  1.00  0.00     0.039 C 
ENDBRANCH   5   9
TORSDOF 1
ENDMDL
MODEL 4
REMARK VINA RESULT:    -4.894      2.950      4.131
REMARK INTER + INTRA:          -5.274
REMARK INTER:                  -5.183
REMARK INTRA:                  -0.091
REMARK UNBOUND:                -0.094
REMARK SMILES C=C(C)[C@@H]1CC=C(C)C(=O)C1
REMARK SMILES IDX 8 1 7 2 6 3 5 4 4 5 11 6 9 7 10 8 2 9 1 10 3 11
REMARK H PARENT
REMARK Flexibility Score: inf
ROOT
ATOM      1  C   UNL     1     212.815 156.175 184.422  1.00  0.00     0.048 C 
ATOM      2  C   UNL     1     212.372 154.929 183.705  1.00  0.00    -0.012 C 
ATOM      3  C   UNL     1     211.463 154.113 184.266  1.00  0.00    -0.019 C 
ATOM      4  C   UNL     1     210.929 152.899 183.552  1.00  0.00     0.036 C 
ATOM      5  C   UNL     1     211.983 152.310 182.594  1.00  0.00     0.025 C 
ATOM      6  C   UNL     1     212.481 153.390 181.617  1.00  0.00     0.089 C 
ATOM      7  C   UNL     1     212.924 154.618 182.363  1.00  0.00     0.158 C 
ATOM      8  O   UNL     1     213.740 155.408 181.816  1.00  0.00    -0.295 OA
ENDROOT
BRANCH   5   9
ATOM      9  C   UNL     1     211.450 151.087 181.857  1.00  0.00    -0.077 C 
ATOM     10  C   UNL     1     212.243 150.037 181.580  1.00  0.00     0.008 C 
ATOM     11  C   UNL     1     210.009 151.037 181.421  1.00  0.00     0.039 C 
ENDBRANCH   5   9
TORSDOF 1
ENDMDL
MODEL 5
REMARK VINA RESULT:    -4.892      2.122      4.770
REMARK INTER + INTRA:          -5.272
REMARK INTER:                  -5.178
REMARK INTRA:                  -0.095
REMARK UNBOUND:                -0.094
REMARK SMILES C=C(C)[C@@H]1CC=C(C)C(=O)C1
REMARK SMILES IDX 8 1 7 2 6 3 5 4 4 5 11 6 9 7 10 8 2 9 1 10 3 11
REMARK H PARENT
REMARK Flexibility Score: inf
ROOT
ATOM      1  C   UNL     1     209.712 151.366 181.375  1.00  0.00     0.048 C 
ATOM      2  C   UNL     1     211.146 151.112 181.752  1.00  0.00    -0.012 C 
ATOM      3  C   UNL     1     211.890 150.251 181.035  1.00  0.00    -0.019 C 
ATOM      4  C   UNL     1     213.350 150.024 181.324  1.00  0.00     0.036 C 
ATOM      5  C   UNL     1     213.659 150.224 182.820  1.00  0.00     0.025 C 
ATOM      6  C   UNL     1     213.180 151.612 183.284  1.00  0.00     0.089 C 
ATOM      7  C   UNL     1     211.743 151.833 182.902  1.00  0.00     0.158 C 
ATOM      8  O   UNL     1     211.059 152.676 183.544  1.00  0.00    -0.295 OA
ENDROOT
BRANCH   5   9
ATOM      9  C   UNL     1     215.137 150.009 183.123  1.00  0.00    -0.077 C 
ATOM     10  C   UNL     1     215.586 149.921 184.386  1.00  0.00     0.008 C 
ATOM     11  C   UNL     1     216.129 149.892 181.995  1.00  0.00     0.039 C 
ENDBRANCH   5   9
TORSDOF 1
ENDMDL
MODEL 6
REMARK VINA RESULT:    -4.882      3.143      4.577
REMARK INTER + INTRA:          -5.261
REMARK INTER:                  -5.173
REMARK INTRA:                  -0.088
REMARK UNBOUND:                -0.094
REMARK SMILES C=C(C)[C@@H]1CC=C(C)C(=O)C1
REMARK SMILES IDX 8 1 7 2 6 3 5 4 4 5 11 6 9 7 10 8 2 9 1 10 3 11
REMARK H PARENT
REMARK Flexibility Score: inf
ROOT
ATOM      1  C   UNL     1     211.132 154.007 184.327  1.00  0.00     0.048 C 
ATOM      2  C   UNL     1     211.418 153.278 183.043  1.00  0.00    -0.012 C 
ATOM      3  C   UNL     1     210.789 152.121 182.769  1.00  0.00    -0.019 C 
ATOM      4  C   UNL     1     210.982 151.396 181.463  1.00  0.00     0.036 C 
ATOM      5  C   UNL     1     212.392 151.642 180.893  1.00  0.00     0.025 C 
ATOM      6  C   UNL     1     212.663 153.153 180.768  1.00  0.00     0.089 C 
ATOM      7  C   UNL     1     212.377 153.852 182.068  1.00  0.00     0.158 C 
ATOM      8  O   UNL     1     212.930 154.961 182.304  1.00  0.00    -0.295 OA
ENDROOT
BRANCH   5   9
ATOM      9  C   UNL     1     212.595 150.924 179.565  1.00  0.00    -0.077 C 
ATOM     10  C   UNL     1     213.428 149.875 179.457  1.00  0.00     0.008 C 
ATOM     11  C   UNL     1     211.854 151.385 178.336  1.00  0.00     0.039 C 
ENDBRANCH   5   9
TORSDOF 1
ENDMDL
MODEL 7
REMARK VINA RESULT:    -4.862      1.813      3.006
REMARK INTER + INTRA:          -5.241
REMARK INTER:                  -5.148
REMARK INTRA:                  -0.093
REMARK UNBOUND:                -0.094
REMARK SMILES C=C(C)[C@@H]1CC=C(C)C(=O)C1
REMARK SMILES IDX 8 1 7 2 6 3 5 4 4 5 11 6 9 7 10 8 2 9 1 10 3 11
REMARK H PARENT
REMARK Flexibility Score: inf
ROOT
ATOM      1  C   UNL     1     214.158 153.303 185.558  1.00  0.00     0.048 C 
ATOM      2  C   UNL     1     213.333 152.848 184.386  1.00  0.00    -0.012 C 
ATOM      3  C   UNL     1     212.032 153.178 184.306  1.00  0.00    -0.019 C 
ATOM      4  C   UNL     1     211.186 152.814 183.114  1.00  0.00     0.036 C 
ATOM      5  C   UNL     1     211.674 151.504 182.466  1.00  0.00     0.025 C 
ATOM      6  C   UNL     1     213.168 151.605 182.113  1.00  0.00     0.089 C 
ATOM      7  C   UNL     1     213.967 152.054 183.305  1.00  0.00     0.158 C 
ATOM      8  O   UNL     1     215.198 151.785 183.357  1.00  0.00    -0.295 OA
ENDROOT
BRANCH   5   9
ATOM      9  C   UNL     1     210.833 151.131 181.251  1.00  0.00    -0.077 C 
ATOM     10  C   UNL     1     209.504 150.951 181.348  1.00  0.00     0.008 C 
ATOM     11  C   UNL     1     211.488 150.955 179.905  1.00  0.00     0.039 C 
ENDBRANCH   5   9
TORSDOF 1
ENDMDL
MODEL 8
REMARK VINA RESULT:    -4.839      1.537      2.978
REMARK INTER + INTRA:          -5.216
REMARK INTER:                  -5.123
REMARK INTRA:                  -0.093
REMARK UNBOUND:                -0.094
REMARK SMILES C=C(C)[C@@H]1CC=C(C)C(=O)C1
REMARK SMILES IDX 8 1 7 2 6 3 5 4 4 5 11 6 9 7 10 8 2 9 1 10 3 11
REMARK H PARENT
REMARK Flexibility Score: inf
ROOT
ATOM      1  C   UNL     1     212.986 149.875 179.255  1.00  0.00     0.048 C 
ATOM      2  C   UNL     1     212.853 150.493 180.620  1.00  0.00    -0.012 C 
ATOM      3  C   UNL     1     211.672 150.994 181.023  1.00  0.00    -0.019 C 
ATOM      4  C   UNL     1     211.470 151.548 182.409  1.00  0.00     0.036 C 
ATOM      5  C   UNL     1     212.775 152.154 182.961  1.00  0.00     0.025 C 
ATOM      6  C   UNL     1     213.911 151.116 182.908  1.00  0.00     0.089 C 
ATOM      7  C   UNL     1     214.025 150.524 181.530  1.00  0.00     0.158 C 
ATOM      8  O   UNL     1     215.119 150.011 181.170  1.00  0.00    -0.295 OA
ENDROOT
BRANCH   5   9
ATOM      9  C   UNL     1     212.586 152.708 184.368  1.00  0.00    -0.077 C 
ATOM     10  C   UNL     1     211.679 153.665 184.627  1.00  0.00     0.008 C 
ATOM     11  C   UNL     1     213.426 152.184 185.505  1.00  0.00     0.039 C 
ENDBRANCH   5   9
TORSDOF 1
ENDMDL
MODEL 9
REMARK VINA RESULT:    -4.809      1.998      2.605
REMARK INTER + INTRA:          -5.185
REMARK INTER:                  -5.092
REMARK INTRA:                  -0.093
REMARK UNBOUND:                -0.094
REMARK SMILES C=C(C)[C@@H]1CC=C(C)C(=O)C1
REMARK SMILES IDX 8 1 7 2 6 3 5 4 4 5 11 6 9 7 10 8 2 9 1 10 3 11
REMARK H PARENT
REMARK Flexibility Score: inf
ROOT
ATOM      1  C   UNL     1     215.981 150.035 179.893  1.00  0.00     0.048 C 
ATOM      2  C   UNL     1     214.671 150.522 180.449  1.00  0.00    -0.012 C 
ATOM      3  C   UNL     1     214.191 150.010 181.596  1.00  0.00    -0.019 C 
ATOM      4  C   UNL     1     212.926 150.522 182.233  1.00  0.00     0.036 C 
ATOM      5  C   UNL     1     211.942 151.047 181.171  1.00  0.00     0.025 C 
ATOM      6  C   UNL     1     212.622 152.109 180.288  1.00  0.00     0.089 C 
ATOM      7  C   UNL     1     213.923 151.589 179.740  1.00  0.00     0.158 C 
ATOM      8  O   UNL     1     214.397 152.104 178.691  1.00  0.00    -0.295 OA
ENDROOT
BRANCH   5   9
ATOM      9  C   UNL     1     210.662 151.579 181.804  1.00  0.00    -0.077 C 
ATOM     10  C   UNL     1     210.695 152.529 182.754  1.00  0.00     0.008 C 
ATOM     11  C   UNL     1     209.323 151.040 181.370  1.00  0.00     0.039 C 
ENDBRANCH   5   9
TORSDOF 1
ENDMDL
