MODEL 1
REMARK VINA RESULT:    -3.332      0.000      0.000
REMARK INTER + INTRA:          -3.542
REMARK INTER:                  -3.526
REMARK INTRA:                  -0.016
REMARK UNBOUND:                -0.016
REMARK SMILES O=C([O-])c1cccnc1
REMARK SMILES IDX 4 1 5 2 9 3 6 4 8 5 7 6 2 7 1 8 3 9
REMARK H PARENT
REMARK Flexibility Score: inf
ROOT
ATOM      1  C   UNL     1     -16.627  34.220 -16.690  1.00  0.00     0.016 A 
ATOM      2  C   UNL     1     -17.744  35.068 -16.775  1.00  0.00     0.013 A 
ATOM      3  C   UNL     1     -16.503  33.184 -17.631  1.00  0.00     0.120 A 
ATOM      4  C   UNL     1     -18.697  34.874 -17.775  1.00  0.00     0.021 A 
ATOM      5  N   UNL     1     -17.447  33.016 -18.596  1.00  0.00    -0.264 NA
ATOM      6  C   UNL     1     -18.531  33.831 -18.687  1.00  0.00     0.111 A 
ENDROOT
BRANCH   1   7
ATOM      7  C   UNL     1     -15.610  34.417 -15.635  1.00  0.00     0.073 C 
ATOM      8  O   UNL     1     -14.587  35.118 -15.854  1.00  0.00    -0.545 OA
ATOM      9  O   UNL     1     -15.769  33.828 -14.386  1.00  0.00    -0.545 OA
ENDBRANCH   1   7
TORSDOF 1
ENDMDL
MODEL 2
REMARK VINA RESULT:    -3.233     17.492     18.521
REMARK INTER + INTRA:          -3.438
REMARK INTER:                  -3.418
REMARK INTRA:                  -0.020
REMARK UNBOUND:                -0.016
REMARK SMILES O=C([O-])c1cccnc1
REMARK SMILES IDX 4 1 5 2 9 3 6 4 8 5 7 6 2 7 1 8 3 9
REMARK H PARENT
REMARK Flexibility Score: inf
ROOT
ATOM      1  C   UNL     1      -6.280  20.456 -10.218  1.00  0.00     0.016 A 
ATOM      2  C   UNL     1      -5.943  19.921 -11.472  1.00  0.00     0.013 A 
ATOM      3  C   UNL     1      -6.464  21.846 -10.112  1.00  0.00     0.120 A 
ATOM      4  C   UNL     1      -5.799  20.762 -12.577  1.00  0.00     0.021 A 
ATOM      5  N   UNL     1      -6.316  22.643 -11.204  1.00  0.00    -0.264 NA
ATOM      6  C   UNL     1      -5.992  22.135 -12.422  1.00  0.00     0.111 A 
ENDROOT
BRANCH   1   7
ATOM      7  C   UNL     1      -6.436  19.576  -9.040  1.00  0.00     0.073 C 
ATOM      8  O   UNL     1      -5.579  18.690  -8.785  1.00  0.00    -0.545 OA
ATOM      9  O   UNL     1      -7.534  19.714  -8.199  1.00  0.00    -0.545 OA
ENDBRANCH   1   7
TORSDOF 1
ENDMDL
MODEL 3
REMARK VINA RESULT:    -3.217     17.544     18.439
REMARK INTER + INTRA:          -3.422
REMARK INTER:                  -3.398
REMARK INTRA:                  -0.024
REMARK UNBOUND:                -0.016
REMARK SMILES O=C([O-])c1cccnc1
REMARK SMILES IDX 4 1 5 2 9 3 6 4 8 5 7 6 2 7 1 8 3 9
REMARK H PARENT
REMARK Flexibility Score: inf
ROOT
ATOM      1  C   UNL     1      -6.762  19.938 -10.475  1.00  0.00     0.016 A 
ATOM      2  C   UNL     1      -7.950  20.618 -10.788  1.00  0.00     0.013 A 
ATOM      3  C   UNL     1      -5.829  19.717 -11.503  1.00  0.00     0.120 A 
ATOM      4  C   UNL     1      -8.183  21.059 -12.092  1.00  0.00     0.021 A 
ATOM      5  N   UNL     1      -6.081  20.156 -12.766  1.00  0.00    -0.264 NA
ATOM      6  C   UNL     1      -7.227  20.816 -13.078  1.00  0.00     0.111 A 
ENDROOT
BRANCH   1   7
ATOM      7  C   UNL     1      -6.504  19.467  -9.098  1.00  0.00     0.073 C 
ATOM      8  O   UNL     1      -5.504  18.744  -8.846  1.00  0.00    -0.545 OA
ATOM      9  O   UNL     1      -7.363  19.816  -8.062  1.00  0.00    -0.545 OA
ENDBRANCH   1   7
TORSDOF 1
ENDMDL
MODEL 4
REMARK VINA RESULT:    -3.196      9.056      9.642
REMARK INTER + INTRA:          -3.398
REMARK INTER:                  -3.380
REMARK INTRA:                  -0.018
REMARK UNBOUND:                -0.016
REMARK SMILES O=C([O-])c1cccnc1
REMARK SMILES IDX 4 1 5 2 9 3 6 4 8 5 7 6 2 7 1 8 3 9
REMARK H PARENT
REMARK Flexibility Score: inf
ROOT
ATOM      1  C   UNL     1     -14.083  27.263 -10.743  1.00  0.00     0.016 A 
ATOM      2  C   UNL     1     -15.410  27.683 -10.937  1.00  0.00     0.013 A 
ATOM      3  C   UNL     1     -13.635  26.125 -11.437  1.00  0.00     0.120 A 
ATOM      4  C   UNL     1     -16.249  26.979 -11.802  1.00  0.00     0.021 A 
ATOM      5  N   UNL     1     -14.474  25.456 -12.273  1.00  0.00    -0.264 NA
ATOM      6  C   UNL     1     -15.759  25.856 -12.469  1.00  0.00     0.111 A 
ENDROOT
BRANCH   1   7
ATOM      7  C   UNL     1     -13.185  28.001  -9.830  1.00  0.00     0.073 C 
ATOM      8  O   UNL     1     -12.954  29.225 -10.011  1.00  0.00    -0.545 OA
ATOM      9  O   UNL     1     -12.582  27.352  -8.759  1.00  0.00    -0.545 OA
ENDBRANCH   1   7
TORSDOF 1
ENDMDL
MODEL 5
REMARK VINA RESULT:    -3.190      9.137     10.454
REMARK INTER + INTRA:          -3.392
REMARK INTER:                  -3.376
REMARK INTRA:                  -0.016
REMARK UNBOUND:                -0.016
REMARK SMILES O=C([O-])c1cccnc1
REMARK SMILES IDX 4 1 5 2 9 3 6 4 8 5 7 6 2 7 1 8 3 9
REMARK H PARENT
REMARK Flexibility Score: inf
ROOT
ATOM      1  C   UNL     1     -13.953  27.481 -10.667  1.00  0.00     0.016 A 
ATOM      2  C   UNL     1     -13.552  28.221  -9.542  1.00  0.00     0.013 A 
ATOM      3  C   UNL     1     -13.188  26.360 -11.035  1.00  0.00     0.120 A 
ATOM      4  C   UNL     1     -12.421  27.840  -8.818  1.00  0.00     0.021 A 
ATOM      5  N   UNL     1     -12.090  26.010 -10.312  1.00  0.00    -0.264 NA
ATOM      6  C   UNL     1     -11.694  26.720  -9.223  1.00  0.00     0.111 A 
ENDROOT
BRANCH   1   7
ATOM      7  C   UNL     1     -15.149  27.874 -11.441  1.00  0.00     0.073 C 
ATOM      8  O   UNL     1     -16.246  27.279 -11.271  1.00  0.00    -0.545 OA
ATOM      9  O   UNL     1     -15.078  28.907 -12.368  1.00  0.00    -0.545 OA
ENDBRANCH   1   7
TORSDOF 1
ENDMDL
MODEL 6
REMARK VINA RESULT:    -3.171      1.654      2.223
REMARK INTER + INTRA:          -3.372
REMARK INTER:                  -3.352
REMARK INTRA:                  -0.020
REMARK UNBOUND:                -0.016
REMARK SMILES O=C([O-])c1cccnc1
REMARK SMILES IDX 4 1 5 2 9 3 6 4 8 5 7 6 2 7 1 8 3 9
REMARK H PARENT
REMARK Flexibility Score: inf
ROOT
ATOM      1  C   UNL     1     -17.779  34.151 -18.137  1.00  0.00     0.016 A 
ATOM      2  C   UNL     1     -18.745  35.086 -17.731  1.00  0.00     0.013 A 
ATOM      3  C   UNL     1     -18.103  33.267 -19.181  1.00  0.00     0.120 A 
ATOM      4  C   UNL     1     -19.991  35.125 -18.359  1.00  0.00     0.021 A 
ATOM      5  N   UNL     1     -19.325  33.325 -19.776  1.00  0.00    -0.264 NA
ATOM      6  C   UNL     1     -20.266  34.227 -19.391  1.00  0.00     0.111 A 
ENDROOT
BRANCH   1   7
ATOM      7  C   UNL     1     -16.456  34.100 -17.480  1.00  0.00     0.073 C 
ATOM      8  O   UNL     1     -16.358  34.197 -16.229  1.00  0.00    -0.545 OA
ATOM      9  O   UNL     1     -15.300  33.946 -18.237  1.00  0.00    -0.545 OA
ENDBRANCH   1   7
TORSDOF 1
ENDMDL
MODEL 7
REMARK VINA RESULT:    -3.150      8.656      9.791
REMARK INTER + INTRA:          -3.350
REMARK INTER:                  -3.327
REMARK INTRA:                  -0.023
REMARK UNBOUND:                -0.016
REMARK SMILES O=C([O-])c1cccnc1
REMARK SMILES IDX 4 1 5 2 9 3 6 4 8 5 7 6 2 7 1 8 3 9
REMARK H PARENT
REMARK Flexibility Score: inf
ROOT
ATOM      1  C   UNL     1     -15.001  27.233 -11.565  1.00  0.00     0.016 A 
ATOM      2  C   UNL     1     -14.520  28.052 -10.530  1.00  0.00     0.013 A 
ATOM      3  C   UNL     1     -14.258  26.092 -11.913  1.00  0.00     0.120 A 
ATOM      4  C   UNL     1     -13.332  27.727  -9.873  1.00  0.00     0.021 A 
ATOM      5  N   UNL     1     -13.103  25.798 -11.258  1.00  0.00    -0.264 NA
ATOM      6  C   UNL     1     -12.629  26.584 -10.255  1.00  0.00     0.111 A 
ENDROOT
BRANCH   1   7
ATOM      7  C   UNL     1     -16.258  27.567 -12.267  1.00  0.00     0.073 C 
ATOM      8  O   UNL     1     -16.721  28.737 -12.231  1.00  0.00    -0.545 OA
ATOM      9  O   UNL     1     -16.948  26.591 -12.977  1.00  0.00    -0.545 OA
ENDBRANCH   1   7
TORSDOF 1
ENDMDL
MODEL 8
REMARK VINA RESULT:    -3.134     17.416     18.429
REMARK INTER + INTRA:          -3.333
REMARK INTER:                  -3.314
REMARK INTRA:                  -0.020
REMARK UNBOUND:                -0.016
REMARK SMILES O=C([O-])c1cccnc1
REMARK SMILES IDX 4 1 5 2 9 3 6 4 8 5 7 6 2 7 1 8 3 9
REMARK H PARENT
REMARK Flexibility Score: inf
ROOT
ATOM      1  C   UNL     1      -6.267  20.534 -10.189  1.00  0.00     0.016 A 
ATOM      2  C   UNL     1      -6.462  21.911  -9.991  1.00  0.00     0.013 A 
ATOM      3  C   UNL     1      -5.873  20.092 -11.464  1.00  0.00     0.120 A 
ATOM      4  C   UNL     1      -6.264  22.806 -11.044  1.00  0.00     0.021 A 
ATOM      5  N   UNL     1      -5.688  20.985 -12.473  1.00  0.00    -0.264 NA
ATOM      6  C   UNL     1      -5.873  22.319 -12.292  1.00  0.00     0.111 A 
ENDROOT
BRANCH   1   7
ATOM      7  C   UNL     1      -6.472  19.577  -9.081  1.00  0.00     0.073 C 
ATOM      8  O   UNL     1      -5.650  18.646  -8.878  1.00  0.00    -0.545 OA
ATOM      9  O   UNL     1      -7.579  19.693  -8.248  1.00  0.00    -0.545 OA
ENDBRANCH   1   7
TORSDOF 1
ENDMDL
MODEL 9
REMARK VINA RESULT:    -3.114      9.477     10.014
REMARK INTER + INTRA:          -3.312
REMARK INTER:                  -3.294
REMARK INTRA:                  -0.018
REMARK UNBOUND:                -0.016
REMARK SMILES O=C([O-])c1cccnc1
REMARK SMILES IDX 4 1 5 2 9 3 6 4 8 5 7 6 2 7 1 8 3 9
REMARK H PARENT
REMARK Flexibility Score: inf
ROOT
ATOM      1  C   UNL     1     -13.257  27.821 -10.161  1.00  0.00     0.016 A 
ATOM      2  C   UNL     1     -14.549  28.007 -10.680  1.00  0.00     0.013 A 
ATOM      3  C   UNL     1     -12.551  26.661 -10.526  1.00  0.00     0.120 A 
ATOM      4  C   UNL     1     -15.104  27.056 -11.539  1.00  0.00     0.021 A 
ATOM      5  N   UNL     1     -13.115  25.750 -11.364  1.00  0.00    -0.264 NA
ATOM      6  C   UNL     1     -14.364  25.921 -11.873  1.00  0.00     0.111 A 
ENDROOT
BRANCH   1   7
ATOM      7  C   UNL     1     -12.660  28.821  -9.251  1.00  0.00     0.073 C 
ATOM      8  O   UNL     1     -13.241  29.142  -8.181  1.00  0.00    -0.545 OA
ATOM      9  O   UNL     1     -11.446  29.422  -9.566  1.00  0.00    -0.545 OA
ENDBRANCH   1   7
TORSDOF 1
ENDMDL
