MODEL 1
REMARK VINA RESULT:    -5.002      0.000      0.000
REMARK INTER + INTRA:          -6.605
REMARK INTER:                  -6.464
REMARK INTRA:                  -0.141
REMARK UNBOUND:                -0.141
REMARK SMILES CCCCCCC(=O)[O-]
REMARK SMILES IDX 5 1 6 2 7 3 8 4 9 5 4 6 3 7 2 8 1 9
REMARK H PARENT
REMARK Flexibility Score: inf
ROOT
ATOM      1  C   UNL     1      18.839  26.444   0.775  1.00  0.00     0.006 C 
ENDROOT
BRANCH   1   2
ATOM      2  C   UNL     1      18.995  24.978   1.201  1.00  0.00     0.053 C 
BRANCH   2   3
ATOM      3  C   UNL     1      19.674  24.891   2.531  1.00  0.00     0.041 C 
ATOM      4  O   UNL     1      19.236  25.551   3.510  1.00  0.00    -0.550 OA
ATOM      5  O   UNL     1      20.760  24.042   2.703  1.00  0.00    -0.550 OA
ENDBRANCH   2   3
ENDBRANCH   1   2
BRANCH   1   6
ATOM      6  C   UNL     1      17.915  26.599  -0.446  1.00  0.00     0.000 C 
BRANCH   6   7
ATOM      7  C   UNL     1      17.258  25.272  -0.886  1.00  0.00    -0.000 C 
BRANCH   7   8
ATOM      8  C   UNL     1      16.256  25.436  -2.041  1.00  0.00    -0.003 C 
ATOM      9  C   UNL     1      14.856  24.935  -1.690  1.00  0.00     0.004 C 
ENDBRANCH   7   8
ENDBRANCH   6   7
ENDBRANCH   1   6
TORSDOF 5
ENDMDL
MODEL 2
REMARK VINA RESULT:    -4.805      3.087      5.144
REMARK INTER + INTRA:          -6.350
REMARK INTER:                  -6.207
REMARK INTRA:                  -0.143
REMARK UNBOUND:                -0.141
REMARK SMILES CCCCCCC(=O)[O-]
REMARK SMILES IDX 5 1 6 2 7 3 8 4 9 5 4 6 3 7 2 8 1 9
REMARK H PARENT
REMARK Flexibility Score: inf
ROOT
ATOM      1  C   UNL     1      18.512  26.071  -0.649  1.00  0.00     0.006 C 
ENDROOT
BRANCH   1   2
ATOM      2  C   UNL     1      17.050  26.432  -0.945  1.00  0.00     0.053 C 
BRANCH   2   3
ATOM      3  C   UNL     1      16.314  25.241  -1.473  1.00  0.00     0.041 C 
ATOM      4  O   UNL     1      16.335  24.152  -0.841  1.00  0.00    -0.550 OA
ATOM      5  O   UNL     1      15.566  25.347  -2.639  1.00  0.00    -0.550 OA
ENDBRANCH   2   3
ENDBRANCH   1   2
BRANCH   1   6
ATOM      6  C   UNL     1      18.862  26.238   0.840  1.00  0.00     0.000 C 
BRANCH   6   7
ATOM      7  C   UNL     1      19.267  24.913   1.524  1.00  0.00    -0.000 C 
BRANCH   7   8
ATOM      8  C   UNL     1      19.585  25.067   3.020  1.00  0.00    -0.003 C 
ATOM      9  C   UNL     1      20.738  24.174   3.477  1.00  0.00     0.004 C 
ENDBRANCH   7   8
ENDBRANCH   6   7
ENDBRANCH   1   6
TORSDOF 5
ENDMDL
MODEL 3
REMARK VINA RESULT:    -4.541     10.707     12.211
REMARK INTER + INTRA:          -6.008
REMARK INTER:                  -5.825
REMARK INTRA:                  -0.183
REMARK UNBOUND:                -0.141
REMARK SMILES CCCCCCC(=O)[O-]
REMARK SMILES IDX 5 1 6 2 7 3 8 4 9 5 4 6 3 7 2 8 1 9
REMARK H PARENT
REMARK Flexibility Score: inf
ROOT
ATOM      1  C   UNL     1      17.178  24.148  11.808  1.00  0.00     0.006 C 
ENDROOT
BRANCH   1   2
ATOM      2  C   UNL     1      16.627  23.489  13.079  1.00  0.00     0.053 C 
BRANCH   2   3
ATOM      3  C   UNL     1      16.472  24.504  14.168  1.00  0.00     0.041 C 
ATOM      4  O   UNL     1      15.953  25.624  13.921  1.00  0.00    -0.550 OA
ATOM      5  O   UNL     1      16.857  24.194  15.467  1.00  0.00    -0.550 OA
ENDBRANCH   2   3
ENDBRANCH   1   2
BRANCH   1   6
ATOM      6  C   UNL     1      17.559  23.113  10.735  1.00  0.00     0.000 C 
BRANCH   6   7
ATOM      7  C   UNL     1      18.743  23.562   9.848  1.00  0.00    -0.000 C 
BRANCH   7   8
ATOM      8  C   UNL     1      19.566  24.708  10.458  1.00  0.00    -0.003 C 
ATOM      9  C   UNL     1      20.987  24.288  10.829  1.00  0.00     0.004 C 
ENDBRANCH   7   8
ENDBRANCH   6   7
ENDBRANCH   1   6
TORSDOF 5
ENDMDL
MODEL 4
REMARK VINA RESULT:    -4.000      2.716      4.711
REMARK INTER + INTRA:          -5.310
REMARK INTER:                  -5.440
REMARK INTRA:                   0.130
REMARK UNBOUND:                -0.141
REMARK SMILES CCCCCCC(=O)[O-]
REMARK SMILES IDX 5 1 6 2 7 3 8 4 9 5 4 6 3 7 2 8 1 9
REMARK H PARENT
REMARK Flexibility Score: inf
ROOT
ATOM      1  C   UNL     1      19.204  24.188  -0.290  1.00  0.00     0.006 C 
ENDROOT
BRANCH   1   2
ATOM      2  C   UNL     1      18.877  25.273  -1.324  1.00  0.00     0.053 C 
BRANCH   2   3
ATOM      3  C   UNL     1      17.984  26.313  -0.725  1.00  0.00     0.041 C 
ATOM      4  O   UNL     1      16.738  26.137  -0.695  1.00  0.00    -0.550 OA
ATOM      5  O   UNL     1      18.532  27.457  -0.157  1.00  0.00    -0.550 OA
ENDBRANCH   2   3
ENDBRANCH   1   2
BRANCH   1   6
ATOM      6  C   UNL     1      19.116  24.715   1.153  1.00  0.00     0.000 C 
BRANCH   6   7
ATOM      7  C   UNL     1      20.224  24.157   2.075  1.00  0.00    -0.000 C 
BRANCH   7   8
ATOM      8  C   UNL     1      19.933  24.351   3.572  1.00  0.00    -0.003 C 
ATOM      9  C   UNL     1      19.157  25.634   3.865  1.00  0.00     0.004 C 
ENDBRANCH   7   8
ENDBRANCH   6   7
ENDBRANCH   1   6
TORSDOF 5
ENDMDL
MODEL 5
REMARK VINA RESULT:    -3.965      3.706      5.183
REMARK INTER + INTRA:          -5.264
REMARK INTER:                  -5.411
REMARK INTRA:                   0.147
REMARK UNBOUND:                -0.141
REMARK SMILES CCCCCCC(=O)[O-]
REMARK SMILES IDX 5 1 6 2 7 3 8 4 9 5 4 6 3 7 2 8 1 9
REMARK H PARENT
REMARK Flexibility Score: inf
ROOT
ATOM      1  C   UNL     1      17.271  24.548  -0.707  1.00  0.00     0.006 C 
ENDROOT
BRANCH   1   2
ATOM      2  C   UNL     1      16.859  25.466  -1.864  1.00  0.00     0.053 C 
BRANCH   2   3
ATOM      3  C   UNL     1      15.443  25.198  -2.266  1.00  0.00     0.041 C 
ATOM      4  O   UNL     1      14.633  24.703  -1.439  1.00  0.00    -0.550 OA
ATOM      5  O   UNL     1      15.004  25.540  -3.539  1.00  0.00    -0.550 OA
ENDBRANCH   2   3
ENDBRANCH   1   2
BRANCH   1   6
ATOM      6  C   UNL     1      18.724  24.789  -0.262  1.00  0.00     0.000 C 
BRANCH   6   7
ATOM      7  C   UNL     1      18.860  25.908   0.797  1.00  0.00    -0.000 C 
BRANCH   7   8
ATOM      8  C   UNL     1      18.256  27.250   0.351  1.00  0.00    -0.003 C 
ATOM      9  C   UNL     1      19.311  28.336   0.144  1.00  0.00     0.004 C 
ENDBRANCH   7   8
ENDBRANCH   6   7
ENDBRANCH   1   6
TORSDOF 5
ENDMDL
MODEL 6
REMARK VINA RESULT:    -3.906      2.439      4.427
REMARK INTER + INTRA:          -5.189
REMARK INTER:                  -5.019
REMARK INTRA:                  -0.170
REMARK UNBOUND:                -0.141
REMARK SMILES CCCCCCC(=O)[O-]
REMARK SMILES IDX 5 1 6 2 7 3 8 4 9 5 4 6 3 7 2 8 1 9
REMARK H PARENT
REMARK Flexibility Score: inf
ROOT
ATOM      1  C   UNL     1      17.571  26.854   0.013  1.00  0.00     0.006 C 
ENDROOT
BRANCH   1   2
ATOM      2  C   UNL     1      17.497  26.086  -1.313  1.00  0.00     0.053 C 
BRANCH   2   3
ATOM      3  C   UNL     1      18.131  24.738  -1.172  1.00  0.00     0.041 C 
ATOM      4  O   UNL     1      19.185  24.465  -1.804  1.00  0.00    -0.550 OA
ATOM      5  O   UNL     1      17.585  23.800  -0.305  1.00  0.00    -0.550 OA
ENDBRANCH   2   3
ENDBRANCH   1   2
BRANCH   1   6
ATOM      6  C   UNL     1      18.967  26.771   0.655  1.00  0.00     0.000 C 
BRANCH   6   7
ATOM      7  C   UNL     1      18.952  26.142   2.067  1.00  0.00    -0.000 C 
BRANCH   7   8
ATOM      8  C   UNL     1      19.738  24.824   2.159  1.00  0.00    -0.003 C 
ATOM      9  C   UNL     1      19.995  24.385   3.600  1.00  0.00     0.004 C 
ENDBRANCH   7   8
ENDBRANCH   6   7
ENDBRANCH   1   6
TORSDOF 5
ENDMDL
MODEL 7
REMARK VINA RESULT:    -3.779      9.837     10.939
REMARK INTER + INTRA:          -5.025
REMARK INTER:                  -4.982
REMARK INTRA:                  -0.042
REMARK UNBOUND:                -0.141
REMARK SMILES CCCCCCC(=O)[O-]
REMARK SMILES IDX 5 1 6 2 7 3 8 4 9 5 4 6 3 7 2 8 1 9
REMARK H PARENT
REMARK Flexibility Score: inf
ROOT
ATOM      1  C   UNL     1      24.929  19.194   5.612  1.00  0.00     0.006 C 
ENDROOT
BRANCH   1   2
ATOM      2  C   UNL     1      25.373  18.336   6.804  1.00  0.00     0.053 C 
BRANCH   2   3
ATOM      3  C   UNL     1      24.577  18.683   8.023  1.00  0.00     0.041 C 
ATOM      4  O   UNL     1      24.658  17.968   9.056  1.00  0.00    -0.550 OA
ATOM      5  O   UNL     1      23.782  19.823   8.033  1.00  0.00    -0.550 OA
ENDBRANCH   2   3
ENDBRANCH   1   2
BRANCH   1   6
ATOM      6  C   UNL     1      25.817  20.438   5.429  1.00  0.00     0.000 C 
BRANCH   6   7
ATOM      7  C   UNL     1      26.391  20.572   4.000  1.00  0.00    -0.000 C 
BRANCH   7   8
ATOM      8  C   UNL     1      26.395  22.016   3.473  1.00  0.00    -0.003 C 
ATOM      9  C   UNL     1      27.125  22.160   2.139  1.00  0.00     0.004 C 
ENDBRANCH   7   8
ENDBRANCH   6   7
ENDBRANCH   1   6
TORSDOF 5
ENDMDL
MODEL 8
REMARK VINA RESULT:    -3.651      1.709      2.290
REMARK INTER + INTRA:          -4.859
REMARK INTER:                  -4.687
REMARK INTRA:                  -0.172
REMARK UNBOUND:                -0.141
REMARK SMILES CCCCCCC(=O)[O-]
REMARK SMILES IDX 5 1 6 2 7 3 8 4 9 5 4 6 3 7 2 8 1 9
REMARK H PARENT
REMARK Flexibility Score: inf
ROOT
ATOM      1  C   UNL     1      19.159  25.729   1.592  1.00  0.00     0.006 C 
ENDROOT
BRANCH   1   2
ATOM      2  C   UNL     1      19.211  25.702   3.125  1.00  0.00     0.053 C 
BRANCH   2   3
ATOM      3  C   UNL     1      19.827  24.425   3.604  1.00  0.00     0.041 C 
ATOM      4  O   UNL     1      19.137  23.590   4.244  1.00  0.00    -0.550 OA
ATOM      5  O   UNL     1      21.153  24.137   3.302  1.00  0.00    -0.550 OA
ENDBRANCH   2   3
ENDBRANCH   1   2
BRANCH   1   6
ATOM      6  C   UNL     1      18.516  24.458   1.010  1.00  0.00     0.000 C 
BRANCH   6   7
ATOM      7  C   UNL     1      17.683  24.724  -0.265  1.00  0.00    -0.000 C 
BRANCH   7   8
ATOM      8  C   UNL     1      18.432  25.549  -1.325  1.00  0.00    -0.003 C 
ATOM      9  C   UNL     1      19.547  24.762  -2.012  1.00  0.00     0.004 C 
ENDBRANCH   7   8
ENDBRANCH   6   7
ENDBRANCH   1   6
TORSDOF 5
ENDMDL
MODEL 9
REMARK VINA RESULT:    -3.606      1.475      2.168
REMARK INTER + INTRA:          -4.801
REMARK INTER:                  -5.570
REMARK INTRA:                   0.769
REMARK UNBOUND:                -0.141
REMARK SMILES CCCCCCC(=O)[O-]
REMARK SMILES IDX 5 1 6 2 7 3 8 4 9 5 4 6 3 7 2 8 1 9
REMARK H PARENT
REMARK Flexibility Score: inf
ROOT
ATOM      1  C   UNL     1      17.481  26.575  -0.729  1.00  0.00     0.006 C 
ENDROOT
BRANCH   1   2
ATOM      2  C   UNL     1      18.713  26.601   0.186  1.00  0.00     0.053 C 
BRANCH   2   3
ATOM      3  C   UNL     1      19.074  25.214   0.616  1.00  0.00     0.041 C 
ATOM      4  O   UNL     1      19.373  24.343  -0.242  1.00  0.00    -0.550 OA
ATOM      5  O   UNL     1      19.127  24.897   1.967  1.00  0.00    -0.550 OA
ENDBRANCH   2   3
ENDBRANCH   1   2
BRANCH   1   6
ATOM      6  C   UNL     1      17.302  25.214  -1.424  1.00  0.00     0.000 C 
BRANCH   6   7
ATOM      7  C   UNL     1      15.960  24.528  -1.084  1.00  0.00    -0.000 C 
BRANCH   7   8
ATOM      8  C   UNL     1      14.758  25.124  -1.835  1.00  0.00    -0.003 C 
ATOM      9  C   UNL     1      15.083  25.484  -3.284  1.00  0.00     0.004 C 
ENDBRANCH   7   8
ENDBRANCH   6   7
ENDBRANCH   1   6
TORSDOF 5
ENDMDL
