MODEL 1
REMARK VINA RESULT:    -3.687      0.000      0.000
REMARK INTER + INTRA:          -5.333
REMARK INTER:                  -4.980
REMARK INTRA:                  -0.352
REMARK UNBOUND:                -0.352
REMARK SMILES CCCCCCC=CC(=O)[O-]
REMARK SMILES IDX 5 1 6 2 7 3 8 4 9 5 10 6 11 7 4 8 3 9 2 10 1 11
REMARK H PARENT
REMARK Flexibility Score: inf
ROOT
ATOM      1  C   UNL     1      51.387 -40.641 -30.254  1.00  0.00     0.004 C 
ENDROOT
BRANCH   1   2
ATOM      2  C   UNL     1      52.124 -41.568 -31.231  1.00  0.00     0.027 C 
BRANCH   2   3
ATOM      3  C   UNL     1      53.448 -40.988 -31.637  1.00  0.00    -0.025 C 
ATOM      4  C   UNL     1      53.707 -40.659 -32.907  1.00  0.00     0.020 C 
BRANCH   4   5
ATOM      5  C   UNL     1      55.005 -40.104 -33.321  1.00  0.00     0.064 C 
ATOM      6  O   UNL     1      55.307 -40.077 -34.542  1.00  0.00    -0.545 OA
ATOM      7  O   UNL     1      55.903 -39.608 -32.384  1.00  0.00    -0.545 OA
ENDBRANCH   4   5
ENDBRANCH   2   3
ENDBRANCH   1   2
BRANCH   1   8
ATOM      8  C   UNL     1      50.162 -41.343 -29.651  1.00  0.00     0.000 C 
BRANCH   8   9
ATOM      9  C   UNL     1      50.544 -42.456 -28.663  1.00  0.00    -0.000 C 
BRANCH   9  10
ATOM     10  C   UNL     1      50.011 -43.832 -29.087  1.00  0.00    -0.003 C 
ATOM     11  C   UNL     1      49.136 -43.722 -30.333  1.00  0.00     0.004 C 
ENDBRANCH   9  10
ENDBRANCH   8   9
ENDBRANCH   1   8
TORSDOF 6
ENDMDL
MODEL 2
REMARK VINA RESULT:    -3.672     11.532     12.266
REMARK INTER + INTRA:          -5.313
REMARK INTER:                  -5.136
REMARK INTRA:                  -0.177
REMARK UNBOUND:                -0.352
REMARK SMILES CCCCCCC=CC(=O)[O-]
REMARK SMILES IDX 5 1 6 2 7 3 8 4 9 5 10 6 11 7 4 8 3 9 2 10 1 11
REMARK H PARENT
REMARK Flexibility Score: inf
ROOT
ATOM      1  C   UNL     1      47.240 -30.039 -29.919  1.00  0.00     0.004 C 
ENDROOT
BRANCH   1   2
ATOM      2  C   UNL     1      46.646 -29.097 -30.974  1.00  0.00     0.027 C 
BRANCH   2   3
ATOM      3  C   UNL     1      47.675 -28.705 -31.995  1.00  0.00    -0.025 C 
ATOM      4  C   UNL     1      48.875 -28.237 -31.635  1.00  0.00     0.020 C 
BRANCH   4   5
ATOM      5  C   UNL     1      49.887 -27.836 -32.624  1.00  0.00     0.064 C 
ATOM      6  O   UNL     1      50.997 -27.393 -32.232  1.00  0.00    -0.545 OA
ATOM      7  O   UNL     1      49.635 -27.940 -33.987  1.00  0.00    -0.545 OA
ENDBRANCH   4   5
ENDBRANCH   2   3
ENDBRANCH   1   2
BRANCH   1   8
ATOM      8  C   UNL     1      46.284 -31.203 -29.622  1.00  0.00     0.000 C 
BRANCH   8   9
ATOM      9  C   UNL     1      46.929 -32.294 -28.753  1.00  0.00    -0.000 C 
BRANCH   9  10
ATOM     10  C   UNL     1      46.945 -33.666 -29.442  1.00  0.00    -0.003 C 
ATOM     11  C   UNL     1      46.767 -34.792 -28.427  1.00  0.00     0.004 C 
ENDBRANCH   9  10
ENDBRANCH   8   9
ENDBRANCH   1   8
TORSDOF 6
ENDMDL
MODEL 3
REMARK VINA RESULT:    -3.623      1.385      1.855
REMARK INTER + INTRA:          -5.247
REMARK INTER:                  -4.954
REMARK INTRA:                  -0.292
REMARK UNBOUND:                -0.352
REMARK SMILES CCCCCCC=CC(=O)[O-]
REMARK SMILES IDX 5 1 6 2 7 3 8 4 9 5 10 6 11 7 4 8 3 9 2 10 1 11
REMARK H PARENT
REMARK Flexibility Score: inf
ROOT
ATOM      1  C   UNL     1      51.294 -42.557 -30.935  1.00  0.00     0.004 C 
ENDROOT
BRANCH   1   2
ATOM      2  C   UNL     1      51.900 -41.255 -30.397  1.00  0.00     0.027 C 
BRANCH   2   3
ATOM      3  C   UNL     1      53.133 -40.871 -31.164  1.00  0.00    -0.025 C 
ATOM      4  C   UNL     1      53.184 -40.963 -32.497  1.00  0.00     0.020 C 
BRANCH   4   5
ATOM      5  C   UNL     1      54.389 -40.604 -33.260  1.00  0.00     0.064 C 
ATOM      6  O   UNL     1      54.512 -40.997 -34.449  1.00  0.00    -0.545 OA
ATOM      7  O   UNL     1      55.395 -39.834 -32.687  1.00  0.00    -0.545 OA
ENDBRANCH   4   5
ENDBRANCH   2   3
ENDBRANCH   1   2
BRANCH   1   8
ATOM      8  C   UNL     1      49.959 -42.868 -30.243  1.00  0.00     0.000 C 
BRANCH   8   9
ATOM      9  C   UNL     1      49.317 -41.624 -29.609  1.00  0.00    -0.000 C 
BRANCH   9  10
ATOM     10  C   UNL     1      48.656 -41.924 -28.256  1.00  0.00    -0.003 C 
ATOM     11  C   UNL     1      47.946 -40.691 -27.705  1.00  0.00     0.004 C 
ENDBRANCH   9  10
ENDBRANCH   8   9
ENDBRANCH   1   8
TORSDOF 6
ENDMDL
MODEL 4
REMARK VINA RESULT:    -3.596     13.511     14.247
REMARK INTER + INTRA:          -5.210
REMARK INTER:                  -4.909
REMARK INTRA:                  -0.300
REMARK UNBOUND:                -0.352
REMARK SMILES CCCCCCC=CC(=O)[O-]
REMARK SMILES IDX 5 1 6 2 7 3 8 4 9 5 10 6 11 7 4 8 3 9 2 10 1 11
REMARK H PARENT
REMARK Flexibility Score: inf
ROOT
ATOM      1  C   UNL     1      46.079 -29.511 -30.308  1.00  0.00     0.004 C 
ENDROOT
BRANCH   1   2
ATOM      2  C   UNL     1      46.217 -28.546 -31.493  1.00  0.00     0.027 C 
BRANCH   2   3
ATOM      3  C   UNL     1      47.570 -28.659 -32.132  1.00  0.00    -0.025 C 
ATOM      4  C   UNL     1      48.473 -27.677 -32.037  1.00  0.00     0.020 C 
BRANCH   4   5
ATOM      5  C   UNL     1      49.797 -27.768 -32.670  1.00  0.00     0.064 C 
ATOM      6  O   UNL     1      49.880 -27.944 -33.913  1.00  0.00    -0.545 OA
ATOM      7  O   UNL     1      50.960 -27.661 -31.916  1.00  0.00    -0.545 OA
ENDBRANCH   4   5
ENDBRANCH   2   3
ENDBRANCH   1   2
BRANCH   1   8
ATOM      8  C   UNL     1      44.679 -29.419 -29.685  1.00  0.00     0.000 C 
BRANCH   8   9
ATOM      9  C   UNL     1      43.727 -28.526 -30.496  1.00  0.00    -0.000 C 
BRANCH   9  10
ATOM     10  C   UNL     1      42.444 -29.259 -30.917  1.00  0.00    -0.003 C 
ATOM     11  C   UNL     1      41.946 -28.762 -32.271  1.00  0.00     0.004 C 
ENDBRANCH   9  10
ENDBRANCH   8   9
ENDBRANCH   1   8
TORSDOF 6
ENDMDL
MODEL 5
REMARK VINA RESULT:    -3.513     11.246     12.078
REMARK INTER + INTRA:          -5.098
REMARK INTER:                  -4.728
REMARK INTRA:                  -0.369
REMARK UNBOUND:                -0.352
REMARK SMILES CCCCCCC=CC(=O)[O-]
REMARK SMILES IDX 5 1 6 2 7 3 8 4 9 5 10 6 11 7 4 8 3 9 2 10 1 11
REMARK H PARENT
REMARK Flexibility Score: inf
ROOT
ATOM      1  C   UNL     1      46.804 -30.879 -29.023  1.00  0.00     0.004 C 
ENDROOT
BRANCH   1   2
ATOM      2  C   UNL     1      46.485 -29.985 -30.228  1.00  0.00     0.027 C 
BRANCH   2   3
ATOM      3  C   UNL     1      47.679 -29.171 -30.634  1.00  0.00    -0.025 C 
ATOM      4  C   UNL     1      47.833 -28.731 -31.887  1.00  0.00     0.020 C 
BRANCH   4   5
ATOM      5  C   UNL     1      49.005 -27.945 -32.302  1.00  0.00     0.064 C 
ATOM      6  O   UNL     1      49.619 -27.250 -31.452  1.00  0.00    -0.545 OA
ATOM      7  O   UNL     1      49.445 -27.959 -33.620  1.00  0.00    -0.545 OA
ENDBRANCH   4   5
ENDBRANCH   2   3
ENDBRANCH   1   2
BRANCH   1   8
ATOM      8  C   UNL     1      48.233 -31.434 -29.115  1.00  0.00     0.000 C 
BRANCH   8   9
ATOM      9  C   UNL     1      48.313 -32.928 -28.762  1.00  0.00    -0.000 C 
BRANCH   9  10
ATOM     10  C   UNL     1      47.245 -33.763 -29.483  1.00  0.00    -0.003 C 
ATOM     11  C   UNL     1      46.566 -34.735 -28.523  1.00  0.00     0.004 C 
ENDBRANCH   9  10
ENDBRANCH   8   9
ENDBRANCH   1   8
TORSDOF 6
ENDMDL
MODEL 6
REMARK VINA RESULT:    -3.433     12.206     12.997
REMARK INTER + INTRA:          -4.990
REMARK INTER:                  -4.648
REMARK INTRA:                  -0.341
REMARK UNBOUND:                -0.352
REMARK SMILES CCCCCCC=CC(=O)[O-]
REMARK SMILES IDX 5 1 6 2 7 3 8 4 9 5 10 6 11 7 4 8 3 9 2 10 1 11
REMARK H PARENT
REMARK Flexibility Score: inf
ROOT
ATOM      1  C   UNL     1      47.268 -29.034 -32.145  1.00  0.00     0.004 C 
ENDROOT
BRANCH   1   2
ATOM      2  C   UNL     1      48.303 -27.950 -32.475  1.00  0.00     0.027 C 
BRANCH   2   3
ATOM      3  C   UNL     1      49.645 -28.282 -31.888  1.00  0.00    -0.025 C 
ATOM      4  C   UNL     1      50.765 -28.200 -32.613  1.00  0.00     0.020 C 
BRANCH   4   5
ATOM      5  C   UNL     1      52.084 -28.536 -32.054  1.00  0.00     0.064 C 
ATOM      6  O   UNL     1      52.968 -27.645 -31.970  1.00  0.00    -0.545 OA
ATOM      7  O   UNL     1      52.368 -29.824 -31.616  1.00  0.00    -0.545 OA
ENDBRANCH   4   5
ENDBRANCH   2   3
ENDBRANCH   1   2
BRANCH   1   8
ATOM      8  C   UNL     1      46.074 -28.438 -31.386  1.00  0.00     0.000 C 
BRANCH   8   9
ATOM      9  C   UNL     1      45.849 -29.106 -30.019  1.00  0.00    -0.000 C 
BRANCH   9  10
ATOM     10  C   UNL     1      46.683 -30.382 -29.840  1.00  0.00    -0.003 C 
ATOM     11  C   UNL     1      45.837 -31.516 -29.268  1.00  0.00     0.004 C 
ENDBRANCH   9  10
ENDBRANCH   8   9
ENDBRANCH   1   8
TORSDOF 6
ENDMDL
MODEL 7
REMARK VINA RESULT:    -3.406     11.802     13.309
REMARK INTER + INTRA:          -4.954
REMARK INTER:                  -4.693
REMARK INTRA:                  -0.261
REMARK UNBOUND:                -0.352
REMARK SMILES CCCCCCC=CC(=O)[O-]
REMARK SMILES IDX 5 1 6 2 7 3 8 4 9 5 10 6 11 7 4 8 3 9 2 10 1 11
REMARK H PARENT
REMARK Flexibility Score: inf
ROOT
ATOM      1  C   UNL     1      45.742 -28.746 -30.677  1.00  0.00     0.004 C 
ENDROOT
BRANCH   1   2
ATOM      2  C   UNL     1      45.686 -29.703 -29.479  1.00  0.00     0.027 C 
BRANCH   2   3
ATOM      3  C   UNL     1      46.422 -30.980 -29.768  1.00  0.00    -0.025 C 
ATOM      4  C   UNL     1      46.232 -32.079 -29.030  1.00  0.00     0.020 C 
BRANCH   4   5
ATOM      5  C   UNL     1      46.956 -33.331 -29.293  1.00  0.00     0.064 C 
ATOM      6  O   UNL     1      46.327 -34.336 -29.714  1.00  0.00    -0.545 OA
ATOM      7  O   UNL     1      48.327 -33.422 -29.083  1.00  0.00    -0.545 OA
ENDBRANCH   4   5
ENDBRANCH   2   3
ENDBRANCH   1   2
BRANCH   1   8
ATOM      8  C   UNL     1      46.969 -29.034 -31.553  1.00  0.00     0.000 C 
BRANCH   8   9
ATOM      9  C   UNL     1      47.618 -27.753 -32.104  1.00  0.00    -0.000 C 
BRANCH   9  10
ATOM     10  C   UNL     1      48.854 -28.041 -32.968  1.00  0.00    -0.003 C 
ATOM     11  C   UNL     1      50.136 -27.923 -32.149  1.00  0.00     0.004 C 
ENDBRANCH   9  10
ENDBRANCH   8   9
ENDBRANCH   1   8
TORSDOF 6
ENDMDL
MODEL 8
REMARK VINA RESULT:    -3.395     14.382     15.690
REMARK INTER + INTRA:          -4.938
REMARK INTER:                  -4.606
REMARK INTRA:                  -0.332
REMARK UNBOUND:                -0.352
REMARK SMILES CCCCCCC=CC(=O)[O-]
REMARK SMILES IDX 5 1 6 2 7 3 8 4 9 5 10 6 11 7 4 8 3 9 2 10 1 11
REMARK H PARENT
REMARK Flexibility Score: inf
ROOT
ATOM      1  C   UNL     1      46.974 -29.351 -30.633  1.00  0.00     0.004 C 
ENDROOT
BRANCH   1   2
ATOM      2  C   UNL     1      45.642 -29.138 -29.902  1.00  0.00     0.027 C 
BRANCH   2   3
ATOM      3  C   UNL     1      44.612 -28.534 -30.813  1.00  0.00    -0.025 C 
ATOM      4  C   UNL     1      43.317 -28.847 -30.709  1.00  0.00     0.020 C 
BRANCH   4   5
ATOM      5  C   UNL     1      42.300 -28.273 -31.603  1.00  0.00     0.064 C 
ATOM      6  O   UNL     1      42.058 -28.828 -32.706  1.00  0.00    -0.545 OA
ATOM      7  O   UNL     1      41.600 -27.126 -31.248  1.00  0.00    -0.545 OA
ENDBRANCH   4   5
ENDBRANCH   2   3
ENDBRANCH   1   2
BRANCH   1   8
ATOM      8  C   UNL     1      46.911 -28.795 -32.062  1.00  0.00     0.000 C 
BRANCH   8   9
ATOM      9  C   UNL     1      48.127 -27.924 -32.414  1.00  0.00    -0.000 C 
BRANCH   9  10
ATOM     10  C   UNL     1      49.413 -28.394 -31.719  1.00  0.00    -0.003 C 
ATOM     11  C   UNL     1      50.648 -27.994 -32.520  1.00  0.00     0.004 C 
ENDBRANCH   9  10
ENDBRANCH   8   9
ENDBRANCH   1   8
TORSDOF 6
ENDMDL
MODEL 9
REMARK VINA RESULT:    -3.361      1.812      2.156
REMARK INTER + INTRA:          -4.893
REMARK INTER:                  -4.476
REMARK INTRA:                  -0.416
REMARK UNBOUND:                -0.352
REMARK SMILES CCCCCCC=CC(=O)[O-]
REMARK SMILES IDX 5 1 6 2 7 3 8 4 9 5 10 6 11 7 4 8 3 9 2 10 1 11
REMARK H PARENT
REMARK Flexibility Score: inf
ROOT
ATOM      1  C   UNL     1      52.125 -40.408 -30.493  1.00  0.00     0.004 C 
ENDROOT
BRANCH   1   2
ATOM      2  C   UNL     1      52.763 -41.088 -31.712  1.00  0.00     0.027 C 
BRANCH   2   3
ATOM      3  C   UNL     1      54.261 -41.006 -31.659  1.00  0.00    -0.025 C 
ATOM      4  C   UNL     1      54.921 -40.994 -30.496  1.00  0.00     0.020 C 
BRANCH   4   5
ATOM      5  C   UNL     1      56.387 -40.899 -30.430  1.00  0.00     0.064 C 
ATOM      6  O   UNL     1      57.079 -41.949 -30.457  1.00  0.00    -0.545 OA
ATOM      7  O   UNL     1      57.021 -39.665 -30.339  1.00  0.00    -0.545 OA
ENDBRANCH   4   5
ENDBRANCH   2   3
ENDBRANCH   1   2
BRANCH   1   8
ATOM      8  C   UNL     1      50.788 -41.070 -30.133  1.00  0.00     0.000 C 
BRANCH   8   9
ATOM      9  C   UNL     1      50.946 -42.208 -29.111  1.00  0.00    -0.000 C 
BRANCH   9  10
ATOM     10  C   UNL     1      50.439 -43.556 -29.644  1.00  0.00    -0.003 C 
ATOM     11  C   UNL     1      49.228 -43.367 -30.553  1.00  0.00     0.004 C 
ENDBRANCH   9  10
ENDBRANCH   8   9
ENDBRANCH   1   8
TORSDOF 6
ENDMDL
