MODEL 1
REMARK VINA RESULT:    -0.939      0.000      0.000
REMARK INTER + INTRA:          -4.679
REMARK INTER:                  -1.433
REMARK INTRA:                  -3.246
REMARK UNBOUND:                -3.246
REMARK SMILES CC(=O)CCC=C(C)CCC=C(C)CCC=C(C)C
REMARK SMILES IDX 10 1 11 2 12 3 13 4 14 5 15 6 16 7 18 8 17 9 19 10 9 11 7 12
REMARK SMILES IDX 6 13 8 14 5 15 4 16 2 17 3 18 1 19
REMARK H PARENT
REMARK Flexibility Score: inf
ROOT
ATOM      1  C   UNL     1      88.887  30.672  14.418  1.00  0.00     0.032 C 
ENDROOT
BRANCH   1   2
ATOM      2  C   UNL     1      89.422  29.265  14.301  1.00  0.00    -0.028 C 
ATOM      3  C   UNL     1      90.362  28.864  13.414  1.00  0.00    -0.077 C 
ATOM      4  C   UNL     1      90.846  27.437  13.485  1.00  0.00     0.039 C 
BRANCH   3   5
ATOM      5  C   UNL     1      90.920  29.772  12.333  1.00  0.00     0.034 C 
BRANCH   5   6
ATOM      6  C   UNL     1      92.368  29.408  11.973  1.00  0.00     0.032 C 
BRANCH   6   7
ATOM      7  C   UNL     1      93.362  30.077  12.894  1.00  0.00    -0.028 C 
ATOM      8  C   UNL     1      93.739  32.017  11.353  1.00  0.00     0.039 C 
ATOM      9  C   UNL     1      93.961  31.262  12.643  1.00  0.00    -0.080 C 
ATOM     10  C   UNL     1      94.893  31.828  13.684  1.00  0.00     0.039 C 
ENDBRANCH   6   7
ENDBRANCH   5   6
ENDBRANCH   3   5
ENDBRANCH   1   2
BRANCH   1  11
ATOM     11  C   UNL     1      89.508  31.419  15.608  1.00  0.00     0.034 C 
BRANCH  11  12
ATOM     12  C   UNL     1      90.872  31.995  15.268  1.00  0.00    -0.077 C 
ATOM     13  C   UNL     1      92.012  31.581  15.865  1.00  0.00    -0.028 C 
ATOM     14  C   UNL     1      90.968  33.060  14.204  1.00  0.00     0.039 C 
BRANCH  13  15
ATOM     15  C   UNL     1      92.055  30.547  16.967  1.00  0.00     0.035 C 
BRANCH  15  16
ATOM     16  C   UNL     1      92.595  29.198  16.474  1.00  0.00     0.079 C 
BRANCH  16  17
ATOM     17  C   UNL     1      91.780  28.043  16.993  1.00  0.00     0.130 C 
ATOM     18  O   UNL     1      92.189  26.901  16.854  1.00  0.00    -0.300 OA
ATOM     19  C   UNL     1      90.481  28.274  17.706  1.00  0.00     0.087 C 
ENDBRANCH  16  17
ENDBRANCH  15  16
ENDBRANCH  13  15
ENDBRANCH  11  12
ENDBRANCH   1  11
TORSDOF 9
ENDMDL
MODEL 2
REMARK VINA RESULT:    -0.926      1.747      3.789
REMARK INTER + INTRA:          -4.660
REMARK INTER:                  -1.469
REMARK INTRA:                  -3.191
REMARK UNBOUND:                -3.246
REMARK SMILES CC(=O)CCC=C(C)CCC=C(C)CCC=C(C)C
REMARK SMILES IDX 10 1 11 2 12 3 13 4 14 5 15 6 16 7 18 8 17 9 19 10 9 11 7 12
REMARK SMILES IDX 6 13 8 14 5 15 4 16 2 17 3 18 1 19
REMARK H PARENT
REMARK Flexibility Score: inf
ROOT
ATOM      1  C   UNL     1      90.019  31.611  13.559  1.00  0.00     0.032 C 
ENDROOT
BRANCH   1   2
ATOM      2  C   UNL     1      91.246  31.213  14.343  1.00  0.00    -0.028 C 
ATOM      3  C   UNL     1      92.390  30.735  13.802  1.00  0.00    -0.077 C 
ATOM      4  C   UNL     1      93.554  30.463  14.722  1.00  0.00     0.039 C 
BRANCH   3   5
ATOM      5  C   UNL     1      92.541  30.429  12.322  1.00  0.00     0.034 C 
BRANCH   5   6
ATOM      6  C   UNL     1      92.773  28.932  12.070  1.00  0.00     0.032 C 
BRANCH   6   7
ATOM      7  C   UNL     1      91.788  28.370  11.073  1.00  0.00    -0.028 C 
ATOM      8  C   UNL     1      92.128  26.001  11.816  1.00  0.00     0.039 C 
ATOM      9  C   UNL     1      91.465  27.062  10.968  1.00  0.00    -0.080 C 
ATOM     10  C   UNL     1      90.423  26.659   9.955  1.00  0.00     0.039 C 
ENDBRANCH   6   7
ENDBRANCH   5   6
ENDBRANCH   3   5
ENDBRANCH   1   2
BRANCH   1  11
ATOM     11  C   UNL     1      88.816  30.716  13.891  1.00  0.00     0.034 C 
BRANCH  11  12
ATOM     12  C   UNL     1      88.762  29.484  13.003  1.00  0.00    -0.077 C 
ATOM     13  C   UNL     1      89.023  28.239  13.462  1.00  0.00    -0.028 C 
ATOM     14  C   UNL     1      88.382  29.648  11.553  1.00  0.00     0.039 C 
BRANCH  13  15
ATOM     15  C   UNL     1      89.445  27.938  14.882  1.00  0.00     0.035 C 
BRANCH  15  16
ATOM     16  C   UNL     1      90.919  27.520  14.971  1.00  0.00     0.079 C 
BRANCH  16  17
ATOM     17  C   UNL     1      91.461  27.670  16.368  1.00  0.00     0.130 C 
ATOM     18  O   UNL     1      92.206  26.817  16.824  1.00  0.00    -0.300 OA
ATOM     19  C   UNL     1      91.122  28.868  17.203  1.00  0.00     0.087 C 
ENDBRANCH  16  17
ENDBRANCH  15  16
ENDBRANCH  13  15
ENDBRANCH  11  12
ENDBRANCH   1  11
TORSDOF 9
ENDMDL
MODEL 3
REMARK VINA RESULT:    -0.898      1.953      3.137
REMARK INTER + INTRA:          -4.617
REMARK INTER:                  -1.610
REMARK INTRA:                  -3.007
REMARK UNBOUND:                -3.246
REMARK SMILES CC(=O)CCC=C(C)CCC=C(C)CCC=C(C)C
REMARK SMILES IDX 10 1 11 2 12 3 13 4 14 5 15 6 16 7 18 8 17 9 19 10 9 11 7 12
REMARK SMILES IDX 6 13 8 14 5 15 4 16 2 17 3 18 1 19
REMARK H PARENT
REMARK Flexibility Score: inf
ROOT
ATOM      1  C   UNL     1      90.301  29.474  12.094  1.00  0.00     0.032 C 
ENDROOT
BRANCH   1   2
ATOM      2  C   UNL     1      89.550  28.208  12.428  1.00  0.00    -0.028 C 
ATOM      3  C   UNL     1      90.125  27.037  12.787  1.00  0.00    -0.077 C 
ATOM      4  C   UNL     1      89.224  25.888  13.169  1.00  0.00     0.039 C 
BRANCH   3   5
ATOM      5  C   UNL     1      91.628  26.819  12.787  1.00  0.00     0.034 C 
BRANCH   5   6
ATOM      6  C   UNL     1      92.122  26.250  11.449  1.00  0.00     0.032 C 
BRANCH   6   7
ATOM      7  C   UNL     1      92.910  27.269  10.661  1.00  0.00    -0.028 C 
ATOM      8  C   UNL     1      91.090  27.620   8.974  1.00  0.00     0.039 C 
ATOM      9  C   UNL     1      92.448  27.914   9.567  1.00  0.00    -0.080 C 
ATOM     10  C   UNL     1      93.335  28.945   8.916  1.00  0.00     0.039 C 
ENDBRANCH   6   7
ENDBRANCH   5   6
ENDBRANCH   3   5
ENDBRANCH   1   2
BRANCH   1  11
ATOM     11  C   UNL     1      90.676  30.263  13.358  1.00  0.00     0.034 C 
BRANCH  11  12
ATOM     12  C   UNL     1      92.177  30.269  13.599  1.00  0.00    -0.077 C 
ATOM     13  C   UNL     1      92.725  30.005  14.806  1.00  0.00    -0.028 C 
ATOM     14  C   UNL     1      93.098  30.561  12.441  1.00  0.00     0.039 C 
BRANCH  13  15
ATOM     15  C   UNL     1      91.918  29.729  16.054  1.00  0.00     0.035 C 
BRANCH  15  16
ATOM     16  C   UNL     1      92.053  28.273  16.520  1.00  0.00     0.079 C 
BRANCH  16  17
ATOM     17  C   UNL     1      90.758  27.517  16.379  1.00  0.00     0.130 C 
ATOM     18  O   UNL     1      90.766  26.296  16.382  1.00  0.00    -0.300 OA
ATOM     19  C   UNL     1      89.450  28.241  16.261  1.00  0.00     0.087 C 
ENDBRANCH  16  17
ENDBRANCH  15  16
ENDBRANCH  13  15
ENDBRANCH  11  12
ENDBRANCH   1  11
TORSDOF 9
ENDMDL
MODEL 4
REMARK VINA RESULT:    -0.894      1.413      3.759
REMARK INTER + INTRA:          -4.611
REMARK INTER:                  -1.234
REMARK INTRA:                  -3.377
REMARK UNBOUND:                -3.246
REMARK SMILES CC(=O)CCC=C(C)CCC=C(C)CCC=C(C)C
REMARK SMILES IDX 10 1 11 2 12 3 13 4 14 5 15 6 16 7 18 8 17 9 19 10 9 11 7 12
REMARK SMILES IDX 6 13 8 14 5 15 4 16 2 17 3 18 1 19
REMARK H PARENT
REMARK Flexibility Score: inf
ROOT
ATOM      1  C   UNL     1      93.534  31.149  12.477  1.00  0.00     0.032 C 
ENDROOT
BRANCH   1   2
ATOM      2  C   UNL     1      93.081  29.731  12.732  1.00  0.00    -0.028 C 
ATOM      3  C   UNL     1      92.138  29.078  12.015  1.00  0.00    -0.077 C 
ATOM      4  C   UNL     1      91.863  27.633  12.349  1.00  0.00     0.039 C 
BRANCH   3   5
ATOM      5  C   UNL     1      91.325  29.742  10.918  1.00  0.00     0.034 C 
BRANCH   5   6
ATOM      6  C   UNL     1      89.869  29.253  10.910  1.00  0.00     0.032 C 
BRANCH   6   7
ATOM      7  C   UNL     1      88.976  30.130  11.756  1.00  0.00    -0.028 C 
ATOM      8  C   UNL     1      88.291  28.259  13.275  1.00  0.00     0.039 C 
ATOM      9  C   UNL     1      88.287  29.706  12.837  1.00  0.00    -0.080 C 
ATOM     10  C   UNL     1      87.476  30.713  13.612  1.00  0.00     0.039 C 
ENDBRANCH   6   7
ENDBRANCH   5   6
ENDBRANCH   3   5
ENDBRANCH   1   2
BRANCH   1  11
ATOM     11  C   UNL     1      93.079  32.101  13.594  1.00  0.00     0.034 C 
BRANCH  11  12
ATOM     12  C   UNL     1      91.600  32.432  13.491  1.00  0.00    -0.077 C 
ATOM     13  C   UNL     1      90.711  32.119  14.460  1.00  0.00    -0.028 C 
ATOM     14  C   UNL     1      91.100  33.158  12.268  1.00  0.00     0.039 C 
BRANCH  13  15
ATOM     15  C   UNL     1      91.071  31.365  15.720  1.00  0.00     0.035 C 
BRANCH  15  16
ATOM     16  C   UNL     1      90.782  29.863  15.599  1.00  0.00     0.079 C 
BRANCH  16  17
ATOM     17  C   UNL     1      91.944  29.029  16.070  1.00  0.00     0.130 C 
ATOM     18  O   UNL     1      91.856  27.811  16.065  1.00  0.00    -0.300 OA
ATOM     19  C   UNL     1      93.222  29.670  16.522  1.00  0.00     0.087 C 
ENDBRANCH  16  17
ENDBRANCH  15  16
ENDBRANCH  13  15
ENDBRANCH  11  12
ENDBRANCH   1  11
TORSDOF 9
ENDMDL
MODEL 5
REMARK VINA RESULT:    -0.886      3.563      6.758
REMARK INTER + INTRA:          -4.598
REMARK INTER:                  -1.207
REMARK INTRA:                  -3.391
REMARK UNBOUND:                -3.246
REMARK SMILES CC(=O)CCC=C(C)CCC=C(C)CCC=C(C)C
REMARK SMILES IDX 10 1 11 2 12 3 13 4 14 5 15 6 16 7 18 8 17 9 19 10 9 11 7 12
REMARK SMILES IDX 6 13 8 14 5 15 4 16 2 17 3 18 1 19
REMARK H PARENT
REMARK Flexibility Score: inf
ROOT
ATOM      1  C   UNL     1      92.154  26.253  11.428  1.00  0.00     0.032 C 
ENDROOT
BRANCH   1   2
ATOM      2  C   UNL     1      92.677  27.669  11.444  1.00  0.00    -0.028 C 
ATOM      3  C   UNL     1      92.250  28.643  12.281  1.00  0.00    -0.077 C 
ATOM      4  C   UNL     1      92.938  29.984  12.223  1.00  0.00     0.039 C 
BRANCH   3   5
ATOM      5  C   UNL     1      91.093  28.456  13.247  1.00  0.00     0.034 C 
BRANCH   5   6
ATOM      6  C   UNL     1      90.233  29.723  13.359  1.00  0.00     0.032 C 
BRANCH   6   7
ATOM      7  C   UNL     1      89.096  29.722  12.365  1.00  0.00    -0.028 C 
ATOM      8  C   UNL     1      89.825  31.857  11.273  1.00  0.00     0.039 C 
ATOM      9  C   UNL     1      88.918  30.656  11.404  1.00  0.00    -0.080 C 
ATOM     10  C   UNL     1      87.762  30.491  10.450  1.00  0.00     0.039 C 
ENDBRANCH   6   7
ENDBRANCH   5   6
ENDBRANCH   3   5
ENDBRANCH   1   2
BRANCH   1  11
ATOM     11  C   UNL     1      91.358  25.955  10.148  1.00  0.00     0.034 C 
BRANCH  11  12
ATOM     12  C   UNL     1      89.997  26.630  10.156  1.00  0.00    -0.077 C 
ATOM     13  C   UNL     1      89.659  27.606   9.284  1.00  0.00    -0.028 C 
ATOM     14  C   UNL     1      88.968  26.181  11.163  1.00  0.00     0.039 C 
BRANCH  13  15
ATOM     15  C   UNL     1      90.603  28.170   8.247  1.00  0.00     0.035 C 
BRANCH  15  16
ATOM     16  C   UNL     1      91.149  29.546   8.650  1.00  0.00     0.079 C 
BRANCH  16  17
ATOM     17  C   UNL     1      92.631  29.656   8.400  1.00  0.00     0.130 C 
ATOM     18  O   UNL     1      93.206  30.710   8.622  1.00  0.00    -0.300 OA
ATOM     19  C   UNL     1      93.420  28.480   7.909  1.00  0.00     0.087 C 
ENDBRANCH  16  17
ENDBRANCH  15  16
ENDBRANCH  13  15
ENDBRANCH  11  12
ENDBRANCH   1  11
TORSDOF 9
ENDMDL
MODEL 6
REMARK VINA RESULT:    -0.876      2.521      5.141
REMARK INTER + INTRA:          -4.583
REMARK INTER:                  -1.529
REMARK INTRA:                  -3.053
REMARK UNBOUND:                -3.246
REMARK SMILES CC(=O)CCC=C(C)CCC=C(C)CCC=C(C)C
REMARK SMILES IDX 10 1 11 2 12 3 13 4 14 5 15 6 16 7 18 8 17 9 19 10 9 11 7 12
REMARK SMILES IDX 6 13 8 14 5 15 4 16 2 17 3 18 1 19
REMARK H PARENT
REMARK Flexibility Score: inf
ROOT
ATOM      1  C   UNL     1      90.241  29.830  13.327  1.00  0.00     0.032 C 
ENDROOT
BRANCH   1   2
ATOM      2  C   UNL     1      90.833  30.529  12.127  1.00  0.00    -0.028 C 
ATOM      3  C   UNL     1      92.144  30.518  11.792  1.00  0.00    -0.077 C 
ATOM      4  C   UNL     1      92.558  31.200  10.512  1.00  0.00     0.039 C 
BRANCH   3   5
ATOM      5  C   UNL     1      93.215  29.884  12.662  1.00  0.00     0.034 C 
BRANCH   5   6
ATOM      6  C   UNL     1      93.795  30.883  13.673  1.00  0.00     0.032 C 
BRANCH   6   7
ATOM      7  C   UNL     1      93.481  30.490  15.097  1.00  0.00    -0.028 C 
ATOM      8  C   UNL     1      91.879  32.385  15.446  1.00  0.00     0.039 C 
ATOM      9  C   UNL     1      92.601  31.135  15.894  1.00  0.00    -0.080 C 
ATOM     10  C   UNL     1      92.355  30.591  17.279  1.00  0.00     0.039 C 
ENDBRANCH   6   7
ENDBRANCH   5   6
ENDBRANCH   3   5
ENDBRANCH   1   2
BRANCH   1  11
ATOM     11  C   UNL     1      89.915  28.360  13.026  1.00  0.00     0.034 C 
BRANCH  11  12
ATOM     12  C   UNL     1      90.884  27.411  13.710  1.00  0.00    -0.077 C 
ATOM     13  C   UNL     1      91.565  26.452  13.043  1.00  0.00    -0.028 C 
ATOM     14  C   UNL     1      91.118  27.554  15.193  1.00  0.00     0.039 C 
BRANCH  13  15
ATOM     15  C   UNL     1      91.401  26.181  11.565  1.00  0.00     0.035 C 
BRANCH  15  16
ATOM     16  C   UNL     1      92.536  26.796  10.735  1.00  0.00     0.079 C 
BRANCH  16  17
ATOM     17  C   UNL     1      92.010  27.601   9.575  1.00  0.00     0.130 C 
ATOM     18  O   UNL     1      92.785  28.033   8.737  1.00  0.00    -0.300 OA
ATOM     19  C   UNL     1      90.541  27.859   9.418  1.00  0.00     0.087 C 
ENDBRANCH  16  17
ENDBRANCH  15  16
ENDBRANCH  13  15
ENDBRANCH  11  12
ENDBRANCH   1  11
TORSDOF 9
ENDMDL
MODEL 7
REMARK VINA RESULT:    -0.872      1.850      4.526
REMARK INTER + INTRA:          -4.577
REMARK INTER:                  -1.210
REMARK INTRA:                  -3.367
REMARK UNBOUND:                -3.246
REMARK SMILES CC(=O)CCC=C(C)CCC=C(C)CCC=C(C)C
REMARK SMILES IDX 10 1 11 2 12 3 13 4 14 5 15 6 16 7 18 8 17 9 19 10 9 11 7 12
REMARK SMILES IDX 6 13 8 14 5 15 4 16 2 17 3 18 1 19
REMARK H PARENT
REMARK Flexibility Score: inf
ROOT
ATOM      1  C   UNL     1      90.778  33.251  11.188  1.00  0.00     0.032 C 
ENDROOT
BRANCH   1   2
ATOM      2  C   UNL     1      90.224  32.246  12.170  1.00  0.00    -0.028 C 
ATOM      3  C   UNL     1      90.353  32.325  13.514  1.00  0.00    -0.077 C 
ATOM      4  C   UNL     1      89.667  31.280  14.358  1.00  0.00     0.039 C 
BRANCH   3   5
ATOM      5  C   UNL     1      91.182  33.393  14.205  1.00  0.00     0.034 C 
BRANCH   5   6
ATOM      6  C   UNL     1      91.961  32.827  15.401  1.00  0.00     0.032 C 
BRANCH   6   7
ATOM      7  C   UNL     1      93.322  32.315  14.995  1.00  0.00    -0.028 C 
ATOM      8  C   UNL     1      92.923  30.021  15.922  1.00  0.00     0.039 C 
ATOM      9  C   UNL     1      93.756  31.050  15.194  1.00  0.00    -0.080 C 
ATOM     10  C   UNL     1      95.125  30.674  14.686  1.00  0.00     0.039 C 
ENDBRANCH   6   7
ENDBRANCH   5   6
ENDBRANCH   3   5
ENDBRANCH   1   2
BRANCH   1  11
ATOM     11  C   UNL     1      91.898  32.648  10.327  1.00  0.00     0.034 C 
BRANCH  11  12
ATOM     12  C   UNL     1      93.173  32.430  11.125  1.00  0.00    -0.077 C 
ATOM     13  C   UNL     1      93.639  31.201  11.438  1.00  0.00    -0.028 C 
ATOM     14  C   UNL     1      93.966  33.632  11.572  1.00  0.00     0.039 C 
BRANCH  13  15
ATOM     15  C   UNL     1      92.928  29.916  11.080  1.00  0.00     0.035 C 
BRANCH  15  16
ATOM     16  C   UNL     1      92.406  29.179  12.321  1.00  0.00     0.079 C 
BRANCH  16  17
ATOM     17  C   UNL     1      91.031  28.605  12.096  1.00  0.00     0.130 C 
ATOM     18  O   UNL     1      90.486  27.972  12.986  1.00  0.00    -0.300 OA
ATOM     19  C   UNL     1      90.306  28.823  10.802  1.00  0.00     0.087 C 
ENDBRANCH  16  17
ENDBRANCH  15  16
ENDBRANCH  13  15
ENDBRANCH  11  12
ENDBRANCH   1  11
TORSDOF 9
ENDMDL
MODEL 8
REMARK VINA RESULT:    -0.870      2.044      5.114
REMARK INTER + INTRA:          -4.574
REMARK INTER:                  -1.172
REMARK INTRA:                  -3.402
REMARK UNBOUND:                -3.246
REMARK SMILES CC(=O)CCC=C(C)CCC=C(C)CCC=C(C)C
REMARK SMILES IDX 10 1 11 2 12 3 13 4 14 5 15 6 16 7 18 8 17 9 19 10 9 11 7 12
REMARK SMILES IDX 6 13 8 14 5 15 4 16 2 17 3 18 1 19
REMARK H PARENT
REMARK Flexibility Score: inf
ROOT
ATOM      1  C   UNL     1      89.348  31.438  11.613  1.00  0.00     0.032 C 
ENDROOT
BRANCH   1   2
ATOM      2  C   UNL     1      90.355  32.290  12.347  1.00  0.00    -0.028 C 
ATOM      3  C   UNL     1      90.434  32.411  13.692  1.00  0.00    -0.077 C 
ATOM      4  C   UNL     1      91.555  33.240  14.268  1.00  0.00     0.039 C 
BRANCH   3   5
ATOM      5  C   UNL     1      89.428  31.783  14.640  1.00  0.00     0.034 C 
BRANCH   5   6
ATOM      6  C   UNL     1      90.085  31.330  15.952  1.00  0.00     0.032 C 
BRANCH   6   7
ATOM      7  C   UNL     1      90.402  29.854  15.943  1.00  0.00    -0.028 C 
ATOM      8  C   UNL     1      92.810  30.194  16.548  1.00  0.00     0.039 C 
ATOM      9  C   UNL     1      91.611  29.327  16.238  1.00  0.00    -0.080 C 
ATOM     10  C   UNL     1      91.760  27.827  16.236  1.00  0.00     0.039 C 
ENDBRANCH   6   7
ENDBRANCH   5   6
ENDBRANCH   3   5
ENDBRANCH   1   2
BRANCH   1  11
ATOM     11  C   UNL     1      89.975  30.136  11.091  1.00  0.00     0.034 C 
BRANCH  11  12
ATOM     12  C   UNL     1      90.087  29.083  12.181  1.00  0.00    -0.077 C 
ATOM     13  C   UNL     1      91.273  28.609  12.623  1.00  0.00    -0.028 C 
ATOM     14  C   UNL     1      88.824  28.555  12.814  1.00  0.00     0.039 C 
BRANCH  13  15
ATOM     15  C   UNL     1      92.610  29.029  12.054  1.00  0.00     0.035 C 
BRANCH  15  16
ATOM     16  C   UNL     1      93.289  30.107  12.909  1.00  0.00     0.079 C 
BRANCH  16  17
ATOM     17  C   UNL     1      93.848  31.222  12.064  1.00  0.00     0.130 C 
ATOM     18  O   UNL     1      94.571  32.064  12.574  1.00  0.00    -0.300 OA
ATOM     19  C   UNL     1      93.554  31.301  10.596  1.00  0.00     0.087 C 
ENDBRANCH  16  17
ENDBRANCH  15  16
ENDBRANCH  13  15
ENDBRANCH  11  12
ENDBRANCH   1  11
TORSDOF 9
ENDMDL
MODEL 9
REMARK VINA RESULT:    -0.837      1.846      3.996
REMARK INTER + INTRA:          -4.524
REMARK INTER:                  -1.250
REMARK INTRA:                  -3.274
REMARK UNBOUND:                -3.246
REMARK SMILES CC(=O)CCC=C(C)CCC=C(C)CCC=C(C)C
REMARK SMILES IDX 10 1 11 2 12 3 13 4 14 5 15 6 16 7 18 8 17 9 19 10 9 11 7 12
REMARK SMILES IDX 6 13 8 14 5 15 4 16 2 17 3 18 1 19
REMARK H PARENT
REMARK Flexibility Score: inf
ROOT
ATOM      1  C   UNL     1      89.821  31.860  16.133  1.00  0.00     0.032 C 
ENDROOT
BRANCH   1   2
ATOM      2  C   UNL     1      90.884  31.053  16.839  1.00  0.00    -0.028 C 
ATOM      3  C   UNL     1      91.100  29.730  16.658  1.00  0.00    -0.077 C 
ATOM      4  C   UNL     1      92.260  29.093  17.382  1.00  0.00     0.039 C 
BRANCH   3   5
ATOM      5  C   UNL     1      90.210  28.857  15.793  1.00  0.00     0.034 C 
BRANCH   5   6
ATOM      6  C   UNL     1      91.007  28.146  14.689  1.00  0.00     0.032 C 
BRANCH   6   7
ATOM      7  C   UNL     1      90.208  28.014  13.414  1.00  0.00    -0.028 C 
ATOM      8  C   UNL     1      92.240  27.880  11.954  1.00  0.00     0.039 C 
ATOM      9  C   UNL     1      90.747  27.863  12.184  1.00  0.00    -0.080 C 
ATOM     10  C   UNL     1      89.817  27.692  11.010  1.00  0.00     0.039 C 
ENDBRANCH   6   7
ENDBRANCH   5   6
ENDBRANCH   3   5
ENDBRANCH   1   2
BRANCH   1  11
ATOM     11  C   UNL     1      90.397  32.646  14.945  1.00  0.00     0.034 C 
BRANCH  11  12
ATOM     12  C   UNL     1      90.313  31.858  13.649  1.00  0.00    -0.077 C 
ATOM     13  C   UNL     1      91.404  31.508  12.932  1.00  0.00    -0.028 C 
ATOM     14  C   UNL     1      88.958  31.426  13.147  1.00  0.00     0.039 C 
BRANCH  13  15
ATOM     15  C   UNL     1      92.815  31.902  13.304  1.00  0.00     0.035 C 
BRANCH  15  16
ATOM     16  C   UNL     1      93.599  30.735  13.920  1.00  0.00     0.079 C 
BRANCH  16  17
ATOM     17  C   UNL     1      94.324  31.146  15.175  1.00  0.00     0.130 C 
ATOM     18  O   UNL     1      95.125  30.381  15.689  1.00  0.00    -0.300 OA
ATOM     19  C   UNL     1      94.098  32.494  15.790  1.00  0.00     0.087 C 
ENDBRANCH  16  17
ENDBRANCH  15  16
ENDBRANCH  13  15
ENDBRANCH  11  12
ENDBRANCH   1  11
TORSDOF 9
ENDMDL
