MODEL 1
REMARK VINA RESULT:    -3.624      0.000      0.000
REMARK INTER + INTRA:          -4.366
REMARK INTER:                  -4.260
REMARK INTRA:                  -0.106
REMARK UNBOUND:                -0.106
REMARK SMILES O=C([O-])CCC(=O)[O-]
REMARK SMILES IDX 4 1 2 2 1 3 3 4 5 5 6 6 7 7 8 8
REMARK H PARENT
REMARK Flexibility Score: inf
ROOT
ATOM      1  C   UNL     1      41.284  37.112  22.805  1.00  0.00     0.059 C 
ENDROOT
BRANCH   1   2
ATOM      2  C   UNL     1      42.489  37.658  23.504  1.00  0.00     0.042 C 
ATOM      3  O   UNL     1      42.437  37.942  24.729  1.00  0.00    -0.550 OA
ATOM      4  O   UNL     1      43.656  37.901  22.790  1.00  0.00    -0.550 OA
ENDBRANCH   1   2
BRANCH   1   5
ATOM      5  C   UNL     1      40.354  36.421  23.803  1.00  0.00     0.059 C 
BRANCH   5   6
ATOM      6  C   UNL     1      38.995  37.045  23.770  1.00  0.00     0.042 C 
ATOM      7  O   UNL     1      38.768  38.102  24.416  1.00  0.00    -0.550 OA
ATOM      8  O   UNL     1      37.991  36.488  22.989  1.00  0.00    -0.550 OA
ENDBRANCH   5   6
ENDBRANCH   1   5
TORSDOF 3
ENDMDL
MODEL 2
REMARK VINA RESULT:    -3.613      0.188      3.944
REMARK INTER + INTRA:          -4.353
REMARK INTER:                  -4.254
REMARK INTRA:                  -0.098
REMARK UNBOUND:                -0.106
REMARK SMILES O=C([O-])CCC(=O)[O-]
REMARK SMILES IDX 4 1 2 2 1 3 3 4 5 5 6 6 7 7 8 8
REMARK H PARENT
REMARK Flexibility Score: inf
ROOT
ATOM      1  C   UNL     1      40.260  36.497  24.066  1.00  0.00     0.059 C 
ENDROOT
BRANCH   1   2
ATOM      2  C   UNL     1      38.931  37.135  23.812  1.00  0.00     0.042 C 
ATOM      3  O   UNL     1      38.635  38.227  24.365  1.00  0.00    -0.550 OA
ATOM      4  O   UNL     1      37.998  36.498  23.003  1.00  0.00    -0.550 OA
ENDBRANCH   1   2
BRANCH   1   5
ATOM      5  C   UNL     1      41.267  36.910  22.991  1.00  0.00     0.059 C 
BRANCH   5   6
ATOM      6  C   UNL     1      42.399  37.674  23.601  1.00  0.00     0.042 C 
ATOM      7  O   UNL     1      42.383  37.960  24.827  1.00  0.00    -0.550 OA
ATOM      8  O   UNL     1      43.496  38.028  22.826  1.00  0.00    -0.550 OA
ENDBRANCH   5   6
ENDBRANCH   1   5
TORSDOF 3
ENDMDL
MODEL 3
REMARK VINA RESULT:    -3.557     11.043     12.150
REMARK INTER + INTRA:          -4.288
REMARK INTER:                  -4.174
REMARK INTRA:                  -0.113
REMARK UNBOUND:                -0.106
REMARK SMILES O=C([O-])CCC(=O)[O-]
REMARK SMILES IDX 4 1 2 2 1 3 3 4 5 5 6 6 7 7 8 8
REMARK H PARENT
REMARK Flexibility Score: inf
ROOT
ATOM      1  C   UNL     1      48.841  33.893  16.976  1.00  0.00     0.059 C 
ENDROOT
BRANCH   1   2
ATOM      2  C   UNL     1      49.087  32.570  17.630  1.00  0.00     0.042 C 
ATOM      3  O   UNL     1      50.257  32.113  17.716  1.00  0.00    -0.550 OA
ATOM      4  O   UNL     1      48.019  31.817  18.100  1.00  0.00    -0.550 OA
ENDBRANCH   1   2
BRANCH   1   5
ATOM      5  C   UNL     1      47.780  33.761  15.883  1.00  0.00     0.059 C 
BRANCH   5   6
ATOM      6  C   UNL     1      48.418  33.424  14.573  1.00  0.00     0.042 C 
ATOM      7  O   UNL     1      48.532  32.222  14.214  1.00  0.00    -0.550 OA
ATOM      8  O   UNL     1      48.842  34.438  13.724  1.00  0.00    -0.550 OA
ENDBRANCH   5   6
ENDBRANCH   1   5
TORSDOF 3
ENDMDL
MODEL 4
REMARK VINA RESULT:    -3.554     11.024     12.118
REMARK INTER + INTRA:          -4.284
REMARK INTER:                  -4.170
REMARK INTRA:                  -0.114
REMARK UNBOUND:                -0.106
REMARK SMILES O=C([O-])CCC(=O)[O-]
REMARK SMILES IDX 4 1 2 2 1 3 3 4 5 5 6 6 7 7 8 8
REMARK H PARENT
REMARK Flexibility Score: inf
ROOT
ATOM      1  C   UNL     1      47.784  33.821  15.965  1.00  0.00     0.059 C 
ENDROOT
BRANCH   1   2
ATOM      2  C   UNL     1      48.423  33.433  14.670  1.00  0.00     0.042 C 
ATOM      3  O   UNL     1      48.818  34.318  13.867  1.00  0.00    -0.550 OA
ATOM      4  O   UNL     1      48.538  32.092  14.325  1.00  0.00    -0.550 OA
ENDBRANCH   1   2
BRANCH   1   5
ATOM      5  C   UNL     1      48.839  33.955  17.064  1.00  0.00     0.059 C 
BRANCH   5   6
ATOM      6  C   UNL     1      49.138  32.619  17.668  1.00  0.00     0.042 C 
ATOM      7  O   UNL     1      50.329  32.231  17.792  1.00  0.00    -0.550 OA
ATOM      8  O   UNL     1      48.103  31.822  18.139  1.00  0.00    -0.550 OA
ENDBRANCH   5   6
ENDBRANCH   1   5
TORSDOF 3
ENDMDL
MODEL 5
REMARK VINA RESULT:    -3.514     10.619     11.451
REMARK INTER + INTRA:          -4.237
REMARK INTER:                  -4.081
REMARK INTRA:                  -0.156
REMARK UNBOUND:                -0.106
REMARK SMILES O=C([O-])CCC(=O)[O-]
REMARK SMILES IDX 4 1 2 2 1 3 3 4 5 5 6 6 7 7 8 8
REMARK H PARENT
REMARK Flexibility Score: inf
ROOT
ATOM      1  C   UNL     1      49.401  33.132  17.398  1.00  0.00     0.059 C 
ENDROOT
BRANCH   1   2
ATOM      2  C   UNL     1      48.403  33.762  16.479  1.00  0.00     0.042 C 
ATOM      3  O   UNL     1      48.633  33.829  15.243  1.00  0.00    -0.550 OA
ATOM      4  O   UNL     1      47.240  34.320  16.993  1.00  0.00    -0.550 OA
ENDBRANCH   1   2
BRANCH   1   5
ATOM      5  C   UNL     1      49.425  31.615  17.205  1.00  0.00     0.059 C 
BRANCH   5   6
ATOM      6  C   UNL     1      48.074  31.032  17.475  1.00  0.00     0.042 C 
ATOM      7  O   UNL     1      47.549  31.151  18.614  1.00  0.00    -0.550 OA
ATOM      8  O   UNL     1      47.374  30.399  16.457  1.00  0.00    -0.550 OA
ENDBRANCH   5   6
ENDBRANCH   1   5
TORSDOF 3
ENDMDL
MODEL 6
REMARK VINA RESULT:    -3.469     10.626     11.470
REMARK INTER + INTRA:          -4.183
REMARK INTER:                  -4.015
REMARK INTRA:                  -0.168
REMARK UNBOUND:                -0.106
REMARK SMILES O=C([O-])CCC(=O)[O-]
REMARK SMILES IDX 4 1 2 2 1 3 3 4 5 5 6 6 7 7 8 8
REMARK H PARENT
REMARK Flexibility Score: inf
ROOT
ATOM      1  C   UNL     1      49.355  33.017  17.412  1.00  0.00     0.059 C 
ENDROOT
BRANCH   1   2
ATOM      2  C   UNL     1      48.362  33.707  16.532  1.00  0.00     0.042 C 
ATOM      3  O   UNL     1      47.388  34.324  17.038  1.00  0.00    -0.550 OA
ATOM      4  O   UNL     1      48.484  33.629  15.151  1.00  0.00    -0.550 OA
ENDBRANCH   1   2
BRANCH   1   5
ATOM      5  C   UNL     1      49.374  31.515  17.123  1.00  0.00     0.059 C 
BRANCH   5   6
ATOM      6  C   UNL     1      48.065  30.894  17.494  1.00  0.00     0.042 C 
ATOM      7  O   UNL     1      47.499  30.089  16.707  1.00  0.00    -0.550 OA
ATOM      8  O   UNL     1      47.491  31.165  18.729  1.00  0.00    -0.550 OA
ENDBRANCH   5   6
ENDBRANCH   1   5
TORSDOF 3
ENDMDL
MODEL 7
REMARK VINA RESULT:    -3.447     10.762     11.503
REMARK INTER + INTRA:          -4.157
REMARK INTER:                  -4.018
REMARK INTRA:                  -0.139
REMARK UNBOUND:                -0.106
REMARK SMILES O=C([O-])CCC(=O)[O-]
REMARK SMILES IDX 4 1 2 2 1 3 3 4 5 5 6 6 7 7 8 8
REMARK H PARENT
REMARK Flexibility Score: inf
ROOT
ATOM      1  C   UNL     1      49.158  32.296  17.336  1.00  0.00     0.059 C 
ENDROOT
BRANCH   1   2
ATOM      2  C   UNL     1      48.042  31.374  17.713  1.00  0.00     0.042 C 
ATOM      3  O   UNL     1      47.507  31.457  18.850  1.00  0.00    -0.550 OA
ATOM      4  O   UNL     1      47.625  30.388  16.827  1.00  0.00    -0.550 OA
ENDBRANCH   1   2
BRANCH   1   5
ATOM      5  C   UNL     1      48.610  33.673  16.957  1.00  0.00     0.059 C 
BRANCH   5   6
ATOM      6  C   UNL     1      47.894  33.608  15.645  1.00  0.00     0.042 C 
ATOM      7  O   UNL     1      48.426  33.031  14.660  1.00  0.00    -0.550 OA
ATOM      8  O   UNL     1      46.617  34.141  15.522  1.00  0.00    -0.550 OA
ENDBRANCH   5   6
ENDBRANCH   1   5
TORSDOF 3
ENDMDL
MODEL 8
REMARK VINA RESULT:    -3.288     12.423     14.084
REMARK INTER + INTRA:          -3.971
REMARK INTER:                  -3.882
REMARK INTRA:                  -0.089
REMARK UNBOUND:                -0.106
REMARK SMILES O=C([O-])CCC(=O)[O-]
REMARK SMILES IDX 4 1 2 2 1 3 3 4 5 5 6 6 7 7 8 8
REMARK H PARENT
REMARK Flexibility Score: inf
ROOT
ATOM      1  C   UNL     1      48.845  34.267  13.820  1.00  0.00     0.059 C 
ENDROOT
BRANCH   1   2
ATOM      2  C   UNL     1      48.187  33.327  14.780  1.00  0.00     0.042 C 
ATOM      3  O   UNL     1      47.370  33.763  15.634  1.00  0.00    -0.550 OA
ATOM      4  O   UNL     1      48.513  31.977  14.766  1.00  0.00    -0.550 OA
ENDBRANCH   1   2
BRANCH   1   5
ATOM      5  C   UNL     1      48.159  34.204  12.454  1.00  0.00     0.059 C 
BRANCH   5   6
ATOM      6  C   UNL     1      49.122  33.743  11.406  1.00  0.00     0.042 C 
ATOM      7  O   UNL     1      50.339  33.585  11.689  1.00  0.00    -0.550 OA
ATOM      8  O   UNL     1      48.667  33.440  10.129  1.00  0.00    -0.550 OA
ENDBRANCH   5   6
ENDBRANCH   1   5
TORSDOF 3
ENDMDL
MODEL 9
REMARK VINA RESULT:    -3.280      7.091      7.679
REMARK INTER + INTRA:          -3.962
REMARK INTER:                  -3.920
REMARK INTRA:                  -0.041
REMARK UNBOUND:                -0.106
REMARK SMILES O=C([O-])CCC(=O)[O-]
REMARK SMILES IDX 4 1 2 2 1 3 3 4 5 5 6 6 7 7 8 8
REMARK H PARENT
REMARK Flexibility Score: inf
ROOT
ATOM      1  C   UNL     1      45.113  35.055  28.604  1.00  0.00     0.059 C 
ENDROOT
BRANCH   1   2
ATOM      2  C   UNL     1      44.531  36.276  29.244  1.00  0.00     0.042 C 
ATOM      3  O   UNL     1      43.636  36.165  30.122  1.00  0.00    -0.550 OA
ATOM      4  O   UNL     1      44.941  37.538  28.834  1.00  0.00    -0.550 OA
ENDBRANCH   1   2
BRANCH   1   5
ATOM      5  C   UNL     1      44.496  33.790  29.202  1.00  0.00     0.059 C 
BRANCH   5   6
ATOM      6  C   UNL     1      44.789  32.606  28.337  1.00  0.00     0.042 C 
ATOM      7  O   UNL     1      44.351  31.468  28.652  1.00  0.00    -0.550 OA
ATOM      8  O   UNL     1      45.506  32.765  27.159  1.00  0.00    -0.550 OA
ENDBRANCH   5   6
ENDBRANCH   1   5
TORSDOF 3
ENDMDL
