MODEL 1
REMARK VINA RESULT:    -6.755      0.000      0.000
REMARK INTER + INTRA:         -11.353
REMARK INTER:                  -9.915
REMARK INTRA:                  -1.438
REMARK UNBOUND:                -1.438
REMARK SMILES Cc1cc2c(C(C)C)c(O)c(O)c(C=O)c2c(O)c1-c1c(C)cc2c(C(C)C)c(O)c(O)c(C=O)c2c1O
REMARK SMILES IDX 1 1 2 2 3 3 4 4 16 5 13 6 11 7 9 8 5 9 17 10 19 11 20 12
REMARK SMILES IDX 37 13 21 14 36 15 23 16 22 17 24 18 33 19 25 20 31 21 29 22
REMARK SMILES IDX 38 23 34 25 35 26 26 27 27 28 28 29 32 30 30 32 18 34 6 36
REMARK SMILES IDX 7 37 8 38 14 39 15 40 10 41 12 43
REMARK H PARENT 38 24 32 31 30 33 18 35 10 42 12 44
REMARK Flexibility Score: inf
ROOT
ATOM      1  C   UNL     1       8.842  -9.011  19.348  1.00  0.00     0.045 C 
ATOM      2  C   UNL     1      10.164  -9.144  18.633  1.00  0.00    -0.039 A 
ATOM      3  C   UNL     1      11.293  -8.512  19.156  1.00  0.00     0.013 A 
ATOM      4  C   UNL     1      12.554  -8.603  18.529  1.00  0.00    -0.006 A 
ATOM      5  C   UNL     1      12.640  -9.229  17.250  1.00  0.00     0.039 A 
ATOM      6  C   UNL     1      13.856  -9.122  16.510  1.00  0.00     0.072 A 
ATOM      7  C   UNL     1      14.945  -8.408  17.053  1.00  0.00     0.169 A 
ATOM      8  C   UNL     1      14.882  -7.894  18.352  1.00  0.00     0.162 A 
ATOM      9  C   UNL     1      13.723  -8.057  19.140  1.00  0.00     0.008 A 
ATOM     10  C   UNL     1      11.507  -9.950  16.763  1.00  0.00     0.132 A 
ATOM     11  C   UNL     1      10.278  -9.901  17.456  1.00  0.00     0.031 A 
ENDROOT
BRANCH  11  12
ATOM     12  C   UNL     1       9.097 -10.641  16.940  1.00  0.00     0.031 A 
ATOM     13  C   UNL     1       8.151  -9.990  16.122  1.00  0.00     0.132 A 
ATOM     14  C   UNL     1       8.920 -11.992  17.276  1.00  0.00    -0.039 A 
ATOM     15  C   UNL     1       6.986 -10.682  15.676  1.00  0.00     0.039 A 
ATOM     16  C   UNL     1       7.848 -12.701  16.728  1.00  0.00     0.013 A 
ATOM     17  C   UNL     1       9.906 -12.710  18.166  1.00  0.00     0.045 C 
ATOM     18  C   UNL     1       6.903 -12.091  15.879  1.00  0.00    -0.006 A 
ATOM     19  C   UNL     1       5.915 -10.013  15.021  1.00  0.00     0.072 A 
ATOM     20  C   UNL     1       5.877 -12.849  15.230  1.00  0.00     0.008 A 
ATOM     21  C   UNL     1       4.841 -10.751  14.494  1.00  0.00     0.169 A 
ATOM     22  C   UNL     1       4.848 -12.157  14.547  1.00  0.00     0.162 A 
BRANCH  13  23
ATOM     23  O   UNL     1       8.387  -8.672  15.714  1.00  0.00    -0.507 OA
ATOM     24  H   UNL     1       8.165  -8.319  14.791  1.00  0.00     0.293 HD
ENDBRANCH  13  23
BRANCH  19  25
ATOM     25  C   UNL     1       5.806  -8.533  15.008  1.00  0.00     0.264 C 
ATOM     26  O   UNL     1       5.784  -7.893  13.924  1.00  0.00    -0.298 OA
ENDBRANCH  19  25
BRANCH  20  27
ATOM     27  C   UNL     1       5.841 -14.392  15.201  1.00  0.00     0.017 C 
ATOM     28  C   UNL     1       5.376 -14.985  16.538  1.00  0.00     0.012 C 
ATOM     29  C   UNL     1       7.129 -15.050  14.663  1.00  0.00     0.012 C 
ENDBRANCH  20  27
BRANCH  21  30
ATOM     30  O   UNL     1       3.755 -10.053  13.953  1.00  0.00    -0.504 OA
ATOM     31  H   UNL     1       2.898 -10.484  13.636  1.00  0.00     0.293 HD
ENDBRANCH  21  30
BRANCH  22  32
ATOM     32  O   UNL     1       3.833 -12.895  13.925  1.00  0.00    -0.504 OA
ATOM     33  H   UNL     1       2.967 -12.502  13.582  1.00  0.00     0.293 HD
ENDBRANCH  22  32
ENDBRANCH  11  12
BRANCH  10  34
ATOM     34  O   UNL     1      11.610 -10.732  15.607  1.00  0.00    -0.507 OA
ATOM     35  H   UNL     1      11.826 -10.359  14.691  1.00  0.00     0.293 HD
ENDBRANCH  10  34
BRANCH   9  36
ATOM     36  C   UNL     1      13.740  -7.643  20.622  1.00  0.00     0.017 C 
ATOM     37  C   UNL     1      13.599  -8.865  21.534  1.00  0.00     0.012 C 
ATOM     38  C   UNL     1      12.704  -6.559  20.972  1.00  0.00     0.012 C 
ENDBRANCH   9  36
BRANCH   6  39
ATOM     39  C   UNL     1      13.984  -9.658  15.139  1.00  0.00     0.264 C 
ATOM     40  O   UNL     1      14.711 -10.661  14.908  1.00  0.00    -0.298 OA
ENDBRANCH   6  39
BRANCH   8  41
ATOM     41  O   UNL     1      15.974  -7.187  18.861  1.00  0.00    -0.504 OA
ATOM     42  H   UNL     1      16.410  -7.405  19.749  1.00  0.00     0.293 HD
ENDBRANCH   8  41
BRANCH   7  43
ATOM     43  O   UNL     1      16.109  -8.171  16.311  1.00  0.00    -0.504 OA
ATOM     44  H   UNL     1      16.178  -7.491  15.565  1.00  0.00     0.293 HD
ENDBRANCH   7  43
TORSDOF 11
ENDMDL
MODEL 2
REMARK VINA RESULT:    -6.580      1.511      2.977
REMARK INTER + INTRA:         -11.096
REMARK INTER:                  -9.653
REMARK INTRA:                  -1.443
REMARK UNBOUND:                -1.438
REMARK SMILES Cc1cc2c(C(C)C)c(O)c(O)c(C=O)c2c(O)c1-c1c(C)cc2c(C(C)C)c(O)c(O)c(C=O)c2c1O
REMARK SMILES IDX 1 1 2 2 3 3 4 4 16 5 13 6 11 7 9 8 5 9 17 10 19 11 20 12
REMARK SMILES IDX 37 13 21 14 36 15 23 16 22 17 24 18 33 19 25 20 31 21 29 22
REMARK SMILES IDX 38 23 34 25 35 26 26 27 27 28 28 29 32 30 30 32 18 34 6 36
REMARK SMILES IDX 7 37 8 38 14 39 15 40 10 41 12 43
REMARK H PARENT 38 24 32 31 30 33 18 35 10 42 12 44
REMARK Flexibility Score: inf
ROOT
ATOM      1  C   UNL     1      11.883 -11.412  14.875  1.00  0.00     0.045 C 
ATOM      2  C   UNL     1      11.980 -10.390  15.982  1.00  0.00    -0.039 A 
ATOM      3  C   UNL     1      13.190  -9.733  16.205  1.00  0.00     0.013 A 
ATOM      4  C   UNL     1      13.338  -8.770  17.226  1.00  0.00    -0.006 A 
ATOM      5  C   UNL     1      12.265  -8.578  18.146  1.00  0.00     0.039 A 
ATOM      6  C   UNL     1      12.488  -7.782  19.309  1.00  0.00     0.072 A 
ATOM      7  C   UNL     1      13.755  -7.199  19.526  1.00  0.00     0.169 A 
ATOM      8  C   UNL     1      14.762  -7.307  18.561  1.00  0.00     0.162 A 
ATOM      9  C   UNL     1      14.542  -8.017  17.362  1.00  0.00     0.008 A 
ATOM     10  C   UNL     1      11.002  -9.182  17.862  1.00  0.00     0.132 A 
ATOM     11  C   UNL     1      10.868 -10.084  16.784  1.00  0.00     0.031 A 
ENDROOT
BRANCH  11  12
ATOM     12  C   UNL     1       9.557 -10.722  16.499  1.00  0.00     0.031 A 
ATOM     13  C   UNL     1       8.611 -10.069  15.682  1.00  0.00     0.132 A 
ATOM     14  C   UNL     1       9.257 -11.976  17.052  1.00  0.00    -0.039 A 
ATOM     15  C   UNL     1       7.329 -10.652  15.457  1.00  0.00     0.039 A 
ATOM     16  C   UNL     1       8.053 -12.603  16.721  1.00  0.00     0.013 A 
ATOM     17  C   UNL     1      10.242 -12.690  17.946  1.00  0.00     0.045 C 
ATOM     18  C   UNL     1       7.100 -11.995  15.880  1.00  0.00    -0.006 A 
ATOM     19  C   UNL     1       6.280  -9.943  14.810  1.00  0.00     0.072 A 
ATOM     20  C   UNL     1       5.924 -12.690  15.452  1.00  0.00     0.008 A 
ATOM     21  C   UNL     1       5.072 -10.595  14.503  1.00  0.00     0.169 A 
ATOM     22  C   UNL     1       4.916 -11.967  14.770  1.00  0.00     0.162 A 
BRANCH  13  23
ATOM     23  O   UNL     1       8.957  -8.865  15.057  1.00  0.00    -0.507 OA
ATOM     24  H   UNL     1       8.284  -8.227  14.651  1.00  0.00     0.293 HD
ENDBRANCH  13  23
BRANCH  19  25
ATOM     25  C   UNL     1       6.349  -8.478  14.581  1.00  0.00     0.264 C 
ATOM     26  O   UNL     1       5.966  -7.664  15.463  1.00  0.00    -0.298 OA
ENDBRANCH  19  25
BRANCH  20  27
ATOM     27  C   UNL     1       5.700 -14.203  15.663  1.00  0.00     0.017 C 
ATOM     28  C   UNL     1       5.428 -14.548  17.133  1.00  0.00     0.012 C 
ATOM     29  C   UNL     1       6.774 -15.103  15.019  1.00  0.00     0.012 C 
ENDBRANCH  20  27
BRANCH  21  30
ATOM     30  O   UNL     1       4.024  -9.838  13.964  1.00  0.00    -0.504 OA
ATOM     31  H   UNL     1       3.909  -8.844  14.100  1.00  0.00     0.293 HD
ENDBRANCH  21  30
BRANCH  22  32
ATOM     32  O   UNL     1       3.756 -12.640  14.365  1.00  0.00    -0.504 OA
ATOM     33  H   UNL     1       2.998 -12.216  13.849  1.00  0.00     0.293 HD
ENDBRANCH  22  32
ENDBRANCH  11  12
BRANCH  10  34
ATOM     34  O   UNL     1       9.877  -8.868  18.634  1.00  0.00    -0.507 OA
ATOM     35  H   UNL     1       8.974  -9.310  18.520  1.00  0.00     0.293 HD
ENDBRANCH  10  34
BRANCH   9  36
ATOM     36  C   UNL     1      15.596  -7.972  16.242  1.00  0.00     0.017 C 
ATOM     37  C   UNL     1      16.801  -8.853  16.587  1.00  0.00     0.012 C 
ATOM     38  C   UNL     1      16.036  -6.544  15.865  1.00  0.00     0.012 C 
ENDBRANCH   9  36
BRANCH   6  39
ATOM     39  C   UNL     1      11.457  -7.621  20.355  1.00  0.00     0.264 C 
ATOM     40  O   UNL     1      10.829  -6.536  20.476  1.00  0.00    -0.298 OA
ENDBRANCH   6  39
BRANCH   8  41
ATOM     41  O   UNL     1      16.007  -6.723  18.806  1.00  0.00    -0.504 OA
ATOM     42  H   UNL     1      16.148  -5.982  19.481  1.00  0.00     0.293 HD
ENDBRANCH   8  41
BRANCH   7  43
ATOM     43  O   UNL     1      14.055  -6.517  20.711  1.00  0.00    -0.504 OA
ATOM     44  H   UNL     1      13.579  -6.672  21.591  1.00  0.00     0.293 HD
ENDBRANCH   7  43
TORSDOF 11
ENDMDL
MODEL 3
REMARK VINA RESULT:    -6.428      5.679      7.964
REMARK INTER + INTRA:         -10.873
REMARK INTER:                  -9.305
REMARK INTRA:                  -1.568
REMARK UNBOUND:                -1.438
REMARK SMILES Cc1cc2c(C(C)C)c(O)c(O)c(C=O)c2c(O)c1-c1c(C)cc2c(C(C)C)c(O)c(O)c(C=O)c2c1O
REMARK SMILES IDX 1 1 2 2 3 3 4 4 16 5 13 6 11 7 9 8 5 9 17 10 19 11 20 12
REMARK SMILES IDX 37 13 21 14 36 15 23 16 22 17 24 18 33 19 25 20 31 21 29 22
REMARK SMILES IDX 38 23 34 25 35 26 26 27 27 28 28 29 32 30 30 32 18 34 6 36
REMARK SMILES IDX 7 37 8 38 14 39 15 40 10 41 12 43
REMARK H PARENT 38 24 32 31 30 33 18 35 10 42 12 44
REMARK Flexibility Score: inf
ROOT
ATOM      1  C   UNL     1      13.224 -13.915  21.828  1.00  0.00     0.045 C 
ATOM      2  C   UNL     1      13.150 -12.452  21.462  1.00  0.00    -0.039 A 
ATOM      3  C   UNL     1      13.972 -11.956  20.449  1.00  0.00     0.013 A 
ATOM      4  C   UNL     1      13.945 -10.598  20.067  1.00  0.00    -0.006 A 
ATOM      5  C   UNL     1      13.167  -9.685  20.839  1.00  0.00     0.039 A 
ATOM      6  C   UNL     1      13.314  -8.285  20.604  1.00  0.00     0.072 A 
ATOM      7  C   UNL     1      14.216  -7.830  19.618  1.00  0.00     0.169 A 
ATOM      8  C   UNL     1      14.889  -8.741  18.796  1.00  0.00     0.162 A 
ATOM      9  C   UNL     1      14.699 -10.131  18.949  1.00  0.00     0.008 A 
ATOM     10  C   UNL     1      12.261 -10.208  21.810  1.00  0.00     0.132 A 
ATOM     11  C   UNL     1      12.260 -11.586  22.117  1.00  0.00     0.031 A 
ENDROOT
BRANCH  11  12
ATOM     12  C   UNL     1      11.325 -12.126  23.138  1.00  0.00     0.031 A 
ATOM     13  C   UNL     1      10.059 -12.615  22.757  1.00  0.00     0.132 A 
ATOM     14  C   UNL     1      11.704 -12.142  24.489  1.00  0.00    -0.039 A 
ATOM     15  C   UNL     1       9.138 -13.077  23.743  1.00  0.00     0.039 A 
ATOM     16  C   UNL     1      10.851 -12.717  25.435  1.00  0.00     0.013 A 
ATOM     17  C   UNL     1      13.045 -11.608  24.929  1.00  0.00     0.045 C 
ATOM     18  C   UNL     1       9.593 -13.247  25.084  1.00  0.00    -0.006 A 
ATOM     19  C   UNL     1       7.787 -13.389  23.427  1.00  0.00     0.072 A 
ATOM     20  C   UNL     1       8.778 -13.938  26.035  1.00  0.00     0.008 A 
ATOM     21  C   UNL     1       6.946 -13.953  24.404  1.00  0.00     0.169 A 
ATOM     22  C   UNL     1       7.450 -14.276  25.677  1.00  0.00     0.162 A 
BRANCH  13  23
ATOM     23  O   UNL     1       9.730 -12.685  21.398  1.00  0.00    -0.507 OA
ATOM     24  H   UNL     1       8.780 -12.735  21.049  1.00  0.00     0.293 HD
ENDBRANCH  13  23
BRANCH  19  25
ATOM     25  C   UNL     1       7.172 -12.994  22.135  1.00  0.00     0.264 C 
ATOM     26  O   UNL     1       6.856 -13.858  21.275  1.00  0.00    -0.298 OA
ENDBRANCH  19  25
BRANCH  20  27
ATOM     27  C   UNL     1       9.272 -14.372  27.432  1.00  0.00     0.017 C 
ATOM     28  C   UNL     1       9.233 -13.217  28.443  1.00  0.00     0.012 C 
ATOM     29  C   UNL     1      10.618 -15.125  27.427  1.00  0.00     0.012 C 
ENDBRANCH  20  27
BRANCH  21  30
ATOM     30  O   UNL     1       5.596 -14.146  24.089  1.00  0.00    -0.504 OA
ATOM     31  H   UNL     1       5.248 -14.349  23.163  1.00  0.00     0.293 HD
ENDBRANCH  21  30
BRANCH  22  32
ATOM     32  O   UNL     1       6.644 -14.937  26.611  1.00  0.00    -0.504 OA
ATOM     33  H   UNL     1       6.690 -15.927  26.810  1.00  0.00     0.293 HD
ENDBRANCH  22  32
ENDBRANCH  11  12
BRANCH  10  34
ATOM     34  O   UNL     1      11.348  -9.364  22.454  1.00  0.00    -0.507 OA
ATOM     35  H   UNL     1      11.613  -8.533  22.968  1.00  0.00     0.293 HD
ENDBRANCH  10  34
BRANCH   9  36
ATOM     36  C   UNL     1      15.308 -11.103  17.923  1.00  0.00     0.017 C 
ATOM     37  C   UNL     1      16.835 -11.149  18.051  1.00  0.00     0.012 C 
ATOM     38  C   UNL     1      14.876 -10.821  16.472  1.00  0.00     0.012 C 
ENDBRANCH   9  36
BRANCH   6  39
ATOM     39  C   UNL     1      12.617  -7.277  21.431  1.00  0.00     0.264 C 
ATOM     40  O   UNL     1      11.686  -6.581  20.945  1.00  0.00    -0.298 OA
ENDBRANCH   6  39
BRANCH   8  41
ATOM     41  O   UNL     1      15.779  -8.262  17.832  1.00  0.00    -0.504 OA
ATOM     42  H   UNL     1      16.704  -7.915  18.057  1.00  0.00     0.293 HD
ENDBRANCH   8  41
BRANCH   7  43
ATOM     43  O   UNL     1      14.484  -6.468  19.441  1.00  0.00    -0.504 OA
ATOM     44  H   UNL     1      14.096  -5.905  18.695  1.00  0.00     0.293 HD
ENDBRANCH   7  43
TORSDOF 11
ENDMDL
MODEL 4
REMARK VINA RESULT:    -6.308      1.584      8.992
REMARK INTER + INTRA:         -10.696
REMARK INTER:                  -9.447
REMARK INTRA:                  -1.249
REMARK UNBOUND:                -1.438
REMARK SMILES Cc1cc2c(C(C)C)c(O)c(O)c(C=O)c2c(O)c1-c1c(C)cc2c(C(C)C)c(O)c(O)c(C=O)c2c1O
REMARK SMILES IDX 1 1 2 2 3 3 4 4 16 5 13 6 11 7 9 8 5 9 17 10 19 11 20 12
REMARK SMILES IDX 37 13 21 14 36 15 23 16 22 17 24 18 33 19 25 20 31 21 29 22
REMARK SMILES IDX 38 23 34 25 35 26 26 27 27 28 28 29 32 30 30 32 18 34 6 36
REMARK SMILES IDX 7 37 8 38 14 39 15 40 10 41 12 43
REMARK H PARENT 38 24 32 31 30 33 18 35 10 42 12 44
REMARK Flexibility Score: inf
ROOT
ATOM      1  C   UNL     1      10.484 -13.042  16.743  1.00  0.00     0.045 C 
ATOM      2  C   UNL     1       9.331 -12.147  16.358  1.00  0.00    -0.039 A 
ATOM      3  C   UNL     1       8.079 -12.711  16.112  1.00  0.00     0.013 A 
ATOM      4  C   UNL     1       6.966 -11.922  15.749  1.00  0.00    -0.006 A 
ATOM      5  C   UNL     1       7.168 -10.536  15.480  1.00  0.00     0.039 A 
ATOM      6  C   UNL     1       6.105  -9.786  14.892  1.00  0.00     0.072 A 
ATOM      7  C   UNL     1       4.881 -10.421  14.594  1.00  0.00     0.169 A 
ATOM      8  C   UNL     1       4.662 -11.752  14.964  1.00  0.00     0.162 A 
ATOM      9  C   UNL     1       5.665 -12.495  15.622  1.00  0.00     0.008 A 
ATOM     10  C   UNL     1       8.425  -9.948  15.819  1.00  0.00     0.132 A 
ATOM     11  C   UNL     1       9.497 -10.757  16.254  1.00  0.00     0.031 A 
ENDROOT
BRANCH  11  12
ATOM     12  C   UNL     1      10.808 -10.145  16.593  1.00  0.00     0.031 A 
ATOM     13  C   UNL     1      11.105  -9.791  17.926  1.00  0.00     0.132 A 
ATOM     14  C   UNL     1      11.751  -9.911  15.581  1.00  0.00    -0.039 A 
ATOM     15  C   UNL     1      12.337  -9.148  18.243  1.00  0.00     0.039 A 
ATOM     16  C   UNL     1      13.008  -9.403  15.917  1.00  0.00     0.013 A 
ATOM     17  C   UNL     1      11.454 -10.261  14.143  1.00  0.00     0.045 C 
ATOM     18  C   UNL     1      13.351  -9.071  17.243  1.00  0.00    -0.006 A 
ATOM     19  C   UNL     1      12.592  -8.597  19.529  1.00  0.00     0.072 A 
ATOM     20  C   UNL     1      14.676  -8.663  17.596  1.00  0.00     0.008 A 
ATOM     21  C   UNL     1      13.863  -8.078  19.835  1.00  0.00     0.169 A 
ATOM     22  C   UNL     1      14.910  -8.160  18.898  1.00  0.00     0.162 A 
BRANCH  13  23
ATOM     23  O   UNL     1      10.198 -10.117  18.941  1.00  0.00    -0.507 OA
ATOM     24  H   UNL     1       9.249 -10.429  18.771  1.00  0.00     0.293 HD
ENDBRANCH  13  23
BRANCH  19  25
ATOM     25  C   UNL     1      11.511  -8.402  20.527  1.00  0.00     0.264 C 
ATOM     26  O   UNL     1      11.435  -9.130  21.553  1.00  0.00    -0.298 OA
ENDBRANCH  19  25
BRANCH  20  27
ATOM     27  C   UNL     1      15.887  -8.768  16.643  1.00  0.00     0.017 C 
ATOM     28  C   UNL     1      16.813  -9.935  17.011  1.00  0.00     0.012 C 
ATOM     29  C   UNL     1      16.644  -7.442  16.425  1.00  0.00     0.012 C 
ENDBRANCH  20  27
BRANCH  21  30
ATOM     30  O   UNL     1      14.046  -7.447  21.071  1.00  0.00    -0.504 OA
ATOM     31  H   UNL     1      13.323  -7.333  21.767  1.00  0.00     0.293 HD
ENDBRANCH  21  30
BRANCH  22  32
ATOM     32  O   UNL     1      16.202  -7.743  19.242  1.00  0.00    -0.504 OA
ATOM     33  H   UNL     1      17.044  -8.266  19.047  1.00  0.00     0.293 HD
ENDBRANCH  22  32
ENDBRANCH  11  12
BRANCH  10  34
ATOM     34  O   UNL     1       8.600  -8.561  15.746  1.00  0.00    -0.507 OA
ATOM     35  H   UNL     1       8.434  -8.014  14.911  1.00  0.00     0.293 HD
ENDBRANCH  10  34
BRANCH   9  36
ATOM     36  C   UNL     1       5.342 -13.893  16.177  1.00  0.00     0.017 C 
ATOM     37  C   UNL     1       5.631 -13.967  17.680  1.00  0.00     0.012 C 
ATOM     38  C   UNL     1       6.038 -15.036  15.415  1.00  0.00     0.012 C 
ENDBRANCH   9  36
BRANCH   6  39
ATOM     39  C   UNL     1       6.275  -8.373  14.494  1.00  0.00     0.264 C 
ATOM     40  O   UNL     1       5.812  -7.445  15.209  1.00  0.00    -0.298 OA
ENDBRANCH   6  39
BRANCH   8  41
ATOM     41  O   UNL     1       3.442 -12.356  14.651  1.00  0.00    -0.504 OA
ATOM     42  H   UNL     1       3.286 -12.878  13.797  1.00  0.00     0.293 HD
ENDBRANCH   8  41
BRANCH   7  43
ATOM     43  O   UNL     1       3.859  -9.757  13.905  1.00  0.00    -0.504 OA
ATOM     44  H   UNL     1       4.011  -8.976  13.280  1.00  0.00     0.293 HD
ENDBRANCH   7  43
TORSDOF 11
ENDMDL
MODEL 5
REMARK VINA RESULT:    -6.193      2.686      4.643
REMARK INTER + INTRA:         -10.528
REMARK INTER:                  -9.244
REMARK INTRA:                  -1.284
REMARK UNBOUND:                -1.438
REMARK SMILES Cc1cc2c(C(C)C)c(O)c(O)c(C=O)c2c(O)c1-c1c(C)cc2c(C(C)C)c(O)c(O)c(C=O)c2c1O
REMARK SMILES IDX 1 1 2 2 3 3 4 4 16 5 13 6 11 7 9 8 5 9 17 10 19 11 20 12
REMARK SMILES IDX 37 13 21 14 36 15 23 16 22 17 24 18 33 19 25 20 31 21 29 22
REMARK SMILES IDX 38 23 34 25 35 26 26 27 27 28 28 29 32 30 30 32 18 34 6 36
REMARK SMILES IDX 7 37 8 38 14 39 15 40 10 41 12 43
REMARK H PARENT 38 24 32 31 30 33 18 35 10 42 12 44
REMARK Flexibility Score: inf
ROOT
ATOM      1  C   UNL     1      11.596  -9.804  16.199  1.00  0.00     0.045 C 
ATOM      2  C   UNL     1      11.276  -9.813  17.675  1.00  0.00    -0.039 A 
ATOM      3  C   UNL     1      12.250  -9.407  18.589  1.00  0.00     0.013 A 
ATOM      4  C   UNL     1      12.006  -9.395  19.979  1.00  0.00    -0.006 A 
ATOM      5  C   UNL     1      10.787  -9.955  20.465  1.00  0.00     0.039 A 
ATOM      6  C   UNL     1      10.633 -10.156  21.870  1.00  0.00     0.072 A 
ATOM      7  C   UNL     1      11.679  -9.798  22.748  1.00  0.00     0.169 A 
ATOM      8  C   UNL     1      12.821  -9.151  22.265  1.00  0.00     0.162 A 
ATOM      9  C   UNL     1      12.964  -8.862  20.892  1.00  0.00     0.008 A 
ATOM     10  C   UNL     1       9.761 -10.282  19.527  1.00  0.00     0.132 A 
ATOM     11  C   UNL     1      10.013 -10.210  18.140  1.00  0.00     0.031 A 
ENDROOT
BRANCH  11  12
ATOM     12  C   UNL     1       8.948 -10.565  17.165  1.00  0.00     0.031 A 
ATOM     13  C   UNL     1       8.835 -11.885  16.683  1.00  0.00     0.132 A 
ATOM     14  C   UNL     1       8.056  -9.578  16.718  1.00  0.00    -0.039 A 
ATOM     15  C   UNL     1       7.853 -12.213  15.703  1.00  0.00     0.039 A 
ATOM     16  C   UNL     1       7.013  -9.934  15.860  1.00  0.00     0.013 A 
ATOM     17  C   UNL     1       8.164  -8.153  17.203  1.00  0.00     0.045 C 
ATOM     18  C   UNL     1       6.850 -11.250  15.386  1.00  0.00    -0.006 A 
ATOM     19  C   UNL     1       7.834 -13.474  15.046  1.00  0.00     0.072 A 
ATOM     20  C   UNL     1       5.714 -11.631  14.602  1.00  0.00     0.008 A 
ATOM     21  C   UNL     1       6.779 -13.799  14.174  1.00  0.00     0.169 A 
ATOM     22  C   UNL     1       5.702 -12.911  13.996  1.00  0.00     0.162 A 
BRANCH  13  23
ATOM     23  O   UNL     1       9.667 -12.882  17.208  1.00  0.00    -0.507 OA
ATOM     24  H   UNL     1      10.235 -13.499  16.640  1.00  0.00     0.293 HD
ENDBRANCH  13  23
BRANCH  19  25
ATOM     25  C   UNL     1       8.978 -14.416  15.122  1.00  0.00     0.264 C 
ATOM     26  O   UNL     1       9.933 -14.346  14.303  1.00  0.00    -0.298 OA
ENDBRANCH  19  25
BRANCH  20  27
ATOM     27  C   UNL     1       4.473 -10.734  14.401  1.00  0.00     0.017 C 
ATOM     28  C   UNL     1       4.818  -9.422  13.684  1.00  0.00     0.012 C 
ATOM     29  C   UNL     1       3.626 -10.524  15.673  1.00  0.00     0.012 C 
ENDBRANCH  20  27
BRANCH  21  30
ATOM     30  O   UNL     1       6.849 -15.003  13.463  1.00  0.00    -0.504 OA
ATOM     31  H   UNL     1       6.806 -15.076  12.457  1.00  0.00     0.293 HD
ENDBRANCH  21  30
BRANCH  22  32
ATOM     32  O   UNL     1       4.601 -13.281  13.215  1.00  0.00    -0.504 OA
ATOM     33  H   UNL     1       3.639 -13.076  13.447  1.00  0.00     0.293 HD
ENDBRANCH  22  32
ENDBRANCH  11  12
BRANCH  10  34
ATOM     34  O   UNL     1       8.487 -10.655  19.973  1.00  0.00    -0.507 OA
ATOM     35  H   UNL     1       7.986 -11.466  19.633  1.00  0.00     0.293 HD
ENDBRANCH  10  34
BRANCH   9  36
ATOM     36  C   UNL     1      14.141  -7.995  20.411  1.00  0.00     0.017 C 
ATOM     37  C   UNL     1      13.652  -6.621  19.941  1.00  0.00     0.012 C 
ATOM     38  C   UNL     1      15.014  -8.676  19.340  1.00  0.00     0.012 C 
ENDBRANCH   9  36
BRANCH   6  39
ATOM     39  C   UNL     1       9.442 -10.822  22.437  1.00  0.00     0.264 C 
ATOM     40  O   UNL     1       9.471 -12.046  22.733  1.00  0.00    -0.298 OA
ENDBRANCH   6  39
BRANCH   8  41
ATOM     41  O   UNL     1      13.842  -8.812  23.157  1.00  0.00    -0.504 OA
ATOM     42  H   UNL     1      13.716  -8.796  24.162  1.00  0.00     0.293 HD
ENDBRANCH   8  41
BRANCH   7  43
ATOM     43  O   UNL     1      11.621 -10.093  24.115  1.00  0.00    -0.504 OA
ATOM     44  H   UNL     1      10.915  -9.734  24.743  1.00  0.00     0.293 HD
ENDBRANCH   7  43
TORSDOF 11
ENDMDL
MODEL 6
REMARK VINA RESULT:    -6.067      0.656      8.965
REMARK INTER + INTRA:         -10.343
REMARK INTER:                  -9.168
REMARK INTRA:                  -1.175
REMARK UNBOUND:                -1.438
REMARK SMILES Cc1cc2c(C(C)C)c(O)c(O)c(C=O)c2c(O)c1-c1c(C)cc2c(C(C)C)c(O)c(O)c(C=O)c2c1O
REMARK SMILES IDX 1 1 2 2 3 3 4 4 16 5 13 6 11 7 9 8 5 9 17 10 19 11 20 12
REMARK SMILES IDX 37 13 21 14 36 15 23 16 22 17 24 18 33 19 25 20 31 21 29 22
REMARK SMILES IDX 38 23 34 25 35 26 26 27 27 28 28 29 32 30 30 32 18 34 6 36
REMARK SMILES IDX 7 37 8 38 14 39 15 40 10 41 12 43
REMARK H PARENT 38 24 32 31 30 33 18 35 10 42 12 44
REMARK Flexibility Score: inf
ROOT
ATOM      1  C   UNL     1      10.487 -13.159  16.924  1.00  0.00     0.045 C 
ATOM      2  C   UNL     1       9.280 -12.308  16.608  1.00  0.00    -0.039 A 
ATOM      3  C   UNL     1       8.160 -12.898  16.022  1.00  0.00     0.013 A 
ATOM      4  C   UNL     1       7.005 -12.150  15.706  1.00  0.00    -0.006 A 
ATOM      5  C   UNL     1       7.047 -10.732  15.850  1.00  0.00     0.039 A 
ATOM      6  C   UNL     1       5.975  -9.953  15.318  1.00  0.00     0.072 A 
ATOM      7  C   UNL     1       4.899 -10.593  14.668  1.00  0.00     0.169 A 
ATOM      8  C   UNL     1       4.820 -11.989  14.632  1.00  0.00     0.162 A 
ATOM      9  C   UNL     1       5.823 -12.787  15.223  1.00  0.00     0.008 A 
ATOM     10  C   UNL     1       8.156 -10.145  16.532  1.00  0.00     0.132 A 
ATOM     11  C   UNL     1       9.265 -10.936  16.904  1.00  0.00     0.031 A 
ENDROOT
BRANCH  11  12
ATOM     12  C   UNL     1      10.424 -10.320  17.601  1.00  0.00     0.031 A 
ATOM     13  C   UNL     1      11.535  -9.860  16.865  1.00  0.00     0.132 A 
ATOM     14  C   UNL     1      10.415 -10.204  19.000  1.00  0.00    -0.039 A 
ATOM     15  C   UNL     1      12.674  -9.325  17.537  1.00  0.00     0.039 A 
ATOM     16  C   UNL     1      11.475  -9.559  19.642  1.00  0.00     0.013 A 
ATOM     17  C   UNL     1       9.248 -10.705  19.816  1.00  0.00     0.045 C 
ATOM     18  C   UNL     1      12.584  -9.056  18.934  1.00  0.00    -0.006 A 
ATOM     19  C   UNL     1      13.887  -9.036  16.853  1.00  0.00     0.072 A 
ATOM     20  C   UNL     1      13.607  -8.294  19.584  1.00  0.00     0.008 A 
ATOM     21  C   UNL     1      14.943  -8.400  17.530  1.00  0.00     0.169 A 
ATOM     22  C   UNL     1      14.786  -7.983  18.865  1.00  0.00     0.162 A 
BRANCH  13  23
ATOM     23  O   UNL     1      11.493  -9.892  15.466  1.00  0.00    -0.507 OA
ATOM     24  H   UNL     1      12.316  -9.874  14.876  1.00  0.00     0.293 HD
ENDBRANCH  13  23
BRANCH  19  25
ATOM     25  C   UNL     1      14.147  -9.526  15.477  1.00  0.00     0.264 C 
ATOM     26  O   UNL     1      15.014 -10.413  15.256  1.00  0.00    -0.298 OA
ENDBRANCH  19  25
BRANCH  20  27
ATOM     27  C   UNL     1      13.489  -7.758  21.028  1.00  0.00     0.017 C 
ATOM     28  C   UNL     1      13.489  -8.889  22.066  1.00  0.00     0.012 C 
ATOM     29  C   UNL     1      12.349  -6.742  21.239  1.00  0.00     0.012 C 
ENDBRANCH  20  27
BRANCH  21  30
ATOM     30  O   UNL     1      16.159  -8.230  16.857  1.00  0.00    -0.504 OA
ATOM     31  H   UNL     1      16.399  -7.417  16.307  1.00  0.00     0.293 HD
ENDBRANCH  21  30
BRANCH  22  32
ATOM     32  O   UNL     1      15.797  -7.253  19.502  1.00  0.00    -0.504 OA
ATOM     33  H   UNL     1      15.820  -7.051  20.492  1.00  0.00     0.293 HD
ENDBRANCH  22  32
ENDBRANCH  11  12
BRANCH  10  34
ATOM     34  O   UNL     1       8.147  -8.784  16.859  1.00  0.00    -0.507 OA
ATOM     35  H   UNL     1       7.369  -8.317  17.309  1.00  0.00     0.293 HD
ENDBRANCH  10  34
BRANCH   9  36
ATOM     36  C   UNL     1       5.626 -14.310  15.327  1.00  0.00     0.017 C 
ATOM     37  C   UNL     1       5.351 -14.728  16.775  1.00  0.00     0.012 C 
ATOM     38  C   UNL     1       6.783 -15.125  14.718  1.00  0.00     0.012 C 
ENDBRANCH   9  36
BRANCH   6  39
ATOM     39  C   UNL     1       5.999  -8.475  15.342  1.00  0.00     0.264 C 
ATOM     40  O   UNL     1       5.817  -7.814  14.284  1.00  0.00    -0.298 OA
ENDBRANCH   6  39
BRANCH   8  41
ATOM     41  O   UNL     1       3.746 -12.596  13.977  1.00  0.00    -0.504 OA
ATOM     42  H   UNL     1       3.641 -13.600  13.898  1.00  0.00     0.293 HD
ENDBRANCH   8  41
BRANCH   7  43
ATOM     43  O   UNL     1       3.893  -9.864  14.024  1.00  0.00    -0.504 OA
ATOM     44  H   UNL     1       3.305 -10.234  13.289  1.00  0.00     0.293 HD
ENDBRANCH   7  43
TORSDOF 11
ENDMDL
MODEL 7
REMARK VINA RESULT:    -6.024      3.223      5.858
REMARK INTER + INTRA:         -10.279
REMARK INTER:                  -9.205
REMARK INTRA:                  -1.074
REMARK UNBOUND:                -1.438
REMARK SMILES Cc1cc2c(C(C)C)c(O)c(O)c(C=O)c2c(O)c1-c1c(C)cc2c(C(C)C)c(O)c(O)c(C=O)c2c1O
REMARK SMILES IDX 1 1 2 2 3 3 4 4 16 5 13 6 11 7 9 8 5 9 17 10 19 11 20 12
REMARK SMILES IDX 37 13 21 14 36 15 23 16 22 17 24 18 33 19 25 20 31 21 29 22
REMARK SMILES IDX 38 23 34 25 35 26 26 27 27 28 28 29 32 30 30 32 18 34 6 36
REMARK SMILES IDX 7 37 8 38 14 39 15 40 10 41 12 43
REMARK H PARENT 38 24 32 31 30 33 18 35 10 42 12 44
REMARK Flexibility Score: inf
ROOT
ATOM      1  C   UNL     1      11.582 -13.561  12.260  1.00  0.00     0.045 C 
ATOM      2  C   UNL     1      12.590 -12.698  12.979  1.00  0.00    -0.039 A 
ATOM      3  C   UNL     1      13.952 -12.964  12.829  1.00  0.00     0.013 A 
ATOM      4  C   UNL     1      14.937 -12.189  13.478  1.00  0.00    -0.006 A 
ATOM      5  C   UNL     1      14.522 -11.209  14.428  1.00  0.00     0.039 A 
ATOM      6  C   UNL     1      15.507 -10.587  15.252  1.00  0.00     0.072 A 
ATOM      7  C   UNL     1      16.865 -10.945  15.113  1.00  0.00     0.169 A 
ATOM      8  C   UNL     1      17.267 -11.827  14.104  1.00  0.00     0.162 A 
ATOM      9  C   UNL     1      16.325 -12.393  13.219  1.00  0.00     0.008 A 
ATOM     10  C   UNL     1      13.135 -10.879  14.509  1.00  0.00     0.132 A 
ATOM     11  C   UNL     1      12.179 -11.625  13.787  1.00  0.00     0.031 A 
ENDROOT
BRANCH  11  12
ATOM     12  C   UNL     1      10.735 -11.289  13.884  1.00  0.00     0.031 A 
ATOM     13  C   UNL     1       9.886 -12.034  14.728  1.00  0.00     0.132 A 
ATOM     14  C   UNL     1      10.214 -10.229  13.127  1.00  0.00    -0.039 A 
ATOM     15  C   UNL     1       8.489 -11.751  14.776  1.00  0.00     0.039 A 
ATOM     16  C   UNL     1       8.872  -9.871  13.278  1.00  0.00     0.013 A 
ATOM     17  C   UNL     1      11.095  -9.425  12.201  1.00  0.00     0.045 C 
ATOM     18  C   UNL     1       8.003 -10.572  14.138  1.00  0.00    -0.006 A 
ATOM     19  C   UNL     1       7.570 -12.599  15.454  1.00  0.00     0.072 A 
ATOM     20  C   UNL     1       6.663 -10.128  14.376  1.00  0.00     0.008 A 
ATOM     21  C   UNL     1       6.221 -12.221  15.577  1.00  0.00     0.169 A 
ATOM     22  C   UNL     1       5.783 -10.974  15.093  1.00  0.00     0.162 A 
BRANCH  13  23
ATOM     23  O   UNL     1      10.433 -13.026  15.551  1.00  0.00    -0.507 OA
ATOM     24  H   UNL     1      10.762 -12.858  16.494  1.00  0.00     0.293 HD
ENDBRANCH  13  23
BRANCH  19  25
ATOM     25  C   UNL     1       7.947 -13.961  15.908  1.00  0.00     0.264 C 
ATOM     26  O   UNL     1       8.117 -14.214  17.130  1.00  0.00    -0.298 OA
ENDBRANCH  19  25
BRANCH  20  27
ATOM     27  C   UNL     1       6.122  -8.755  13.922  1.00  0.00     0.017 C 
ATOM     28  C   UNL     1       5.989  -7.771  15.092  1.00  0.00     0.012 C 
ATOM     29  C   UNL     1       4.856  -8.827  13.045  1.00  0.00     0.012 C 
ENDBRANCH  20  27
BRANCH  21  30
ATOM     30  O   UNL     1       5.324 -13.128  16.155  1.00  0.00    -0.504 OA
ATOM     31  H   UNL     1       4.327 -12.986  16.216  1.00  0.00     0.293 HD
ENDBRANCH  21  30
BRANCH  22  32
ATOM     32  O   UNL     1       4.466 -10.552  15.314  1.00  0.00    -0.504 OA
ATOM     33  H   UNL     1       3.664 -10.886  14.799  1.00  0.00     0.293 HD
ENDBRANCH  22  32
ENDBRANCH  11  12
BRANCH  10  34
ATOM     34  O   UNL     1      12.709  -9.796  15.289  1.00  0.00    -0.507 OA
ATOM     35  H   UNL     1      12.505  -8.878  14.915  1.00  0.00     0.293 HD
ENDBRANCH  10  34
BRANCH   9  36
ATOM     36  C   UNL     1      16.808 -13.215  12.011  1.00  0.00     0.017 C 
ATOM     37  C   UNL     1      17.120 -14.659  12.420  1.00  0.00     0.012 C 
ATOM     38  C   UNL     1      17.994 -12.576  11.263  1.00  0.00     0.012 C 
ENDBRANCH   9  36
BRANCH   6  39
ATOM     39  C   UNL     1      15.141  -9.638  16.324  1.00  0.00     0.264 C 
ATOM     40  O   UNL     1      15.370  -8.405  16.195  1.00  0.00    -0.298 OA
ENDBRANCH   6  39
BRANCH   8  41
ATOM     41  O   UNL     1      18.618 -12.167  13.993  1.00  0.00    -0.504 OA
ATOM     42  H   UNL     1      18.936 -13.062  13.641  1.00  0.00     0.293 HD
ENDBRANCH   8  41
BRANCH   7  43
ATOM     43  O   UNL     1      17.845 -10.455  15.983  1.00  0.00    -0.504 OA
ATOM     44  H   UNL     1      18.022 -10.827  16.907  1.00  0.00     0.293 HD
ENDBRANCH   7  43
TORSDOF 11
ENDMDL
MODEL 8
REMARK VINA RESULT:    -5.988      3.481      9.041
REMARK INTER + INTRA:         -10.227
REMARK INTER:                  -8.716
REMARK INTRA:                  -1.511
REMARK UNBOUND:                -1.438
REMARK SMILES Cc1cc2c(C(C)C)c(O)c(O)c(C=O)c2c(O)c1-c1c(C)cc2c(C(C)C)c(O)c(O)c(C=O)c2c1O
REMARK SMILES IDX 1 1 2 2 3 3 4 4 16 5 13 6 11 7 9 8 5 9 17 10 19 11 20 12
REMARK SMILES IDX 37 13 21 14 36 15 23 16 22 17 24 18 33 19 25 20 31 21 29 22
REMARK SMILES IDX 38 23 34 25 35 26 26 27 27 28 28 29 32 30 30 32 18 34 6 36
REMARK SMILES IDX 7 37 8 38 14 39 15 40 10 41 12 43
REMARK H PARENT 38 24 32 31 30 33 18 35 10 42 12 44
REMARK Flexibility Score: inf
ROOT
ATOM      1  C   UNL     1      12.292 -12.249  15.787  1.00  0.00     0.045 C 
ATOM      2  C   UNL     1      11.571 -11.191  16.587  1.00  0.00    -0.039 A 
ATOM      3  C   UNL     1      10.335 -10.719  16.143  1.00  0.00     0.013 A 
ATOM      4  C   UNL     1       9.618  -9.731  16.851  1.00  0.00    -0.006 A 
ATOM      5  C   UNL     1      10.245  -9.095  17.962  1.00  0.00     0.039 A 
ATOM      6  C   UNL     1       9.626  -7.944  18.537  1.00  0.00     0.072 A 
ATOM      7  C   UNL     1       8.412  -7.461  18.003  1.00  0.00     0.169 A 
ATOM      8  C   UNL     1       7.756  -8.160  16.985  1.00  0.00     0.162 A 
ATOM      9  C   UNL     1       8.302  -9.348  16.454  1.00  0.00     0.008 A 
ATOM     10  C   UNL     1      11.464  -9.641  18.466  1.00  0.00     0.132 A 
ATOM     11  C   UNL     1      12.120 -10.683  17.775  1.00  0.00     0.031 A 
ENDROOT
BRANCH  11  12
ATOM     12  C   UNL     1      13.396 -11.240  18.294  1.00  0.00     0.031 A 
ATOM     13  C   UNL     1      14.627 -10.659  17.928  1.00  0.00     0.132 A 
ATOM     14  C   UNL     1      13.374 -12.355  19.146  1.00  0.00    -0.039 A 
ATOM     15  C   UNL     1      15.855 -11.230  18.375  1.00  0.00     0.039 A 
ATOM     16  C   UNL     1      14.571 -12.828  19.688  1.00  0.00     0.013 A 
ATOM     17  C   UNL     1      12.072 -13.009  19.540  1.00  0.00     0.045 C 
ATOM     18  C   UNL     1      15.817 -12.250  19.371  1.00  0.00    -0.006 A 
ATOM     19  C   UNL     1      17.115 -10.801  17.872  1.00  0.00     0.072 A 
ATOM     20  C   UNL     1      17.024 -12.664  20.020  1.00  0.00     0.008 A 
ATOM     21  C   UNL     1      18.304 -11.307  18.427  1.00  0.00     0.169 A 
ATOM     22  C   UNL     1      18.261 -12.186  19.525  1.00  0.00     0.162 A 
BRANCH  13  23
ATOM     23  O   UNL     1      14.633  -9.490  17.156  1.00  0.00    -0.507 OA
ATOM     24  H   UNL     1      15.471  -9.076  16.767  1.00  0.00     0.293 HD
ENDBRANCH  13  23
BRANCH  19  25
ATOM     25  C   UNL     1      17.227  -9.947  16.664  1.00  0.00     0.264 C 
ATOM     26  O   UNL     1      17.550  -8.733  16.755  1.00  0.00    -0.298 OA
ENDBRANCH  19  25
BRANCH  20  27
ATOM     27  C   UNL     1      17.057 -13.585  21.259  1.00  0.00     0.017 C 
ATOM     28  C   UNL     1      16.727 -15.041  20.905  1.00  0.00     0.012 C 
ATOM     29  C   UNL     1      16.256 -13.058  22.467  1.00  0.00     0.012 C 
ENDBRANCH  20  27
BRANCH  21  30
ATOM     30  O   UNL     1      19.521 -10.946  17.836  1.00  0.00    -0.504 OA
ATOM     31  H   UNL     1      20.319 -10.592  18.343  1.00  0.00     0.293 HD
ENDBRANCH  21  30
BRANCH  22  32
ATOM     32  O   UNL     1      19.445 -12.602  20.146  1.00  0.00    -0.504 OA
ATOM     33  H   UNL     1      19.505 -12.950  21.092  1.00  0.00     0.293 HD
ENDBRANCH  22  32
ENDBRANCH  11  12
BRANCH  10  34
ATOM     34  O   UNL     1      12.012  -9.165  19.664  1.00  0.00    -0.507 OA
ATOM     35  H   UNL     1      12.872  -8.633  19.719  1.00  0.00     0.293 HD
ENDBRANCH  10  34
BRANCH   9  36
ATOM     36  C   UNL     1       7.479 -10.193  15.465  1.00  0.00     0.017 C 
ATOM     37  C   UNL     1       7.335 -11.634  15.963  1.00  0.00     0.012 C 
ATOM     38  C   UNL     1       8.015 -10.150  14.021  1.00  0.00     0.012 C 
ENDBRANCH   9  36
BRANCH   6  39
ATOM     39  C   UNL     1      10.266  -7.174  19.624  1.00  0.00     0.264 C 
ATOM     40  O   UNL     1      10.915  -6.124  19.370  1.00  0.00    -0.298 OA
ENDBRANCH   6  39
BRANCH   8  41
ATOM     41  O   UNL     1       6.558  -7.656  16.472  1.00  0.00    -0.504 OA
ATOM     42  H   UNL     1       6.224  -7.864  15.539  1.00  0.00     0.293 HD
ENDBRANCH   8  41
BRANCH   7  43
ATOM     43  O   UNL     1       7.837  -6.267  18.453  1.00  0.00    -0.504 OA
ATOM     44  H   UNL     1       6.921  -5.938  18.175  1.00  0.00     0.293 HD
ENDBRANCH   7  43
TORSDOF 11
ENDMDL
MODEL 9
REMARK VINA RESULT:    -5.984      4.953      6.683
REMARK INTER + INTRA:         -10.221
REMARK INTER:                  -8.752
REMARK INTRA:                  -1.469
REMARK UNBOUND:                -1.438
REMARK SMILES Cc1cc2c(C(C)C)c(O)c(O)c(C=O)c2c(O)c1-c1c(C)cc2c(C(C)C)c(O)c(O)c(C=O)c2c1O
REMARK SMILES IDX 1 1 2 2 3 3 4 4 16 5 13 6 11 7 9 8 5 9 17 10 19 11 20 12
REMARK SMILES IDX 37 13 21 14 36 15 23 16 22 17 24 18 33 19 25 20 31 21 29 22
REMARK SMILES IDX 38 23 34 25 35 26 26 27 27 28 28 29 32 30 30 32 18 34 6 36
REMARK SMILES IDX 7 37 8 38 14 39 15 40 10 41 12 43
REMARK H PARENT 38 24 32 31 30 33 18 35 10 42 12 44
REMARK Flexibility Score: inf
ROOT
ATOM      1  C   UNL     1       7.732 -12.195  22.789  1.00  0.00     0.045 C 
ATOM      2  C   UNL     1       9.202 -12.380  23.076  1.00  0.00    -0.039 A 
ATOM      3  C   UNL     1       9.607 -12.776  24.351  1.00  0.00     0.013 A 
ATOM      4  C   UNL     1      10.967 -12.964  24.675  1.00  0.00    -0.006 A 
ATOM      5  C   UNL     1      11.957 -12.591  23.718  1.00  0.00     0.039 A 
ATOM      6  C   UNL     1      13.327 -12.560  24.119  1.00  0.00     0.072 A 
ATOM      7  C   UNL     1      13.677 -12.899  25.443  1.00  0.00     0.169 A 
ATOM      8  C   UNL     1      12.708 -13.366  26.337  1.00  0.00     0.162 A 
ATOM      9  C   UNL     1      11.358 -13.488  25.944  1.00  0.00     0.008 A 
ATOM     10  C   UNL     1      11.540 -12.275  22.389  1.00  0.00     0.132 A 
ATOM     11  C   UNL     1      10.167 -12.170  22.078  1.00  0.00     0.031 A 
ENDROOT
BRANCH  11  12
ATOM     12  C   UNL     1       9.735 -11.826  20.698  1.00  0.00     0.031 A 
ATOM     13  C   UNL     1       9.576 -10.478  20.317  1.00  0.00     0.132 A 
ATOM     14  C   UNL     1       9.478 -12.850  19.773  1.00  0.00    -0.039 A 
ATOM     15  C   UNL     1       9.103 -10.149  19.012  1.00  0.00     0.039 A 
ATOM     16  C   UNL     1       9.144 -12.519  18.458  1.00  0.00     0.013 A 
ATOM     17  C   UNL     1       9.622 -14.303  20.158  1.00  0.00     0.045 C 
ATOM     18  C   UNL     1       9.010 -11.182  18.033  1.00  0.00    -0.006 A 
ATOM     19  C   UNL     1       8.739  -8.822  18.653  1.00  0.00     0.072 A 
ATOM     20  C   UNL     1       8.783 -10.850  16.660  1.00  0.00     0.008 A 
ATOM     21  C   UNL     1       8.392  -8.521  17.324  1.00  0.00     0.169 A 
ATOM     22  C   UNL     1       8.467  -9.511  16.326  1.00  0.00     0.162 A 
BRANCH  13  23
ATOM     23  O   UNL     1       9.928  -9.464  21.215  1.00  0.00    -0.507 OA
ATOM     24  H   UNL     1       9.296  -8.729  21.512  1.00  0.00     0.293 HD
ENDBRANCH  13  23
BRANCH  19  25
ATOM     25  C   UNL     1       8.557  -7.757  19.670  1.00  0.00     0.264 C 
ATOM     26  O   UNL     1       9.348  -6.778  19.734  1.00  0.00    -0.298 OA
ENDBRANCH  19  25
BRANCH  20  27
ATOM     27  C   UNL     1       8.895 -11.866  15.503  1.00  0.00     0.017 C 
ATOM     28  C   UNL     1       7.723 -12.857  15.489  1.00  0.00     0.012 C 
ATOM     29  C   UNL     1      10.271 -12.555  15.390  1.00  0.00     0.012 C 
ENDBRANCH  20  27
BRANCH  21  30
ATOM     30  O   UNL     1       7.936  -7.230  17.030  1.00  0.00    -0.504 OA
ATOM     31  H   UNL     1       8.387  -6.598  16.384  1.00  0.00     0.293 HD
ENDBRANCH  21  30
BRANCH  22  32
ATOM     32  O   UNL     1       8.227  -9.185  14.986  1.00  0.00    -0.504 OA
ATOM     33  H   UNL     1       7.778  -9.796  14.319  1.00  0.00     0.293 HD
ENDBRANCH  22  32
ENDBRANCH  11  12
BRANCH  10  34
ATOM     34  O   UNL     1      12.487 -12.088  21.375  1.00  0.00    -0.507 OA
ATOM     35  H   UNL     1      12.650 -11.203  20.912  1.00  0.00     0.293 HD
ENDBRANCH  10  34
BRANCH   9  36
ATOM     36  C   UNL     1      10.347 -14.170  26.882  1.00  0.00     0.017 C 
ATOM     37  C   UNL     1       9.436 -15.125  26.104  1.00  0.00     0.012 C 
ATOM     38  C   UNL     1       9.527 -13.179  27.730  1.00  0.00     0.012 C 
ENDBRANCH   9  36
BRANCH   6  39
ATOM     39  C   UNL     1      14.394 -12.089  23.212  1.00  0.00     0.264 C 
ATOM     40  O   UNL     1      15.260 -12.890  22.770  1.00  0.00    -0.298 OA
ENDBRANCH   6  39
BRANCH   8  41
ATOM     41  O   UNL     1      13.083 -13.689  27.644  1.00  0.00    -0.504 OA
ATOM     42  H   UNL     1      13.776 -14.395  27.862  1.00  0.00     0.293 HD
ENDBRANCH   8  41
BRANCH   7  43
ATOM     43  O   UNL     1      14.988 -12.761  25.912  1.00  0.00    -0.504 OA
ATOM     44  H   UNL     1      15.808 -12.774  25.319  1.00  0.00     0.293 HD
ENDBRANCH   7  43
TORSDOF 11
ENDMDL
