MODEL 1
REMARK VINA RESULT:    -1.842      0.000      0.000
REMARK INTER + INTRA:          -3.677
REMARK INTER:                  -3.242
REMARK INTRA:                  -0.435
REMARK UNBOUND:                -0.435
REMARK SMILES CCCCCCC=CCCCCCCCC(=O)[O-]
REMARK SMILES IDX 10 1 11 2 12 3 13 4 14 5 15 6 16 7 17 8 18 9 9 10 8 11 7 12
REMARK SMILES IDX 6 13 5 14 4 15 3 16 2 17 1 18
REMARK H PARENT
REMARK Flexibility Score: inf
ROOT
ATOM      1  C   UNL     1      45.322 -25.581   0.810  1.00  0.00     0.004 C 
ENDROOT
BRANCH   1   2
ATOM      2  C   UNL     1      45.399 -24.060   0.611  1.00  0.00     0.000 C 
BRANCH   2   3
ATOM      3  C   UNL     1      46.123 -23.678  -0.689  1.00  0.00     0.000 C 
BRANCH   3   4
ATOM      4  C   UNL     1      45.455 -24.337  -1.904  1.00  0.00     0.000 C 
BRANCH   4   5
ATOM      5  C   UNL     1      46.124 -23.950  -3.236  1.00  0.00     0.006 C 
BRANCH   5   6
ATOM      6  C   UNL     1      45.524 -24.638  -4.472  1.00  0.00     0.053 C 
BRANCH   6   7
ATOM      7  C   UNL     1      45.591 -23.768  -5.690  1.00  0.00     0.041 C 
ATOM      8  O   UNL     1      45.934 -22.561  -5.588  1.00  0.00    -0.550 OA
ATOM      9  O   UNL     1      45.240 -24.281  -6.932  1.00  0.00    -0.550 OA
ENDBRANCH   6   7
ENDBRANCH   5   6
ENDBRANCH   4   5
ENDBRANCH   3   4
ENDBRANCH   2   3
ENDBRANCH   1   2
BRANCH   1  10
ATOM     10  C   UNL     1      45.871 -26.023   2.175  1.00  0.00     0.027 C 
BRANCH  10  11
ATOM     11  C   UNL     1      44.758 -26.505   3.068  1.00  0.00    -0.031 C 
ATOM     12  C   UNL     1      44.816 -26.528   4.413  1.00  0.00    -0.031 C 
BRANCH  12  13
ATOM     13  C   UNL     1      46.035 -26.162   5.226  1.00  0.00     0.027 C 
BRANCH  13  14
ATOM     14  C   UNL     1      45.797 -26.326   6.737  1.00  0.00     0.004 C 
BRANCH  14  15
ATOM     15  C   UNL     1      46.125 -27.728   7.289  1.00  0.00     0.000 C 
BRANCH  15  16
ATOM     16  C   UNL     1      45.912 -27.900   8.804  1.00  0.00    -0.000 C 
BRANCH  16  17
ATOM     17  C   UNL     1      45.218 -29.220   9.165  1.00  0.00    -0.003 C 
ATOM     18  C   UNL     1      45.703 -29.745  10.513  1.00  0.00     0.004 C 
ENDBRANCH  16  17
ENDBRANCH  15  16
ENDBRANCH  14  15
ENDBRANCH  13  14
ENDBRANCH  12  13
ENDBRANCH  10  11
ENDBRANCH   1  10
TORSDOF 13
ENDMDL
MODEL 2
REMARK VINA RESULT:    -1.759      5.550     11.349
REMARK INTER + INTRA:          -3.530
REMARK INTER:                  -2.957
REMARK INTRA:                  -0.574
REMARK UNBOUND:                -0.435
REMARK SMILES CCCCCCC=CCCCCCCCC(=O)[O-]
REMARK SMILES IDX 10 1 11 2 12 3 13 4 14 5 15 6 16 7 17 8 18 9 9 10 8 11 7 12
REMARK SMILES IDX 6 13 5 14 4 15 3 16 2 17 1 18
REMARK H PARENT
REMARK Flexibility Score: inf
ROOT
ATOM      1  C   UNL     1      44.938 -27.608   2.084  1.00  0.00     0.004 C 
ENDROOT
BRANCH   1   2
ATOM      2  C   UNL     1      45.024 -26.817   3.398  1.00  0.00     0.000 C 
BRANCH   2   3
ATOM      3  C   UNL     1      46.075 -27.395   4.358  1.00  0.00     0.000 C 
BRANCH   3   4
ATOM      4  C   UNL     1      46.004 -28.929   4.392  1.00  0.00     0.000 C 
BRANCH   4   5
ATOM      5  C   UNL     1      46.125 -29.501   5.817  1.00  0.00     0.006 C 
BRANCH   5   6
ATOM      6  C   UNL     1      45.936 -28.464   6.936  1.00  0.00     0.053 C 
BRANCH   6   7
ATOM      7  C   UNL     1      45.649 -29.109   8.258  1.00  0.00     0.041 C 
ATOM      8  O   UNL     1      45.698 -30.361   8.376  1.00  0.00    -0.550 OA
ATOM      9  O   UNL     1      45.294 -28.328   9.350  1.00  0.00    -0.550 OA
ENDBRANCH   6   7
ENDBRANCH   5   6
ENDBRANCH   4   5
ENDBRANCH   3   4
ENDBRANCH   2   3
ENDBRANCH   1   2
BRANCH   1  10
ATOM     10  C   UNL     1      45.669 -26.907   0.928  1.00  0.00     0.027 C 
BRANCH  10  11
ATOM     11  C   UNL     1      45.029 -25.578   0.620  1.00  0.00    -0.031 C 
ATOM     12  C   UNL     1      45.187 -24.907  -0.537  1.00  0.00    -0.031 C 
BRANCH  12  13
ATOM     13  C   UNL     1      46.099 -25.338  -1.662  1.00  0.00     0.027 C 
BRANCH  13  14
ATOM     14  C   UNL     1      46.057 -24.362  -2.850  1.00  0.00     0.004 C 
BRANCH  14  15
ATOM     15  C   UNL     1      46.116 -25.036  -4.236  1.00  0.00     0.000 C 
BRANCH  15  16
ATOM     16  C   UNL     1      45.336 -24.311  -5.348  1.00  0.00    -0.000 C 
BRANCH  16  17
ATOM     17  C   UNL     1      46.055 -24.346  -6.704  1.00  0.00    -0.003 C 
ATOM     18  C   UNL     1      45.866 -23.034  -7.460  1.00  0.00     0.004 C 
ENDBRANCH  16  17
ENDBRANCH  15  16
ENDBRANCH  14  15
ENDBRANCH  13  14
ENDBRANCH  12  13
ENDBRANCH  10  11
ENDBRANCH   1  10
TORSDOF 13
ENDMDL
MODEL 3
REMARK VINA RESULT:    -1.753      3.374      5.217
REMARK INTER + INTRA:          -3.520
REMARK INTER:                  -3.804
REMARK INTRA:                   0.284
REMARK UNBOUND:                -0.435
REMARK SMILES CCCCCCC=CCCCCCCCC(=O)[O-]
REMARK SMILES IDX 10 1 11 2 12 3 13 4 14 5 15 6 16 7 17 8 18 9 9 10 8 11 7 12
REMARK SMILES IDX 6 13 5 14 4 15 3 16 2 17 1 18
REMARK H PARENT
REMARK Flexibility Score: inf
ROOT
ATOM      1  C   UNL     1      45.425 -24.880  -3.786  1.00  0.00     0.004 C 
ENDROOT
BRANCH   1   2
ATOM      2  C   UNL     1      46.111 -26.149  -4.318  1.00  0.00     0.000 C 
BRANCH   2   3
ATOM      3  C   UNL     1      46.014 -26.267  -5.847  1.00  0.00     0.000 C 
BRANCH   3   4
ATOM      4  C   UNL     1      46.086 -24.884  -6.510  1.00  0.00     0.000 C 
BRANCH   4   5
ATOM      5  C   UNL     1      45.552 -24.885  -7.955  1.00  0.00     0.006 C 
BRANCH   5   6
ATOM      6  C   UNL     1      46.122 -23.769  -8.844  1.00  0.00     0.053 C 
BRANCH   6   7
ATOM      7  C   UNL     1      46.090 -22.435  -8.164  1.00  0.00     0.041 C 
ATOM      8  O   UNL     1      46.085 -22.365  -6.906  1.00  0.00    -0.550 OA
ATOM      9  O   UNL     1      46.029 -21.270  -8.917  1.00  0.00    -0.550 OA
ENDBRANCH   6   7
ENDBRANCH   5   6
ENDBRANCH   4   5
ENDBRANCH   3   4
ENDBRANCH   2   3
ENDBRANCH   1   2
BRANCH   1  10
ATOM     10  C   UNL     1      44.918 -25.048  -2.346  1.00  0.00     0.027 C 
BRANCH  10  11
ATOM     11  C   UNL     1      45.330 -23.873  -1.496  1.00  0.00    -0.031 C 
ATOM     12  C   UNL     1      45.895 -23.976  -0.278  1.00  0.00    -0.031 C 
BRANCH  12  13
ATOM     13  C   UNL     1      46.119 -25.276   0.458  1.00  0.00     0.027 C 
BRANCH  13  14
ATOM     14  C   UNL     1      45.160 -25.443   1.648  1.00  0.00     0.004 C 
BRANCH  14  15
ATOM     15  C   UNL     1      45.536 -26.580   2.621  1.00  0.00     0.000 C 
BRANCH  15  16
ATOM     16  C   UNL     1      46.045 -27.870   1.952  1.00  0.00    -0.000 C 
BRANCH  16  17
ATOM     17  C   UNL     1      45.717 -29.132   2.761  1.00  0.00    -0.003 C 
ATOM     18  C   UNL     1      45.929 -30.391   1.926  1.00  0.00     0.004 C 
ENDBRANCH  16  17
ENDBRANCH  15  16
ENDBRANCH  14  15
ENDBRANCH  13  14
ENDBRANCH  12  13
ENDBRANCH  10  11
ENDBRANCH   1  10
TORSDOF 13
ENDMDL
MODEL 4
REMARK VINA RESULT:    -1.473      3.308      4.390
REMARK INTER + INTRA:          -3.027
REMARK INTER:                  -3.087
REMARK INTRA:                   0.060
REMARK UNBOUND:                -0.435
REMARK SMILES CCCCCCC=CCCCCCCCC(=O)[O-]
REMARK SMILES IDX 10 1 11 2 12 3 13 4 14 5 15 6 16 7 17 8 18 9 9 10 8 11 7 12
REMARK SMILES IDX 6 13 5 14 4 15 3 16 2 17 1 18
REMARK H PARENT
REMARK Flexibility Score: inf
ROOT
ATOM      1  C   UNL     1      44.347 -24.011  -1.598  1.00  0.00     0.004 C 
ENDROOT
BRANCH   1   2
ATOM      2  C   UNL     1      45.651 -24.764  -1.903  1.00  0.00     0.000 C 
BRANCH   2   3
ATOM      3  C   UNL     1      46.124 -24.548  -3.349  1.00  0.00     0.000 C 
BRANCH   3   4
ATOM      4  C   UNL     1      44.930 -24.437  -4.307  1.00  0.00     0.000 C 
BRANCH   4   5
ATOM      5  C   UNL     1      45.345 -24.492  -5.789  1.00  0.00     0.006 C 
BRANCH   5   6
ATOM      6  C   UNL     1      46.102 -23.249  -6.284  1.00  0.00     0.053 C 
BRANCH   6   7
ATOM      7  C   UNL     1      45.927 -23.033  -7.755  1.00  0.00     0.041 C 
ATOM      8  O   UNL     1      45.670 -24.005  -8.513  1.00  0.00    -0.550 OA
ATOM      9  O   UNL     1      46.083 -21.763  -8.295  1.00  0.00    -0.550 OA
ENDBRANCH   6   7
ENDBRANCH   5   6
ENDBRANCH   4   5
ENDBRANCH   3   4
ENDBRANCH   2   3
ENDBRANCH   1   2
BRANCH   1  10
ATOM     10  C   UNL     1      44.527 -22.949  -0.502  1.00  0.00     0.027 C 
BRANCH  10  11
ATOM     11  C   UNL     1      45.833 -23.145   0.223  1.00  0.00    -0.031 C 
ATOM     12  C   UNL     1      46.118 -24.201   1.007  1.00  0.00    -0.031 C 
BRANCH  12  13
ATOM     13  C   UNL     1      45.143 -25.303   1.352  1.00  0.00     0.027 C 
BRANCH  13  14
ATOM     14  C   UNL     1      45.256 -25.738   2.823  1.00  0.00     0.004 C 
BRANCH  14  15
ATOM     15  C   UNL     1      46.075 -27.025   3.049  1.00  0.00     0.000 C 
BRANCH  15  16
ATOM     16  C   UNL     1      45.821 -28.149   2.029  1.00  0.00    -0.000 C 
BRANCH  16  17
ATOM     17  C   UNL     1      45.980 -29.552   2.632  1.00  0.00    -0.003 C 
ATOM     18  C   UNL     1      46.125 -30.607   1.540  1.00  0.00     0.004 C 
ENDBRANCH  16  17
ENDBRANCH  15  16
ENDBRANCH  14  15
ENDBRANCH  13  14
ENDBRANCH  12  13
ENDBRANCH  10  11
ENDBRANCH   1  10
TORSDOF 13
ENDMDL
MODEL 5
REMARK VINA RESULT:    -1.348      6.175     11.540
REMARK INTER + INTRA:          -2.808
REMARK INTER:                  -2.324
REMARK INTRA:                  -0.484
REMARK UNBOUND:                -0.435
REMARK SMILES CCCCCCC=CCCCCCCCC(=O)[O-]
REMARK SMILES IDX 10 1 11 2 12 3 13 4 14 5 15 6 16 7 17 8 18 9 9 10 8 11 7 12
REMARK SMILES IDX 6 13 5 14 4 15 3 16 2 17 1 18
REMARK H PARENT
REMARK Flexibility Score: inf
ROOT
ATOM      1  C   UNL     1      45.613 -27.411   4.059  1.00  0.00     0.004 C 
ENDROOT
BRANCH   1   2
ATOM      2  C   UNL     1      45.455 -26.847   5.479  1.00  0.00     0.000 C 
BRANCH   2   3
ATOM      3  C   UNL     1      46.121 -27.739   6.538  1.00  0.00     0.000 C 
BRANCH   3   4
ATOM      4  C   UNL     1      45.161 -28.838   7.015  1.00  0.00     0.000 C 
BRANCH   4   5
ATOM      5  C   UNL     1      45.702 -29.622   8.225  1.00  0.00     0.006 C 
BRANCH   5   6
ATOM      6  C   UNL     1      45.556 -28.894   9.570  1.00  0.00     0.053 C 
BRANCH   6   7
ATOM      7  C   UNL     1      44.574 -29.575  10.474  1.00  0.00     0.041 C 
ATOM      8  O   UNL     1      43.719 -28.899  11.105  1.00  0.00    -0.550 OA
ATOM      9  O   UNL     1      44.627 -30.951  10.649  1.00  0.00    -0.550 OA
ENDBRANCH   6   7
ENDBRANCH   5   6
ENDBRANCH   4   5
ENDBRANCH   3   4
ENDBRANCH   2   3
ENDBRANCH   1   2
BRANCH   1  10
ATOM     10  C   UNL     1      46.116 -26.355   3.062  1.00  0.00     0.027 C 
BRANCH  10  11
ATOM     11  C   UNL     1      45.755 -26.739   1.650  1.00  0.00    -0.031 C 
ATOM     12  C   UNL     1      45.729 -25.883   0.612  1.00  0.00    -0.031 C 
BRANCH  12  13
ATOM     13  C   UNL     1      45.970 -24.395   0.718  1.00  0.00     0.027 C 
BRANCH  13  14
ATOM     14  C   UNL     1      46.120 -23.731  -0.660  1.00  0.00     0.004 C 
BRANCH  14  15
ATOM     15  C   UNL     1      45.379 -24.453  -1.804  1.00  0.00     0.000 C 
BRANCH  15  16
ATOM     16  C   UNL     1      46.074 -24.388  -3.176  1.00  0.00    -0.000 C 
BRANCH  16  17
ATOM     17  C   UNL     1      45.450 -25.337  -4.209  1.00  0.00    -0.003 C 
ATOM     18  C   UNL     1      44.960 -24.572  -5.435  1.00  0.00     0.004 C 
ENDBRANCH  16  17
ENDBRANCH  15  16
ENDBRANCH  14  15
ENDBRANCH  13  14
ENDBRANCH  12  13
ENDBRANCH  10  11
ENDBRANCH   1  10
TORSDOF 13
ENDMDL
MODEL 6
REMARK VINA RESULT:    -0.534      1.446      1.664
REMARK INTER + INTRA:          -1.375
REMARK INTER:                  -0.824
REMARK INTRA:                  -0.551
REMARK UNBOUND:                -0.435
REMARK SMILES CCCCCCC=CCCCCCCCC(=O)[O-]
REMARK SMILES IDX 10 1 11 2 12 3 13 4 14 5 15 6 16 7 17 8 18 9 9 10 8 11 7 12
REMARK SMILES IDX 6 13 5 14 4 15 3 16 2 17 1 18
REMARK H PARENT
REMARK Flexibility Score: inf
ROOT
ATOM      1  C   UNL     1      45.645 -26.296   0.034  1.00  0.00     0.004 C 
ENDROOT
BRANCH   1   2
ATOM      2  C   UNL     1      45.669 -24.837  -0.449  1.00  0.00     0.000 C 
BRANCH   2   3
ATOM      3  C   UNL     1      45.039 -24.673  -1.840  1.00  0.00     0.000 C 
BRANCH   3   4
ATOM      4  C   UNL     1      46.115 -24.416  -2.905  1.00  0.00     0.000 C 
BRANCH   4   5
ATOM      5  C   UNL     1      45.728 -23.297  -3.889  1.00  0.00     0.006 C 
BRANCH   5   6
ATOM      6  C   UNL     1      46.125 -23.568  -5.348  1.00  0.00     0.053 C 
BRANCH   6   7
ATOM      7  C   UNL     1      45.397 -24.746  -5.920  1.00  0.00     0.041 C 
ATOM      8  O   UNL     1      44.139 -24.789  -5.889  1.00  0.00    -0.550 OA
ATOM      9  O   UNL     1      46.109 -25.812  -6.454  1.00  0.00    -0.550 OA
ENDBRANCH   6   7
ENDBRANCH   5   6
ENDBRANCH   4   5
ENDBRANCH   3   4
ENDBRANCH   2   3
ENDBRANCH   1   2
BRANCH   1  10
ATOM     10  C   UNL     1      46.058 -26.433   1.507  1.00  0.00     0.027 C 
BRANCH  10  11
ATOM     11  C   UNL     1      44.850 -26.390   2.407  1.00  0.00    -0.031 C 
ATOM     12  C   UNL     1      44.886 -26.579   3.739  1.00  0.00    -0.031 C 
BRANCH  12  13
ATOM     13  C   UNL     1      46.124 -26.951   4.521  1.00  0.00     0.027 C 
BRANCH  13  14
ATOM     14  C   UNL     1      45.923 -28.227   5.355  1.00  0.00     0.004 C 
BRANCH  14  15
ATOM     15  C   UNL     1      46.096 -28.034   6.876  1.00  0.00     0.000 C 
BRANCH  15  16
ATOM     16  C   UNL     1      45.402 -29.092   7.751  1.00  0.00    -0.000 C 
BRANCH  16  17
ATOM     17  C   UNL     1      45.423 -30.494   7.125  1.00  0.00    -0.003 C 
ATOM     18  C   UNL     1      45.832 -31.548   8.150  1.00  0.00     0.004 C 
ENDBRANCH  16  17
ENDBRANCH  15  16
ENDBRANCH  14  15
ENDBRANCH  13  14
ENDBRANCH  12  13
ENDBRANCH  10  11
ENDBRANCH   1  10
TORSDOF 13
ENDMDL
MODEL 7
REMARK VINA RESULT:    -0.342      2.359      4.657
REMARK INTER + INTRA:          -1.036
REMARK INTER:                  -0.498
REMARK INTRA:                  -0.538
REMARK UNBOUND:                -0.435
REMARK SMILES CCCCCCC=CCCCCCCCC(=O)[O-]
REMARK SMILES IDX 10 1 11 2 12 3 13 4 14 5 15 6 16 7 17 8 18 9 9 10 8 11 7 12
REMARK SMILES IDX 6 13 5 14 4 15 3 16 2 17 1 18
REMARK H PARENT
REMARK Flexibility Score: inf
ROOT
ATOM      1  C   UNL     1      44.690 -24.654  -3.062  1.00  0.00     0.004 C 
ENDROOT
BRANCH   1   2
ATOM      2  C   UNL     1      45.546 -24.664  -4.338  1.00  0.00     0.000 C 
BRANCH   2   3
ATOM      3  C   UNL     1      45.137 -23.559  -5.324  1.00  0.00     0.000 C 
BRANCH   3   4
ATOM      4  C   UNL     1      44.846 -24.143  -6.714  1.00  0.00     0.000 C 
BRANCH   4   5
ATOM      5  C   UNL     1      46.123 -24.556  -7.468  1.00  0.00     0.006 C 
BRANCH   5   6
ATOM      6  C   UNL     1      45.891 -25.559  -8.609  1.00  0.00     0.053 C 
BRANCH   6   7
ATOM      7  C   UNL     1      46.050 -26.977  -8.153  1.00  0.00     0.041 C 
ATOM      8  O   UNL     1      46.106 -27.911  -8.995  1.00  0.00    -0.550 OA
ATOM      9  O   UNL     1      46.101 -27.270  -6.797  1.00  0.00    -0.550 OA
ENDBRANCH   6   7
ENDBRANCH   5   6
ENDBRANCH   4   5
ENDBRANCH   3   4
ENDBRANCH   2   3
ENDBRANCH   1   2
BRANCH   1  10
ATOM     10  C   UNL     1      45.509 -24.972  -1.803  1.00  0.00     0.027 C 
BRANCH  10  11
ATOM     11  C   UNL     1      45.155 -24.029  -0.682  1.00  0.00    -0.031 C 
ATOM     12  C   UNL     1      45.456 -24.238   0.613  1.00  0.00    -0.031 C 
BRANCH  12  13
ATOM     13  C   UNL     1      46.112 -25.488   1.152  1.00  0.00     0.027 C 
BRANCH  13  14
ATOM     14  C   UNL     1      45.099 -26.622   1.385  1.00  0.00     0.004 C 
BRANCH  14  15
ATOM     15  C   UNL     1      45.262 -27.360   2.729  1.00  0.00     0.000 C 
BRANCH  15  16
ATOM     16  C   UNL     1      45.782 -26.494   3.891  1.00  0.00    -0.000 C 
BRANCH  16  17
ATOM     17  C   UNL     1      45.808 -27.244   5.230  1.00  0.00    -0.003 C 
ATOM     18  C   UNL     1      45.824 -26.271   6.405  1.00  0.00     0.004 C 
ENDBRANCH  16  17
ENDBRANCH  15  16
ENDBRANCH  14  15
ENDBRANCH  13  14
ENDBRANCH  12  13
ENDBRANCH  10  11
ENDBRANCH   1  10
TORSDOF 13
ENDMDL
