MODEL 1
REMARK VINA RESULT:    24.593      0.000      0.000
REMARK INTER + INTRA:          29.267
REMARK INTER:                  29.624
REMARK INTRA:                  -0.358
REMARK UNBOUND:                -0.358
REMARK SMILES COc1ccc([C@@H]2CC(=O)c3c(O)cc(O)cc3O2)cc1O
REMARK SMILES IDX 7 1 8 2 9 3 10 4 11 5 12 6 14 7 15 8 17 9 18 10 19 11 6 12
REMARK SMILES IDX 3 13 21 14 4 15 20 16 5 17 2 18 1 19 22 20 13 22 16 24
REMARK H PARENT 22 21 13 23 16 25
REMARK Flexibility Score: inf
ROOT
ATOM      1  C   UNL     1      -6.780   4.881  15.228  1.00  0.00     0.211 C 
ATOM      2  C   UNL     1      -6.403   4.644  16.697  1.00  0.00     0.131 C 
ATOM      3  C   UNL     1      -5.854   3.257  16.846  1.00  0.00     0.174 C 
ATOM      4  O   UNL     1      -6.260   2.530  17.790  1.00  0.00    -0.294 OA
ATOM      5  C   UNL     1      -4.890   2.758  15.833  1.00  0.00     0.102 A 
ATOM      6  C   UNL     1      -4.017   1.657  16.038  1.00  0.00     0.133 A 
ATOM      7  C   UNL     1      -3.195   1.225  14.991  1.00  0.00     0.093 A 
ATOM      8  C   UNL     1      -3.181   1.899  13.766  1.00  0.00     0.123 A 
ATOM      9  C   UNL     1      -4.005   3.009  13.576  1.00  0.00     0.093 A 
ATOM     10  C   UNL     1      -4.862   3.433  14.593  1.00  0.00     0.138 A 
ATOM     11  O   UNL     1      -5.687   4.544  14.368  1.00  0.00    -0.484 OA
ENDROOT
BRANCH   1  12
ATOM     12  C   UNL     1      -7.187   6.318  15.007  1.00  0.00    -0.003 A 
ATOM     13  C   UNL     1      -8.005   8.993  14.643  1.00  0.00     0.160 A 
ATOM     14  C   UNL     1      -8.660   7.955  13.964  1.00  0.00     0.158 A 
ATOM     15  C   UNL     1      -6.943   8.684  15.514  1.00  0.00     0.051 A 
ATOM     16  C   UNL     1      -8.256   6.625  14.150  1.00  0.00     0.057 A 
ATOM     17  C   UNL     1      -6.544   7.358  15.697  1.00  0.00     0.011 A 
BRANCH  13  18
ATOM     18  O   UNL     1      -8.437  10.311  14.429  1.00  0.00    -0.493 OA
ATOM     19  C   UNL     1      -9.194  11.073  15.365  1.00  0.00     0.278 C 
ENDBRANCH  13  18
BRANCH  14  20
ATOM     20  O   UNL     1      -9.716   8.255  13.106  1.00  0.00    -0.504 OA
ATOM     21  H   UNL     1      -9.579   8.334  12.105  1.00  0.00     0.293 HD
ENDBRANCH  14  20
ENDBRANCH   1  12
BRANCH   6  22
ATOM     22  O   UNL     1      -3.904   0.990  17.260  1.00  0.00    -0.507 OA
ATOM     23  H   UNL     1      -4.429   0.161  17.502  1.00  0.00     0.293 HD
ENDBRANCH   6  22
BRANCH   8  24
ATOM     24  O   UNL     1      -2.349   1.478  12.731  1.00  0.00    -0.508 OA
ATOM     25  H   UNL     1      -2.717   1.251  11.815  1.00  0.00     0.293 HD
ENDBRANCH   8  24
TORSDOF 5
ENDMDL
MODEL 2
REMARK VINA RESULT:    25.832      2.815      7.948
REMARK INTER + INTRA:          30.759
REMARK INTER:                  31.114
REMARK INTRA:                  -0.354
REMARK UNBOUND:                -0.358
REMARK SMILES COc1ccc([C@@H]2CC(=O)c3c(O)cc(O)cc3O2)cc1O
REMARK SMILES IDX 7 1 8 2 9 3 10 4 11 5 12 6 14 7 15 8 17 9 18 10 19 11 6 12
REMARK SMILES IDX 3 13 21 14 4 15 20 16 5 17 2 18 1 19 22 20 13 22 16 24
REMARK H PARENT 22 21 13 23 16 25
REMARK Flexibility Score: inf
ROOT
ATOM      1  C   UNL     1      -4.058   2.773  15.007  1.00  0.00     0.211 C 
ATOM      2  C   UNL     1      -4.451   2.620  16.483  1.00  0.00     0.131 C 
ATOM      3  C   UNL     1      -5.392   3.724  16.858  1.00  0.00     0.174 C 
ATOM      4  O   UNL     1      -5.203   4.361  17.928  1.00  0.00    -0.294 OA
ATOM      5  C   UNL     1      -6.488   4.079  15.922  1.00  0.00     0.102 A 
ATOM      6  C   UNL     1      -7.650   4.806  16.292  1.00  0.00     0.133 A 
ATOM      7  C   UNL     1      -8.591   5.147  15.314  1.00  0.00     0.093 A 
ATOM      8  C   UNL     1      -8.430   4.729  13.989  1.00  0.00     0.123 A 
ATOM      9  C   UNL     1      -7.313   3.974  13.630  1.00  0.00     0.093 A 
ATOM     10  C   UNL     1      -6.341   3.657  14.582  1.00  0.00     0.138 A 
ATOM     11  O   UNL     1      -5.223   2.909  14.188  1.00  0.00    -0.484 OA
ENDROOT
BRANCH   1  12
ATOM     12  C   UNL     1      -3.238   1.592  14.548  1.00  0.00    -0.003 A 
ATOM     13  C   UNL     1      -1.763  -0.660  13.706  1.00  0.00     0.160 A 
ATOM     14  C   UNL     1      -1.830  -0.328  15.066  1.00  0.00     0.158 A 
ATOM     15  C   UNL     1      -2.448   0.135  12.767  1.00  0.00     0.051 A 
ATOM     16  C   UNL     1      -2.568   0.789  15.484  1.00  0.00     0.057 A 
ATOM     17  C   UNL     1      -3.182   1.247  13.187  1.00  0.00     0.011 A 
BRANCH  13  18
ATOM     18  O   UNL     1      -1.012  -1.785  13.327  1.00  0.00    -0.493 OA
ATOM     19  C   UNL     1      -1.452  -2.771  12.398  1.00  0.00     0.278 C 
ENDBRANCH  13  18
BRANCH  14  20
ATOM     20  O   UNL     1      -1.160  -1.116  16.000  1.00  0.00    -0.504 OA
ATOM     21  H   UNL     1      -0.170  -1.314  15.914  1.00  0.00     0.293 HD
ENDBRANCH  14  20
ENDBRANCH   1  12
BRANCH   6  22
ATOM     22  O   UNL     1      -7.928   5.180  17.609  1.00  0.00    -0.507 OA
ATOM     23  H   UNL     1      -7.224   5.308  18.321  1.00  0.00     0.293 HD
ENDBRANCH   6  22
BRANCH   8  24
ATOM     24  O   UNL     1      -9.378   5.054  13.021  1.00  0.00    -0.508 OA
ATOM     25  H   UNL     1     -10.263   4.564  12.962  1.00  0.00     0.293 HD
ENDBRANCH   8  24
TORSDOF 5
ENDMDL
MODEL 3
REMARK VINA RESULT:    25.975      1.555      7.669
REMARK INTER + INTRA:          30.933
REMARK INTER:                  31.286
REMARK INTRA:                  -0.354
REMARK UNBOUND:                -0.358
REMARK SMILES COc1ccc([C@@H]2CC(=O)c3c(O)cc(O)cc3O2)cc1O
REMARK SMILES IDX 7 1 8 2 9 3 10 4 11 5 12 6 14 7 15 8 17 9 18 10 19 11 6 12
REMARK SMILES IDX 3 13 21 14 4 15 20 16 5 17 2 18 1 19 22 20 13 22 16 24
REMARK H PARENT 22 21 13 23 16 25
REMARK Flexibility Score: inf
ROOT
ATOM      1  C   UNL     1      -6.073   3.841  15.426  1.00  0.00     0.211 C 
ATOM      2  C   UNL     1      -6.809   3.854  14.079  1.00  0.00     0.131 C 
ATOM      3  C   UNL     1      -7.849   4.933  14.098  1.00  0.00     0.174 C 
ATOM      4  O   UNL     1      -9.011   4.678  13.686  1.00  0.00    -0.294 OA
ATOM      5  C   UNL     1      -7.493   6.259  14.663  1.00  0.00     0.102 A 
ATOM      6  C   UNL     1      -8.215   7.454  14.406  1.00  0.00     0.133 A 
ATOM      7  C   UNL     1      -7.834   8.640  15.045  1.00  0.00     0.093 A 
ATOM      8  C   UNL     1      -6.718   8.674  15.887  1.00  0.00     0.123 A 
ATOM      9  C   UNL     1      -5.978   7.510  16.105  1.00  0.00     0.093 A 
ATOM     10  C   UNL     1      -6.364   6.307  15.509  1.00  0.00     0.138 A 
ATOM     11  O   UNL     1      -5.609   5.153  15.759  1.00  0.00    -0.484 OA
ENDROOT
BRANCH   1  12
ATOM     12  C   UNL     1      -4.913   2.876  15.392  1.00  0.00    -0.003 A 
ATOM     13  C   UNL     1      -2.793   1.018  15.311  1.00  0.00     0.160 A 
ATOM     14  C   UNL     1      -3.590   1.129  16.459  1.00  0.00     0.158 A 
ATOM     15  C   UNL     1      -3.068   1.834  14.198  1.00  0.00     0.051 A 
ATOM     16  C   UNL     1      -4.647   2.050  16.496  1.00  0.00     0.057 A 
ATOM     17  C   UNL     1      -4.122   2.750  14.238  1.00  0.00     0.011 A 
BRANCH  13  18
ATOM     18  O   UNL     1      -1.743   0.085  15.313  1.00  0.00    -0.493 OA
ATOM     19  C   UNL     1      -1.647  -1.022  14.423  1.00  0.00     0.278 C 
ENDBRANCH  13  18
BRANCH  14  20
ATOM     20  O   UNL     1      -3.327   0.319  17.561  1.00  0.00    -0.504 OA
ATOM     21  H   UNL     1      -2.928  -0.607  17.455  1.00  0.00     0.293 HD
ENDBRANCH  14  20
ENDBRANCH   1  12
BRANCH   6  22
ATOM     22  O   UNL     1      -9.283   7.523  13.508  1.00  0.00    -0.507 OA
ATOM     23  H   UNL     1      -9.263   8.047  12.645  1.00  0.00     0.293 HD
ENDBRANCH   6  22
BRANCH   8  24
ATOM     24  O   UNL     1      -6.330   9.859  16.507  1.00  0.00    -0.508 OA
ATOM     25  H   UNL     1      -5.402   9.974  16.896  1.00  0.00     0.293 HD
ENDBRANCH   8  24
TORSDOF 5
ENDMDL
