MODEL 1
REMARK VINA RESULT:    -7.743      0.000      0.000
REMARK INTER + INTRA:          -9.600
REMARK INTER:                  -9.327
REMARK INTRA:                  -0.273
REMARK UNBOUND:                -0.273
REMARK SMILES O=c1c(O)c(-c2ccc(O)cc2O)oc2cc(O)cc(O)c12
REMARK SMILES IDX 5 1 3 2 2 3 1 4 22 5 20 6 19 7 17 8 16 9 15 10 14 11 6 12
REMARK SMILES IDX 8 13 7 14 9 15 11 16 12 17 10 18 13 20 4 22 21 24 18 26
REMARK H PARENT 10 19 13 21 4 23 21 25 18 27
REMARK Flexibility Score: inf
ROOT
ATOM      1  C   UNL     1      18.234  18.279  35.109  1.00  0.00     0.184 A 
ATOM      2  C   UNL     1      17.314  17.238  35.344  1.00  0.00     0.208 A 
ATOM      3  C   UNL     1      16.622  16.685  34.256  1.00  0.00     0.238 A 
ATOM      4  O   UNL     1      15.790  15.759  34.455  1.00  0.00    -0.285 OA
ATOM      5  C   UNL     1      16.872  17.168  32.954  1.00  0.00     0.111 A 
ATOM      6  C   UNL     1      16.220  16.663  31.804  1.00  0.00     0.134 A 
ATOM      7  C   UNL     1      16.529  17.191  30.541  1.00  0.00     0.093 A 
ATOM      8  C   UNL     1      17.474  18.211  30.406  1.00  0.00     0.123 A 
ATOM      9  C   UNL     1      18.120  18.715  31.540  1.00  0.00     0.094 A 
ATOM     10  C   UNL     1      17.826  18.202  32.807  1.00  0.00     0.146 A 
ATOM     11  O   UNL     1      18.451  18.701  33.867  1.00  0.00    -0.451 OA
ENDROOT
BRANCH   1  12
ATOM     12  C   UNL     1      18.985  18.920  36.212  1.00  0.00     0.063 A 
ATOM     13  C   UNL     1      21.077  19.306  37.395  1.00  0.00     0.047 A 
ATOM     14  C   UNL     1      20.372  18.724  36.339  1.00  0.00     0.020 A 
ATOM     15  C   UNL     1      20.408  20.081  38.346  1.00  0.00     0.119 A 
ATOM     16  C   UNL     1      19.025  20.272  38.238  1.00  0.00     0.093 A 
ATOM     17  C   UNL     1      18.309  19.693  37.178  1.00  0.00     0.130 A 
BRANCH  15  18
ATOM     18  O   UNL     1      21.125  20.654  39.394  1.00  0.00    -0.508 OA
ATOM     19  H   UNL     1      22.100  20.912  39.290  1.00  0.00     0.293 HD
ENDBRANCH  15  18
BRANCH  17  20
ATOM     20  O   UNL     1      16.933  19.895  37.079  1.00  0.00    -0.507 OA
ATOM     21  H   UNL     1      16.443  20.532  37.695  1.00  0.00     0.293 HD
ENDBRANCH  17  20
ENDBRANCH   1  12
BRANCH   2  22
ATOM     22  O   UNL     1      17.117  16.753  36.640  1.00  0.00    -0.502 OA
ATOM     23  H   UNL     1      17.786  16.910  37.385  1.00  0.00     0.293 HD
ENDBRANCH   2  22
BRANCH   6  24
ATOM     24  O   UNL     1      15.272  15.644  31.904  1.00  0.00    -0.507 OA
ATOM     25  H   UNL     1      14.280  15.826  31.801  1.00  0.00     0.293 HD
ENDBRANCH   6  24
BRANCH   8  26
ATOM     26  O   UNL     1      17.762  18.717  29.141  1.00  0.00    -0.508 OA
ATOM     27  H   UNL     1      17.777  19.714  28.961  1.00  0.00     0.293 HD
ENDBRANCH   8  26
TORSDOF 6
ENDMDL
MODEL 2
REMARK VINA RESULT:    -7.630      1.219      2.869
REMARK INTER + INTRA:          -9.464
REMARK INTER:                  -9.022
REMARK INTRA:                  -0.442
REMARK UNBOUND:                -0.273
REMARK SMILES O=c1c(O)c(-c2ccc(O)cc2O)oc2cc(O)cc(O)c12
REMARK SMILES IDX 5 1 3 2 2 3 1 4 22 5 20 6 19 7 17 8 16 9 15 10 14 11 6 12
REMARK SMILES IDX 8 13 7 14 9 15 11 16 12 17 10 18 13 20 4 22 21 24 18 26
REMARK H PARENT 10 19 13 21 4 23 21 25 18 27
REMARK Flexibility Score: inf
ROOT
ATOM      1  C   UNL     1      18.327  18.674  34.901  1.00  0.00     0.184 A 
ATOM      2  C   UNL     1      18.532  19.223  33.621  1.00  0.00     0.208 A 
ATOM      3  C   UNL     1      17.837  18.681  32.529  1.00  0.00     0.238 A 
ATOM      4  O   UNL     1      18.018  19.160  31.378  1.00  0.00    -0.285 OA
ATOM      5  C   UNL     1      16.939  17.613  32.737  1.00  0.00     0.111 A 
ATOM      6  C   UNL     1      16.197  17.012  31.692  1.00  0.00     0.134 A 
ATOM      7  C   UNL     1      15.317  15.957  31.981  1.00  0.00     0.093 A 
ATOM      8  C   UNL     1      15.166  15.494  33.290  1.00  0.00     0.123 A 
ATOM      9  C   UNL     1      15.898  16.083  34.326  1.00  0.00     0.094 A 
ATOM     10  C   UNL     1      16.780  17.135  34.059  1.00  0.00     0.146 A 
ATOM     11  O   UNL     1      17.465  17.673  35.060  1.00  0.00    -0.451 OA
ENDROOT
BRANCH   1  12
ATOM     12  C   UNL     1      19.041  19.185  36.093  1.00  0.00     0.063 A 
ATOM     13  C   UNL     1      21.104  19.482  37.351  1.00  0.00     0.047 A 
ATOM     14  C   UNL     1      20.433  19.025  36.214  1.00  0.00     0.020 A 
ATOM     15  C   UNL     1      20.395  20.093  38.388  1.00  0.00     0.119 A 
ATOM     16  C   UNL     1      19.007  20.245  38.285  1.00  0.00     0.093 A 
ATOM     17  C   UNL     1      18.325  19.791  37.145  1.00  0.00     0.130 A 
BRANCH  15  18
ATOM     18  O   UNL     1      21.078  20.543  39.515  1.00  0.00    -0.508 OA
ATOM     19  H   UNL     1      20.733  21.320  40.068  1.00  0.00     0.293 HD
ENDBRANCH  15  18
BRANCH  17  20
ATOM     20  O   UNL     1      16.943  19.954  37.053  1.00  0.00    -0.507 OA
ATOM     21  H   UNL     1      16.308  19.459  37.667  1.00  0.00     0.293 HD
ENDBRANCH  17  20
ENDBRANCH   1  12
BRANCH   2  22
ATOM     22  O   UNL     1      19.397  20.309  33.452  1.00  0.00    -0.502 OA
ATOM     23  H   UNL     1      19.883  20.484  32.580  1.00  0.00     0.293 HD
ENDBRANCH   2  22
BRANCH   6  24
ATOM     24  O   UNL     1      16.325  17.453  30.374  1.00  0.00    -0.507 OA
ATOM     25  H   UNL     1      15.539  17.835  29.861  1.00  0.00     0.293 HD
ENDBRANCH   6  24
BRANCH   8  26
ATOM     26  O   UNL     1      14.286  14.446  33.549  1.00  0.00    -0.508 OA
ATOM     27  H   UNL     1      13.335  14.617  33.854  1.00  0.00     0.293 HD
ENDBRANCH   8  26
TORSDOF 6
ENDMDL
MODEL 3
REMARK VINA RESULT:    -7.341      1.748      1.864
REMARK INTER + INTRA:          -9.116
REMARK INTER:                  -8.686
REMARK INTRA:                  -0.430
REMARK UNBOUND:                -0.273
REMARK SMILES O=c1c(O)c(-c2ccc(O)cc2O)oc2cc(O)cc(O)c12
REMARK SMILES IDX 5 1 3 2 2 3 1 4 22 5 20 6 19 7 17 8 16 9 15 10 14 11 6 12
REMARK SMILES IDX 8 13 7 14 9 15 11 16 12 17 10 18 13 20 4 22 21 24 18 26
REMARK H PARENT 10 19 13 21 4 23 21 25 18 27
REMARK Flexibility Score: inf
ROOT
ATOM      1  C   UNL     1      17.989  18.161  34.568  1.00  0.00     0.184 A 
ATOM      2  C   UNL     1      18.383  16.835  34.307  1.00  0.00     0.208 A 
ATOM      3  C   UNL     1      17.712  16.111  33.310  1.00  0.00     0.238 A 
ATOM      4  O   UNL     1      18.051  14.920  33.073  1.00  0.00    -0.285 OA
ATOM      5  C   UNL     1      16.673  16.727  32.581  1.00  0.00     0.111 A 
ATOM      6  C   UNL     1      15.950  16.069  31.559  1.00  0.00     0.134 A 
ATOM      7  C   UNL     1      14.934  16.754  30.874  1.00  0.00     0.093 A 
ATOM      8  C   UNL     1      14.629  18.079  31.191  1.00  0.00     0.123 A 
ATOM      9  C   UNL     1      15.340  18.734  32.202  1.00  0.00     0.094 A 
ATOM     10  C   UNL     1      16.355  18.069  32.897  1.00  0.00     0.146 A 
ATOM     11  O   UNL     1      17.012  18.713  33.854  1.00  0.00    -0.451 OA
ENDROOT
BRANCH   1  12
ATOM     12  C   UNL     1      18.640  18.977  35.618  1.00  0.00     0.063 A 
ATOM     13  C   UNL     1      20.539  20.285  36.399  1.00  0.00     0.047 A 
ATOM     14  C   UNL     1      19.911  19.539  35.399  1.00  0.00     0.020 A 
ATOM     15  C   UNL     1      19.915  20.472  37.635  1.00  0.00     0.119 A 
ATOM     16  C   UNL     1      18.655  19.906  37.870  1.00  0.00     0.093 A 
ATOM     17  C   UNL     1      18.016  19.157  36.870  1.00  0.00     0.130 A 
BRANCH  15  18
ATOM     18  O   UNL     1      20.554  21.218  38.622  1.00  0.00    -0.508 OA
ATOM     19  H   UNL     1      21.143  20.779  39.320  1.00  0.00     0.293 HD
ENDBRANCH  15  18
BRANCH  17  20
ATOM     20  O   UNL     1      16.760  18.603  37.114  1.00  0.00    -0.507 OA
ATOM     21  H   UNL     1      16.474  18.324  38.045  1.00  0.00     0.293 HD
ENDBRANCH  17  20
ENDBRANCH   1  12
BRANCH   2  22
ATOM     22  O   UNL     1      19.443  16.263  35.018  1.00  0.00    -0.502 OA
ATOM     23  H   UNL     1      19.629  15.268  35.005  1.00  0.00     0.293 HD
ENDBRANCH   2  22
BRANCH   6  24
ATOM     24  O   UNL     1      16.231  14.745  31.217  1.00  0.00    -0.507 OA
ATOM     25  H   UNL     1      17.076  14.282  31.531  1.00  0.00     0.293 HD
ENDBRANCH   6  24
BRANCH   8  26
ATOM     26  O   UNL     1      13.617  18.735  30.496  1.00  0.00    -0.508 OA
ATOM     27  H   UNL     1      13.747  19.047  29.541  1.00  0.00     0.293 HD
ENDBRANCH   8  26
TORSDOF 6
ENDMDL
MODEL 4
REMARK VINA RESULT:    -7.124     15.268     17.999
REMARK INTER + INTRA:          -8.855
REMARK INTER:                  -8.428
REMARK INTRA:                  -0.427
REMARK UNBOUND:                -0.273
REMARK SMILES O=c1c(O)c(-c2ccc(O)cc2O)oc2cc(O)cc(O)c12
REMARK SMILES IDX 5 1 3 2 2 3 1 4 22 5 20 6 19 7 17 8 16 9 15 10 14 11 6 12
REMARK SMILES IDX 8 13 7 14 9 15 11 16 12 17 10 18 13 20 4 22 21 24 18 26
REMARK H PARENT 10 19 13 21 4 23 21 25 18 27
REMARK Flexibility Score: inf
ROOT
ATOM      1  C   UNL     1       7.938  29.399  26.879  1.00  0.00     0.184 A 
ATOM      2  C   UNL     1       7.908  30.793  26.680  1.00  0.00     0.208 A 
ATOM      3  C   UNL     1       8.282  31.638  27.736  1.00  0.00     0.238 A 
ATOM      4  O   UNL     1       8.251  32.888  27.573  1.00  0.00    -0.285 OA
ATOM      5  C   UNL     1       8.695  31.077  28.964  1.00  0.00     0.111 A 
ATOM      6  C   UNL     1       9.091  31.858  30.076  1.00  0.00     0.134 A 
ATOM      7  C   UNL     1       9.497  31.225  31.261  1.00  0.00     0.093 A 
ATOM      8  C   UNL     1       9.513  29.831  31.354  1.00  0.00     0.123 A 
ATOM      9  C   UNL     1       9.121  29.055  30.259  1.00  0.00     0.094 A 
ATOM     10  C   UNL     1       8.713  29.667  29.069  1.00  0.00     0.146 A 
ATOM     11  O   UNL     1       8.342  28.907  28.046  1.00  0.00    -0.451 OA
ENDROOT
BRANCH   1  12
ATOM     12  C   UNL     1       7.539  28.451  25.814  1.00  0.00     0.063 A 
ATOM     13  C   UNL     1       7.956  27.403  23.657  1.00  0.00     0.047 A 
ATOM     14  C   UNL     1       8.345  28.277  24.675  1.00  0.00     0.020 A 
ATOM     15  C   UNL     1       6.753  26.700  23.755  1.00  0.00     0.119 A 
ATOM     16  C   UNL     1       5.935  26.875  24.879  1.00  0.00     0.093 A 
ATOM     17  C   UNL     1       6.320  27.749  25.907  1.00  0.00     0.130 A 
BRANCH  15  18
ATOM     18  O   UNL     1       6.378  25.832  22.732  1.00  0.00    -0.508 OA
ATOM     19  H   UNL     1       6.032  26.179  21.844  1.00  0.00     0.293 HD
ENDBRANCH  15  18
BRANCH  17  20
ATOM     20  O   UNL     1       5.499  27.911  27.023  1.00  0.00    -0.507 OA
ATOM     21  H   UNL     1       5.041  27.123  27.465  1.00  0.00     0.293 HD
ENDBRANCH  17  20
ENDBRANCH   1  12
BRANCH   2  22
ATOM     22  O   UNL     1       7.533  31.319  25.440  1.00  0.00    -0.502 OA
ATOM     23  H   UNL     1       6.757  30.947  24.906  1.00  0.00     0.293 HD
ENDBRANCH   2  22
BRANCH   6  24
ATOM     24  O   UNL     1       9.087  33.252  30.013  1.00  0.00    -0.507 OA
ATOM     25  H   UNL     1       9.446  33.750  29.207  1.00  0.00     0.293 HD
ENDBRANCH   6  24
BRANCH   8  26
ATOM     26  O   UNL     1       9.920  29.228  32.542  1.00  0.00    -0.508 OA
ATOM     27  H   UNL     1      10.072  28.228  32.603  1.00  0.00     0.293 HD
ENDBRANCH   8  26
TORSDOF 6
ENDMDL
MODEL 5
REMARK VINA RESULT:    -6.881      1.948      2.783
REMARK INTER + INTRA:          -8.562
REMARK INTER:                  -8.190
REMARK INTRA:                  -0.373
REMARK UNBOUND:                -0.273
REMARK SMILES O=c1c(O)c(-c2ccc(O)cc2O)oc2cc(O)cc(O)c12
REMARK SMILES IDX 5 1 3 2 2 3 1 4 22 5 20 6 19 7 17 8 16 9 15 10 14 11 6 12
REMARK SMILES IDX 8 13 7 14 9 15 11 16 12 17 10 18 13 20 4 22 21 24 18 26
REMARK H PARENT 10 19 13 21 4 23 21 25 18 27
REMARK Flexibility Score: inf
ROOT
ATOM      1  C   UNL     1      17.370  18.161  32.830  1.00  0.00     0.184 A 
ATOM      2  C   UNL     1      16.080  17.625  33.005  1.00  0.00     0.208 A 
ATOM      3  C   UNL     1      15.188  17.633  31.922  1.00  0.00     0.238 A 
ATOM      4  O   UNL     1      14.028  17.163  32.070  1.00  0.00    -0.285 OA
ATOM      5  C   UNL     1      15.604  18.160  30.681  1.00  0.00     0.111 A 
ATOM      6  C   UNL     1      14.769  18.202  29.540  1.00  0.00     0.134 A 
ATOM      7  C   UNL     1      15.260  18.734  28.338  1.00  0.00     0.093 A 
ATOM      8  C   UNL     1      16.565  19.224  28.256  1.00  0.00     0.123 A 
ATOM      9  C   UNL     1      17.394  19.187  29.382  1.00  0.00     0.094 A 
ATOM     10  C   UNL     1      16.924  18.660  30.589  1.00  0.00     0.146 A 
ATOM     11  O   UNL     1      17.731  18.640  31.643  1.00  0.00    -0.451 OA
ENDROOT
BRANCH   1  12
ATOM     12  C   UNL     1      18.355  18.202  33.935  1.00  0.00     0.063 A 
ATOM     13  C   UNL     1      20.234  17.211  35.123  1.00  0.00     0.047 A 
ATOM     14  C   UNL     1      19.322  17.189  34.066  1.00  0.00     0.020 A 
ATOM     15  C   UNL     1      20.188  18.237  36.071  1.00  0.00     0.119 A 
ATOM     16  C   UNL     1      19.221  19.244  35.959  1.00  0.00     0.093 A 
ATOM     17  C   UNL     1      18.302  19.230  34.898  1.00  0.00     0.130 A 
BRANCH  15  18
ATOM     18  O   UNL     1      21.104  18.245  37.120  1.00  0.00    -0.508 OA
ATOM     19  H   UNL     1      21.399  19.110  37.559  1.00  0.00     0.293 HD
ENDBRANCH  15  18
BRANCH  17  20
ATOM     20  O   UNL     1      17.347  20.241  34.794  1.00  0.00    -0.507 OA
ATOM     21  H   UNL     1      16.778  20.518  35.585  1.00  0.00     0.293 HD
ENDBRANCH  17  20
ENDBRANCH   1  12
BRANCH   2  22
ATOM     22  O   UNL     1      15.709  17.074  34.235  1.00  0.00    -0.502 OA
ATOM     23  H   UNL     1      15.791  16.083  34.432  1.00  0.00     0.293 HD
ENDBRANCH   2  22
BRANCH   6  24
ATOM     24  O   UNL     1      13.460  17.719  29.589  1.00  0.00    -0.507 OA
ATOM     25  H   UNL     1      12.661  18.341  29.545  1.00  0.00     0.293 HD
ENDBRANCH   6  24
BRANCH   8  26
ATOM     26  O   UNL     1      17.027  19.748  27.051  1.00  0.00    -0.508 OA
ATOM     27  H   UNL     1      16.605  19.492  26.166  1.00  0.00     0.293 HD
ENDBRANCH   8  26
TORSDOF 6
ENDMDL
MODEL 6
REMARK VINA RESULT:    -6.825      3.204      4.797
REMARK INTER + INTRA:          -8.495
REMARK INTER:                  -8.154
REMARK INTRA:                  -0.341
REMARK UNBOUND:                -0.273
REMARK SMILES O=c1c(O)c(-c2ccc(O)cc2O)oc2cc(O)cc(O)c12
REMARK SMILES IDX 5 1 3 2 2 3 1 4 22 5 20 6 19 7 17 8 16 9 15 10 14 11 6 12
REMARK SMILES IDX 8 13 7 14 9 15 11 16 12 17 10 18 13 20 4 22 21 24 18 26
REMARK H PARENT 10 19 13 21 4 23 21 25 18 27
REMARK Flexibility Score: inf
ROOT
ATOM      1  C   UNL     1      16.181  16.642  33.833  1.00  0.00     0.184 A 
ATOM      2  C   UNL     1      17.432  17.213  33.528  1.00  0.00     0.208 A 
ATOM      3  C   UNL     1      17.623  17.796  32.266  1.00  0.00     0.238 A 
ATOM      4  O   UNL     1      18.741  18.302  31.979  1.00  0.00    -0.285 OA
ATOM      5  C   UNL     1      16.559  17.813  31.339  1.00  0.00     0.111 A 
ATOM      6  C   UNL     1      16.668  18.384  30.049  1.00  0.00     0.134 A 
ATOM      7  C   UNL     1      15.561  18.369  29.186  1.00  0.00     0.093 A 
ATOM      8  C   UNL     1      14.351  17.797  29.588  1.00  0.00     0.123 A 
ATOM      9  C   UNL     1      14.240  17.230  30.862  1.00  0.00     0.094 A 
ATOM     10  C   UNL     1      15.331  17.234  31.736  1.00  0.00     0.146 A 
ATOM     11  O   UNL     1      15.199  16.687  32.938  1.00  0.00    -0.451 OA
ENDROOT
BRANCH   1  12
ATOM     12  C   UNL     1      15.916  15.995  35.138  1.00  0.00     0.063 A 
ATOM     13  C   UNL     1      15.824  16.105  37.568  1.00  0.00     0.047 A 
ATOM     14  C   UNL     1      16.046  16.722  36.335  1.00  0.00     0.020 A 
ATOM     15  C   UNL     1      15.480  14.752  37.626  1.00  0.00     0.119 A 
ATOM     16  C   UNL     1      15.361  14.014  36.442  1.00  0.00     0.093 A 
ATOM     17  C   UNL     1      15.580  14.627  35.199  1.00  0.00     0.130 A 
BRANCH  15  18
ATOM     18  O   UNL     1      15.262  14.151  38.864  1.00  0.00    -0.508 OA
ATOM     19  H   UNL     1      15.958  14.187  39.600  1.00  0.00     0.293 HD
ENDBRANCH  15  18
BRANCH  17  20
ATOM     20  O   UNL     1      15.453  13.882  34.026  1.00  0.00    -0.507 OA
ATOM     21  H   UNL     1      14.659  13.995  33.408  1.00  0.00     0.293 HD
ENDBRANCH  17  20
ENDBRANCH   1  12
BRANCH   2  22
ATOM     22  O   UNL     1      18.455  17.216  34.481  1.00  0.00    -0.502 OA
ATOM     23  H   UNL     1      18.451  17.843  35.277  1.00  0.00     0.293 HD
ENDBRANCH   2  22
BRANCH   6  24
ATOM     24  O   UNL     1      17.861  18.964  29.617  1.00  0.00    -0.507 OA
ATOM     25  H   UNL     1      18.740  18.792  30.093  1.00  0.00     0.293 HD
ENDBRANCH   6  24
BRANCH   8  26
ATOM     26  O   UNL     1      13.268  17.795  28.713  1.00  0.00    -0.508 OA
ATOM     27  H   UNL     1      12.371  17.409  28.982  1.00  0.00     0.293 HD
ENDBRANCH   8  26
TORSDOF 6
ENDMDL
MODEL 7
REMARK VINA RESULT:    -6.706     15.223     16.468
REMARK INTER + INTRA:          -8.351
REMARK INTER:                  -7.877
REMARK INTRA:                  -0.474
REMARK UNBOUND:                -0.273
REMARK SMILES O=c1c(O)c(-c2ccc(O)cc2O)oc2cc(O)cc(O)c12
REMARK SMILES IDX 5 1 3 2 2 3 1 4 22 5 20 6 19 7 17 8 16 9 15 10 14 11 6 12
REMARK SMILES IDX 8 13 7 14 9 15 11 16 12 17 10 18 13 20 4 22 21 24 18 26
REMARK H PARENT 10 19 13 21 4 23 21 25 18 27
REMARK Flexibility Score: inf
ROOT
ATOM      1  C   UNL     1       8.733  29.594  28.207  1.00  0.00     0.184 A 
ATOM      2  C   UNL     1       9.796  29.515  27.287  1.00  0.00     0.208 A 
ATOM      3  C   UNL     1       9.583  28.878  26.055  1.00  0.00     0.238 A 
ATOM      4  O   UNL     1      10.530  28.794  25.227  1.00  0.00    -0.285 OA
ATOM      5  C   UNL     1       8.310  28.348  25.757  1.00  0.00     0.111 A 
ATOM      6  C   UNL     1       8.011  27.694  24.537  1.00  0.00     0.134 A 
ATOM      7  C   UNL     1       6.717  27.200  24.312  1.00  0.00     0.093 A 
ATOM      8  C   UNL     1       5.720  27.346  25.280  1.00  0.00     0.123 A 
ATOM      9  C   UNL     1       6.011  27.989  26.487  1.00  0.00     0.094 A 
ATOM     10  C   UNL     1       7.294  28.488  26.731  1.00  0.00     0.146 A 
ATOM     11  O   UNL     1       7.544  29.091  27.887  1.00  0.00    -0.451 OA
ENDROOT
BRANCH   1  12
ATOM     12  C   UNL     1       8.893  30.235  29.532  1.00  0.00     0.063 A 
ATOM     13  C   UNL     1       9.746  30.184  31.811  1.00  0.00     0.047 A 
ATOM     14  C   UNL     1       9.618  29.593  30.552  1.00  0.00     0.020 A 
ATOM     15  C   UNL     1       9.145  31.417  32.074  1.00  0.00     0.119 A 
ATOM     16  C   UNL     1       8.409  32.060  31.070  1.00  0.00     0.093 A 
ATOM     17  C   UNL     1       8.278  31.474  29.802  1.00  0.00     0.130 A 
BRANCH  15  18
ATOM     18  O   UNL     1       9.282  31.994  33.335  1.00  0.00    -0.508 OA
ATOM     19  H   UNL     1       8.517  31.998  34.001  1.00  0.00     0.293 HD
ENDBRANCH  15  18
BRANCH  17  20
ATOM     20  O   UNL     1       7.547  32.127  28.809  1.00  0.00    -0.507 OA
ATOM     21  H   UNL     1       6.788  32.758  29.036  1.00  0.00     0.293 HD
ENDBRANCH  17  20
ENDBRANCH   1  12
BRANCH   2  22
ATOM     22  O   UNL     1      11.036  30.085  27.594  1.00  0.00    -0.502 OA
ATOM     23  H   UNL     1      11.869  29.894  27.051  1.00  0.00     0.293 HD
ENDBRANCH   2  22
BRANCH   6  24
ATOM     24  O   UNL     1       8.985  27.534  23.550  1.00  0.00    -0.507 OA
ATOM     25  H   UNL     1       9.254  26.617  23.212  1.00  0.00     0.293 HD
ENDBRANCH   6  24
BRANCH   8  26
ATOM     26  O   UNL     1       4.444  26.846  25.031  1.00  0.00    -0.508 OA
ATOM     27  H   UNL     1       3.708  27.437  24.662  1.00  0.00     0.293 HD
ENDBRANCH   8  26
TORSDOF 6
ENDMDL
MODEL 8
REMARK VINA RESULT:    -6.477      2.095      6.554
REMARK INTER + INTRA:          -8.075
REMARK INTER:                  -7.596
REMARK INTRA:                  -0.478
REMARK UNBOUND:                -0.273
REMARK SMILES O=c1c(O)c(-c2ccc(O)cc2O)oc2cc(O)cc(O)c12
REMARK SMILES IDX 5 1 3 2 2 3 1 4 22 5 20 6 19 7 17 8 16 9 15 10 14 11 6 12
REMARK SMILES IDX 8 13 7 14 9 15 11 16 12 17 10 18 13 20 4 22 21 24 18 26
REMARK H PARENT 10 19 13 21 4 23 21 25 18 27
REMARK Flexibility Score: inf
ROOT
ATOM      1  C   UNL     1      17.895  17.962  32.714  1.00  0.00     0.184 A 
ATOM      2  C   UNL     1      18.477  16.699  32.935  1.00  0.00     0.208 A 
ATOM      3  C   UNL     1      19.348  16.533  34.022  1.00  0.00     0.238 A 
ATOM      4  O   UNL     1      19.881  15.408  34.224  1.00  0.00    -0.285 OA
ATOM      5  C   UNL     1      19.609  17.624  34.878  1.00  0.00     0.111 A 
ATOM      6  C   UNL     1      20.471  17.539  35.997  1.00  0.00     0.134 A 
ATOM      7  C   UNL     1      20.674  18.668  36.806  1.00  0.00     0.093 A 
ATOM      8  C   UNL     1      20.034  19.876  36.517  1.00  0.00     0.123 A 
ATOM      9  C   UNL     1      19.182  19.965  35.412  1.00  0.00     0.094 A 
ATOM     10  C   UNL     1      18.967  18.852  34.593  1.00  0.00     0.146 A 
ATOM     11  O   UNL     1      18.157  18.965  33.548  1.00  0.00    -0.451 OA
ENDROOT
BRANCH   1  12
ATOM     12  C   UNL     1      16.981  18.213  31.576  1.00  0.00     0.063 A 
ATOM     13  C   UNL     1      16.635  18.700  29.217  1.00  0.00     0.047 A 
ATOM     14  C   UNL     1      17.494  18.436  30.286  1.00  0.00     0.020 A 
ATOM     15  C   UNL     1      15.255  18.757  29.421  1.00  0.00     0.119 A 
ATOM     16  C   UNL     1      14.733  18.550  30.704  1.00  0.00     0.093 A 
ATOM     17  C   UNL     1      15.589  18.282  31.783  1.00  0.00     0.130 A 
BRANCH  15  18
ATOM     18  O   UNL     1      14.410  19.022  28.345  1.00  0.00    -0.508 OA
ATOM     19  H   UNL     1      13.404  18.929  28.426  1.00  0.00     0.293 HD
ENDBRANCH  15  18
BRANCH  17  20
ATOM     20  O   UNL     1      15.056  18.072  33.055  1.00  0.00    -0.507 OA
ATOM     21  H   UNL     1      14.438  17.294  33.251  1.00  0.00     0.293 HD
ENDBRANCH  17  20
ENDBRANCH   1  12
BRANCH   2  22
ATOM     22  O   UNL     1      18.168  15.626  32.094  1.00  0.00    -0.502 OA
ATOM     23  H   UNL     1      17.265  15.532  31.644  1.00  0.00     0.293 HD
ENDBRANCH   2  22
BRANCH   6  24
ATOM     24  O   UNL     1      21.125  16.347  36.312  1.00  0.00    -0.507 OA
ATOM     25  H   UNL     1      20.750  15.698  36.994  1.00  0.00     0.293 HD
ENDBRANCH   6  24
BRANCH   8  26
ATOM     26  O   UNL     1      20.252  20.981  37.336  1.00  0.00    -0.508 OA
ATOM     27  H   UNL     1      19.646  21.792  37.303  1.00  0.00     0.293 HD
ENDBRANCH   8  26
TORSDOF 6
ENDMDL
MODEL 9
REMARK VINA RESULT:    -5.611      2.280      3.511
REMARK INTER + INTRA:          -7.032
REMARK INTER:                  -6.553
REMARK INTRA:                  -0.479
REMARK UNBOUND:                -0.273
REMARK SMILES O=c1c(O)c(-c2ccc(O)cc2O)oc2cc(O)cc(O)c12
REMARK SMILES IDX 5 1 3 2 2 3 1 4 22 5 20 6 19 7 17 8 16 9 15 10 14 11 6 12
REMARK SMILES IDX 8 13 7 14 9 15 11 16 12 17 10 18 13 20 4 22 21 24 18 26
REMARK H PARENT 10 19 13 21 4 23 21 25 18 27
REMARK Flexibility Score: inf
ROOT
ATOM      1  C   UNL     1      17.171  18.618  32.320  1.00  0.00     0.184 A 
ATOM      2  C   UNL     1      15.937  18.016  32.629  1.00  0.00     0.208 A 
ATOM      3  C   UNL     1      15.005  17.808  31.600  1.00  0.00     0.238 A 
ATOM      4  O   UNL     1      13.894  17.276  31.867  1.00  0.00    -0.285 OA
ATOM      5  C   UNL     1      15.329  18.189  30.281  1.00  0.00     0.111 A 
ATOM      6  C   UNL     1      14.449  18.011  29.187  1.00  0.00     0.134 A 
ATOM      7  C   UNL     1      14.847  18.410  27.902  1.00  0.00     0.093 A 
ATOM      8  C   UNL     1      16.104  18.981  27.690  1.00  0.00     0.123 A 
ATOM      9  C   UNL     1      16.977  19.160  28.768  1.00  0.00     0.094 A 
ATOM     10  C   UNL     1      16.599  18.770  30.057  1.00  0.00     0.146 A 
ATOM     11  O   UNL     1      17.445  18.955  31.063  1.00  0.00    -0.451 OA
ENDROOT
BRANCH   1  12
ATOM     12  C   UNL     1      18.192  18.884  33.359  1.00  0.00     0.063 A 
ATOM     13  C   UNL     1      19.003  20.215  35.228  1.00  0.00     0.047 A 
ATOM     14  C   UNL     1      18.027  19.946  34.266  1.00  0.00     0.020 A 
ATOM     15  C   UNL     1      20.161  19.437  35.293  1.00  0.00     0.119 A 
ATOM     16  C   UNL     1      20.343  18.386  34.386  1.00  0.00     0.093 A 
ATOM     17  C   UNL     1      19.367  18.107  33.417  1.00  0.00     0.130 A 
BRANCH  15  18
ATOM     18  O   UNL     1      21.125  19.718  36.258  1.00  0.00    -0.508 OA
ATOM     19  H   UNL     1      21.078  20.557  36.826  1.00  0.00     0.293 HD
ENDBRANCH  15  18
BRANCH  17  20
ATOM     20  O   UNL     1      19.558  17.053  32.524  1.00  0.00    -0.507 OA
ATOM     21  H   UNL     1      19.390  16.091  32.792  1.00  0.00     0.293 HD
ENDBRANCH  17  20
ENDBRANCH   1  12
BRANCH   2  22
ATOM     22  O   UNL     1      15.660  17.611  33.939  1.00  0.00    -0.502 OA
ATOM     23  H   UNL     1      15.060  16.822  34.147  1.00  0.00     0.293 HD
ENDBRANCH   2  22
BRANCH   6  24
ATOM     24  O   UNL     1      13.187  17.442  29.365  1.00  0.00    -0.507 OA
ATOM     25  H   UNL     1      12.538  17.334  28.594  1.00  0.00     0.293 HD
ENDBRANCH   6  24
BRANCH   8  26
ATOM     26  O   UNL     1      16.474  19.368  26.405  1.00  0.00    -0.508 OA
ATOM     27  H   UNL     1      17.429  19.628  26.185  1.00  0.00     0.293 HD
ENDBRANCH   8  26
TORSDOF 6
ENDMDL
