MODEL 1
REMARK VINA RESULT:    -6.185      0.000      0.000
REMARK INTER + INTRA:          -7.495
REMARK INTER:                  -7.451
REMARK INTRA:                  -0.044
REMARK UNBOUND:                -0.044
REMARK SMILES O=c1c(O)c(-c2ccc(O)c(O)c2)oc2cc(O)cc(O)c12
REMARK SMILES IDX 5 1 3 2 2 3 1 4 22 5 20 6 19 7 17 8 16 9 15 10 14 11 6 12
REMARK SMILES IDX 7 13 8 14 9 15 13 16 11 17 10 18 12 20 4 22 21 24 18 26
REMARK H PARENT 10 19 12 21 4 23 21 25 18 27
REMARK Flexibility Score: inf
ROOT
ATOM      1  C   UNL     1      28.037  48.786  61.158  1.00  0.00     0.180 A 
ATOM      2  C   UNL     1      28.810  49.552  62.048  1.00  0.00     0.208 A 
ATOM      3  C   UNL     1      29.496  48.902  63.088  1.00  0.00     0.238 A 
ATOM      4  O   UNL     1      30.229  49.587  63.847  1.00  0.00    -0.285 OA
ATOM      5  C   UNL     1      29.386  47.499  63.234  1.00  0.00     0.111 A 
ATOM      6  C   UNL     1      30.006  46.742  64.274  1.00  0.00     0.134 A 
ATOM      7  C   UNL     1      29.937  45.344  64.245  1.00  0.00     0.093 A 
ATOM      8  C   UNL     1      29.219  44.678  63.253  1.00  0.00     0.123 A 
ATOM      9  C   UNL     1      28.560  45.410  62.265  1.00  0.00     0.094 A 
ATOM     10  C   UNL     1      28.640  46.806  62.246  1.00  0.00     0.146 A 
ATOM     11  O   UNL     1      28.008  47.465  61.283  1.00  0.00    -0.452 OA
ENDROOT
BRANCH   1  12
ATOM     12  C   UNL     1      27.267  49.401  60.054  1.00  0.00     0.025 A 
ATOM     13  C   UNL     1      25.880  49.202  59.985  1.00  0.00     0.016 A 
ATOM     14  C   UNL     1      25.132  49.789  58.963  1.00  0.00     0.051 A 
ATOM     15  C   UNL     1      25.748  50.597  58.001  1.00  0.00     0.157 A 
ATOM     16  C   UNL     1      27.885  50.230  59.102  1.00  0.00     0.062 A 
ATOM     17  C   UNL     1      27.142  50.826  58.075  1.00  0.00     0.158 A 
BRANCH  15  18
ATOM     18  O   UNL     1      24.944  51.149  57.001  1.00  0.00    -0.504 OA
ATOM     19  H   UNL     1      24.835  50.749  56.080  1.00  0.00     0.293 HD
ENDBRANCH  15  18
BRANCH  17  20
ATOM     20  O   UNL     1      27.823  51.636  57.163  1.00  0.00    -0.504 OA
ATOM     21  H   UNL     1      27.449  51.915  56.267  1.00  0.00     0.293 HD
ENDBRANCH  17  20
ENDBRANCH   1  12
BRANCH   2  22
ATOM     22  O   UNL     1      28.922  50.933  61.872  1.00  0.00    -0.502 OA
ATOM     23  H   UNL     1      29.426  51.526  62.521  1.00  0.00     0.293 HD
ENDBRANCH   2  22
BRANCH   6  24
ATOM     24  O   UNL     1      30.670  47.312  65.364  1.00  0.00    -0.507 OA
ATOM     25  H   UNL     1      30.836  46.846  66.244  1.00  0.00     0.293 HD
ENDBRANCH   6  24
BRANCH   8  26
ATOM     26  O   UNL     1      29.159  43.287  63.265  1.00  0.00    -0.508 OA
ATOM     27  H   UNL     1      29.185  42.747  62.407  1.00  0.00     0.293 HD
ENDBRANCH   8  26
TORSDOF 6
ENDMDL
MODEL 2
REMARK VINA RESULT:    -5.932      1.499      3.102
REMARK INTER + INTRA:          -7.190
REMARK INTER:                  -7.532
REMARK INTRA:                   0.342
REMARK UNBOUND:                -0.044
REMARK SMILES O=c1c(O)c(-c2ccc(O)c(O)c2)oc2cc(O)cc(O)c12
REMARK SMILES IDX 5 1 3 2 2 3 1 4 22 5 20 6 19 7 17 8 16 9 15 10 14 11 6 12
REMARK SMILES IDX 7 13 8 14 9 15 13 16 11 17 10 18 12 20 4 22 21 24 18 26
REMARK H PARENT 10 19 12 21 4 23 21 25 18 27
REMARK Flexibility Score: inf
ROOT
ATOM      1  C   UNL     1      27.565  48.431  60.944  1.00  0.00     0.180 A 
ATOM      2  C   UNL     1      27.390  47.038  61.009  1.00  0.00     0.208 A 
ATOM      3  C   UNL     1      28.186  46.291  61.893  1.00  0.00     0.238 A 
ATOM      4  O   UNL     1      27.987  45.052  61.985  1.00  0.00    -0.285 OA
ATOM      5  C   UNL     1      29.158  46.944  62.688  1.00  0.00     0.111 A 
ATOM      6  C   UNL     1      30.046  46.282  63.588  1.00  0.00     0.134 A 
ATOM      7  C   UNL     1      30.878  47.041  64.420  1.00  0.00     0.093 A 
ATOM      8  C   UNL     1      30.901  48.433  64.341  1.00  0.00     0.123 A 
ATOM      9  C   UNL     1      30.080  49.088  63.422  1.00  0.00     0.094 A 
ATOM     10  C   UNL     1      29.212  48.359  62.603  1.00  0.00     0.146 A 
ATOM     11  O   UNL     1      28.439  49.021  61.750  1.00  0.00    -0.452 OA
ENDROOT
BRANCH   1  12
ATOM     12  C   UNL     1      26.782  49.281  60.020  1.00  0.00     0.025 A 
ATOM     13  C   UNL     1      26.695  50.661  60.257  1.00  0.00     0.016 A 
ATOM     14  C   UNL     1      25.978  51.484  59.387  1.00  0.00     0.051 A 
ATOM     15  C   UNL     1      25.348  50.951  58.257  1.00  0.00     0.157 A 
ATOM     16  C   UNL     1      26.169  48.746  58.873  1.00  0.00     0.062 A 
ATOM     17  C   UNL     1      25.450  49.565  57.993  1.00  0.00     0.158 A 
BRANCH  15  18
ATOM     18  O   UNL     1      24.640  51.826  57.431  1.00  0.00    -0.504 OA
ATOM     19  H   UNL     1      23.739  52.218  57.663  1.00  0.00     0.293 HD
ENDBRANCH  15  18
BRANCH  17  20
ATOM     20  O   UNL     1      24.865  48.964  56.875  1.00  0.00    -0.504 OA
ATOM     21  H   UNL     1      25.076  48.027  56.564  1.00  0.00     0.293 HD
ENDBRANCH  17  20
ENDBRANCH   1  12
BRANCH   2  22
ATOM     22  O   UNL     1      26.410  46.416  60.231  1.00  0.00    -0.502 OA
ATOM     23  H   UNL     1      26.602  46.043  59.308  1.00  0.00     0.293 HD
ENDBRANCH   2  22
BRANCH   6  24
ATOM     24  O   UNL     1      30.170  44.893  63.682  1.00  0.00    -0.507 OA
ATOM     25  H   UNL     1      29.399  44.255  63.816  1.00  0.00     0.293 HD
ENDBRANCH   6  24
BRANCH   8  26
ATOM     26  O   UNL     1      31.752  49.155  65.173  1.00  0.00    -0.508 OA
ATOM     27  H   UNL     1      31.426  49.558  66.044  1.00  0.00     0.293 HD
ENDBRANCH   8  26
TORSDOF 6
ENDMDL
MODEL 3
REMARK VINA RESULT:    -5.570      1.928      2.211
REMARK INTER + INTRA:          -6.754
REMARK INTER:                  -6.685
REMARK INTRA:                  -0.068
REMARK UNBOUND:                -0.044
REMARK SMILES O=c1c(O)c(-c2ccc(O)c(O)c2)oc2cc(O)cc(O)c12
REMARK SMILES IDX 5 1 3 2 2 3 1 4 22 5 20 6 19 7 17 8 16 9 15 10 14 11 6 12
REMARK SMILES IDX 7 13 8 14 9 15 13 16 11 17 10 18 12 20 4 22 21 24 18 26
REMARK H PARENT 10 19 12 21 4 23 21 25 18 27
REMARK Flexibility Score: inf
ROOT
ATOM      1  C   UNL     1      27.311  49.415  61.201  1.00  0.00     0.180 A 
ATOM      2  C   UNL     1      26.892  49.574  62.534  1.00  0.00     0.208 A 
ATOM      3  C   UNL     1      27.595  48.910  63.553  1.00  0.00     0.238 A 
ATOM      4  O   UNL     1      27.249  49.099  64.747  1.00  0.00    -0.285 OA
ATOM      5  C   UNL     1      28.695  48.083  63.225  1.00  0.00     0.111 A 
ATOM      6  C   UNL     1      29.455  47.332  64.172  1.00  0.00     0.134 A 
ATOM      7  C   UNL     1      30.604  46.651  63.751  1.00  0.00     0.093 A 
ATOM      8  C   UNL     1      30.985  46.640  62.411  1.00  0.00     0.123 A 
ATOM      9  C   UNL     1      30.217  47.322  61.466  1.00  0.00     0.094 A 
ATOM     10  C   UNL     1      29.085  48.041  61.861  1.00  0.00     0.146 A 
ATOM     11  O   UNL     1      28.387  48.685  60.933  1.00  0.00    -0.452 OA
ENDROOT
BRANCH   1  12
ATOM     12  C   UNL     1      26.606  50.062  60.072  1.00  0.00     0.025 A 
ATOM     13  C   UNL     1      26.493  51.459  60.037  1.00  0.00     0.016 A 
ATOM     14  C   UNL     1      25.850  52.091  58.971  1.00  0.00     0.051 A 
ATOM     15  C   UNL     1      25.321  51.344  57.913  1.00  0.00     0.157 A 
ATOM     16  C   UNL     1      26.096  49.310  58.999  1.00  0.00     0.062 A 
ATOM     17  C   UNL     1      25.452  49.935  57.924  1.00  0.00     0.158 A 
BRANCH  15  18
ATOM     18  O   UNL     1      24.684  52.035  56.881  1.00  0.00    -0.504 OA
ATOM     19  H   UNL     1      25.157  52.662  56.246  1.00  0.00     0.293 HD
ENDBRANCH  15  18
BRANCH  17  20
ATOM     20  O   UNL     1      24.968  49.125  56.894  1.00  0.00    -0.504 OA
ATOM     21  H   UNL     1      25.142  49.294  55.914  1.00  0.00     0.293 HD
ENDBRANCH  17  20
ENDBRANCH   1  12
BRANCH   2  22
ATOM     22  O   UNL     1      25.816  50.412  62.837  1.00  0.00    -0.502 OA
ATOM     23  H   UNL     1      25.282  50.324  63.693  1.00  0.00     0.293 HD
ENDBRANCH   2  22
BRANCH   6  24
ATOM     24  O   UNL     1      29.110  47.200  65.520  1.00  0.00    -0.507 OA
ATOM     25  H   UNL     1      28.331  46.658  65.864  1.00  0.00     0.293 HD
ENDBRANCH   6  24
BRANCH   8  26
ATOM     26  O   UNL     1      32.125  45.939  62.026  1.00  0.00    -0.508 OA
ATOM     27  H   UNL     1      32.272  45.652  61.064  1.00  0.00     0.293 HD
ENDBRANCH   8  26
TORSDOF 6
ENDMDL
MODEL 4
REMARK VINA RESULT:    -5.070      1.468      6.806
REMARK INTER + INTRA:          -6.151
REMARK INTER:                  -5.823
REMARK INTRA:                  -0.329
REMARK UNBOUND:                -0.044
REMARK SMILES O=c1c(O)c(-c2ccc(O)c(O)c2)oc2cc(O)cc(O)c12
REMARK SMILES IDX 5 1 3 2 2 3 1 4 22 5 20 6 19 7 17 8 16 9 15 10 14 11 6 12
REMARK SMILES IDX 7 13 8 14 9 15 13 16 11 17 10 18 12 20 4 22 21 24 18 26
REMARK H PARENT 10 19 12 21 4 23 21 25 18 27
REMARK Flexibility Score: inf
ROOT
ATOM      1  C   UNL     1      28.468  49.061  61.007  1.00  0.00     0.180 A 
ATOM      2  C   UNL     1      29.274  50.118  60.553  1.00  0.00     0.208 A 
ATOM      3  C   UNL     1      28.862  50.856  59.431  1.00  0.00     0.238 A 
ATOM      4  O   UNL     1      29.561  51.835  59.062  1.00  0.00    -0.285 OA
ATOM      5  C   UNL     1      27.659  50.516  58.767  1.00  0.00     0.111 A 
ATOM      6  C   UNL     1      27.166  51.170  57.598  1.00  0.00     0.134 A 
ATOM      7  C   UNL     1      25.899  50.837  57.103  1.00  0.00     0.093 A 
ATOM      8  C   UNL     1      25.136  49.831  57.695  1.00  0.00     0.123 A 
ATOM      9  C   UNL     1      25.634  49.144  58.803  1.00  0.00     0.094 A 
ATOM     10  C   UNL     1      26.879  49.479  59.342  1.00  0.00     0.146 A 
ATOM     11  O   UNL     1      27.312  48.809  60.403  1.00  0.00    -0.452 OA
ENDROOT
BRANCH   1  12
ATOM     12  C   UNL     1      28.847  48.222  62.166  1.00  0.00     0.025 A 
ATOM     13  C   UNL     1      28.302  48.502  63.428  1.00  0.00     0.016 A 
ATOM     14  C   UNL     1      28.632  47.712  64.531  1.00  0.00     0.051 A 
ATOM     15  C   UNL     1      29.496  46.620  64.395  1.00  0.00     0.157 A 
ATOM     16  C   UNL     1      29.698  47.113  62.021  1.00  0.00     0.062 A 
ATOM     17  C   UNL     1      30.032  46.313  63.122  1.00  0.00     0.158 A 
BRANCH  15  18
ATOM     18  O   UNL     1      29.791  45.874  65.538  1.00  0.00    -0.504 OA
ATOM     19  H   UNL     1      29.585  46.179  66.479  1.00  0.00     0.293 HD
ENDBRANCH  15  18
BRANCH  17  20
ATOM     20  O   UNL     1      30.885  45.228  62.904  1.00  0.00    -0.504 OA
ATOM     21  H   UNL     1      30.842  44.364  63.424  1.00  0.00     0.293 HD
ENDBRANCH  17  20
ENDBRANCH   1  12
BRANCH   2  22
ATOM     22  O   UNL     1      30.447  50.450  61.235  1.00  0.00    -0.502 OA
ATOM     23  H   UNL     1      31.171  49.770  61.438  1.00  0.00     0.293 HD
ENDBRANCH   2  22
BRANCH   6  24
ATOM     24  O   UNL     1      27.887  52.125  56.875  1.00  0.00    -0.507 OA
ATOM     25  H   UNL     1      28.755  51.945  56.392  1.00  0.00     0.293 HD
ENDBRANCH   6  24
BRANCH   8  26
ATOM     26  O   UNL     1      23.887  49.515  57.166  1.00  0.00    -0.508 OA
ATOM     27  H   UNL     1      23.720  48.637  56.687  1.00  0.00     0.293 HD
ENDBRANCH   8  26
TORSDOF 6
ENDMDL
MODEL 5
REMARK VINA RESULT:    -4.957      1.954      6.854
REMARK INTER + INTRA:          -6.016
REMARK INTER:                  -5.727
REMARK INTRA:                  -0.289
REMARK UNBOUND:                -0.044
REMARK SMILES O=c1c(O)c(-c2ccc(O)c(O)c2)oc2cc(O)cc(O)c12
REMARK SMILES IDX 5 1 3 2 2 3 1 4 22 5 20 6 19 7 17 8 16 9 15 10 14 11 6 12
REMARK SMILES IDX 7 13 8 14 9 15 13 16 11 17 10 18 12 20 4 22 21 24 18 26
REMARK H PARENT 10 19 12 21 4 23 21 25 18 27
REMARK Flexibility Score: inf
ROOT
ATOM      1  C   UNL     1      29.556  48.349  62.070  1.00  0.00     0.180 A 
ATOM      2  C   UNL     1      30.836  48.869  61.812  1.00  0.00     0.208 A 
ATOM      3  C   UNL     1      30.966  49.953  60.928  1.00  0.00     0.238 A 
ATOM      4  O   UNL     1      32.108  50.448  60.744  1.00  0.00    -0.285 OA
ATOM      5  C   UNL     1      29.817  50.492  60.301  1.00  0.00     0.111 A 
ATOM      6  C   UNL     1      29.836  51.564  59.358  1.00  0.00     0.134 A 
ATOM      7  C   UNL     1      28.628  52.103  58.901  1.00  0.00     0.093 A 
ATOM      8  C   UNL     1      27.403  51.569  59.301  1.00  0.00     0.123 A 
ATOM      9  C   UNL     1      27.374  50.482  60.176  1.00  0.00     0.094 A 
ATOM     10  C   UNL     1      28.563  49.946  60.678  1.00  0.00     0.146 A 
ATOM     11  O   UNL     1      28.491  48.919  61.517  1.00  0.00    -0.452 OA
ENDROOT
BRANCH   1  12
ATOM     12  C   UNL     1      29.341  47.193  62.969  1.00  0.00     0.025 A 
ATOM     13  C   UNL     1      29.182  45.912  62.421  1.00  0.00     0.016 A 
ATOM     14  C   UNL     1      28.997  44.806  63.252  1.00  0.00     0.051 A 
ATOM     15  C   UNL     1      28.985  44.952  64.643  1.00  0.00     0.157 A 
ATOM     16  C   UNL     1      29.351  47.341  64.367  1.00  0.00     0.062 A 
ATOM     17  C   UNL     1      29.170  46.235  65.208  1.00  0.00     0.158 A 
BRANCH  15  18
ATOM     18  O   UNL     1      28.789  43.807  65.418  1.00  0.00    -0.504 OA
ATOM     19  H   UNL     1      29.391  42.996  65.388  1.00  0.00     0.293 HD
ENDBRANCH  15  18
BRANCH  17  20
ATOM     20  O   UNL     1      29.190  46.457  66.588  1.00  0.00    -0.504 OA
ATOM     21  H   UNL     1      28.849  47.298  67.029  1.00  0.00     0.293 HD
ENDBRANCH  17  20
ENDBRANCH   1  12
BRANCH   2  22
ATOM     22  O   UNL     1      31.954  48.336  62.458  1.00  0.00    -0.502 OA
ATOM     23  H   UNL     1      32.727  47.918  61.953  1.00  0.00     0.293 HD
ENDBRANCH   2  22
BRANCH   6  24
ATOM     24  O   UNL     1      31.006  52.111  58.823  1.00  0.00    -0.507 OA
ATOM     25  H   UNL     1      31.055  52.989  58.327  1.00  0.00     0.293 HD
ENDBRANCH   6  24
BRANCH   8  26
ATOM     26  O   UNL     1      26.221  52.120  58.814  1.00  0.00    -0.508 OA
ATOM     27  H   UNL     1      25.745  51.728  58.008  1.00  0.00     0.293 HD
ENDBRANCH   8  26
TORSDOF 6
ENDMDL
MODEL 6
REMARK VINA RESULT:    -4.892      1.888      6.827
REMARK INTER + INTRA:          -5.937
REMARK INTER:                  -5.633
REMARK INTRA:                  -0.304
REMARK UNBOUND:                -0.044
REMARK SMILES O=c1c(O)c(-c2ccc(O)c(O)c2)oc2cc(O)cc(O)c12
REMARK SMILES IDX 5 1 3 2 2 3 1 4 22 5 20 6 19 7 17 8 16 9 15 10 14 11 6 12
REMARK SMILES IDX 7 13 8 14 9 15 13 16 11 17 10 18 12 20 4 22 21 24 18 26
REMARK H PARENT 10 19 12 21 4 23 21 25 18 27
REMARK Flexibility Score: inf
ROOT
ATOM      1  C   UNL     1      29.583  47.918  62.432  1.00  0.00     0.180 A 
ATOM      2  C   UNL     1      30.862  48.423  62.142  1.00  0.00     0.208 A 
ATOM      3  C   UNL     1      30.983  49.496  61.242  1.00  0.00     0.238 A 
ATOM      4  O   UNL     1      32.125  49.978  61.028  1.00  0.00    -0.285 OA
ATOM      5  C   UNL     1      29.826  50.038  60.633  1.00  0.00     0.111 A 
ATOM      6  C   UNL     1      29.835  51.098  59.677  1.00  0.00     0.134 A 
ATOM      7  C   UNL     1      28.622  51.643  59.239  1.00  0.00     0.093 A 
ATOM      8  C   UNL     1      27.402  51.125  59.670  1.00  0.00     0.123 A 
ATOM      9  C   UNL     1      27.381  50.049  60.558  1.00  0.00     0.094 A 
ATOM     10  C   UNL     1      28.575  49.507  61.042  1.00  0.00     0.146 A 
ATOM     11  O   UNL     1      28.512  48.492  61.895  1.00  0.00    -0.452 OA
ENDROOT
BRANCH   1  12
ATOM     12  C   UNL     1      29.376  46.775  63.349  1.00  0.00     0.025 A 
ATOM     13  C   UNL     1      29.320  47.000  64.732  1.00  0.00     0.016 A 
ATOM     14  C   UNL     1      29.107  45.939  65.613  1.00  0.00     0.051 A 
ATOM     15  C   UNL     1      28.930  44.637  65.133  1.00  0.00     0.157 A 
ATOM     16  C   UNL     1      29.177  45.472  62.861  1.00  0.00     0.062 A 
ATOM     17  C   UNL     1      28.959  44.401  63.738  1.00  0.00     0.158 A 
BRANCH  15  18
ATOM     18  O   UNL     1      28.728  43.619  66.067  1.00  0.00    -0.504 OA
ATOM     19  H   UNL     1      28.367  43.770  66.997  1.00  0.00     0.293 HD
ENDBRANCH  15  18
BRANCH  17  20
ATOM     20  O   UNL     1      28.771  43.132  63.183  1.00  0.00    -0.504 OA
ATOM     21  H   UNL     1      29.027  42.272  63.644  1.00  0.00     0.293 HD
ENDBRANCH  17  20
ENDBRANCH   1  12
BRANCH   2  22
ATOM     22  O   UNL     1      31.988  47.887  62.771  1.00  0.00    -0.502 OA
ATOM     23  H   UNL     1      32.886  47.812  62.308  1.00  0.00     0.293 HD
ENDBRANCH   2  22
BRANCH   6  24
ATOM     24  O   UNL     1      30.998  51.629  59.111  1.00  0.00    -0.507 OA
ATOM     25  H   UNL     1      31.152  51.750  58.121  1.00  0.00     0.293 HD
ENDBRANCH   6  24
BRANCH   8  26
ATOM     26  O   UNL     1      26.215  51.681  59.200  1.00  0.00    -0.508 OA
ATOM     27  H   UNL     1      25.702  52.370  59.739  1.00  0.00     0.293 HD
ENDBRANCH   8  26
TORSDOF 6
ENDMDL
MODEL 7
REMARK VINA RESULT:    -4.695      1.320      6.735
REMARK INTER + INTRA:          -5.700
REMARK INTER:                  -6.094
REMARK INTRA:                   0.394
REMARK UNBOUND:                -0.044
REMARK SMILES O=c1c(O)c(-c2ccc(O)c(O)c2)oc2cc(O)cc(O)c12
REMARK SMILES IDX 5 1 3 2 2 3 1 4 22 5 20 6 19 7 17 8 16 9 15 10 14 11 6 12
REMARK SMILES IDX 7 13 8 14 9 15 13 16 11 17 10 18 12 20 4 22 21 24 18 26
REMARK H PARENT 10 19 12 21 4 23 21 25 18 27
REMARK Flexibility Score: inf
ROOT
ATOM      1  C   UNL     1      28.277  47.683  61.372  1.00  0.00     0.180 A 
ATOM      2  C   UNL     1      29.199  48.742  61.440  1.00  0.00     0.208 A 
ATOM      3  C   UNL     1      28.979  49.888  60.659  1.00  0.00     0.238 A 
ATOM      4  O   UNL     1      29.779  50.853  60.764  1.00  0.00    -0.285 OA
ATOM      5  C   UNL     1      27.850  49.955  59.808  1.00  0.00     0.111 A 
ATOM      6  C   UNL     1      27.550  51.051  58.944  1.00  0.00     0.134 A 
ATOM      7  C   UNL     1      26.337  51.066  58.245  1.00  0.00     0.093 A 
ATOM      8  C   UNL     1      25.443  50.000  58.328  1.00  0.00     0.123 A 
ATOM      9  C   UNL     1      25.754  48.896  59.124  1.00  0.00     0.094 A 
ATOM     10  C   UNL     1      26.940  48.867  59.862  1.00  0.00     0.146 A 
ATOM     11  O   UNL     1      27.193  47.804  60.615  1.00  0.00    -0.452 OA
ENDROOT
BRANCH   1  12
ATOM     12  C   UNL     1      28.454  46.434  62.146  1.00  0.00     0.025 A 
ATOM     13  C   UNL     1      29.196  46.457  63.335  1.00  0.00     0.016 A 
ATOM     14  C   UNL     1      29.358  45.294  64.090  1.00  0.00     0.051 A 
ATOM     15  C   UNL     1      28.772  44.091  63.683  1.00  0.00     0.157 A 
ATOM     16  C   UNL     1      27.844  45.232  61.745  1.00  0.00     0.062 A 
ATOM     17  C   UNL     1      27.999  44.061  62.498  1.00  0.00     0.158 A 
BRANCH  15  18
ATOM     18  O   UNL     1      28.978  42.962  64.478  1.00  0.00    -0.504 OA
ATOM     19  H   UNL     1      29.598  42.939  65.275  1.00  0.00     0.293 HD
ENDBRANCH  15  18
BRANCH  17  20
ATOM     20  O   UNL     1      27.367  42.903  62.039  1.00  0.00    -0.504 OA
ATOM     21  H   UNL     1      27.858  42.094  61.685  1.00  0.00     0.293 HD
ENDBRANCH  17  20
ENDBRANCH   1  12
BRANCH   2  22
ATOM     22  O   UNL     1      30.296  48.664  62.302  1.00  0.00    -0.502 OA
ATOM     23  H   UNL     1      30.801  47.800  62.465  1.00  0.00     0.293 HD
ENDBRANCH   2  22
BRANCH   6  24
ATOM     24  O   UNL     1      28.415  52.125  58.717  1.00  0.00    -0.507 OA
ATOM     25  H   UNL     1      29.140  52.423  59.352  1.00  0.00     0.293 HD
ENDBRANCH   6  24
BRANCH   8  26
ATOM     26  O   UNL     1      24.253  50.042  57.606  1.00  0.00    -0.508 OA
ATOM     27  H   UNL     1      23.527  50.717  57.819  1.00  0.00     0.293 HD
ENDBRANCH   8  26
TORSDOF 6
ENDMDL
MODEL 8
REMARK VINA RESULT:    -4.512      2.634      3.679
REMARK INTER + INTRA:          -5.479
REMARK INTER:                  -5.154
REMARK INTRA:                  -0.325
REMARK UNBOUND:                -0.044
REMARK SMILES O=c1c(O)c(-c2ccc(O)c(O)c2)oc2cc(O)cc(O)c12
REMARK SMILES IDX 5 1 3 2 2 3 1 4 22 5 20 6 19 7 17 8 16 9 15 10 14 11 6 12
REMARK SMILES IDX 7 13 8 14 9 15 13 16 11 17 10 18 12 20 4 22 21 24 18 26
REMARK H PARENT 10 19 12 21 4 23 21 25 18 27
REMARK Flexibility Score: inf
ROOT
ATOM      1  C   UNL     1      30.243  47.883  62.634  1.00  0.00     0.180 A 
ATOM      2  C   UNL     1      30.555  48.032  63.996  1.00  0.00     0.208 A 
ATOM      3  C   UNL     1      30.197  47.012  64.893  1.00  0.00     0.238 A 
ATOM      4  O   UNL     1      30.527  47.127  66.101  1.00  0.00    -0.285 OA
ATOM      5  C   UNL     1      29.516  45.865  64.419  1.00  0.00     0.111 A 
ATOM      6  C   UNL     1      29.069  44.789  65.244  1.00  0.00     0.134 A 
ATOM      7  C   UNL     1      28.523  43.645  64.650  1.00  0.00     0.093 A 
ATOM      8  C   UNL     1      28.347  43.563  63.270  1.00  0.00     0.123 A 
ATOM      9  C   UNL     1      28.725  44.634  62.458  1.00  0.00     0.094 A 
ATOM     10  C   UNL     1      29.307  45.775  63.018  1.00  0.00     0.146 A 
ATOM     11  O   UNL     1      29.663  46.767  62.211  1.00  0.00    -0.452 OA
ENDROOT
BRANCH   1  12
ATOM     12  C   UNL     1      30.566  48.925  61.633  1.00  0.00     0.025 A 
ATOM     13  C   UNL     1      31.808  48.896  60.982  1.00  0.00     0.016 A 
ATOM     14  C   UNL     1      32.125  49.857  60.021  1.00  0.00     0.051 A 
ATOM     15  C   UNL     1      31.206  50.856  59.679  1.00  0.00     0.157 A 
ATOM     16  C   UNL     1      29.632  49.913  61.277  1.00  0.00     0.062 A 
ATOM     17  C   UNL     1      29.941  50.881  60.311  1.00  0.00     0.158 A 
BRANCH  15  18
ATOM     18  O   UNL     1      31.587  51.791  58.716  1.00  0.00    -0.504 OA
ATOM     19  H   UNL     1      31.276  51.771  57.755  1.00  0.00     0.293 HD
ENDBRANCH  15  18
BRANCH  17  20
ATOM     20  O   UNL     1      28.965  51.833  60.008  1.00  0.00    -0.504 OA
ATOM     21  H   UNL     1      29.091  52.828  60.129  1.00  0.00     0.293 HD
ENDBRANCH  17  20
ENDBRANCH   1  12
BRANCH   2  22
ATOM     22  O   UNL     1      31.247  49.162  64.439  1.00  0.00    -0.502 OA
ATOM     23  H   UNL     1      31.843  49.711  63.829  1.00  0.00     0.293 HD
ENDBRANCH   2  22
BRANCH   6  24
ATOM     24  O   UNL     1      29.114  44.807  66.641  1.00  0.00    -0.507 OA
ATOM     25  H   UNL     1      29.557  44.101  67.211  1.00  0.00     0.293 HD
ENDBRANCH   6  24
BRANCH   8  26
ATOM     26  O   UNL     1      27.786  42.416  62.715  1.00  0.00    -0.508 OA
ATOM     27  H   UNL     1      28.327  41.790  62.130  1.00  0.00     0.293 HD
ENDBRANCH   8  26
TORSDOF 6
ENDMDL
MODEL 9
REMARK VINA RESULT:    -4.183      1.972      6.946
REMARK INTER + INTRA:          -5.083
REMARK INTER:                  -4.880
REMARK INTRA:                  -0.204
REMARK UNBOUND:                -0.044
REMARK SMILES O=c1c(O)c(-c2ccc(O)c(O)c2)oc2cc(O)cc(O)c12
REMARK SMILES IDX 5 1 3 2 2 3 1 4 22 5 20 6 19 7 17 8 16 9 15 10 14 11 6 12
REMARK SMILES IDX 7 13 8 14 9 15 13 16 11 17 10 18 12 20 4 22 21 24 18 26
REMARK H PARENT 10 19 12 21 4 23 21 25 18 27
REMARK Flexibility Score: inf
ROOT
ATOM      1  C   UNL     1      28.566  48.097  61.762  1.00  0.00     0.180 A 
ATOM      2  C   UNL     1      27.339  48.416  61.155  1.00  0.00     0.208 A 
ATOM      3  C   UNL     1      27.284  49.492  60.254  1.00  0.00     0.238 A 
ATOM      4  O   UNL     1      26.196  49.738  59.674  1.00  0.00    -0.285 OA
ATOM      5  C   UNL     1      28.452  50.245  59.985  1.00  0.00     0.111 A 
ATOM      6  C   UNL     1      28.503  51.380  59.120  1.00  0.00     0.134 A 
ATOM      7  C   UNL     1      29.739  51.968  58.825  1.00  0.00     0.093 A 
ATOM      8  C   UNL     1      30.915  51.506  59.412  1.00  0.00     0.123 A 
ATOM      9  C   UNL     1      30.870  50.434  60.306  1.00  0.00     0.094 A 
ATOM     10  C   UNL     1      29.656  49.803  60.592  1.00  0.00     0.146 A 
ATOM     11  O   UNL     1      29.657  48.780  61.439  1.00  0.00    -0.452 OA
ENDROOT
BRANCH   1  12
ATOM     12  C   UNL     1      28.697  46.994  62.741  1.00  0.00     0.025 A 
ATOM     13  C   UNL     1      28.609  45.665  62.300  1.00  0.00     0.016 A 
ATOM     14  C   UNL     1      28.749  44.610  63.203  1.00  0.00     0.051 A 
ATOM     15  C   UNL     1      28.997  44.857  64.557  1.00  0.00     0.157 A 
ATOM     16  C   UNL     1      28.968  47.246  64.097  1.00  0.00     0.062 A 
ATOM     17  C   UNL     1      29.114  46.193  65.010  1.00  0.00     0.158 A 
BRANCH  15  18
ATOM     18  O   UNL     1      29.121  43.758  65.409  1.00  0.00    -0.504 OA
ATOM     19  H   UNL     1      28.827  43.757  66.376  1.00  0.00     0.293 HD
ENDBRANCH  15  18
BRANCH  17  20
ATOM     20  O   UNL     1      29.380  46.518  66.342  1.00  0.00    -0.504 OA
ATOM     21  H   UNL     1      30.191  47.038  66.644  1.00  0.00     0.293 HD
ENDBRANCH  17  20
ENDBRANCH   1  12
BRANCH   2  22
ATOM     22  O   UNL     1      26.203  47.646  61.419  1.00  0.00    -0.502 OA
ATOM     23  H   UNL     1      25.375  47.679  60.836  1.00  0.00     0.293 HD
ENDBRANCH   2  22
BRANCH   6  24
ATOM     24  O   UNL     1      27.375  51.980  58.553  1.00  0.00    -0.507 OA
ATOM     25  H   UNL     1      26.892  52.777  58.940  1.00  0.00     0.293 HD
ENDBRANCH   6  24
BRANCH   8  26
ATOM     26  O   UNL     1      32.125  52.125  59.108  1.00  0.00    -0.508 OA
ATOM     27  H   UNL     1      32.168  53.103  58.843  1.00  0.00     0.293 HD
ENDBRANCH   8  26
TORSDOF 6
ENDMDL
