MODEL 1
REMARK VINA RESULT:    -5.943      0.000      0.000
REMARK INTER + INTRA:         -16.495
REMARK INTER:                 -12.891
REMARK INTRA:                  -3.603
REMARK UNBOUND:                -3.603
REMARK SMILES CCCCCCCCCCCCCCCCCCCCCC(=O)[O-]
REMARK SMILES IDX 12 1 11 2 10 3 9 4 8 5 7 6 6 7 5 8 4 9 3 10 2 11 1 12 13 13
REMARK SMILES IDX 14 14 15 15 16 16 17 17 18 18 19 19 20 20 21 21 22 22 23 23
REMARK SMILES IDX 24 24
REMARK H PARENT
REMARK Flexibility Score: inf
ROOT
ATOM      1  C   UNL     1      11.790   7.078 -10.296  1.00  0.00     0.000 C 
ENDROOT
BRANCH   1   2
ATOM      2  C   UNL     1      10.694   6.012 -10.143  1.00  0.00     0.000 C 
BRANCH   2   3
ATOM      3  C   UNL     1       9.746   6.022 -11.348  1.00  0.00     0.000 C 
BRANCH   3   4
ATOM      4  C   UNL     1      10.219   5.038 -12.428  1.00  0.00    -0.000 C 
BRANCH   4   5
ATOM      5  C   UNL     1      10.466   5.716 -13.789  1.00  0.00    -0.000 C 
BRANCH   5   6
ATOM      6  C   UNL     1      11.418   4.953 -14.729  1.00  0.00    -0.000 C 
BRANCH   6   7
ATOM      7  C   UNL     1      12.358   5.841 -15.567  1.00  0.00    -0.000 C 
BRANCH   7   8
ATOM      8  C   UNL     1      12.156   7.353 -15.332  1.00  0.00    -0.000 C 
BRANCH   8   9
ATOM      9  C   UNL     1      12.881   8.212 -16.379  1.00  0.00    -0.000 C 
BRANCH   9  10
ATOM     10  C   UNL     1      11.878   8.883 -17.329  1.00  0.00    -0.000 C 
BRANCH  10  11
ATOM     11  C   UNL     1      10.421   8.525 -16.998  1.00  0.00    -0.003 C 
ATOM     12  C   UNL     1       9.484   8.703 -18.192  1.00  0.00     0.004 C 
ENDBRANCH  10  11
ENDBRANCH   9  10
ENDBRANCH   8   9
ENDBRANCH   7   8
ENDBRANCH   6   7
ENDBRANCH   5   6
ENDBRANCH   4   5
ENDBRANCH   3   4
ENDBRANCH   2   3
ENDBRANCH   1   2
BRANCH   1  13
ATOM     13  C   UNL     1      13.190   6.476 -10.508  1.00  0.00     0.000 C 
BRANCH  13  14
ATOM     14  C   UNL     1      13.595   6.275 -11.981  1.00  0.00     0.000 C 
BRANCH  14  15
ATOM     15  C   UNL     1      14.655   7.263 -12.505  1.00  0.00     0.000 C 
BRANCH  15  16
ATOM     16  C   UNL     1      14.567   8.664 -11.865  1.00  0.00     0.000 C 
BRANCH  16  17
ATOM     17  C   UNL     1      14.118   9.741 -12.868  1.00  0.00     0.000 C 
BRANCH  17  18
ATOM     18  C   UNL     1      12.831  10.456 -12.428  1.00  0.00     0.000 C 
BRANCH  18  19
ATOM     19  C   UNL     1      11.607   9.523 -12.445  1.00  0.00     0.000 C 
BRANCH  19  20
ATOM     20  C   UNL     1      10.457  10.070 -13.306  1.00  0.00     0.006 C 
BRANCH  20  21
ATOM     21  C   UNL     1       9.363   9.026 -13.568  1.00  0.00     0.053 C 
BRANCH  21  22
ATOM     22  C   UNL     1       8.044   9.512 -13.055  1.00  0.00     0.041 C 
ATOM     23  O   UNL     1       7.394   8.824 -12.225  1.00  0.00    -0.550 OA
ATOM     24  O   UNL     1       7.515  10.708 -13.524  1.00  0.00    -0.550 OA
ENDBRANCH  21  22
ENDBRANCH  20  21
ENDBRANCH  19  20
ENDBRANCH  18  19
ENDBRANCH  17  18
ENDBRANCH  16  17
ENDBRANCH  15  16
ENDBRANCH  14  15
ENDBRANCH  13  14
ENDBRANCH   1  13
TORSDOF 20
ENDMDL
MODEL 2
REMARK VINA RESULT:    -5.916      1.814      4.606
REMARK INTER + INTRA:         -16.437
REMARK INTER:                 -12.762
REMARK INTRA:                  -3.675
REMARK UNBOUND:                -3.603
REMARK SMILES CCCCCCCCCCCCCCCCCCCCCC(=O)[O-]
REMARK SMILES IDX 12 1 11 2 10 3 9 4 8 5 7 6 6 7 5 8 4 9 3 10 2 11 1 12 13 13
REMARK SMILES IDX 14 14 15 15 16 16 17 17 18 18 19 19 20 20 21 21 22 22 23 23
REMARK SMILES IDX 24 24
REMARK H PARENT
REMARK Flexibility Score: inf
ROOT
ATOM      1  C   UNL     1       9.013   5.973 -11.411  1.00  0.00     0.000 C 
ENDROOT
BRANCH   1   2
ATOM      2  C   UNL     1       9.019   6.778 -12.720  1.00  0.00     0.000 C 
BRANCH   2   3
ATOM      3  C   UNL     1       7.662   7.448 -12.959  1.00  0.00     0.000 C 
BRANCH   3   4
ATOM      4  C   UNL     1       7.681   8.911 -12.490  1.00  0.00    -0.000 C 
BRANCH   4   5
ATOM      5  C   UNL     1       8.135   9.886 -13.593  1.00  0.00    -0.000 C 
BRANCH   5   6
ATOM      6  C   UNL     1       9.318  10.795 -13.207  1.00  0.00    -0.000 C 
BRANCH   6   7
ATOM      7  C   UNL     1      10.592  10.053 -12.762  1.00  0.00    -0.000 C 
BRANCH   7   8
ATOM      8  C   UNL     1      11.458  10.850 -11.763  1.00  0.00    -0.000 C 
BRANCH   8   9
ATOM      9  C   UNL     1      12.930  10.414 -11.784  1.00  0.00    -0.000 C 
BRANCH   9  10
ATOM     10  C   UNL     1      13.236   9.569 -13.029  1.00  0.00    -0.000 C 
BRANCH  10  11
ATOM     11  C   UNL     1      14.607   9.895 -13.642  1.00  0.00    -0.003 C 
ATOM     12  C   UNL     1      15.113   8.796 -14.574  1.00  0.00     0.004 C 
ENDBRANCH  10  11
ENDBRANCH   9  10
ENDBRANCH   8   9
ENDBRANCH   7   8
ENDBRANCH   6   7
ENDBRANCH   5   6
ENDBRANCH   4   5
ENDBRANCH   3   4
ENDBRANCH   2   3
ENDBRANCH   1   2
BRANCH   1  13
ATOM     13  C   UNL     1      10.354   6.040 -10.657  1.00  0.00     0.000 C 
BRANCH  13  14
ATOM     14  C   UNL     1      11.492   6.747 -11.417  1.00  0.00     0.000 C 
BRANCH  14  15
ATOM     15  C   UNL     1      12.779   5.916 -11.583  1.00  0.00     0.000 C 
BRANCH  15  16
ATOM     16  C   UNL     1      13.151   5.637 -13.054  1.00  0.00     0.000 C 
BRANCH  16  17
ATOM     17  C   UNL     1      11.974   5.055 -13.857  1.00  0.00     0.000 C 
BRANCH  17  18
ATOM     18  C   UNL     1      12.119   5.290 -15.369  1.00  0.00     0.000 C 
BRANCH  18  19
ATOM     19  C   UNL     1      12.361   6.771 -15.711  1.00  0.00     0.000 C 
BRANCH  19  20
ATOM     20  C   UNL     1      11.124   7.648 -15.457  1.00  0.00     0.006 C 
BRANCH  20  21
ATOM     21  C   UNL     1      10.947   8.744 -16.516  1.00  0.00     0.053 C 
BRANCH  21  22
ATOM     22  C   UNL     1       9.660   8.551 -17.256  1.00  0.00     0.041 C 
ATOM     23  O   UNL     1       9.614   8.724 -18.502  1.00  0.00    -0.550 OA
ATOM     24  O   UNL     1       8.503   8.217 -16.563  1.00  0.00    -0.550 OA
ENDBRANCH  21  22
ENDBRANCH  20  21
ENDBRANCH  19  20
ENDBRANCH  18  19
ENDBRANCH  17  18
ENDBRANCH  16  17
ENDBRANCH  15  16
ENDBRANCH  14  15
ENDBRANCH  13  14
ENDBRANCH   1  13
TORSDOF 20
ENDMDL
MODEL 3
REMARK VINA RESULT:    -5.865      2.032      5.267
REMARK INTER + INTRA:         -16.325
REMARK INTER:                 -12.669
REMARK INTRA:                  -3.657
REMARK UNBOUND:                -3.603
REMARK SMILES CCCCCCCCCCCCCCCCCCCCCC(=O)[O-]
REMARK SMILES IDX 12 1 11 2 10 3 9 4 8 5 7 6 6 7 5 8 4 9 3 10 2 11 1 12 13 13
REMARK SMILES IDX 14 14 15 15 16 16 17 17 18 18 19 19 20 20 21 21 22 22 23 23
REMARK SMILES IDX 24 24
REMARK H PARENT
REMARK Flexibility Score: inf
ROOT
ATOM      1  C   UNL     1      10.667   5.869 -15.255  1.00  0.00     0.000 C 
ENDROOT
BRANCH   1   2
ATOM      2  C   UNL     1      10.757   4.397 -14.824  1.00  0.00     0.000 C 
BRANCH   2   3
ATOM      3  C   UNL     1      11.591   4.249 -13.546  1.00  0.00     0.000 C 
BRANCH   3   4
ATOM      4  C   UNL     1      12.624   5.379 -13.430  1.00  0.00    -0.000 C 
BRANCH   4   5
ATOM      5  C   UNL     1      13.361   5.379 -12.077  1.00  0.00    -0.000 C 
BRANCH   5   6
ATOM      6  C   UNL     1      13.174   6.657 -11.237  1.00  0.00    -0.000 C 
BRANCH   6   7
ATOM      7  C   UNL     1      11.718   7.140 -11.099  1.00  0.00    -0.000 C 
BRANCH   7   8
ATOM      8  C   UNL     1      10.801   6.142 -10.360  1.00  0.00    -0.000 C 
BRANCH   8   9
ATOM      9  C   UNL     1       9.431   5.992 -11.037  1.00  0.00    -0.000 C 
BRANCH   9  10
ATOM     10  C   UNL     1       9.320   6.909 -12.263  1.00  0.00    -0.000 C 
BRANCH  10  11
ATOM     11  C   UNL     1       7.874   7.350 -12.542  1.00  0.00    -0.003 C 
ATOM     12  C   UNL     1       7.720   8.870 -12.591  1.00  0.00     0.004 C 
ENDBRANCH  10  11
ENDBRANCH   9  10
ENDBRANCH   8   9
ENDBRANCH   7   8
ENDBRANCH   6   7
ENDBRANCH   5   6
ENDBRANCH   4   5
ENDBRANCH   3   4
ENDBRANCH   2   3
ENDBRANCH   1   2
BRANCH   1  13
ATOM     13  C   UNL     1       9.306   6.233 -15.875  1.00  0.00     0.000 C 
BRANCH  13  14
ATOM     14  C   UNL     1       9.080   7.738 -16.111  1.00  0.00     0.000 C 
BRANCH  14  15
ATOM     15  C   UNL     1       9.313   8.212 -17.559  1.00  0.00     0.000 C 
BRANCH  15  16
ATOM     16  C   UNL     1      10.599   9.046 -17.739  1.00  0.00     0.000 C 
BRANCH  16  17
ATOM     17  C   UNL     1      11.489   9.031 -16.484  1.00  0.00     0.000 C 
BRANCH  17  18
ATOM     18  C   UNL     1      12.827   8.313 -16.718  1.00  0.00     0.000 C 
BRANCH  18  19
ATOM     19  C   UNL     1      13.713   8.300 -15.459  1.00  0.00     0.000 C 
BRANCH  19  20
ATOM     20  C   UNL     1      13.007   8.899 -14.232  1.00  0.00     0.006 C 
BRANCH  20  21
ATOM     21  C   UNL     1      13.964   9.675 -13.317  1.00  0.00     0.053 C 
BRANCH  21  22
ATOM     22  C   UNL     1      13.194  10.452 -12.296  1.00  0.00     0.041 C 
ATOM     23  O   UNL     1      13.797  11.049 -11.367  1.00  0.00    -0.550 OA
ATOM     24  O   UNL     1      11.806  10.482 -12.348  1.00  0.00    -0.550 OA
ENDBRANCH  21  22
ENDBRANCH  20  21
ENDBRANCH  19  20
ENDBRANCH  18  19
ENDBRANCH  17  18
ENDBRANCH  16  17
ENDBRANCH  15  16
ENDBRANCH  14  15
ENDBRANCH  13  14
ENDBRANCH   1  13
TORSDOF 20
ENDMDL
MODEL 4
REMARK VINA RESULT:    -5.830      2.075      5.071
REMARK INTER + INTRA:         -16.250
REMARK INTER:                 -12.505
REMARK INTRA:                  -3.745
REMARK UNBOUND:                -3.603
REMARK SMILES CCCCCCCCCCCCCCCCCCCCCC(=O)[O-]
REMARK SMILES IDX 12 1 11 2 10 3 9 4 8 5 7 6 6 7 5 8 4 9 3 10 2 11 1 12 13 13
REMARK SMILES IDX 14 14 15 15 16 16 17 17 18 18 19 19 20 20 21 21 22 22 23 23
REMARK SMILES IDX 24 24
REMARK H PARENT
REMARK Flexibility Score: inf
ROOT
ATOM      1  C   UNL     1      11.782   5.067 -14.535  1.00  0.00     0.000 C 
ENDROOT
BRANCH   1   2
ATOM      2  C   UNL     1      12.213   5.981 -15.692  1.00  0.00     0.000 C 
BRANCH   2   3
ATOM      3  C   UNL     1      12.429   7.419 -15.205  1.00  0.00     0.000 C 
BRANCH   3   4
ATOM      4  C   UNL     1      12.980   8.304 -16.332  1.00  0.00    -0.000 C 
BRANCH   4   5
ATOM      5  C   UNL     1      11.899   8.718 -17.350  1.00  0.00    -0.000 C 
BRANCH   5   6
ATOM      6  C   UNL     1      10.565   9.174 -16.729  1.00  0.00    -0.000 C 
BRANCH   6   7
ATOM      7  C   UNL     1       9.333   8.351 -17.153  1.00  0.00    -0.000 C 
BRANCH   7   8
ATOM      8  C   UNL     1       8.654   7.604 -15.985  1.00  0.00    -0.000 C 
BRANCH   8   9
ATOM      9  C   UNL     1       7.806   8.535 -15.106  1.00  0.00    -0.000 C 
BRANCH   9  10
ATOM     10  C   UNL     1       8.110   8.313 -13.617  1.00  0.00    -0.000 C 
BRANCH  10  11
ATOM     11  C   UNL     1       8.828   9.511 -12.977  1.00  0.00    -0.003 C 
ATOM     12  C   UNL     1      10.345   9.331 -12.926  1.00  0.00     0.004 C 
ENDBRANCH  10  11
ENDBRANCH   9  10
ENDBRANCH   8   9
ENDBRANCH   7   8
ENDBRANCH   6   7
ENDBRANCH   5   6
ENDBRANCH   4   5
ENDBRANCH   3   4
ENDBRANCH   2   3
ENDBRANCH   1   2
BRANCH   1  13
ATOM     13  C   UNL     1      10.538   5.585 -13.789  1.00  0.00     0.000 C 
BRANCH  13  14
ATOM     14  C   UNL     1      10.304   4.957 -12.402  1.00  0.00     0.000 C 
BRANCH  14  15
ATOM     15  C   UNL     1       9.755   5.923 -11.334  1.00  0.00     0.000 C 
BRANCH  15  16
ATOM     16  C   UNL     1      10.711   6.139 -10.143  1.00  0.00     0.000 C 
BRANCH  16  17
ATOM     17  C   UNL     1      11.825   7.152 -10.461  1.00  0.00     0.000 C 
BRANCH  17  18
ATOM     18  C   UNL     1      13.214   6.498 -10.529  1.00  0.00     0.000 C 
BRANCH  18  19
ATOM     19  C   UNL     1      13.811   6.538 -11.948  1.00  0.00     0.000 C 
BRANCH  19  20
ATOM     20  C   UNL     1      14.965   7.545 -12.076  1.00  0.00     0.006 C 
BRANCH  20  21
ATOM     21  C   UNL     1      14.705   8.847 -11.309  1.00  0.00     0.053 C 
BRANCH  21  22
ATOM     22  C   UNL     1      14.160   9.894 -12.229  1.00  0.00     0.041 C 
ATOM     23  O   UNL     1      13.351  10.757 -11.799  1.00  0.00    -0.550 OA
ATOM     24  O   UNL     1      14.517   9.893 -13.572  1.00  0.00    -0.550 OA
ENDBRANCH  21  22
ENDBRANCH  20  21
ENDBRANCH  19  20
ENDBRANCH  18  19
ENDBRANCH  17  18
ENDBRANCH  16  17
ENDBRANCH  15  16
ENDBRANCH  14  15
ENDBRANCH  13  14
ENDBRANCH   1  13
TORSDOF 20
ENDMDL
MODEL 5
REMARK VINA RESULT:    -5.772      1.061      4.210
REMARK INTER + INTRA:         -16.125
REMARK INTER:                 -12.269
REMARK INTRA:                  -3.855
REMARK UNBOUND:                -3.603
REMARK SMILES CCCCCCCCCCCCCCCCCCCCCC(=O)[O-]
REMARK SMILES IDX 12 1 11 2 10 3 9 4 8 5 7 6 6 7 5 8 4 9 3 10 2 11 1 12 13 13
REMARK SMILES IDX 14 14 15 15 16 16 17 17 18 18 19 19 20 20 21 21 22 22 23 23
REMARK SMILES IDX 24 24
REMARK H PARENT
REMARK Flexibility Score: inf
ROOT
ATOM      1  C   UNL     1      11.918   4.853 -13.604  1.00  0.00     0.000 C 
ENDROOT
BRANCH   1   2
ATOM      2  C   UNL     1      10.615   5.001 -12.804  1.00  0.00     0.000 C 
BRANCH   2   3
ATOM      3  C   UNL     1      10.622   6.290 -11.975  1.00  0.00     0.000 C 
BRANCH   3   4
ATOM      4  C   UNL     1      10.330   5.995 -10.496  1.00  0.00    -0.000 C 
BRANCH   4   5
ATOM      5  C   UNL     1      11.482   6.414  -9.564  1.00  0.00    -0.000 C 
BRANCH   5   6
ATOM      6  C   UNL     1      12.873   5.895  -9.978  1.00  0.00    -0.000 C 
BRANCH   6   7
ATOM      7  C   UNL     1      13.926   6.989 -10.236  1.00  0.00    -0.000 C 
BRANCH   7   8
ATOM      8  C   UNL     1      14.018   7.427 -11.714  1.00  0.00    -0.000 C 
BRANCH   8   9
ATOM      9  C   UNL     1      14.693   8.796 -11.880  1.00  0.00    -0.000 C 
BRANCH   9  10
ATOM     10  C   UNL     1      13.666   9.932 -11.767  1.00  0.00    -0.000 C 
BRANCH  10  11
ATOM     11  C   UNL     1      12.223   9.447 -11.975  1.00  0.00    -0.003 C 
ATOM     12  C   UNL     1      11.307  10.539 -12.525  1.00  0.00     0.004 C 
ENDBRANCH  10  11
ENDBRANCH   9  10
ENDBRANCH   8   9
ENDBRANCH   7   8
ENDBRANCH   6   7
ENDBRANCH   5   6
ENDBRANCH   4   5
ENDBRANCH   3   4
ENDBRANCH   2   3
ENDBRANCH   1   2
BRANCH   1  13
ATOM     13  C   UNL     1      11.697   4.884 -15.127  1.00  0.00     0.000 C 
BRANCH  13  14
ATOM     14  C   UNL     1      12.396   6.044 -15.862  1.00  0.00     0.000 C 
BRANCH  14  15
ATOM     15  C   UNL     1      12.796   7.234 -14.969  1.00  0.00     0.000 C 
BRANCH  15  16
ATOM     16  C   UNL     1      12.712   8.599 -15.682  1.00  0.00     0.000 C 
BRANCH  16  17
ATOM     17  C   UNL     1      11.927   8.525 -17.003  1.00  0.00     0.000 C 
BRANCH  17  18
ATOM     18  C   UNL     1      10.472   8.995 -16.852  1.00  0.00     0.000 C 
BRANCH  18  19
ATOM     19  C   UNL     1       9.462   7.851 -17.057  1.00  0.00     0.000 C 
BRANCH  19  20
ATOM     20  C   UNL     1       8.797   7.406 -15.745  1.00  0.00     0.006 C 
BRANCH  20  21
ATOM     21  C   UNL     1       9.137   8.327 -14.565  1.00  0.00     0.053 C 
BRANCH  21  22
ATOM     22  C   UNL     1       8.038   8.299 -13.549  1.00  0.00     0.041 C 
ATOM     23  O   UNL     1       7.344   7.261 -13.395  1.00  0.00    -0.550 OA
ATOM     24  O   UNL     1       7.757   9.434 -12.799  1.00  0.00    -0.550 OA
ENDBRANCH  21  22
ENDBRANCH  20  21
ENDBRANCH  19  20
ENDBRANCH  18  19
ENDBRANCH  17  18
ENDBRANCH  16  17
ENDBRANCH  15  16
ENDBRANCH  14  15
ENDBRANCH  13  14
ENDBRANCH   1  13
TORSDOF 20
ENDMDL
MODEL 6
REMARK VINA RESULT:    -5.762      2.487      5.451
REMARK INTER + INTRA:         -16.102
REMARK INTER:                 -12.267
REMARK INTRA:                  -3.835
REMARK UNBOUND:                -3.603
REMARK SMILES CCCCCCCCCCCCCCCCCCCCCC(=O)[O-]
REMARK SMILES IDX 12 1 11 2 10 3 9 4 8 5 7 6 6 7 5 8 4 9 3 10 2 11 1 12 13 13
REMARK SMILES IDX 14 14 15 15 16 16 17 17 18 18 19 19 20 20 21 21 22 22 23 23
REMARK SMILES IDX 24 24
REMARK H PARENT
REMARK Flexibility Score: inf
ROOT
ATOM      1  C   UNL     1      12.313   6.635 -15.385  1.00  0.00     0.000 C 
ENDROOT
BRANCH   1   2
ATOM      2  C   UNL     1      11.862   8.097 -15.519  1.00  0.00     0.000 C 
BRANCH   2   3
ATOM      3  C   UNL     1      11.900   8.552 -16.982  1.00  0.00     0.000 C 
BRANCH   3   4
ATOM      4  C   UNL     1      10.590   9.252 -17.374  1.00  0.00    -0.000 C 
BRANCH   4   5
ATOM      5  C   UNL     1       9.378   8.301 -17.367  1.00  0.00    -0.000 C 
BRANCH   5   6
ATOM      6  C   UNL     1       8.283   8.656 -16.343  1.00  0.00    -0.000 C 
BRANCH   6   7
ATOM      7  C   UNL     1       8.121   7.652 -15.186  1.00  0.00    -0.000 C 
BRANCH   7   8
ATOM      8  C   UNL     1       8.493   8.231 -13.805  1.00  0.00    -0.000 C 
BRANCH   8   9
ATOM      9  C   UNL     1       8.035   9.687 -13.635  1.00  0.00    -0.000 C 
BRANCH   9  10
ATOM     10  C   UNL     1       9.218  10.596 -13.270  1.00  0.00    -0.000 C 
BRANCH  10  11
ATOM     11  C   UNL     1      10.428   9.808 -12.745  1.00  0.00    -0.003 C 
ATOM     12  C   UNL     1      11.381  10.671 -11.919  1.00  0.00     0.004 C 
ENDBRANCH  10  11
ENDBRANCH   9  10
ENDBRANCH   8   9
ENDBRANCH   7   8
ENDBRANCH   6   7
ENDBRANCH   5   6
ENDBRANCH   4   5
ENDBRANCH   3   4
ENDBRANCH   2   3
ENDBRANCH   1   2
BRANCH   1  13
ATOM     13  C   UNL     1      11.136   5.649 -15.275  1.00  0.00     0.000 C 
BRANCH  13  14
ATOM     14  C   UNL     1      11.322   4.528 -14.235  1.00  0.00     0.000 C 
BRANCH  14  15
ATOM     15  C   UNL     1      11.798   4.999 -12.847  1.00  0.00     0.000 C 
BRANCH  15  16
ATOM     16  C   UNL     1      10.780   5.897 -12.114  1.00  0.00     0.000 C 
BRANCH  16  17
ATOM     17  C   UNL     1      11.421   6.697 -10.967  1.00  0.00     0.000 C 
BRANCH  17  18
ATOM     18  C   UNL     1      12.686   6.023 -10.413  1.00  0.00     0.000 C 
BRANCH  18  19
ATOM     19  C   UNL     1      13.907   6.960 -10.437  1.00  0.00     0.000 C 
BRANCH  19  20
ATOM     20  C   UNL     1      13.846   7.984 -11.581  1.00  0.00     0.006 C 
BRANCH  20  21
ATOM     21  C   UNL     1      14.766   7.620 -12.753  1.00  0.00     0.053 C 
BRANCH  21  22
ATOM     22  C   UNL     1      14.923   8.788 -13.676  1.00  0.00     0.041 C 
ATOM     23  O   UNL     1      15.545   8.658 -14.762  1.00  0.00    -0.550 OA
ATOM     24  O   UNL     1      14.415  10.030 -13.316  1.00  0.00    -0.550 OA
ENDBRANCH  21  22
ENDBRANCH  20  21
ENDBRANCH  19  20
ENDBRANCH  18  19
ENDBRANCH  17  18
ENDBRANCH  16  17
ENDBRANCH  15  16
ENDBRANCH  14  15
ENDBRANCH  13  14
ENDBRANCH   1  13
TORSDOF 20
ENDMDL
MODEL 7
REMARK VINA RESULT:    -5.756      2.221      5.969
REMARK INTER + INTRA:         -16.089
REMARK INTER:                 -12.187
REMARK INTRA:                  -3.902
REMARK UNBOUND:                -3.603
REMARK SMILES CCCCCCCCCCCCCCCCCCCCCC(=O)[O-]
REMARK SMILES IDX 12 1 11 2 10 3 9 4 8 5 7 6 6 7 5 8 4 9 3 10 2 11 1 12 13 13
REMARK SMILES IDX 14 14 15 15 16 16 17 17 18 18 19 19 20 20 21 21 22 22 23 23
REMARK SMILES IDX 24 24
REMARK H PARENT
REMARK Flexibility Score: inf
ROOT
ATOM      1  C   UNL     1      10.099  10.444 -13.560  1.00  0.00     0.000 C 
ENDROOT
BRANCH   1   2
ATOM      2  C   UNL     1      10.931   9.811 -12.434  1.00  0.00     0.000 C 
BRANCH   2   3
ATOM      3  C   UNL     1      11.932  10.819 -11.858  1.00  0.00     0.000 C 
BRANCH   3   4
ATOM      4  C   UNL     1      13.356  10.242 -11.861  1.00  0.00    -0.000 C 
BRANCH   4   5
ATOM      5  C   UNL     1      13.814   9.788 -13.260  1.00  0.00    -0.000 C 
BRANCH   5   6
ATOM      6  C   UNL     1      14.566   8.443 -13.290  1.00  0.00    -0.000 C 
BRANCH   6   7
ATOM      7  C   UNL     1      14.623   7.697 -11.944  1.00  0.00    -0.000 C 
BRANCH   7   8
ATOM      8  C   UNL     1      13.867   6.351 -11.947  1.00  0.00    -0.000 C 
BRANCH   8   9
ATOM      9  C   UNL     1      13.112   6.097 -10.635  1.00  0.00    -0.000 C 
BRANCH   9  10
ATOM     10  C   UNL     1      11.797   6.888 -10.595  1.00  0.00    -0.000 C 
BRANCH  10  11
ATOM     11  C   UNL     1      10.604   6.029 -10.149  1.00  0.00    -0.003 C 
ATOM     12  C   UNL     1       9.484   5.988 -11.188  1.00  0.00     0.004 C 
ENDBRANCH  10  11
ENDBRANCH   9  10
ENDBRANCH   8   9
ENDBRANCH   7   8
ENDBRANCH   6   7
ENDBRANCH   5   6
ENDBRANCH   4   5
ENDBRANCH   3   4
ENDBRANCH   2   3
ENDBRANCH   1   2
BRANCH   1  13
ATOM     13  C   UNL     1       8.588  10.449 -13.262  1.00  0.00     0.000 C 
BRANCH  13  14
ATOM     14  C   UNL     1       8.008   9.091 -12.821  1.00  0.00     0.000 C 
BRANCH  14  15
ATOM     15  C   UNL     1       8.092   7.974 -13.878  1.00  0.00     0.000 C 
BRANCH  15  16
ATOM     16  C   UNL     1       7.365   8.312 -15.197  1.00  0.00     0.000 C 
BRANCH  16  17
ATOM     17  C   UNL     1       8.344   8.599 -16.349  1.00  0.00     0.000 C 
BRANCH  17  18
ATOM     18  C   UNL     1       9.461   7.549 -16.449  1.00  0.00     0.000 C 
BRANCH  18  19
ATOM     19  C   UNL     1      10.863   8.185 -16.464  1.00  0.00     0.000 C 
BRANCH  19  20
ATOM     20  C   UNL     1      11.849   7.467 -15.528  1.00  0.00     0.006 C 
BRANCH  20  21
ATOM     21  C   UNL     1      11.145   6.581 -14.492  1.00  0.00     0.053 C 
BRANCH  21  22
ATOM     22  C   UNL     1      11.596   5.160 -14.630  1.00  0.00     0.041 C 
ATOM     23  O   UNL     1      12.089   4.754 -15.714  1.00  0.00    -0.550 OA
ATOM     24  O   UNL     1      11.436   4.275 -13.571  1.00  0.00    -0.550 OA
ENDBRANCH  21  22
ENDBRANCH  20  21
ENDBRANCH  19  20
ENDBRANCH  18  19
ENDBRANCH  17  18
ENDBRANCH  16  17
ENDBRANCH  15  16
ENDBRANCH  14  15
ENDBRANCH  13  14
ENDBRANCH   1  13
TORSDOF 20
ENDMDL
MODEL 8
REMARK VINA RESULT:    -5.753      2.335      4.990
REMARK INTER + INTRA:         -16.083
REMARK INTER:                 -12.190
REMARK INTRA:                  -3.893
REMARK UNBOUND:                -3.603
REMARK SMILES CCCCCCCCCCCCCCCCCCCCCC(=O)[O-]
REMARK SMILES IDX 12 1 11 2 10 3 9 4 8 5 7 6 6 7 5 8 4 9 3 10 2 11 1 12 13 13
REMARK SMILES IDX 14 14 15 15 16 16 17 17 18 18 19 19 20 20 21 21 22 22 23 23
REMARK SMILES IDX 24 24
REMARK H PARENT
REMARK Flexibility Score: inf
ROOT
ATOM      1  C   UNL     1      13.566   8.245 -10.981  1.00  0.00     0.000 C 
ENDROOT
BRANCH   1   2
ATOM      2  C   UNL     1      14.320   8.855 -12.172  1.00  0.00     0.000 C 
BRANCH   2   3
ATOM      3  C   UNL     1      13.503   9.975 -12.826  1.00  0.00     0.000 C 
BRANCH   3   4
ATOM      4  C   UNL     1      12.153  10.155 -12.117  1.00  0.00    -0.000 C 
BRANCH   4   5
ATOM      5  C   UNL     1      10.950   9.887 -13.041  1.00  0.00    -0.000 C 
BRANCH   5   6
ATOM      6  C   UNL     1       9.768  10.859 -12.866  1.00  0.00    -0.000 C 
BRANCH   6   7
ATOM      7  C   UNL     1       8.392  10.291 -13.261  1.00  0.00    -0.000 C 
BRANCH   7   8
ATOM      8  C   UNL     1       8.173   8.829 -12.816  1.00  0.00    -0.000 C 
BRANCH   8   9
ATOM      9  C   UNL     1       7.571   7.960 -13.929  1.00  0.00    -0.000 C 
BRANCH   9  10
ATOM     10  C   UNL     1       7.885   8.545 -15.314  1.00  0.00    -0.000 C 
BRANCH  10  11
ATOM     11  C   UNL     1       9.098   7.875 -15.977  1.00  0.00    -0.003 C 
ATOM     12  C   UNL     1       9.084   6.354 -15.833  1.00  0.00     0.004 C 
ENDBRANCH  10  11
ENDBRANCH   9  10
ENDBRANCH   8   9
ENDBRANCH   7   8
ENDBRANCH   6   7
ENDBRANCH   5   6
ENDBRANCH   4   5
ENDBRANCH   3   4
ENDBRANCH   2   3
ENDBRANCH   1   2
BRANCH   1  13
ATOM     13  C   UNL     1      13.907   6.762 -10.747  1.00  0.00     0.000 C 
BRANCH  13  14
ATOM     14  C   UNL     1      12.891   5.990  -9.884  1.00  0.00     0.000 C 
BRANCH  14  15
ATOM     15  C   UNL     1      11.519   6.671  -9.727  1.00  0.00     0.000 C 
BRANCH  15  16
ATOM     16  C   UNL     1      10.398   6.006 -10.554  1.00  0.00     0.000 C 
BRANCH  16  17
ATOM     17  C   UNL     1      10.541   6.278 -12.062  1.00  0.00     0.000 C 
BRANCH  17  18
ATOM     18  C   UNL     1      10.830   5.000 -12.865  1.00  0.00     0.000 C 
BRANCH  18  19
ATOM     19  C   UNL     1      12.104   5.122 -13.721  1.00  0.00     0.000 C 
BRANCH  19  20
ATOM     20  C   UNL     1      12.326   6.546 -14.254  1.00  0.00     0.006 C 
BRANCH  20  21
ATOM     21  C   UNL     1      12.582   6.581 -15.766  1.00  0.00     0.053 C 
BRANCH  21  22
ATOM     22  C   UNL     1      13.124   7.915 -16.173  1.00  0.00     0.041 C 
ATOM     23  O   UNL     1      12.491   8.634 -16.989  1.00  0.00    -0.550 OA
ATOM     24  O   UNL     1      14.349   8.348 -15.679  1.00  0.00    -0.550 OA
ENDBRANCH  21  22
ENDBRANCH  20  21
ENDBRANCH  19  20
ENDBRANCH  18  19
ENDBRANCH  17  18
ENDBRANCH  16  17
ENDBRANCH  15  16
ENDBRANCH  14  15
ENDBRANCH  13  14
ENDBRANCH   1  13
TORSDOF 20
ENDMDL
MODEL 9
REMARK VINA RESULT:    -5.719      1.893      3.815
REMARK INTER + INTRA:         -16.009
REMARK INTER:                 -12.256
REMARK INTRA:                  -3.753
REMARK UNBOUND:                -3.603
REMARK SMILES CCCCCCCCCCCCCCCCCCCCCC(=O)[O-]
REMARK SMILES IDX 12 1 11 2 10 3 9 4 8 5 7 6 6 7 5 8 4 9 3 10 2 11 1 12 13 13
REMARK SMILES IDX 14 14 15 15 16 16 17 17 18 18 19 19 20 20 21 21 22 22 23 23
REMARK SMILES IDX 24 24
REMARK H PARENT
REMARK Flexibility Score: inf
ROOT
ATOM      1  C   UNL     1      14.448   7.147 -11.175  1.00  0.00     0.000 C 
ENDROOT
BRANCH   1   2
ATOM      2  C   UNL     1      13.379   6.053 -11.031  1.00  0.00     0.000 C 
BRANCH   2   3
ATOM      3  C   UNL     1      12.857   5.981  -9.591  1.00  0.00     0.000 C 
BRANCH   3   4
ATOM      4  C   UNL     1      11.378   6.387  -9.522  1.00  0.00    -0.000 C 
BRANCH   4   5
ATOM      5  C   UNL     1      10.831   6.888 -10.872  1.00  0.00    -0.000 C 
BRANCH   5   6
ATOM      6  C   UNL     1       9.739   6.001 -11.500  1.00  0.00    -0.000 C 
BRANCH   6   7
ATOM      7  C   UNL     1      10.196   5.157 -12.705  1.00  0.00    -0.000 C 
BRANCH   7   8
ATOM      8  C   UNL     1      11.095   5.927 -13.696  1.00  0.00    -0.000 C 
BRANCH   8   9
ATOM      9  C   UNL     1      11.911   4.990 -14.598  1.00  0.00    -0.000 C 
BRANCH   9  10
ATOM     10  C   UNL     1      12.509   5.755 -15.788  1.00  0.00    -0.000 C 
BRANCH  10  11
ATOM     11  C   UNL     1      12.412   7.279 -15.618  1.00  0.00    -0.003 C 
ATOM     12  C   UNL     1      13.618   8.015 -16.201  1.00  0.00     0.004 C 
ENDBRANCH  10  11
ENDBRANCH   9  10
ENDBRANCH   8   9
ENDBRANCH   7   8
ENDBRANCH   6   7
ENDBRANCH   5   6
ENDBRANCH   4   5
ENDBRANCH   3   4
ENDBRANCH   2   3
ENDBRANCH   1   2
BRANCH   1  13
ATOM     13  C   UNL     1      14.220   8.054 -12.398  1.00  0.00     0.000 C 
BRANCH  13  14
ATOM     14  C   UNL     1      13.462   9.362 -12.104  1.00  0.00     0.000 C 
BRANCH  14  15
ATOM     15  C   UNL     1      12.209   9.598 -12.970  1.00  0.00     0.000 C 
BRANCH  15  16
ATOM     16  C   UNL     1      11.172  10.536 -12.318  1.00  0.00     0.000 C 
BRANCH  16  17
ATOM     17  C   UNL     1       9.793  10.449 -12.994  1.00  0.00     0.000 C 
BRANCH  17  18
ATOM     18  C   UNL     1       9.767   9.439 -14.152  1.00  0.00     0.000 C 
BRANCH  18  19
ATOM     19  C   UNL     1       8.461   8.626 -14.191  1.00  0.00     0.000 C 
BRANCH  19  20
ATOM     20  C   UNL     1       8.023   8.278 -15.623  1.00  0.00     0.006 C 
BRANCH  20  21
ATOM     21  C   UNL     1       9.166   7.707 -16.471  1.00  0.00     0.053 C 
BRANCH  21  22
ATOM     22  C   UNL     1       9.457   8.609 -17.630  1.00  0.00     0.041 C 
ATOM     23  O   UNL     1      10.450   9.382 -17.598  1.00  0.00    -0.550 OA
ATOM     24  O   UNL     1       8.607   8.624 -18.729  1.00  0.00    -0.550 OA
ENDBRANCH  21  22
ENDBRANCH  20  21
ENDBRANCH  19  20
ENDBRANCH  18  19
ENDBRANCH  17  18
ENDBRANCH  16  17
ENDBRANCH  15  16
ENDBRANCH  14  15
ENDBRANCH  13  14
ENDBRANCH   1  13
TORSDOF 20
ENDMDL
