MODEL 1
REMARK VINA RESULT:    58.077      0.000      0.000
REMARK INTER + INTRA:          81.340
REMARK INTER:                  80.146
REMARK INTRA:                   1.194
REMARK UNBOUND:                 1.194
REMARK SMILES CC[C@@H](CC[C@H](C)[C@H]1CC[C@@H]2[C@@H]3CC=C4C[C@H](O)CC[C@@]4(C)[C@@H]3CC[C@@]21C)C(C)C
REMARK SMILES IDX 5 1 4 2 3 3 2 4 1 5 28 6 29 7 30 8 6 9 7 10 8 11 9 12 26 13
REMARK SMILES IDX 10 14 11 15 25 16 27 17 12 18 24 19 23 20 13 21 21 22 14 23
REMARK SMILES IDX 15 24 20 25 22 26 16 27 19 28 17 29 18 30
REMARK H PARENT 18 31
REMARK Flexibility Score: inf
ROOT
ATOM      1  C   UNL     1     -39.773  24.735   6.733  1.00  0.00     0.004 C 
ENDROOT
BRANCH   1   2
ATOM      2  C   UNL     1     -41.294  24.921   6.923  1.00  0.00     0.004 C 
BRANCH   2   3
ATOM      3  C   UNL     1     -42.125  23.687   6.476  1.00  0.00    -0.009 C 
BRANCH   3   4
ATOM      4  C   UNL     1     -41.900  22.428   7.366  1.00  0.00     0.000 C 
ATOM      5  C   UNL     1     -40.928  22.594   8.535  1.00  0.00     0.004 C 
ENDBRANCH   3   4
BRANCH   3   6
ATOM      6  C   UNL     1     -42.045  23.457   4.928  1.00  0.00    -0.014 C 
ATOM      7  C   UNL     1     -42.121  24.736   4.072  1.00  0.00     0.007 C 
ATOM      8  C   UNL     1     -40.839  22.601   4.515  1.00  0.00     0.007 C 
ENDBRANCH   3   6
ENDBRANCH   2   3
ENDBRANCH   1   2
BRANCH   1   9
ATOM      9  C   UNL     1     -38.945  25.236   7.950  1.00  0.00    -0.011 C 
ATOM     10  C   UNL     1     -38.964  26.778   8.013  1.00  0.00     0.008 C 
BRANCH   9  11
ATOM     11  C   UNL     1     -37.498  24.608   7.939  1.00  0.00    -0.002 C 
ATOM     12  C   UNL     1     -37.198  23.821   6.658  1.00  0.00     0.005 C 
ATOM     13  C   UNL     1     -36.263  25.571   8.121  1.00  0.00    -0.026 C 
ATOM     14  C   UNL     1     -36.411  24.756   5.759  1.00  0.00     0.005 C 
ATOM     15  C   UNL     1     -35.646  25.720   6.686  1.00  0.00    -0.001 C 
ATOM     16  C   UNL     1     -35.251  24.899   9.092  1.00  0.00     0.007 C 
ATOM     17  C   UNL     1     -36.643  26.949   8.736  1.00  0.00     0.012 C 
ATOM     18  C   UNL     1     -34.078  25.614   6.591  1.00  0.00     0.000 C 
ATOM     19  C   UNL     1     -33.851  25.548   9.124  1.00  0.00     0.005 C 
ATOM     20  C   UNL     1     -33.423  26.288   7.818  1.00  0.00     0.003 C 
ATOM     21  C   UNL     1     -33.481  24.197   6.393  1.00  0.00     0.031 C 
ATOM     22  C   UNL     1     -31.857  26.420   7.661  1.00  0.00    -0.008 C 
ATOM     23  C   UNL     1     -31.979  24.170   6.517  1.00  0.00    -0.027 C 
ATOM     24  C   UNL     1     -31.240  25.136   7.108  1.00  0.00    -0.065 C 
ATOM     25  C   UNL     1     -31.499  27.562   6.655  1.00  0.00     0.014 C 
ATOM     26  C   UNL     1     -31.226  26.774   9.040  1.00  0.00     0.016 C 
ATOM     27  C   UNL     1     -29.749  25.154   6.858  1.00  0.00     0.063 C 
ATOM     28  C   UNL     1     -29.995  27.625   6.290  1.00  0.00     0.033 C 
ATOM     29  C   UNL     1     -29.437  26.260   5.834  1.00  0.00     0.118 C 
BRANCH  29  30
ATOM     30  O   UNL     1     -28.050  26.370   5.657  1.00  0.00    -0.393 OA
ATOM     31  H   UNL     1     -27.627  26.061   6.501  1.00  0.00     0.210 HD
ENDBRANCH  29  30
ENDBRANCH   9  11
ENDBRANCH   1   9
TORSDOF 7
ENDMDL
MODEL 2
REMARK VINA RESULT:    59.417      3.102      9.288
REMARK INTER + INTRA:          83.190
REMARK INTER:                  83.890
REMARK INTRA:                  -0.700
REMARK UNBOUND:                 1.194
REMARK SMILES CC[C@@H](CC[C@H](C)[C@H]1CC[C@@H]2[C@@H]3CC=C4C[C@H](O)CC[C@@]4(C)[C@@H]3CC[C@@]21C)C(C)C
REMARK SMILES IDX 5 1 4 2 3 3 2 4 1 5 28 6 29 7 30 8 6 9 7 10 8 11 9 12 26 13
REMARK SMILES IDX 10 14 11 15 25 16 27 17 12 18 24 19 23 20 13 21 21 22 14 23
REMARK SMILES IDX 15 24 20 25 22 26 16 27 19 28 17 29 18 30
REMARK H PARENT 18 31
REMARK Flexibility Score: inf
ROOT
ATOM      1  C   UNL     1     -30.284  26.354   6.647  1.00  0.00     0.004 C 
ENDROOT
BRANCH   1   2
ATOM      2  C   UNL     1     -30.420  27.660   5.835  1.00  0.00     0.004 C 
BRANCH   2   3
ATOM      3  C   UNL     1     -29.273  27.868   4.808  1.00  0.00    -0.009 C 
BRANCH   3   4
ATOM      4  C   UNL     1     -29.492  27.108   3.466  1.00  0.00     0.000 C 
ATOM      5  C   UNL     1     -30.471  27.749   2.479  1.00  0.00     0.004 C 
ENDBRANCH   3   4
BRANCH   3   6
ATOM      6  C   UNL     1     -27.861  27.705   5.467  1.00  0.00    -0.014 C 
ATOM      7  C   UNL     1     -26.972  26.610   4.848  1.00  0.00     0.007 C 
ATOM      8  C   UNL     1     -27.094  29.033   5.565  1.00  0.00     0.007 C 
ENDBRANCH   3   6
ENDBRANCH   2   3
ENDBRANCH   1   2
BRANCH   1   9
ATOM      9  C   UNL     1     -31.517  26.073   7.552  1.00  0.00    -0.011 C 
ATOM     10  C   UNL     1     -31.244  24.861   8.469  1.00  0.00     0.008 C 
BRANCH   9  11
ATOM     11  C   UNL     1     -32.829  25.944   6.685  1.00  0.00    -0.002 C 
ATOM     12  C   UNL     1     -32.822  24.715   5.770  1.00  0.00     0.005 C 
ATOM     13  C   UNL     1     -34.216  25.884   7.432  1.00  0.00    -0.026 C 
ATOM     14  C   UNL     1     -33.621  23.644   6.489  1.00  0.00     0.005 C 
ATOM     15  C   UNL     1     -34.649  24.378   7.371  1.00  0.00    -0.001 C 
ATOM     16  C   UNL     1     -35.229  26.783   6.667  1.00  0.00     0.007 C 
ATOM     17  C   UNL     1     -34.150  26.411   8.896  1.00  0.00     0.012 C 
ATOM     18  C   UNL     1     -36.152  24.103   6.991  1.00  0.00     0.000 C 
ATOM     19  C   UNL     1     -36.706  26.584   7.067  1.00  0.00     0.005 C 
ATOM     20  C   UNL     1     -37.067  25.173   7.628  1.00  0.00     0.003 C 
ATOM     21  C   UNL     1     -36.480  23.966   5.482  1.00  0.00     0.031 C 
ATOM     22  C   UNL     1     -38.598  24.815   7.477  1.00  0.00    -0.008 C 
ATOM     23  C   UNL     1     -37.961  23.908   5.206  1.00  0.00    -0.027 C 
ATOM     24  C   UNL     1     -38.919  24.313   6.070  1.00  0.00    -0.065 C 
ATOM     25  C   UNL     1     -38.996  23.672   8.467  1.00  0.00     0.014 C 
ATOM     26  C   UNL     1     -39.458  26.068   7.815  1.00  0.00     0.016 C 
ATOM     27  C   UNL     1     -40.346  23.883   5.815  1.00  0.00     0.063 C 
ATOM     28  C   UNL     1     -40.426  23.122   8.244  1.00  0.00     0.033 C 
ATOM     29  C   UNL     1     -40.690  22.730   6.775  1.00  0.00     0.118 C 
BRANCH  29  30
ATOM     30  O   UNL     1     -42.040  22.376   6.632  1.00  0.00    -0.393 OA
ATOM     31  H   UNL     1     -42.157  22.061   5.698  1.00  0.00     0.210 HD
ENDBRANCH  29  30
ENDBRANCH   9  11
ENDBRANCH   1   9
TORSDOF 7
ENDMDL
