MODEL 1
REMARK VINA RESULT:     3.208      0.000      0.000
REMARK INTER + INTRA:           4.452
REMARK INTER:                   4.896
REMARK INTRA:                  -0.444
REMARK UNBOUND:                -0.444
REMARK SMILES OC[C@@H]1O[C@H](O[C@]2(CO)O[C@@H](CO)[C@H](O)[C@H]2O)[C@H](O)[C@@H](O)[C@@H]1O
REMARK SMILES IDX 6 1 5 2 3 3 22 4 4 5 20 6 18 7 2 8 1 9 23 11 21 13 19 15
REMARK SMILES IDX 7 17 16 18 10 19 14 20 11 21 8 22 9 23 17 25 15 27 12 29
REMARK SMILES IDX 13 30
REMARK H PARENT 1 10 23 12 21 14 19 16 9 24 17 26 15 28 13 31
REMARK Flexibility Score: inf
ROOT
ATOM      1  O   UNL     1      13.616  42.744  20.467  1.00  0.00    -0.313 OA
ENDROOT
BRANCH   1   2
ATOM      2  C   UNL     1      14.782  42.702  19.654  1.00  0.00     0.285 C 
ATOM      3  C   UNL     1      13.913  44.059  17.875  1.00  0.00     0.178 C 
ATOM      4  C   UNL     1      14.844  45.234  18.261  1.00  0.00     0.177 C 
ATOM      5  O   UNL     1      14.436  42.792  18.275  1.00  0.00    -0.341 OA
ATOM      6  C   UNL     1      15.209  45.190  19.753  1.00  0.00     0.179 C 
ATOM      7  C   UNL     1      15.774  43.807  20.076  1.00  0.00     0.202 C 
BRANCH   3   8
ATOM      8  C   UNL     1      12.441  44.260  18.285  1.00  0.00     0.191 C 
BRANCH   8   9
ATOM      9  O   UNL     1      12.372  45.029  19.453  1.00  0.00    -0.394 OA
ATOM     10  H   UNL     1      12.583  44.414  20.201  1.00  0.00     0.210 HD
ENDBRANCH   8   9
ENDBRANCH   3   8
BRANCH   4  11
ATOM     11  O   UNL     1      14.298  46.477  17.886  1.00  0.00    -0.387 OA
ATOM     12  H   UNL     1      14.585  47.155  18.553  1.00  0.00     0.211 HD
ENDBRANCH   4  11
BRANCH   6  13
ATOM     13  O   UNL     1      16.184  46.163  20.031  1.00  0.00    -0.387 OA
ATOM     14  H   UNL     1      16.610  45.907  20.891  1.00  0.00     0.211 HD
ENDBRANCH   6  13
BRANCH   7  15
ATOM     15  O   UNL     1      16.036  43.726  21.454  1.00  0.00    -0.385 OA
ATOM     16  H   UNL     1      15.158  43.615  21.901  1.00  0.00     0.211 HD
ENDBRANCH   7  15
ENDBRANCH   1   2
BRANCH   1  17
ATOM     17  C   UNL     1      12.868  41.527  20.538  1.00  0.00     0.224 C 
ATOM     18  C   UNL     1      13.806  40.337  20.818  1.00  0.00     0.208 C 
ATOM     19  O   UNL     1      12.031  41.632  21.668  1.00  0.00    -0.337 OA
ATOM     20  C   UNL     1      14.001  40.417  22.322  1.00  0.00     0.180 C 
ATOM     21  C   UNL     1      12.784  41.230  22.794  1.00  0.00     0.179 C 
BRANCH  17  22
ATOM     22  C   UNL     1      11.953  41.309  19.296  1.00  0.00     0.225 C 
BRANCH  22  23
ATOM     23  O   UNL     1      12.479  40.310  18.466  1.00  0.00    -0.391 OA
ATOM     24  H   UNL     1      13.443  40.518  18.357  1.00  0.00     0.210 HD
ENDBRANCH  22  23
ENDBRANCH  17  22
BRANCH  18  25
ATOM     25  O   UNL     1      13.187  39.119  20.484  1.00  0.00    -0.385 OA
ATOM     26  H   UNL     1      12.861  39.213  19.551  1.00  0.00     0.211 HD
ENDBRANCH  18  25
BRANCH  20  27
ATOM     27  O   UNL     1      15.183  41.110  22.638  1.00  0.00    -0.387 OA
ATOM     28  H   UNL     1      15.721  41.145  21.803  1.00  0.00     0.211 HD
ENDBRANCH  20  27
BRANCH  21  29
ATOM     29  C   UNL     1      11.883  40.428  23.736  1.00  0.00     0.191 C 
BRANCH  29  30
ATOM     30  O   UNL     1      11.882  41.009  25.013  1.00  0.00    -0.394 OA
ATOM     31  H   UNL     1      11.072  40.679  25.486  1.00  0.00     0.210 HD
ENDBRANCH  29  30
ENDBRANCH  21  29
ENDBRANCH   1  17
TORSDOF 13
ENDMDL
MODEL 2
REMARK VINA RESULT:     4.546      1.042      2.236
REMARK INTER + INTRA:           6.493
REMARK INTER:                   6.025
REMARK INTRA:                   0.469
REMARK UNBOUND:                -0.444
REMARK SMILES OC[C@@H]1O[C@H](O[C@]2(CO)O[C@@H](CO)[C@H](O)[C@H]2O)[C@H](O)[C@@H](O)[C@@H]1O
REMARK SMILES IDX 6 1 5 2 3 3 22 4 4 5 20 6 18 7 2 8 1 9 23 11 21 13 19 15
REMARK SMILES IDX 7 17 16 18 10 19 14 20 11 21 8 22 9 23 17 25 15 27 12 29
REMARK SMILES IDX 13 30
REMARK H PARENT 1 10 23 12 21 14 19 16 9 24 17 26 15 28 13 31
REMARK Flexibility Score: inf
ROOT
ATOM      1  O   UNL     1      14.145  41.968  19.971  1.00  0.00    -0.313 OA
ENDROOT
BRANCH   1   2
ATOM      2  C   UNL     1      14.015  43.203  20.664  1.00  0.00     0.285 C 
ATOM      3  C   UNL     1      16.079  44.155  19.894  1.00  0.00     0.178 C 
ATOM      4  C   UNL     1      15.326  45.165  18.995  1.00  0.00     0.177 C 
ATOM      5  O   UNL     1      15.296  43.722  21.007  1.00  0.00    -0.341 OA
ATOM      6  C   UNL     1      13.952  44.622  18.575  1.00  0.00     0.179 C 
ATOM      7  C   UNL     1      13.187  44.205  19.831  1.00  0.00     0.202 C 
BRANCH   3   8
ATOM      8  C   UNL     1      16.729  42.988  19.125  1.00  0.00     0.191 C 
BRANCH   8   9
ATOM      9  O   UNL     1      15.962  42.677  17.996  1.00  0.00    -0.394 OA
ATOM     10  H   UNL     1      15.545  41.797  18.181  1.00  0.00     0.210 HD
ENDBRANCH   8   9
ENDBRANCH   3   8
BRANCH   4  11
ATOM     11  O   UNL     1      16.103  45.557  17.887  1.00  0.00    -0.387 OA
ATOM     12  H   UNL     1      15.835  46.479  17.632  1.00  0.00     0.211 HD
ENDBRANCH   4  11
BRANCH   6  13
ATOM     13  O   UNL     1      13.230  45.625  17.906  1.00  0.00    -0.387 OA
ATOM     14  H   UNL     1      13.411  46.477  18.384  1.00  0.00     0.211 HD
ENDBRANCH   6  13
BRANCH   7  15
ATOM     15  O   UNL     1      11.962  43.630  19.455  1.00  0.00    -0.385 OA
ATOM     16  H   UNL     1      11.506  44.293  18.875  1.00  0.00     0.211 HD
ENDBRANCH   7  15
ENDBRANCH   1   2
BRANCH   1  17
ATOM     17  C   UNL     1      13.120  41.005  20.229  1.00  0.00     0.224 C 
ATOM     18  C   UNL     1      13.735  39.700  20.772  1.00  0.00     0.208 C 
ATOM     19  O   UNL     1      12.331  41.523  21.278  1.00  0.00    -0.337 OA
ATOM     20  C   UNL     1      13.938  40.017  22.243  1.00  0.00     0.180 C 
ATOM     21  C   UNL     1      12.958  41.175  22.494  1.00  0.00     0.179 C 
BRANCH  17  22
ATOM     22  C   UNL     1      12.182  40.780  19.005  1.00  0.00     0.225 C 
BRANCH  22  23
ATOM     23  O   UNL     1      12.927  40.417  17.875  1.00  0.00    -0.391 OA
ATOM     24  H   UNL     1      12.696  41.072  17.167  1.00  0.00     0.210 HD
ENDBRANCH  22  23
ENDBRANCH  17  22
BRANCH  18  25
ATOM     25  O   UNL     1      12.835  38.627  20.638  1.00  0.00    -0.385 OA
ATOM     26  H   UNL     1      13.050  37.984  21.364  1.00  0.00     0.211 HD
ENDBRANCH  18  25
BRANCH  20  27
ATOM     27  O   UNL     1      15.254  40.452  22.483  1.00  0.00    -0.387 OA
ATOM     28  H   UNL     1      15.333  41.354  22.073  1.00  0.00     0.211 HD
ENDBRANCH  20  27
BRANCH  21  29
ATOM     29  C   UNL     1      11.884  40.810  23.522  1.00  0.00     0.191 C 
BRANCH  29  30
ATOM     30  O   UNL     1      12.322  41.142  24.814  1.00  0.00    -0.394 OA
ATOM     31  H   UNL     1      11.727  41.864  25.150  1.00  0.00     0.210 HD
ENDBRANCH  29  30
ENDBRANCH  21  29
ENDBRANCH   1  17
TORSDOF 13
ENDMDL
