MODEL 1
REMARK VINA RESULT:    -4.073      0.000      0.000
REMARK INTER + INTRA:          -6.680
REMARK INTER:                  -6.216
REMARK INTRA:                  -0.464
REMARK UNBOUND:                -0.464
REMARK SMILES CCCCCCCCCCC(=O)[O-]
REMARK SMILES IDX 7 1 8 2 9 3 10 4 11 5 12 6 13 7 6 8 5 9 4 10 3 11 2 12 1 13
REMARK H PARENT
REMARK Flexibility Score: inf
ROOT
ATOM      1  C   UNL     1     -16.676  33.643 -12.154  1.00  0.00     0.000 C 
ENDROOT
BRANCH   1   2
ATOM      2  C   UNL     1     -15.661  33.280 -11.059  1.00  0.00     0.000 C 
BRANCH   2   3
ATOM      3  C   UNL     1     -14.668  34.416 -10.773  1.00  0.00     0.006 C 
BRANCH   3   4
ATOM      4  C   UNL     1     -14.345  34.556  -9.280  1.00  0.00     0.053 C 
BRANCH   4   5
ATOM      5  C   UNL     1     -13.268  35.574  -9.072  1.00  0.00     0.041 C 
ATOM      6  O   UNL     1     -12.455  35.836  -9.999  1.00  0.00    -0.550 OA
ATOM      7  O   UNL     1     -13.190  36.270  -7.872  1.00  0.00    -0.550 OA
ENDBRANCH   4   5
ENDBRANCH   3   4
ENDBRANCH   2   3
ENDBRANCH   1   2
BRANCH   1   8
ATOM      8  C   UNL     1     -18.073  33.857 -11.560  1.00  0.00     0.000 C 
BRANCH   8   9
ATOM      9  C   UNL     1     -18.173  33.243 -10.155  1.00  0.00    -0.000 C 
BRANCH   9  10
ATOM     10  C   UNL     1     -18.938  34.139  -9.168  1.00  0.00    -0.000 C 
BRANCH  10  11
ATOM     11  C   UNL     1     -19.983  33.359  -8.350  1.00  0.00    -0.000 C 
BRANCH  11  12
ATOM     12  C   UNL     1     -21.033  34.278  -7.707  1.00  0.00    -0.003 C 
ATOM     13  C   UNL     1     -22.361  33.570  -7.442  1.00  0.00     0.004 C 
ENDBRANCH  11  12
ENDBRANCH  10  11
ENDBRANCH   9  10
ENDBRANCH   8   9
ENDBRANCH   1   8
TORSDOF 9
ENDMDL
MODEL 2
REMARK VINA RESULT:    -4.014     14.575     15.950
REMARK INTER + INTRA:          -6.590
REMARK INTER:                  -5.716
REMARK INTRA:                  -0.874
REMARK UNBOUND:                -0.464
REMARK SMILES CCCCCCCCCCC(=O)[O-]
REMARK SMILES IDX 7 1 8 2 9 3 10 4 11 5 12 6 13 7 6 8 5 9 4 10 3 11 2 12 1 13
REMARK H PARENT
REMARK Flexibility Score: inf
ROOT
ATOM      1  C   UNL     1      -6.171  34.649   1.827  1.00  0.00     0.000 C 
ENDROOT
BRANCH   1   2
ATOM      2  C   UNL     1      -7.010  34.100   0.663  1.00  0.00     0.000 C 
BRANCH   2   3
ATOM      3  C   UNL     1      -7.713  32.779   1.010  1.00  0.00     0.006 C 
BRANCH   3   4
ATOM      4  C   UNL     1      -6.726  31.667   1.386  1.00  0.00     0.053 C 
BRANCH   4   5
ATOM      5  C   UNL     1      -7.442  30.360   1.528  1.00  0.00     0.041 C 
ATOM      6  O   UNL     1      -7.818  29.729   0.504  1.00  0.00    -0.550 OA
ATOM      7  O   UNL     1      -7.652  29.815   2.788  1.00  0.00    -0.550 OA
ENDBRANCH   4   5
ENDBRANCH   3   4
ENDBRANCH   2   3
ENDBRANCH   1   2
BRANCH   1   8
ATOM      8  C   UNL     1      -4.681  34.675   1.467  1.00  0.00     0.000 C 
BRANCH   8   9
ATOM      9  C   UNL     1      -4.473  34.417  -0.033  1.00  0.00    -0.000 C 
BRANCH   9  10
ATOM     10  C   UNL     1      -3.944  35.651  -0.781  1.00  0.00    -0.000 C 
BRANCH  10  11
ATOM     11  C   UNL     1      -4.319  36.971  -0.082  1.00  0.00    -0.000 C 
BRANCH  11  12
ATOM     12  C   UNL     1      -5.441  37.725  -0.812  1.00  0.00    -0.003 C 
ATOM     13  C   UNL     1      -6.689  37.911   0.050  1.00  0.00     0.004 C 
ENDBRANCH  11  12
ENDBRANCH  10  11
ENDBRANCH   9  10
ENDBRANCH   8   9
ENDBRANCH   1   8
TORSDOF 9
ENDMDL
MODEL 3
REMARK VINA RESULT:    -3.833     12.012     15.200
REMARK INTER + INTRA:          -6.315
REMARK INTER:                  -5.677
REMARK INTRA:                  -0.638
REMARK UNBOUND:                -0.464
REMARK SMILES CCCCCCCCCCC(=O)[O-]
REMARK SMILES IDX 7 1 8 2 9 3 10 4 11 5 12 6 13 7 6 8 5 9 4 10 3 11 2 12 1 13
REMARK H PARENT
REMARK Flexibility Score: inf
ROOT
ATOM      1  C   UNL     1      -4.308  35.809   0.319  1.00  0.00     0.000 C 
ENDROOT
BRANCH   1   2
ATOM      2  C   UNL     1      -4.072  35.005   1.606  1.00  0.00     0.000 C 
BRANCH   2   3
ATOM      3  C   UNL     1      -5.060  33.840   1.766  1.00  0.00     0.006 C 
BRANCH   3   4
ATOM      4  C   UNL     1      -5.977  33.672   0.547  1.00  0.00     0.053 C 
BRANCH   4   5
ATOM      5  C   UNL     1      -7.273  33.042   0.952  1.00  0.00     0.041 C 
ATOM      6  O   UNL     1      -7.307  31.832   1.301  1.00  0.00    -0.550 OA
ATOM      7  O   UNL     1      -8.435  33.803   0.989  1.00  0.00    -0.550 OA
ENDBRANCH   4   5
ENDBRANCH   3   4
ENDBRANCH   2   3
ENDBRANCH   1   2
BRANCH   1   8
ATOM      8  C   UNL     1      -4.091  37.308   0.560  1.00  0.00     0.000 C 
BRANCH   8   9
ATOM      9  C   UNL     1      -5.425  38.020   0.834  1.00  0.00    -0.000 C 
BRANCH   9  10
ATOM     10  C   UNL     1      -6.325  38.095  -0.410  1.00  0.00    -0.000 C 
BRANCH  10  11
ATOM     11  C   UNL     1      -7.611  37.263  -0.260  1.00  0.00    -0.000 C 
BRANCH  11  12
ATOM     12  C   UNL     1      -8.743  37.761  -1.171  1.00  0.00    -0.003 C 
ATOM     13  C   UNL     1      -9.909  36.777  -1.262  1.00  0.00     0.004 C 
ENDBRANCH  11  12
ENDBRANCH  10  11
ENDBRANCH   9  10
ENDBRANCH   8   9
ENDBRANCH   1   8
TORSDOF 9
ENDMDL
MODEL 4
REMARK VINA RESULT:    -3.758      4.215      6.903
REMARK INTER + INTRA:          -6.200
REMARK INTER:                  -5.717
REMARK INTRA:                  -0.483
REMARK UNBOUND:                -0.464
REMARK SMILES CCCCCCCCCCC(=O)[O-]
REMARK SMILES IDX 7 1 8 2 9 3 10 4 11 5 12 6 13 7 6 8 5 9 4 10 3 11 2 12 1 13
REMARK H PARENT
REMARK Flexibility Score: inf
ROOT
ATOM      1  C   UNL     1     -18.374  33.205 -10.085  1.00  0.00     0.000 C 
ENDROOT
BRANCH   1   2
ATOM      2  C   UNL     1     -18.972  33.985  -8.905  1.00  0.00     0.000 C 
BRANCH   2   3
ATOM      3  C   UNL     1     -20.258  33.343  -8.362  1.00  0.00     0.006 C 
BRANCH   3   4
ATOM      4  C   UNL     1     -21.167  34.354  -7.652  1.00  0.00     0.053 C 
BRANCH   4   5
ATOM      5  C   UNL     1     -22.519  33.759  -7.409  1.00  0.00     0.041 C 
ATOM      6  O   UNL     1     -22.654  32.796  -6.608  1.00  0.00    -0.550 OA
ATOM      7  O   UNL     1     -23.638  34.298  -8.031  1.00  0.00    -0.550 OA
ENDBRANCH   4   5
ENDBRANCH   3   4
ENDBRANCH   2   3
ENDBRANCH   1   2
BRANCH   1   8
ATOM      8  C   UNL     1     -18.384  34.050 -11.365  1.00  0.00     0.000 C 
BRANCH   8   9
ATOM      9  C   UNL     1     -17.298  33.578 -12.344  1.00  0.00    -0.000 C 
BRANCH   9  10
ATOM     10  C   UNL     1     -16.070  32.990 -11.632  1.00  0.00    -0.000 C 
BRANCH  10  11
ATOM     11  C   UNL     1     -15.025  34.063 -11.273  1.00  0.00    -0.000 C 
BRANCH  11  12
ATOM     12  C   UNL     1     -14.842  34.221  -9.756  1.00  0.00    -0.003 C 
ATOM     13  C   UNL     1     -13.685  35.150  -9.391  1.00  0.00     0.004 C 
ENDBRANCH  11  12
ENDBRANCH  10  11
ENDBRANCH   9  10
ENDBRANCH   8   9
ENDBRANCH   1   8
TORSDOF 9
ENDMDL
MODEL 5
REMARK VINA RESULT:    -3.670     12.957     15.299
REMARK INTER + INTRA:          -6.065
REMARK INTER:                  -5.526
REMARK INTRA:                  -0.538
REMARK UNBOUND:                -0.464
REMARK SMILES CCCCCCCCCCC(=O)[O-]
REMARK SMILES IDX 7 1 8 2 9 3 10 4 11 5 12 6 13 7 6 8 5 9 4 10 3 11 2 12 1 13
REMARK H PARENT
REMARK Flexibility Score: inf
ROOT
ATOM      1  C   UNL     1      -4.986  34.535   0.622  1.00  0.00     0.000 C 
ENDROOT
BRANCH   1   2
ATOM      2  C   UNL     1      -6.271  34.078   1.332  1.00  0.00     0.000 C 
BRANCH   2   3
ATOM      3  C   UNL     1      -6.292  32.566   1.602  1.00  0.00     0.006 C 
BRANCH   3   4
ATOM      4  C   UNL     1      -7.567  31.892   1.079  1.00  0.00     0.053 C 
BRANCH   4   5
ATOM      5  C   UNL     1      -7.522  30.419   1.340  1.00  0.00     0.041 C 
ATOM      6  O   UNL     1      -7.276  29.987   2.497  1.00  0.00    -0.550 OA
ATOM      7  O   UNL     1      -7.800  29.522   0.315  1.00  0.00    -0.550 OA
ENDBRANCH   4   5
ENDBRANCH   3   4
ENDBRANCH   2   3
ENDBRANCH   1   2
BRANCH   1   8
ATOM      8  C   UNL     1      -5.001  36.049   0.379  1.00  0.00     0.000 C 
BRANCH   8   9
ATOM      9  C   UNL     1      -6.035  36.741   1.281  1.00  0.00    -0.000 C 
BRANCH   9  10
ATOM     10  C   UNL     1      -6.840  37.821   0.542  1.00  0.00    -0.000 C 
BRANCH  10  11
ATOM     11  C   UNL     1      -6.428  37.958  -0.936  1.00  0.00    -0.000 C 
BRANCH  11  12
ATOM     12  C   UNL     1      -7.639  38.046  -1.878  1.00  0.00    -0.003 C 
ATOM     13  C   UNL     1      -8.950  37.653  -1.198  1.00  0.00     0.004 C 
ENDBRANCH  11  12
ENDBRANCH  10  11
ENDBRANCH   9  10
ENDBRANCH   8   9
ENDBRANCH   1   8
TORSDOF 9
ENDMDL
MODEL 6
REMARK VINA RESULT:    -3.480     12.681     15.301
REMARK INTER + INTRA:          -5.776
REMARK INTER:                  -5.044
REMARK INTRA:                  -0.732
REMARK UNBOUND:                -0.464
REMARK SMILES CCCCCCCCCCC(=O)[O-]
REMARK SMILES IDX 7 1 8 2 9 3 10 4 11 5 12 6 13 7 6 8 5 9 4 10 3 11 2 12 1 13
REMARK H PARENT
REMARK Flexibility Score: inf
ROOT
ATOM      1  C   UNL     1      -5.229  37.698   1.592  1.00  0.00     0.000 C 
ENDROOT
BRANCH   1   2
ATOM      2  C   UNL     1      -4.865  37.497   0.113  1.00  0.00     0.000 C 
BRANCH   2   3
ATOM      3  C   UNL     1      -5.960  38.002  -0.839  1.00  0.00     0.006 C 
BRANCH   3   4
ATOM      4  C   UNL     1      -7.372  37.806  -0.273  1.00  0.00     0.053 C 
BRANCH   4   5
ATOM      5  C   UNL     1      -8.364  37.662  -1.384  1.00  0.00     0.041 C 
ATOM      6  O   UNL     1      -8.018  37.876  -2.576  1.00  0.00    -0.550 OA
ATOM      7  O   UNL     1      -9.661  37.244  -1.109  1.00  0.00    -0.550 OA
ENDBRANCH   4   5
ENDBRANCH   3   4
ENDBRANCH   2   3
ENDBRANCH   1   2
BRANCH   1   8
ATOM      8  C   UNL     1      -5.216  36.363   2.347  1.00  0.00     0.000 C 
BRANCH   8   9
ATOM      9  C   UNL     1      -4.074  35.462   1.852  1.00  0.00    -0.000 C 
BRANCH   9  10
ATOM     10  C   UNL     1      -4.548  34.045   1.494  1.00  0.00    -0.000 C 
BRANCH  10  11
ATOM     11  C   UNL     1      -5.691  34.048   0.461  1.00  0.00    -0.000 C 
BRANCH  11  12
ATOM     12  C   UNL     1      -7.043  33.661   1.080  1.00  0.00    -0.003 C 
ATOM     13  C   UNL     1      -7.234  32.149   1.190  1.00  0.00     0.004 C 
ENDBRANCH  11  12
ENDBRANCH  10  11
ENDBRANCH   9  10
ENDBRANCH   8   9
ENDBRANCH   1   8
TORSDOF 9
ENDMDL
MODEL 7
REMARK VINA RESULT:    -3.430     11.585     14.931
REMARK INTER + INTRA:          -5.699
REMARK INTER:                  -5.007
REMARK INTRA:                  -0.693
REMARK UNBOUND:                -0.464
REMARK SMILES CCCCCCCCCCC(=O)[O-]
REMARK SMILES IDX 7 1 8 2 9 3 10 4 11 5 12 6 13 7 6 8 5 9 4 10 3 11 2 12 1 13
REMARK H PARENT
REMARK Flexibility Score: inf
ROOT
ATOM      1  C   UNL     1      -6.477  37.048   0.737  1.00  0.00     0.000 C 
ENDROOT
BRANCH   1   2
ATOM      2  C   UNL     1      -7.248  38.115  -0.055  1.00  0.00     0.000 C 
BRANCH   2   3
ATOM      3  C   UNL     1      -7.893  37.554  -1.331  1.00  0.00     0.006 C 
BRANCH   3   4
ATOM      4  C   UNL     1      -9.418  37.720  -1.343  1.00  0.00     0.053 C 
BRANCH   4   5
ATOM      5  C   UNL     1     -10.088  36.420  -1.026  1.00  0.00     0.041 C 
ATOM      6  O   UNL     1     -11.297  36.239  -1.328  1.00  0.00    -0.550 OA
ATOM      7  O   UNL     1      -9.363  35.389  -0.441  1.00  0.00    -0.550 OA
ENDBRANCH   4   5
ENDBRANCH   3   4
ENDBRANCH   2   3
ENDBRANCH   1   2
BRANCH   1   8
ATOM      8  C   UNL     1      -4.964  37.269   0.628  1.00  0.00     0.000 C 
BRANCH   8   9
ATOM      9  C   UNL     1      -4.369  36.445  -0.525  1.00  0.00    -0.000 C 
BRANCH   9  10
ATOM     10  C   UNL     1      -4.412  34.932  -0.258  1.00  0.00    -0.000 C 
BRANCH  10  11
ATOM     11  C   UNL     1      -4.096  34.582   1.208  1.00  0.00    -0.000 C 
BRANCH  11  12
ATOM     12  C   UNL     1      -5.028  33.495   1.767  1.00  0.00    -0.003 C 
ATOM     13  C   UNL     1      -6.391  33.470   1.077  1.00  0.00     0.004 C 
ENDBRANCH  11  12
ENDBRANCH  10  11
ENDBRANCH   9  10
ENDBRANCH   8   9
ENDBRANCH   1   8
TORSDOF 9
ENDMDL
MODEL 8
REMARK VINA RESULT:    -3.392     11.839     13.224
REMARK INTER + INTRA:          -5.640
REMARK INTER:                  -5.178
REMARK INTRA:                  -0.462
REMARK UNBOUND:                -0.464
REMARK SMILES CCCCCCCCCCC(=O)[O-]
REMARK SMILES IDX 7 1 8 2 9 3 10 4 11 5 12 6 13 7 6 8 5 9 4 10 3 11 2 12 1 13
REMARK H PARENT
REMARK Flexibility Score: inf
ROOT
ATOM      1  C   UNL     1     -20.652  24.637  -6.522  1.00  0.00     0.000 C 
ENDROOT
BRANCH   1   2
ATOM      2  C   UNL     1     -20.069  24.310  -5.138  1.00  0.00     0.000 C 
BRANCH   2   3
ATOM      3  C   UNL     1     -20.090  22.806  -4.826  1.00  0.00     0.006 C 
BRANCH   3   4
ATOM      4  C   UNL     1     -20.775  22.490  -3.491  1.00  0.00     0.053 C 
BRANCH   4   5
ATOM      5  C   UNL     1     -20.388  21.124  -3.017  1.00  0.00     0.041 C 
ATOM      6  O   UNL     1     -20.017  20.248  -3.842  1.00  0.00    -0.550 OA
ATOM      7  O   UNL     1     -20.390  20.834  -1.658  1.00  0.00    -0.550 OA
ENDBRANCH   4   5
ENDBRANCH   3   4
ENDBRANCH   2   3
ENDBRANCH   1   2
BRANCH   1   8
ATOM      8  C   UNL     1     -22.041  25.274  -6.396  1.00  0.00     0.000 C 
BRANCH   8   9
ATOM      9  C   UNL     1     -22.023  26.440  -5.397  1.00  0.00    -0.000 C 
BRANCH   9  10
ATOM     10  C   UNL     1     -23.344  26.582  -4.624  1.00  0.00    -0.000 C 
BRANCH  10  11
ATOM     11  C   UNL     1     -23.578  25.424  -3.637  1.00  0.00    -0.000 C 
BRANCH  11  12
ATOM     12  C   UNL     1     -22.400  25.229  -2.669  1.00  0.00    -0.003 C 
ATOM     13  C   UNL     1     -22.685  24.188  -1.588  1.00  0.00     0.004 C 
ENDBRANCH  11  12
ENDBRANCH  10  11
ENDBRANCH   9  10
ENDBRANCH   8   9
ENDBRANCH   1   8
TORSDOF 9
ENDMDL
MODEL 9
REMARK VINA RESULT:    -3.318     11.419     14.442
REMARK INTER + INTRA:          -5.528
REMARK INTER:                  -5.003
REMARK INTRA:                  -0.525
REMARK UNBOUND:                -0.464
REMARK SMILES CCCCCCCCCCC(=O)[O-]
REMARK SMILES IDX 7 1 8 2 9 3 10 4 11 5 12 6 13 7 6 8 5 9 4 10 3 11 2 12 1 13
REMARK H PARENT
REMARK Flexibility Score: inf
ROOT
ATOM      1  C   UNL     1      -6.380  36.891   0.503  1.00  0.00     0.000 C 
ENDROOT
BRANCH   1   2
ATOM      2  C   UNL     1      -4.901  36.820   0.093  1.00  0.00     0.000 C 
BRANCH   2   3
ATOM      3  C   UNL     1      -4.143  35.690   0.806  1.00  0.00     0.006 C 
BRANCH   3   4
ATOM      4  C   UNL     1      -4.948  35.073   1.956  1.00  0.00     0.053 C 
BRANCH   4   5
ATOM      5  C   UNL     1      -5.244  33.633   1.673  1.00  0.00     0.041 C 
ATOM      6  O   UNL     1      -4.521  32.728   2.169  1.00  0.00    -0.550 OA
ATOM      7  O   UNL     1      -6.346  33.288   0.901  1.00  0.00    -0.550 OA
ENDBRANCH   4   5
ENDBRANCH   3   4
ENDBRANCH   2   3
ENDBRANCH   1   2
BRANCH   1   8
ATOM      8  C   UNL     1      -7.062  38.121  -0.109  1.00  0.00     0.000 C 
BRANCH   8   9
ATOM      9  C   UNL     1      -6.928  38.119  -1.639  1.00  0.00    -0.000 C 
BRANCH   9  10
ATOM     10  C   UNL     1      -8.279  37.954  -2.354  1.00  0.00    -0.000 C 
BRANCH  10  11
ATOM     11  C   UNL     1      -9.453  37.806  -1.370  1.00  0.00    -0.000 C 
BRANCH  11  12
ATOM     12  C   UNL     1      -9.896  36.345  -1.198  1.00  0.00    -0.003 C 
ATOM     13  C   UNL     1     -11.415  36.183  -1.176  1.00  0.00     0.004 C 
ENDBRANCH  11  12
ENDBRANCH  10  11
ENDBRANCH   9  10
ENDBRANCH   8   9
ENDBRANCH   1   8
TORSDOF 9
ENDMDL
