MODEL 1
REMARK VINA RESULT:    -6.322      0.000      0.000
REMARK INTER + INTRA:          -7.276
REMARK INTER:                  -7.061
REMARK INTRA:                  -0.215
REMARK UNBOUND:                -0.215
REMARK SMILES CC(C)c1ccc(C(=O)[O-])cc1
REMARK SMILES IDX 7 1 6 2 11 3 5 4 12 5 4 6 8 7 9 8 10 9 2 10 1 11 3 12
REMARK H PARENT
REMARK Flexibility Score: inf
ROOT
ATOM      1  C   UNL     1     129.476 127.244 125.906  1.00  0.00    -0.003 A 
ATOM      2  C   UNL     1     128.901 126.226 125.127  1.00  0.00     0.010 A 
ATOM      3  C   UNL     1     129.561 128.542 125.375  1.00  0.00     0.010 A 
ATOM      4  C   UNL     1     128.419 126.500 123.844  1.00  0.00     0.004 A 
ATOM      5  C   UNL     1     129.079 128.815 124.091  1.00  0.00     0.004 A 
ATOM      6  C   UNL     1     128.502 127.796 123.312  1.00  0.00    -0.045 A 
ENDROOT
BRANCH   1   7
ATOM      7  C   UNL     1     129.988 126.958 127.264  1.00  0.00     0.071 C 
ATOM      8  O   UNL     1     129.571 125.960 127.909  1.00  0.00    -0.545 OA
ATOM      9  O   UNL     1     130.937 127.789 127.850  1.00  0.00    -0.545 OA
ENDBRANCH   1   7
BRANCH   6  10
ATOM     10  C   UNL     1     127.975 128.080 121.917  1.00  0.00     0.013 C 
ATOM     11  C   UNL     1     126.808 129.073 121.959  1.00  0.00     0.012 C 
ATOM     12  C   UNL     1     127.571 126.784 121.205  1.00  0.00     0.012 C 
ENDBRANCH   6  10
TORSDOF 2
ENDMDL
MODEL 2
REMARK VINA RESULT:    -6.294      0.064      1.680
REMARK INTER + INTRA:          -7.245
REMARK INTER:                  -7.031
REMARK INTRA:                  -0.215
REMARK UNBOUND:                -0.215
REMARK SMILES CC(C)c1ccc(C(=O)[O-])cc1
REMARK SMILES IDX 7 1 6 2 11 3 5 4 12 5 4 6 8 7 9 8 10 9 2 10 1 11 3 12
REMARK H PARENT
REMARK Flexibility Score: inf
ROOT
ATOM      1  C   UNL     1     129.486 127.275 125.883  1.00  0.00    -0.003 A 
ATOM      2  C   UNL     1     129.558 128.565 125.330  1.00  0.00     0.010 A 
ATOM      3  C   UNL     1     128.925 126.237 125.121  1.00  0.00     0.010 A 
ATOM      4  C   UNL     1     129.080 128.811 124.040  1.00  0.00     0.004 A 
ATOM      5  C   UNL     1     128.446 126.485 123.831  1.00  0.00     0.004 A 
ATOM      6  C   UNL     1     128.519 127.775 123.276  1.00  0.00    -0.045 A 
ENDROOT
BRANCH   1   7
ATOM      7  C   UNL     1     129.990 127.009 127.249  1.00  0.00     0.071 C 
ATOM      8  O   UNL     1     130.877 127.745 127.758  1.00  0.00    -0.545 OA
ATOM      9  O   UNL     1     129.494 125.942 127.989  1.00  0.00    -0.545 OA
ENDBRANCH   1   7
BRANCH   6  10
ATOM     10  C   UNL     1     128.003 128.057 121.876  1.00  0.00     0.013 C 
ATOM     11  C   UNL     1     126.858 129.076 121.905  1.00  0.00     0.012 C 
ATOM     12  C   UNL     1     127.573 126.763 121.176  1.00  0.00     0.012 C 
ENDBRANCH   6  10
TORSDOF 2
ENDMDL
MODEL 3
REMARK VINA RESULT:    -6.212      3.903      5.118
REMARK INTER + INTRA:          -7.153
REMARK INTER:                  -6.943
REMARK INTRA:                  -0.210
REMARK UNBOUND:                -0.215
REMARK SMILES CC(C)c1ccc(C(=O)[O-])cc1
REMARK SMILES IDX 7 1 6 2 11 3 5 4 12 5 4 6 8 7 9 8 10 9 2 10 1 11 3 12
REMARK H PARENT
REMARK Flexibility Score: inf
ROOT
ATOM      1  C   UNL     1     128.028 124.675 128.277  1.00  0.00    -0.003 A 
ATOM      2  C   UNL     1     128.410 126.019 128.131  1.00  0.00     0.010 A 
ATOM      3  C   UNL     1     128.813 123.675 127.681  1.00  0.00     0.010 A 
ATOM      4  C   UNL     1     129.555 126.356 127.403  1.00  0.00     0.004 A 
ATOM      5  C   UNL     1     129.957 124.013 126.952  1.00  0.00     0.004 A 
ATOM      6  C   UNL     1     130.341 125.358 126.806  1.00  0.00    -0.045 A 
ENDROOT
BRANCH   1   7
ATOM      7  C   UNL     1     126.816 124.314 129.047  1.00  0.00     0.071 C 
ATOM      8  O   UNL     1     126.712 123.177 129.579  1.00  0.00    -0.545 OA
ATOM      9  O   UNL     1     125.776 125.224 129.192  1.00  0.00    -0.545 OA
ENDBRANCH   1   7
BRANCH   6  10
ATOM     10  C   UNL     1     131.582 125.738 126.018  1.00  0.00     0.013 C 
ATOM     11  C   UNL     1     132.390 126.817 126.748  1.00  0.00     0.012 C 
ATOM     12  C   UNL     1     131.218 126.187 124.598  1.00  0.00     0.012 C 
ENDBRANCH   6  10
TORSDOF 2
ENDMDL
MODEL 4
REMARK VINA RESULT:    -6.180      3.903      4.932
REMARK INTER + INTRA:          -7.117
REMARK INTER:                  -6.909
REMARK INTRA:                  -0.208
REMARK UNBOUND:                -0.215
REMARK SMILES CC(C)c1ccc(C(=O)[O-])cc1
REMARK SMILES IDX 7 1 6 2 11 3 5 4 12 5 4 6 8 7 9 8 10 9 2 10 1 11 3 12
REMARK H PARENT
REMARK Flexibility Score: inf
ROOT
ATOM      1  C   UNL     1     128.009 124.732 128.271  1.00  0.00    -0.003 A 
ATOM      2  C   UNL     1     128.766 123.713 127.669  1.00  0.00     0.010 A 
ATOM      3  C   UNL     1     128.427 126.066 128.129  1.00  0.00     0.010 A 
ATOM      4  C   UNL     1     129.917 124.021 126.939  1.00  0.00     0.004 A 
ATOM      5  C   UNL     1     129.579 126.373 127.398  1.00  0.00     0.004 A 
ATOM      6  C   UNL     1     130.337 125.353 126.795  1.00  0.00    -0.045 A 
ENDROOT
BRANCH   1   7
ATOM      7  C   UNL     1     126.790 124.411 129.046  1.00  0.00     0.071 C 
ATOM      8  O   UNL     1     126.629 123.263 129.539  1.00  0.00    -0.545 OA
ATOM      9  O   UNL     1     125.803 125.372 129.239  1.00  0.00    -0.545 OA
ENDBRANCH   1   7
BRANCH   6  10
ATOM     10  C   UNL     1     131.589 125.674 125.999  1.00  0.00     0.013 C 
ATOM     11  C   UNL     1     132.451 126.716 126.721  1.00  0.00     0.012 C 
ATOM     12  C   UNL     1     131.238 126.136 124.580  1.00  0.00     0.012 C 
ENDBRANCH   6  10
TORSDOF 2
ENDMDL
MODEL 5
REMARK VINA RESULT:    -5.932      3.046      5.192
REMARK INTER + INTRA:          -6.841
REMARK INTER:                  -6.629
REMARK INTRA:                  -0.212
REMARK UNBOUND:                -0.215
REMARK SMILES CC(C)c1ccc(C(=O)[O-])cc1
REMARK SMILES IDX 7 1 6 2 11 3 5 4 12 5 4 6 8 7 9 8 10 9 2 10 1 11 3 12
REMARK H PARENT
REMARK Flexibility Score: inf
ROOT
ATOM      1  C   UNL     1     128.324 127.823 123.426  1.00  0.00    -0.003 A 
ATOM      2  C   UNL     1     129.066 128.735 124.195  1.00  0.00     0.010 A 
ATOM      3  C   UNL     1     128.290 126.473 123.814  1.00  0.00     0.010 A 
ATOM      4  C   UNL     1     129.760 128.306 125.330  1.00  0.00     0.004 A 
ATOM      5  C   UNL     1     128.986 126.045 124.949  1.00  0.00     0.004 A 
ATOM      6  C   UNL     1     129.728 126.958 125.720  1.00  0.00    -0.045 A 
ENDROOT
BRANCH   1   7
ATOM      7  C   UNL     1     127.587 128.272 122.223  1.00  0.00     0.071 C 
ATOM      8  O   UNL     1     128.205 128.557 121.164  1.00  0.00    -0.545 OA
ATOM      9  O   UNL     1     126.202 128.385 122.246  1.00  0.00    -0.545 OA
ENDBRANCH   1   7
BRANCH   6  10
ATOM     10  C   UNL     1     130.487 126.506 126.955  1.00  0.00     0.013 C 
ATOM     11  C   UNL     1     131.885 127.131 127.003  1.00  0.00     0.012 C 
ATOM     12  C   UNL     1     130.564 124.976 127.026  1.00  0.00     0.012 C 
ENDBRANCH   6  10
TORSDOF 2
ENDMDL
MODEL 6
REMARK VINA RESULT:    -5.850      3.030      5.022
REMARK INTER + INTRA:          -6.749
REMARK INTER:                  -6.542
REMARK INTRA:                  -0.207
REMARK UNBOUND:                -0.215
REMARK SMILES CC(C)c1ccc(C(=O)[O-])cc1
REMARK SMILES IDX 7 1 6 2 11 3 5 4 12 5 4 6 8 7 9 8 10 9 2 10 1 11 3 12
REMARK H PARENT
REMARK Flexibility Score: inf
ROOT
ATOM      1  C   UNL     1     128.349 127.955 123.406  1.00  0.00    -0.003 A 
ATOM      2  C   UNL     1     128.196 126.606 123.771  1.00  0.00     0.010 A 
ATOM      3  C   UNL     1     129.124 128.797 124.219  1.00  0.00     0.010 A 
ATOM      4  C   UNL     1     128.807 126.111 124.926  1.00  0.00     0.004 A 
ATOM      5  C   UNL     1     129.735 128.301 125.375  1.00  0.00     0.004 A 
ATOM      6  C   UNL     1     129.583 126.951 125.741  1.00  0.00    -0.045 A 
ENDROOT
BRANCH   1   7
ATOM      7  C   UNL     1     127.704 128.484 122.184  1.00  0.00     0.071 C 
ATOM      8  O   UNL     1     126.545 128.976 122.233  1.00  0.00    -0.545 OA
ATOM      9  O   UNL     1     128.367 128.445 120.962  1.00  0.00    -0.545 OA
ENDBRANCH   1   7
BRANCH   6  10
ATOM     10  C   UNL     1     130.241 126.399 126.993  1.00  0.00     0.013 C 
ATOM     11  C   UNL     1     129.194 125.871 127.980  1.00  0.00     0.012 C 
ATOM     12  C   UNL     1     131.140 127.451 127.653  1.00  0.00     0.012 C 
ENDBRANCH   6  10
TORSDOF 2
ENDMDL
MODEL 7
REMARK VINA RESULT:    -5.619      3.418      5.514
REMARK INTER + INTRA:          -6.491
REMARK INTER:                  -6.280
REMARK INTRA:                  -0.211
REMARK UNBOUND:                -0.215
REMARK SMILES CC(C)c1ccc(C(=O)[O-])cc1
REMARK SMILES IDX 7 1 6 2 11 3 5 4 12 5 4 6 8 7 9 8 10 9 2 10 1 11 3 12
REMARK H PARENT
REMARK Flexibility Score: inf
ROOT
ATOM      1  C   UNL     1     129.700 125.669 126.191  1.00  0.00    -0.003 A 
ATOM      2  C   UNL     1     129.604 124.321 126.577  1.00  0.00     0.010 A 
ATOM      3  C   UNL     1     128.954 126.632 126.888  1.00  0.00     0.010 A 
ATOM      4  C   UNL     1     128.778 123.945 127.640  1.00  0.00     0.004 A 
ATOM      5  C   UNL     1     128.127 126.255 127.951  1.00  0.00     0.004 A 
ATOM      6  C   UNL     1     128.031 124.906 128.339  1.00  0.00    -0.045 A 
ENDROOT
BRANCH   1   7
ATOM      7  C   UNL     1     130.574 126.072 125.066  1.00  0.00     0.071 C 
ATOM      8  O   UNL     1     130.080 126.362 123.944  1.00  0.00    -0.545 OA
ATOM      9  O   UNL     1     131.953 126.135 125.231  1.00  0.00    -0.545 OA
ENDBRANCH   1   7
BRANCH   6  10
ATOM     10  C   UNL     1     127.137 124.483 129.491  1.00  0.00     0.013 C 
ATOM     11  C   UNL     1     127.085 122.957 129.618  1.00  0.00     0.012 C 
ATOM     12  C   UNL     1     125.730 125.073 129.343  1.00  0.00     0.012 C 
ENDBRANCH   6  10
TORSDOF 2
ENDMDL
MODEL 8
REMARK VINA RESULT:    -4.765      8.641     10.150
REMARK INTER + INTRA:          -5.537
REMARK INTER:                  -5.323
REMARK INTRA:                  -0.214
REMARK UNBOUND:                -0.215
REMARK SMILES CC(C)c1ccc(C(=O)[O-])cc1
REMARK SMILES IDX 7 1 6 2 11 3 5 4 12 5 4 6 8 7 9 8 10 9 2 10 1 11 3 12
REMARK H PARENT
REMARK Flexibility Score: inf
ROOT
ATOM      1  C   UNL     1     122.415 127.241 129.455  1.00  0.00    -0.003 A 
ATOM      2  C   UNL     1     121.452 126.773 130.366  1.00  0.00     0.010 A 
ATOM      3  C   UNL     1     123.393 128.144 129.903  1.00  0.00     0.010 A 
ATOM      4  C   UNL     1     121.467 127.200 131.696  1.00  0.00     0.004 A 
ATOM      5  C   UNL     1     123.407 128.571 131.234  1.00  0.00     0.004 A 
ATOM      6  C   UNL     1     122.444 128.103 132.146  1.00  0.00    -0.045 A 
ENDROOT
BRANCH   1   7
ATOM      7  C   UNL     1     122.403 126.792 128.045  1.00  0.00     0.071 C 
ATOM      8  O   UNL     1     122.267 127.624 127.110  1.00  0.00    -0.545 OA
ATOM      9  O   UNL     1     122.542 125.444 127.733  1.00  0.00    -0.545 OA
ENDBRANCH   1   7
BRANCH   6  10
ATOM     10  C   UNL     1     122.448 128.558 133.594  1.00  0.00     0.013 C 
ATOM     11  C   UNL     1     123.862 128.933 134.051  1.00  0.00     0.012 C 
ATOM     12  C   UNL     1     121.837 127.492 134.510  1.00  0.00     0.012 C 
ENDBRANCH   6  10
TORSDOF 2
ENDMDL
MODEL 9
REMARK VINA RESULT:    -4.629      9.874     10.628
REMARK INTER + INTRA:          -5.385
REMARK INTER:                  -5.171
REMARK INTRA:                  -0.214
REMARK UNBOUND:                -0.215
REMARK SMILES CC(C)c1ccc(C(=O)[O-])cc1
REMARK SMILES IDX 7 1 6 2 11 3 5 4 12 5 4 6 8 7 9 8 10 9 2 10 1 11 3 12
REMARK H PARENT
REMARK Flexibility Score: inf
ROOT
ATOM      1  C   UNL     1     120.178 125.897 132.060  1.00  0.00    -0.003 A 
ATOM      2  C   UNL     1     119.641 126.449 130.885  1.00  0.00     0.010 A 
ATOM      3  C   UNL     1     121.565 125.963 132.270  1.00  0.00     0.010 A 
ATOM      4  C   UNL     1     120.473 127.054 129.940  1.00  0.00     0.004 A 
ATOM      5  C   UNL     1     122.397 126.569 131.324  1.00  0.00     0.004 A 
ATOM      6  C   UNL     1     121.860 127.122 130.148  1.00  0.00    -0.045 A 
ENDROOT
BRANCH   1   7
ATOM      7  C   UNL     1     119.301 125.255 133.064  1.00  0.00     0.071 C 
ATOM      8  O   UNL     1     118.390 125.913 133.633  1.00  0.00    -0.545 OA
ATOM      9  O   UNL     1     119.469 123.915 133.393  1.00  0.00    -0.545 OA
ENDBRANCH   1   7
BRANCH   6  10
ATOM     10  C   UNL     1     122.753 127.782 129.112  1.00  0.00     0.013 C 
ATOM     11  C   UNL     1     122.286 127.452 127.690  1.00  0.00     0.012 C 
ATOM     12  C   UNL     1     124.220 127.388 129.317  1.00  0.00     0.012 C 
ENDBRANCH   6  10
TORSDOF 2
ENDMDL
