MODEL 1
REMARK VINA RESULT:    -5.622      0.000      0.000
REMARK INTER + INTRA:          -6.295
REMARK INTER:                  -5.951
REMARK INTRA:                  -0.344
REMARK UNBOUND:                -0.344
REMARK SMILES CC1=CC[C@H]2[C@H]3[C@@H]1[C@]2(C)CC[C@H]3C(C)C
REMARK SMILES IDX 1 1 2 2 3 3 4 4 5 5 6 6 7 7 8 8 10 9 11 10 12 11 9 12 13 13
REMARK SMILES IDX 14 14 15 15
REMARK H PARENT
REMARK Flexibility Score: inf
ROOT
ATOM      1  C   UNL     1      -0.603   5.879  10.009  1.00  0.00     0.039 C 
ATOM      2  C   UNL     1      -1.340   5.253  11.153  1.00  0.00    -0.073 C 
ATOM      3  C   UNL     1      -2.698   5.274  11.238  1.00  0.00    -0.027 C 
ATOM      4  C   UNL     1      -3.373   4.609  12.442  1.00  0.00     0.031 C 
ATOM      5  C   UNL     1      -2.303   3.954  13.375  1.00  0.00     0.003 C 
ATOM      6  C   UNL     1      -1.317   3.164  12.473  1.00  0.00     0.004 C 
ATOM      7  C   UNL     1      -0.586   4.509  12.257  1.00  0.00     0.024 C 
ATOM      8  C   UNL     1      -1.121   4.919  13.649  1.00  0.00    -0.022 C 
ATOM      9  C   UNL     1      -0.179   4.335  14.748  1.00  0.00     0.008 C 
ATOM     10  C   UNL     1      -0.112   2.785  14.712  1.00  0.00     0.005 C 
ATOM     11  C   UNL     1      -0.401   2.205  13.294  1.00  0.00    -0.005 C 
ATOM     12  C   UNL     1      -1.416   6.414  13.913  1.00  0.00     0.012 C 
ENDROOT
BRANCH  11  13
ATOM     13  C   UNL     1      -0.915   0.734  13.352  1.00  0.00    -0.014 C 
ATOM     14  C   UNL     1      -1.347   0.235  11.964  1.00  0.00     0.007 C 
ATOM     15  C   UNL     1      -2.052   0.511  14.364  1.00  0.00     0.007 C 
ENDBRANCH  11  13
TORSDOF 1
ENDMDL
MODEL 2
REMARK VINA RESULT:    -5.353      1.623      4.412
REMARK INTER + INTRA:          -6.011
REMARK INTER:                  -5.797
REMARK INTRA:                  -0.214
REMARK UNBOUND:                -0.344
REMARK SMILES CC1=CC[C@H]2[C@H]3[C@@H]1[C@]2(C)CC[C@H]3C(C)C
REMARK SMILES IDX 1 1 2 2 3 3 4 4 5 5 6 6 7 7 8 8 10 9 11 10 12 11 9 12 13 13
REMARK SMILES IDX 14 14 15 15
REMARK H PARENT
REMARK Flexibility Score: inf
ROOT
ATOM      1  C   UNL     1       0.499   5.927  14.891  1.00  0.00     0.039 C 
ATOM      2  C   UNL     1      -0.490   4.886  14.461  1.00  0.00    -0.073 C 
ATOM      3  C   UNL     1      -0.886   3.879  15.286  1.00  0.00    -0.027 C 
ATOM      4  C   UNL     1      -1.902   2.857  14.767  1.00  0.00     0.031 C 
ATOM      5  C   UNL     1      -2.349   3.220  13.314  1.00  0.00     0.003 C 
ATOM      6  C   UNL     1      -2.659   4.740  13.287  1.00  0.00     0.004 C 
ATOM      7  C   UNL     1      -1.142   4.949  13.079  1.00  0.00     0.024 C 
ATOM      8  C   UNL     1      -1.133   3.554  12.412  1.00  0.00    -0.022 C 
ATOM      9  C   UNL     1      -1.577   3.698  10.923  1.00  0.00     0.008 C 
ATOM     10  C   UNL     1      -3.011   4.273  10.783  1.00  0.00     0.005 C 
ATOM     11  C   UNL     1      -3.420   5.167  11.993  1.00  0.00    -0.005 C 
ATOM     12  C   UNL     1       0.146   2.691  12.525  1.00  0.00     0.012 C 
ENDROOT
BRANCH  11  13
ATOM     13  C   UNL     1      -4.967   5.252  12.168  1.00  0.00    -0.014 C 
ATOM     14  C   UNL     1      -5.697   5.020  10.835  1.00  0.00     0.007 C 
ATOM     15  C   UNL     1      -5.451   6.566  12.805  1.00  0.00     0.007 C 
ENDBRANCH  11  13
TORSDOF 1
ENDMDL
MODEL 3
REMARK VINA RESULT:    -5.330      1.663      4.934
REMARK INTER + INTRA:          -5.986
REMARK INTER:                  -5.711
REMARK INTRA:                  -0.275
REMARK UNBOUND:                -0.344
REMARK SMILES CC1=CC[C@H]2[C@H]3[C@@H]1[C@]2(C)CC[C@H]3C(C)C
REMARK SMILES IDX 1 1 2 2 3 3 4 4 5 5 6 6 7 7 8 8 10 9 11 10 12 11 9 12 13 13
REMARK SMILES IDX 14 14 15 15
REMARK H PARENT
REMARK Flexibility Score: inf
ROOT
ATOM      1  C   UNL     1      -1.020   1.082  11.118  1.00  0.00     0.039 C 
ATOM      2  C   UNL     1      -0.853   2.489  11.608  1.00  0.00    -0.073 C 
ATOM      3  C   UNL     1       0.196   2.864  12.388  1.00  0.00    -0.027 C 
ATOM      4  C   UNL     1       0.292   4.323  12.845  1.00  0.00     0.031 C 
ATOM      5  C   UNL     1      -0.886   5.161  12.250  1.00  0.00     0.003 C 
ATOM      6  C   UNL     1      -1.002   4.800  10.744  1.00  0.00     0.004 C 
ATOM      7  C   UNL     1      -1.841   3.583  11.198  1.00  0.00     0.024 C 
ATOM      8  C   UNL     1      -2.245   4.434  12.425  1.00  0.00    -0.022 C 
ATOM      9  C   UNL     1      -3.425   5.374  12.026  1.00  0.00     0.008 C 
ATOM     10  C   UNL     1      -3.045   6.353  10.883  1.00  0.00     0.005 C 
ATOM     11  C   UNL     1      -1.916   5.794   9.965  1.00  0.00    -0.005 C 
ATOM     12  C   UNL     1      -2.544   3.710  13.758  1.00  0.00     0.012 C 
ENDROOT
BRANCH  11  13
ATOM     13  C   UNL     1      -1.136   6.929   9.232  1.00  0.00    -0.014 C 
ATOM     14  C   UNL     1      -1.939   7.485   8.045  1.00  0.00     0.007 C 
ATOM     15  C   UNL     1       0.270   6.516   8.763  1.00  0.00     0.007 C 
ENDBRANCH  11  13
TORSDOF 1
ENDMDL
MODEL 4
REMARK VINA RESULT:    -5.203      1.060      4.349
REMARK INTER + INTRA:          -5.851
REMARK INTER:                  -5.447
REMARK INTRA:                  -0.405
REMARK UNBOUND:                -0.344
REMARK SMILES CC1=CC[C@H]2[C@H]3[C@@H]1[C@]2(C)CC[C@H]3C(C)C
REMARK SMILES IDX 1 1 2 2 3 3 4 4 5 5 6 6 7 7 8 8 10 9 11 10 12 11 9 12 13 13
REMARK SMILES IDX 14 14 15 15
REMARK H PARENT
REMARK Flexibility Score: inf
ROOT
ATOM      1  C   UNL     1      -2.464   0.635  14.522  1.00  0.00     0.039 C 
ATOM      2  C   UNL     1      -1.715   1.632  13.691  1.00  0.00    -0.073 C 
ATOM      3  C   UNL     1      -0.840   1.254  12.721  1.00  0.00    -0.027 C 
ATOM      4  C   UNL     1      -0.116   2.338  11.916  1.00  0.00     0.031 C 
ATOM      5  C   UNL     1      -0.588   3.759  12.366  1.00  0.00     0.003 C 
ATOM      6  C   UNL     1      -2.137   3.730  12.456  1.00  0.00     0.004 C 
ATOM      7  C   UNL     1      -1.950   3.133  13.869  1.00  0.00     0.024 C 
ATOM      8  C   UNL     1      -0.602   3.891  13.911  1.00  0.00    -0.022 C 
ATOM      9  C   UNL     1      -0.862   5.370  14.333  1.00  0.00     0.008 C 
ATOM     10  C   UNL     1      -1.788   6.119  13.338  1.00  0.00     0.005 C 
ATOM     11  C   UNL     1      -2.751   5.159  12.577  1.00  0.00    -0.005 C 
ATOM     12  C   UNL     1       0.561   3.280  14.728  1.00  0.00     0.012 C 
ENDROOT
BRANCH  11  13
ATOM     13  C   UNL     1      -3.230   5.758  11.219  1.00  0.00    -0.014 C 
ATOM     14  C   UNL     1      -3.780   4.667  10.286  1.00  0.00     0.007 C 
ATOM     15  C   UNL     1      -2.154   6.578  10.486  1.00  0.00     0.007 C 
ENDBRANCH  11  13
TORSDOF 1
ENDMDL
MODEL 5
REMARK VINA RESULT:    -5.159      1.534      2.599
REMARK INTER + INTRA:          -5.805
REMARK INTER:                  -5.693
REMARK INTRA:                  -0.112
REMARK UNBOUND:                -0.344
REMARK SMILES CC1=CC[C@H]2[C@H]3[C@@H]1[C@]2(C)CC[C@H]3C(C)C
REMARK SMILES IDX 1 1 2 2 3 3 4 4 5 5 6 6 7 7 8 8 10 9 11 10 12 11 9 12 13 13
REMARK SMILES IDX 14 14 15 15
REMARK H PARENT
REMARK Flexibility Score: inf
ROOT
ATOM      1  C   UNL     1       2.617   5.535  14.494  1.00  0.00     0.039 C 
ATOM      2  C   UNL     1       1.329   5.270  13.774  1.00  0.00    -0.073 C 
ATOM      3  C   UNL     1       0.909   6.040  12.734  1.00  0.00    -0.027 C 
ATOM      4  C   UNL     1      -0.421   5.700  12.053  1.00  0.00     0.031 C 
ATOM      5  C   UNL     1      -1.053   4.424  12.697  1.00  0.00     0.003 C 
ATOM      6  C   UNL     1       0.071   3.362  12.833  1.00  0.00     0.004 C 
ATOM      7  C   UNL     1       0.453   4.074  14.151  1.00  0.00     0.024 C 
ATOM      8  C   UNL     1      -1.031   4.498  14.246  1.00  0.00    -0.022 C 
ATOM      9  C   UNL     1      -1.857   3.327  14.863  1.00  0.00     0.008 C 
ATOM     10  C   UNL     1      -1.794   2.037  14.003  1.00  0.00     0.005 C 
ATOM     11  C   UNL     1      -0.489   1.943  13.157  1.00  0.00    -0.005 C 
ATOM     12  C   UNL     1      -1.371   5.838  14.939  1.00  0.00     0.012 C 
ENDROOT
BRANCH  11  13
ATOM     13  C   UNL     1      -0.663   1.030  11.904  1.00  0.00    -0.014 C 
ATOM     14  C   UNL     1      -1.376   1.773  10.763  1.00  0.00     0.007 C 
ATOM     15  C   UNL     1      -1.385  -0.297  12.195  1.00  0.00     0.007 C 
ENDBRANCH  11  13
TORSDOF 1
ENDMDL
MODEL 6
REMARK VINA RESULT:    -5.139      1.174      2.769
REMARK INTER + INTRA:          -5.783
REMARK INTER:                  -5.544
REMARK INTRA:                  -0.239
REMARK UNBOUND:                -0.344
REMARK SMILES CC1=CC[C@H]2[C@H]3[C@@H]1[C@]2(C)CC[C@H]3C(C)C
REMARK SMILES IDX 1 1 2 2 3 3 4 4 5 5 6 6 7 7 8 8 10 9 11 10 12 11 9 12 13 13
REMARK SMILES IDX 14 14 15 15
REMARK H PARENT
REMARK Flexibility Score: inf
ROOT
ATOM      1  C   UNL     1      -5.139   5.684  11.831  1.00  0.00     0.039 C 
ATOM      2  C   UNL     1      -3.700   5.616  12.246  1.00  0.00    -0.073 C 
ATOM      3  C   UNL     1      -3.116   6.589  12.995  1.00  0.00    -0.027 C 
ATOM      4  C   UNL     1      -1.639   6.440  13.378  1.00  0.00     0.031 C 
ATOM      5  C   UNL     1      -1.069   5.089  12.836  1.00  0.00     0.003 C 
ATOM      6  C   UNL     1      -2.099   3.978  13.174  1.00  0.00     0.004 C 
ATOM      7  C   UNL     1      -2.838   4.404  11.885  1.00  0.00     0.024 C 
ATOM      8  C   UNL     1      -1.459   4.861  11.354  1.00  0.00    -0.022 C 
ATOM      9  C   UNL     1      -0.704   3.626  10.771  1.00  0.00     0.008 C 
ATOM     10  C   UNL     1      -0.453   2.526  11.837  1.00  0.00     0.005 C 
ATOM     11  C   UNL     1      -1.511   2.546  12.981  1.00  0.00    -0.005 C 
ATOM     12  C   UNL     1      -1.407   6.053  10.370  1.00  0.00     0.012 C 
ENDROOT
BRANCH  11  13
ATOM     13  C   UNL     1      -0.971   1.902  14.295  1.00  0.00    -0.014 C 
ATOM     14  C   UNL     1      -1.695   0.584  14.613  1.00  0.00     0.007 C 
ATOM     15  C   UNL     1      -1.029   2.836  15.517  1.00  0.00     0.007 C 
ENDBRANCH  11  13
TORSDOF 1
ENDMDL
MODEL 7
REMARK VINA RESULT:    -5.092      1.569      4.155
REMARK INTER + INTRA:          -5.734
REMARK INTER:                  -5.317
REMARK INTRA:                  -0.418
REMARK UNBOUND:                -0.344
REMARK SMILES CC1=CC[C@H]2[C@H]3[C@@H]1[C@]2(C)CC[C@H]3C(C)C
REMARK SMILES IDX 1 1 2 2 3 3 4 4 5 5 6 6 7 7 8 8 10 9 11 10 12 11 9 12 13 13
REMARK SMILES IDX 14 14 15 15
REMARK H PARENT
REMARK Flexibility Score: inf
ROOT
ATOM      1  C   UNL     1       2.390   5.825  14.130  1.00  0.00     0.039 C 
ATOM      2  C   UNL     1       0.980   5.324  14.034  1.00  0.00    -0.073 C 
ATOM      3  C   UNL     1       0.059   5.561  15.006  1.00  0.00    -0.027 C 
ATOM      4  C   UNL     1      -1.361   5.014  14.828  1.00  0.00     0.031 C 
ATOM      5  C   UNL     1      -1.495   4.282  13.453  1.00  0.00     0.003 C 
ATOM      6  C   UNL     1      -0.846   5.191  12.375  1.00  0.00     0.004 C 
ATOM      7  C   UNL     1       0.503   4.564  12.795  1.00  0.00     0.024 C 
ATOM      8  C   UNL     1      -0.309   3.314  13.207  1.00  0.00    -0.022 C 
ATOM      9  C   UNL     1      -0.570   2.438  11.943  1.00  0.00     0.008 C 
ATOM     10  C   UNL     1      -1.387   3.188  10.857  1.00  0.00     0.005 C 
ATOM     11  C   UNL     1      -1.197   4.734  10.925  1.00  0.00    -0.005 C 
ATOM     12  C   UNL     1       0.212   2.450  14.379  1.00  0.00     0.012 C 
ENDROOT
BRANCH  11  13
ATOM     13  C   UNL     1      -2.397   5.504  10.292  1.00  0.00    -0.014 C 
ATOM     14  C   UNL     1      -2.551   6.905  10.905  1.00  0.00     0.007 C 
ATOM     15  C   UNL     1      -3.735   4.748  10.375  1.00  0.00     0.007 C 
ENDBRANCH  11  13
TORSDOF 1
ENDMDL
MODEL 8
REMARK VINA RESULT:    -5.004      1.374      3.901
REMARK INTER + INTRA:          -5.641
REMARK INTER:                  -5.255
REMARK INTRA:                  -0.386
REMARK UNBOUND:                -0.344
REMARK SMILES CC1=CC[C@H]2[C@H]3[C@@H]1[C@]2(C)CC[C@H]3C(C)C
REMARK SMILES IDX 1 1 2 2 3 3 4 4 5 5 6 6 7 7 8 8 10 9 11 10 12 11 9 12 13 13
REMARK SMILES IDX 14 14 15 15
REMARK H PARENT
REMARK Flexibility Score: inf
ROOT
ATOM      1  C   UNL     1      -4.636   5.064  12.057  1.00  0.00     0.039 C 
ATOM      2  C   UNL     1      -3.158   5.054  11.808  1.00  0.00    -0.073 C 
ATOM      3  C   UNL     1      -2.599   5.685  10.740  1.00  0.00    -0.027 C 
ATOM      4  C   UNL     1      -1.079   5.626  10.561  1.00  0.00     0.031 C 
ATOM      5  C   UNL     1      -0.420   4.839  11.740  1.00  0.00     0.003 C 
ATOM      6  C   UNL     1      -1.050   5.361  13.059  1.00  0.00     0.004 C 
ATOM      7  C   UNL     1      -2.204   4.369  12.789  1.00  0.00     0.024 C 
ATOM      8  C   UNL     1      -1.167   3.512  12.026  1.00  0.00    -0.022 C 
ATOM      9  C   UNL     1      -0.372   2.644  13.050  1.00  0.00     0.008 C 
ATOM     10  C   UNL     1       0.403   3.504  14.083  1.00  0.00     0.005 C 
ATOM     11  C   UNL     1      -0.256   4.896  14.319  1.00  0.00    -0.005 C 
ATOM     12  C   UNL     1      -1.655   2.652  10.836  1.00  0.00     0.012 C 
ENDROOT
BRANCH  11  13
ATOM     13  C   UNL     1       0.765   5.950  14.848  1.00  0.00    -0.014 C 
ATOM     14  C   UNL     1       0.570   7.313  14.164  1.00  0.00     0.007 C 
ATOM     15  C   UNL     1       2.234   5.511  14.724  1.00  0.00     0.007 C 
ENDBRANCH  11  13
TORSDOF 1
ENDMDL
MODEL 9
REMARK VINA RESULT:    -4.979      2.010      4.507
REMARK INTER + INTRA:          -5.614
REMARK INTER:                  -5.362
REMARK INTRA:                  -0.252
REMARK UNBOUND:                -0.344
REMARK SMILES CC1=CC[C@H]2[C@H]3[C@@H]1[C@]2(C)CC[C@H]3C(C)C
REMARK SMILES IDX 1 1 2 2 3 3 4 4 5 5 6 6 7 7 8 8 10 9 11 10 12 11 9 12 13 13
REMARK SMILES IDX 14 14 15 15
REMARK H PARENT
REMARK Flexibility Score: inf
ROOT
ATOM      1  C   UNL     1      -0.642   1.361  11.947  1.00  0.00     0.039 C 
ATOM      2  C   UNL     1      -0.783   2.385  13.033  1.00  0.00    -0.073 C 
ATOM      3  C   UNL     1      -1.302   2.080  14.252  1.00  0.00    -0.027 C 
ATOM      4  C   UNL     1      -1.410   3.187  15.306  1.00  0.00     0.031 C 
ATOM      5  C   UNL     1      -0.823   4.526  14.754  1.00  0.00     0.003 C 
ATOM      6  C   UNL     1       0.534   4.196  14.076  1.00  0.00     0.004 C 
ATOM      7  C   UNL     1      -0.291   3.819  12.825  1.00  0.00     0.024 C 
ATOM      8  C   UNL     1      -1.347   4.831  13.327  1.00  0.00    -0.022 C 
ATOM      9  C   UNL     1      -0.927   6.267  12.884  1.00  0.00     0.008 C 
ATOM     10  C   UNL     1       0.445   6.693  13.471  1.00  0.00     0.005 C 
ATOM     11  C   UNL     1       1.372   5.477  13.773  1.00  0.00    -0.005 C 
ATOM     12  C   UNL     1      -2.836   4.566  13.001  1.00  0.00     0.012 C 
ENDROOT
BRANCH  11  13
ATOM     13  C   UNL     1       2.440   5.806  14.861  1.00  0.00    -0.014 C 
ATOM     14  C   UNL     1       2.144   7.148  15.551  1.00  0.00     0.007 C 
ATOM     15  C   UNL     1       3.886   5.797  14.337  1.00  0.00     0.007 C 
ENDBRANCH  11  13
TORSDOF 1
ENDMDL
