MODEL 1
REMARK VINA RESULT:    -3.251      0.000      0.000
REMARK INTER + INTRA:          -3.989
REMARK INTER:                  -3.821
REMARK INTRA:                  -0.169
REMARK UNBOUND:                -0.169
REMARK SMILES COc1ccc(C=CC(=O)[O-])cc1
REMARK SMILES IDX 6 1 5 2 12 3 4 4 13 5 3 6 7 7 8 8 9 9 10 10 11 11 2 12 1 13
REMARK H PARENT
REMARK Flexibility Score: inf
ROOT
ATOM      1  C   UNL     1       3.174   1.164 -18.749  1.00  0.00    -0.025 A 
ATOM      2  C   UNL     1       3.485   2.514 -18.492  1.00  0.00     0.012 A 
ATOM      3  C   UNL     1       3.140   0.262 -17.673  1.00  0.00     0.012 A 
ATOM      4  C   UNL     1       3.728   2.948 -17.185  1.00  0.00     0.047 A 
ATOM      5  C   UNL     1       3.383   0.699 -16.367  1.00  0.00     0.047 A 
ATOM      6  C   UNL     1       3.677   2.050 -16.114  1.00  0.00     0.118 A 
ENDROOT
BRANCH   1   7
ATOM      7  C   UNL     1       2.919   0.648 -20.116  1.00  0.00     0.010 C 
ATOM      8  C   UNL     1       3.259  -0.584 -20.523  1.00  0.00     0.025 C 
BRANCH   8   9
ATOM      9  C   UNL     1       3.001  -1.059 -21.892  1.00  0.00     0.064 C 
ATOM     10  O   UNL     1       2.894  -2.290 -22.145  1.00  0.00    -0.545 OA
ATOM     11  O   UNL     1       2.875  -0.137 -22.922  1.00  0.00    -0.545 OA
ENDBRANCH   8   9
ENDBRANCH   1   7
BRANCH   6  12
ATOM     12  O   UNL     1       3.927   2.537 -14.822  1.00  0.00    -0.497 OA
ATOM     13  C   UNL     1       5.208   2.548 -14.201  1.00  0.00     0.278 C 
ENDBRANCH   6  12
TORSDOF 3
ENDMDL
MODEL 2
REMARK VINA RESULT:    -3.144      1.176      6.207
REMARK INTER + INTRA:          -3.864
REMARK INTER:                  -3.702
REMARK INTRA:                  -0.162
REMARK UNBOUND:                -0.169
REMARK SMILES COc1ccc(C=CC(=O)[O-])cc1
REMARK SMILES IDX 6 1 5 2 12 3 4 4 13 5 3 6 7 7 8 8 9 9 10 10 11 11 2 12 1 13
REMARK H PARENT
REMARK Flexibility Score: inf
ROOT
ATOM      1  C   UNL     1       3.025   1.338 -18.170  1.00  0.00    -0.025 A 
ATOM      2  C   UNL     1       2.924   2.186 -19.291  1.00  0.00     0.012 A 
ATOM      3  C   UNL     1       3.052  -0.051 -18.374  1.00  0.00     0.012 A 
ATOM      4  C   UNL     1       2.880   1.650 -20.582  1.00  0.00     0.047 A 
ATOM      5  C   UNL     1       3.008  -0.584 -19.665  1.00  0.00     0.047 A 
ATOM      6  C   UNL     1       2.923   0.267 -20.781  1.00  0.00     0.118 A 
ENDROOT
BRANCH   1   7
ATOM      7  C   UNL     1       3.064   1.853 -16.779  1.00  0.00     0.010 C 
ATOM      8  C   UNL     1       4.171   2.328 -16.192  1.00  0.00     0.025 C 
BRANCH   8   9
ATOM      9  C   UNL     1       4.176   2.820 -14.804  1.00  0.00     0.064 C 
ATOM     10  O   UNL     1       3.161   3.380 -14.308  1.00  0.00    -0.545 OA
ATOM     11  O   UNL     1       5.317   2.666 -14.029  1.00  0.00    -0.545 OA
ENDBRANCH   8   9
ENDBRANCH   1   7
BRANCH   6  12
ATOM     12  O   UNL     1       2.878  -0.219 -22.097  1.00  0.00    -0.497 OA
ATOM     13  C   UNL     1       2.918   0.602 -23.260  1.00  0.00     0.278 C 
ENDBRANCH   6  12
TORSDOF 3
ENDMDL
MODEL 3
REMARK VINA RESULT:    -2.029      1.268      6.244
REMARK INTER + INTRA:          -2.554
REMARK INTER:                  -2.389
REMARK INTRA:                  -0.165
REMARK UNBOUND:                -0.169
REMARK SMILES COc1ccc(C=CC(=O)[O-])cc1
REMARK SMILES IDX 6 1 5 2 12 3 4 4 13 5 3 6 7 7 8 8 9 9 10 10 11 11 2 12 1 13
REMARK H PARENT
REMARK Flexibility Score: inf
ROOT
ATOM      1  C   UNL     1       3.235   0.559 -18.828  1.00  0.00    -0.025 A 
ATOM      2  C   UNL     1       3.265  -0.721 -19.416  1.00  0.00     0.012 A 
ATOM      3  C   UNL     1       3.108   1.682 -19.660  1.00  0.00     0.012 A 
ATOM      4  C   UNL     1       3.141  -0.867 -20.801  1.00  0.00     0.047 A 
ATOM      5  C   UNL     1       2.984   1.534 -21.045  1.00  0.00     0.047 A 
ATOM      6  C   UNL     1       2.998   0.254 -21.626  1.00  0.00     0.118 A 
ENDROOT
BRANCH   1   7
ATOM      7  C   UNL     1       3.374   0.771 -17.366  1.00  0.00     0.010 C 
ATOM      8  C   UNL     1       4.245   1.629 -16.817  1.00  0.00     0.025 C 
BRANCH   8   9
ATOM      9  C   UNL     1       4.363   1.806 -15.360  1.00  0.00     0.064 C 
ATOM     10  O   UNL     1       5.079   1.034 -14.666  1.00  0.00    -0.545 OA
ATOM     11  O   UNL     1       3.675   2.840 -14.739  1.00  0.00    -0.545 OA
ENDBRANCH   8   9
ENDBRANCH   1   7
BRANCH   6  12
ATOM     12  O   UNL     1       2.876   0.053 -23.009  1.00  0.00    -0.497 OA
ATOM     13  C   UNL     1       3.565   0.813 -23.996  1.00  0.00     0.278 C 
ENDBRANCH   6  12
TORSDOF 3
ENDMDL
MODEL 4
REMARK VINA RESULT:    -1.503      1.368      1.801
REMARK INTER + INTRA:          -1.935
REMARK INTER:                  -1.775
REMARK INTRA:                  -0.160
REMARK UNBOUND:                -0.169
REMARK SMILES COc1ccc(C=CC(=O)[O-])cc1
REMARK SMILES IDX 6 1 5 2 12 3 4 4 13 5 3 6 7 7 8 8 9 9 10 10 11 11 2 12 1 13
REMARK H PARENT
REMARK Flexibility Score: inf
ROOT
ATOM      1  C   UNL     1       3.004   0.194 -19.457  1.00  0.00    -0.025 A 
ATOM      2  C   UNL     1       2.890   1.539 -19.856  1.00  0.00     0.012 A 
ATOM      3  C   UNL     1       3.194  -0.093 -18.095  1.00  0.00     0.012 A 
ATOM      4  C   UNL     1       2.939   2.566 -18.908  1.00  0.00     0.047 A 
ATOM      5  C   UNL     1       3.241   0.935 -17.149  1.00  0.00     0.047 A 
ATOM      6  C   UNL     1       3.112   2.276 -17.551  1.00  0.00     0.118 A 
ENDROOT
BRANCH   1   7
ATOM      7  C   UNL     1       2.970  -0.933 -20.421  1.00  0.00     0.010 C 
ATOM      8  C   UNL     1       4.022  -1.311 -21.162  1.00  0.00     0.025 C 
BRANCH   8   9
ATOM      9  C   UNL     1       3.950  -2.428 -22.119  1.00  0.00     0.064 C 
ATOM     10  O   UNL     1       2.875  -2.705 -22.717  1.00  0.00    -0.545 OA
ATOM     11  O   UNL     1       5.084  -3.188 -22.368  1.00  0.00    -0.545 OA
ENDBRANCH   8   9
ENDBRANCH   1   7
BRANCH   6  12
ATOM     12  O   UNL     1       3.153   3.342 -16.640  1.00  0.00    -0.497 OA
ATOM     13  C   UNL     1       4.045   3.422 -15.534  1.00  0.00     0.278 C 
ENDBRANCH   6  12
TORSDOF 3
ENDMDL
