MODEL 1
REMARK VINA RESULT:    22.774      0.000      0.000
REMARK INTER + INTRA:          31.917
REMARK INTER:                  32.759
REMARK INTRA:                  -0.842
REMARK UNBOUND:                -0.842
REMARK SMILES O=c1cc(-c2ccc(O)c(O)c2)oc2cc(O[C@H]3O[C@@H](CO)[C@H](O)[C@H](O)[C@H]3O)cc(O)c12
REMARK SMILES IDX 17 1 16 2 4 3 3 4 13 5 2 6 14 7 1 8 32 9 15 10 30 11 29 12
REMARK SMILES IDX 5 13 6 14 7 15 8 16 12 17 10 18 9 19 11 21 31 23 18 25 27 26
REMARK SMILES IDX 19 27 25 28 20 29 23 30 28 31 26 33 21 35 22 36 24 38
REMARK H PARENT 9 20 11 22 31 24 28 32 26 34 22 37 24 39
REMARK Flexibility Score: inf
ROOT
ATOM      1  O   UNL     1     104.113 103.383 100.333  1.00  0.00    -0.462 OA
ENDROOT
BRANCH   1   2
ATOM      2  C   UNL     1     104.196 104.119 101.528  1.00  0.00     0.130 A 
ATOM      3  C   UNL     1     103.936 103.946 106.289  1.00  0.00     0.138 A 
ATOM      4  C   UNL     1     104.188 105.323 106.416  1.00  0.00     0.100 A 
ATOM      5  O   UNL     1     103.885 103.400 105.076  1.00  0.00    -0.456 OA
ATOM      6  C   UNL     1     104.395 106.091 105.270  1.00  0.00     0.197 A 
ATOM      7  C   UNL     1     104.075 104.090 103.955  1.00  0.00     0.146 A 
ATOM      8  O   UNL     1     104.620 107.325 105.394  1.00  0.00    -0.289 OA
ATOM      9  C   UNL     1     104.344 105.477 104.001  1.00  0.00     0.107 A 
ATOM     10  C   UNL     1     104.004 103.428 102.727  1.00  0.00     0.094 A 
ATOM     11  C   UNL     1     104.543 106.181 102.793  1.00  0.00     0.134 A 
ATOM     12  C   UNL     1     104.470 105.499 101.568  1.00  0.00     0.093 A 
BRANCH   3  13
ATOM     13  C   UNL     1     103.708 103.079 107.472  1.00  0.00     0.021 A 
ATOM     14  C   UNL     1     103.468 101.698 107.342  1.00  0.00     0.016 A 
ATOM     15  C   UNL     1     103.247 100.908 108.474  1.00  0.00     0.051 A 
ATOM     16  C   UNL     1     103.255 101.483 109.751  1.00  0.00     0.157 A 
ATOM     17  C   UNL     1     103.701 103.650 108.757  1.00  0.00     0.062 A 
ATOM     18  C   UNL     1     103.481 102.861 109.891  1.00  0.00     0.158 A 
BRANCH  16  19
ATOM     19  O   UNL     1     103.036 100.691 110.877  1.00  0.00    -0.504 OA
ATOM     20  H   UNL     1     103.491 100.887 111.761  1.00  0.00     0.293 HD
ENDBRANCH  16  19
BRANCH  18  21
ATOM     21  O   UNL     1     103.492 103.465 111.149  1.00  0.00    -0.504 OA
ATOM     22  H   UNL     1     104.345 103.581 111.683  1.00  0.00     0.293 HD
ENDBRANCH  18  21
ENDBRANCH   3  13
BRANCH  11  23
ATOM     23  O   UNL     1     104.812 107.550 102.797  1.00  0.00    -0.507 OA
ATOM     24  H   UNL     1     105.698 107.921 102.475  1.00  0.00     0.293 HD
ENDBRANCH  11  23
ENDBRANCH   1   2
BRANCH   1  25
ATOM     25  C   UNL     1     102.935 103.120  99.562  1.00  0.00     0.339 C 
ATOM     26  C   UNL     1     103.017 101.770  98.817  1.00  0.00     0.214 C 
ATOM     27  O   UNL     1     102.675 104.201  98.676  1.00  0.00    -0.332 OA
ATOM     28  C   UNL     1     104.085 101.834  97.716  1.00  0.00     0.180 C 
ATOM     29  C   UNL     1     103.634 104.350  97.633  1.00  0.00     0.179 C 
ATOM     30  C   UNL     1     103.847 103.052  96.809  1.00  0.00     0.177 C 
BRANCH  26  31
ATOM     31  O   UNL     1     103.322 100.741  99.721  1.00  0.00    -0.384 OA
ATOM     32  H   UNL     1     102.696 100.830 100.487  1.00  0.00     0.211 HD
ENDBRANCH  26  31
BRANCH  28  33
ATOM     33  O   UNL     1     104.056 100.664  96.940  1.00  0.00    -0.387 OA
ATOM     34  H   UNL     1     104.597 100.840  96.126  1.00  0.00     0.211 HD
ENDBRANCH  28  33
BRANCH  29  35
ATOM     35  C   UNL     1     104.952 104.984  98.124  1.00  0.00     0.191 C 
BRANCH  35  36
ATOM     36  O   UNL     1     104.826 106.380  98.157  1.00  0.00    -0.394 OA
ATOM     37  H   UNL     1     105.682 106.742  97.809  1.00  0.00     0.210 HD
ENDBRANCH  35  36
ENDBRANCH  29  35
BRANCH  30  38
ATOM     38  O   UNL     1     102.766 102.827  95.935  1.00  0.00    -0.387 OA
ATOM     39  H   UNL     1     102.946 103.307  95.086  1.00  0.00     0.211 HD
ENDBRANCH  30  38
ENDBRANCH   1  25
TORSDOF 11
ENDMDL
MODEL 2
REMARK VINA RESULT:    22.785      1.960      4.079
REMARK INTER + INTRA:          31.933
REMARK INTER:                  32.800
REMARK INTRA:                  -0.867
REMARK UNBOUND:                -0.842
REMARK SMILES O=c1cc(-c2ccc(O)c(O)c2)oc2cc(O[C@H]3O[C@@H](CO)[C@H](O)[C@H](O)[C@H]3O)cc(O)c12
REMARK SMILES IDX 17 1 16 2 4 3 3 4 13 5 2 6 14 7 1 8 32 9 15 10 30 11 29 12
REMARK SMILES IDX 5 13 6 14 7 15 8 16 12 17 10 18 9 19 11 21 31 23 18 25 27 26
REMARK SMILES IDX 19 27 25 28 20 29 23 30 28 31 26 33 21 35 22 36 24 38
REMARK H PARENT 9 20 11 22 31 24 28 32 26 34 22 37 24 39
REMARK Flexibility Score: inf
ROOT
ATOM      1  O   UNL     1     103.929 104.906 100.356  1.00  0.00    -0.462 OA
ENDROOT
BRANCH   1   2
ATOM      2  C   UNL     1     103.840 104.176 101.554  1.00  0.00     0.130 A 
ATOM      3  C   UNL     1     104.081 104.370 106.315  1.00  0.00     0.138 A 
ATOM      4  C   UNL     1     103.827 102.994 106.447  1.00  0.00     0.100 A 
ATOM      5  O   UNL     1     104.137 104.911 105.099  1.00  0.00    -0.456 OA
ATOM      6  C   UNL     1     103.625 102.221 105.304  1.00  0.00     0.197 A 
ATOM      7  C   UNL     1     103.952 104.216 103.981  1.00  0.00     0.146 A 
ATOM      8  O   UNL     1     103.399 100.987 105.432  1.00  0.00    -0.289 OA
ATOM      9  C   UNL     1     103.681 102.829 104.033  1.00  0.00     0.107 A 
ATOM     10  C   UNL     1     104.027 104.872 102.751  1.00  0.00     0.094 A 
ATOM     11  C   UNL     1     103.487 102.120 102.826  1.00  0.00     0.134 A 
ATOM     12  C   UNL     1     103.565 102.796 101.599  1.00  0.00     0.093 A 
BRANCH   3  13
ATOM     13  C   UNL     1     104.304 105.243 107.495  1.00  0.00     0.021 A 
ATOM     14  C   UNL     1     104.533 106.626 107.361  1.00  0.00     0.016 A 
ATOM     15  C   UNL     1     104.750 107.420 108.489  1.00  0.00     0.051 A 
ATOM     16  C   UNL     1     104.750 106.849 109.769  1.00  0.00     0.157 A 
ATOM     17  C   UNL     1     104.319 104.675 108.782  1.00  0.00     0.062 A 
ATOM     18  C   UNL     1     104.535 105.469 109.913  1.00  0.00     0.158 A 
BRANCH  16  19
ATOM     19  O   UNL     1     104.965 107.646 110.892  1.00  0.00    -0.504 OA
ATOM     20  H   UNL     1     105.265 108.611 110.809  1.00  0.00     0.293 HD
ENDBRANCH  16  19
BRANCH  18  21
ATOM     21  O   UNL     1     104.533 104.869 111.172  1.00  0.00    -0.504 OA
ATOM     22  H   UNL     1     105.070 104.033 111.371  1.00  0.00     0.293 HD
ENDBRANCH  18  21
ENDBRANCH   3  13
BRANCH  11  23
ATOM     23  O   UNL     1     103.217 100.751 102.836  1.00  0.00    -0.507 OA
ATOM     24  H   UNL     1     102.762 100.302 103.623  1.00  0.00     0.293 HD
ENDBRANCH  11  23
ENDBRANCH   1   2
BRANCH   1  25
ATOM     25  C   UNL     1     105.110 105.166  99.589  1.00  0.00     0.339 C 
ATOM     26  C   UNL     1     105.044 106.527  98.862  1.00  0.00     0.214 C 
ATOM     27  O   UNL     1     105.359 104.095  98.689  1.00  0.00    -0.332 OA
ATOM     28  C   UNL     1     103.975 106.490  97.761  1.00  0.00     0.180 C 
ATOM     29  C   UNL     1     104.399 103.970  97.643  1.00  0.00     0.179 C 
ATOM     30  C   UNL     1     104.201 105.282  96.837  1.00  0.00     0.177 C 
BRANCH  26  31
ATOM     31  O   UNL     1     104.750 107.547  99.781  1.00  0.00    -0.384 OA
ATOM     32  H   UNL     1     104.129 108.177  99.329  1.00  0.00     0.211 HD
ENDBRANCH  26  31
BRANCH  28  33
ATOM     33  O   UNL     1     104.018 107.671  97.000  1.00  0.00    -0.387 OA
ATOM     34  H   UNL     1     103.292 107.609  96.326  1.00  0.00     0.211 HD
ENDBRANCH  28  33
BRANCH  29  35
ATOM     35  C   UNL     1     103.073 103.345  98.125  1.00  0.00     0.191 C 
BRANCH  35  36
ATOM     36  O   UNL     1     103.180 101.947  98.127  1.00  0.00    -0.394 OA
ATOM     37  H   UNL     1     102.926 101.650  97.214  1.00  0.00     0.210 HD
ENDBRANCH  35  36
ENDBRANCH  29  35
BRANCH  30  38
ATOM     38  O   UNL     1     105.285 105.507  95.966  1.00  0.00    -0.387 OA
ATOM     39  H   UNL     1     105.636 106.420  96.134  1.00  0.00     0.211 HD
ENDBRANCH  30  38
ENDBRANCH   1  25
TORSDOF 11
ENDMDL
MODEL 3
REMARK VINA RESULT:    24.842      1.863      9.522
REMARK INTER + INTRA:          34.892
REMARK INTER:                  35.638
REMARK INTRA:                  -0.746
REMARK UNBOUND:                -0.842
REMARK SMILES O=c1cc(-c2ccc(O)c(O)c2)oc2cc(O[C@H]3O[C@@H](CO)[C@H](O)[C@H](O)[C@H]3O)cc(O)c12
REMARK SMILES IDX 17 1 16 2 4 3 3 4 13 5 2 6 14 7 1 8 32 9 15 10 30 11 29 12
REMARK SMILES IDX 5 13 6 14 7 15 8 16 12 17 10 18 9 19 11 21 31 23 18 25 27 26
REMARK SMILES IDX 19 27 25 28 20 29 23 30 28 31 26 33 21 35 22 36 24 38
REMARK H PARENT 9 20 11 22 31 24 28 32 26 34 22 37 24 39
REMARK Flexibility Score: inf
ROOT
ATOM      1  O   UNL     1     104.002 105.076 109.076  1.00  0.00    -0.462 OA
ENDROOT
BRANCH   1   2
ATOM      2  C   UNL     1     104.209 105.528 107.761  1.00  0.00     0.130 A 
ATOM      3  C   UNL     1     104.072 104.381 103.132  1.00  0.00     0.138 A 
ATOM      4  C   UNL     1     104.499 105.660 102.738  1.00  0.00     0.100 A 
ATOM      5  O   UNL     1     103.928 104.110 104.428  1.00  0.00    -0.456 OA
ATOM      6  C   UNL     1     104.752 106.628 103.709  1.00  0.00     0.197 A 
ATOM      7  C   UNL     1     104.157 104.999 105.390  1.00  0.00     0.146 A 
ATOM      8  O   UNL     1     105.136 107.773 103.345  1.00  0.00    -0.289 OA
ATOM      9  C   UNL     1     104.580 106.311 105.072  1.00  0.00     0.107 A 
ATOM     10  C   UNL     1     103.976 104.623 106.722  1.00  0.00     0.094 A 
ATOM     11  C   UNL     1     104.812 107.232 106.117  1.00  0.00     0.134 A 
ATOM     12  C   UNL     1     104.624 106.837 107.451  1.00  0.00     0.093 A 
BRANCH   3  13
ATOM     13  C   UNL     1     103.788 103.310 102.144  1.00  0.00     0.021 A 
ATOM     14  C   UNL     1     103.635 101.965 102.533  1.00  0.00     0.016 A 
ATOM     15  C   UNL     1     103.379 100.978 101.579  1.00  0.00     0.051 A 
ATOM     16  C   UNL     1     103.277 101.311 100.222  1.00  0.00     0.157 A 
ATOM     17  C   UNL     1     103.698 103.635 100.778  1.00  0.00     0.062 A 
ATOM     18  C   UNL     1     103.440 102.647  99.822  1.00  0.00     0.158 A 
BRANCH  16  19
ATOM     19  O   UNL     1     103.018 100.323  99.275  1.00  0.00    -0.504 OA
ATOM     20  H   UNL     1     102.132 100.273  98.786  1.00  0.00     0.293 HD
ENDBRANCH  16  19
BRANCH  18  21
ATOM     21  O   UNL     1     103.349 103.013  98.479  1.00  0.00    -0.504 OA
ATOM     22  H   UNL     1     103.049 103.937  98.192  1.00  0.00     0.293 HD
ENDBRANCH  18  21
ENDBRANCH   3  13
BRANCH  11  23
ATOM     23  O   UNL     1     105.229 108.535 105.843  1.00  0.00    -0.507 OA
ATOM     24  H   UNL     1     105.111 108.952 104.927  1.00  0.00     0.293 HD
ENDBRANCH  11  23
ENDBRANCH   1   2
BRANCH   1  25
ATOM     25  C   UNL     1     104.645 103.970 109.720  1.00  0.00     0.339 C 
ATOM     26  C   UNL     1     103.654 102.833 110.049  1.00  0.00     0.214 C 
ATOM     27  O   UNL     1     105.348 104.412 110.873  1.00  0.00    -0.332 OA
ATOM     28  C   UNL     1     102.672 103.283 111.140  1.00  0.00     0.180 C 
ATOM     29  C   UNL     1     104.512 104.872 111.932  1.00  0.00     0.179 C 
ATOM     30  C   UNL     1     103.436 103.836 112.353  1.00  0.00     0.177 C 
BRANCH  26  31
ATOM     31  O   UNL     1     102.949 102.461 108.893  1.00  0.00    -0.384 OA
ATOM     32  H   UNL     1     103.620 102.167 108.224  1.00  0.00     0.211 HD
ENDBRANCH  26  31
BRANCH  28  33
ATOM     33  O   UNL     1     101.870 102.204 111.549  1.00  0.00    -0.387 OA
ATOM     34  H   UNL     1     102.237 101.388 111.118  1.00  0.00     0.211 HD
ENDBRANCH  28  33
BRANCH  29  35
ATOM     35  C   UNL     1     103.934 106.277 111.664  1.00  0.00     0.191 C 
BRANCH  35  36
ATOM     36  O   UNL     1     104.640 107.231 112.410  1.00  0.00    -0.394 OA
ATOM     37  H   UNL     1     105.016 107.873 111.752  1.00  0.00     0.210 HD
ENDBRANCH  35  36
ENDBRANCH  29  35
BRANCH  30  38
ATOM     38  O   UNL     1     104.009 102.794 113.108  1.00  0.00    -0.387 OA
ATOM     39  H   UNL     1     103.397 102.581 113.860  1.00  0.00     0.211 HD
ENDBRANCH  30  38
ENDBRANCH   1  25
TORSDOF 11
ENDMDL
MODEL 4
REMARK VINA RESULT:    24.857      2.407     10.265
REMARK INTER + INTRA:          34.915
REMARK INTER:                  35.645
REMARK INTRA:                  -0.730
REMARK UNBOUND:                -0.842
REMARK SMILES O=c1cc(-c2ccc(O)c(O)c2)oc2cc(O[C@H]3O[C@@H](CO)[C@H](O)[C@H](O)[C@H]3O)cc(O)c12
REMARK SMILES IDX 17 1 16 2 4 3 3 4 13 5 2 6 14 7 1 8 32 9 15 10 30 11 29 12
REMARK SMILES IDX 5 13 6 14 7 15 8 16 12 17 10 18 9 19 11 21 31 23 18 25 27 26
REMARK SMILES IDX 19 27 25 28 20 29 23 30 28 31 26 33 21 35 22 36 24 38
REMARK H PARENT 9 20 11 22 31 24 28 32 26 34 22 37 24 39
REMARK Flexibility Score: inf
ROOT
ATOM      1  O   UNL     1     103.968 103.149 109.081  1.00  0.00    -0.462 OA
ENDROOT
BRANCH   1   2
ATOM      2  C   UNL     1     103.764 102.706 107.762  1.00  0.00     0.130 A 
ATOM      3  C   UNL     1     103.916 103.881 103.141  1.00  0.00     0.138 A 
ATOM      4  C   UNL     1     103.488 102.605 102.738  1.00  0.00     0.100 A 
ATOM      5  O   UNL     1     104.056 104.144 104.439  1.00  0.00    -0.456 OA
ATOM      6  C   UNL     1     103.231 101.631 103.702  1.00  0.00     0.197 A 
ATOM      7  C   UNL     1     103.823 103.249 105.395  1.00  0.00     0.146 A 
ATOM      8  O   UNL     1     102.847 100.489 103.330  1.00  0.00    -0.289 OA
ATOM      9  C   UNL     1     103.400 101.940 105.067  1.00  0.00     0.107 A 
ATOM     10  C   UNL     1     104.000 103.617 106.730  1.00  0.00     0.094 A 
ATOM     11  C   UNL     1     103.163 101.013 106.106  1.00  0.00     0.134 A 
ATOM     12  C   UNL     1     103.348 101.399 107.443  1.00  0.00     0.093 A 
BRANCH   3  13
ATOM     13  C   UNL     1     104.203 104.958 102.160  1.00  0.00     0.021 A 
ATOM     14  C   UNL     1     104.360 106.300 102.559  1.00  0.00     0.016 A 
ATOM     15  C   UNL     1     104.621 107.293 101.612  1.00  0.00     0.051 A 
ATOM     16  C   UNL     1     104.722 106.968 100.253  1.00  0.00     0.157 A 
ATOM     17  C   UNL     1     104.293 104.642 100.793  1.00  0.00     0.062 A 
ATOM     18  C   UNL     1     104.555 105.635  99.844  1.00  0.00     0.158 A 
BRANCH  16  19
ATOM     19  O   UNL     1     104.984 107.962  99.312  1.00  0.00    -0.504 OA
ATOM     20  H   UNL     1     104.258 108.590  98.986  1.00  0.00     0.293 HD
ENDBRANCH  16  19
BRANCH  18  21
ATOM     21  O   UNL     1     104.645 105.279  98.498  1.00  0.00    -0.504 OA
ATOM     22  H   UNL     1     105.445 105.529  97.928  1.00  0.00     0.293 HD
ENDBRANCH  18  21
ENDBRANCH   3  13
BRANCH  11  23
ATOM     23  O   UNL     1     102.746  99.711 105.823  1.00  0.00    -0.507 OA
ATOM     24  H   UNL     1     102.722  99.352 104.875  1.00  0.00     0.293 HD
ENDBRANCH  11  23
ENDBRANCH   1   2
BRANCH   1  25
ATOM     25  C   UNL     1     103.340 104.265 109.723  1.00  0.00     0.339 C 
ATOM     26  C   UNL     1     104.346 105.390 110.046  1.00  0.00     0.214 C 
ATOM     27  O   UNL     1     102.634 103.835 110.879  1.00  0.00    -0.332 OA
ATOM     28  C   UNL     1     105.325 104.932 111.136  1.00  0.00     0.180 C 
ATOM     29  C   UNL     1     103.467 103.368 111.937  1.00  0.00     0.179 C 
ATOM     30  C   UNL     1     104.557 104.392 112.353  1.00  0.00     0.177 C 
BRANCH  26  31
ATOM     31  O   UNL     1     105.052 105.750 108.888  1.00  0.00    -0.384 OA
ATOM     32  H   UNL     1     104.404 106.180 108.272  1.00  0.00     0.211 HD
ENDBRANCH  26  31
BRANCH  28  33
ATOM     33  O   UNL     1     106.142 106.002 111.540  1.00  0.00    -0.387 OA
ATOM     34  H   UNL     1     106.296 105.899 112.515  1.00  0.00     0.211 HD
ENDBRANCH  28  33
BRANCH  29  35
ATOM     35  C   UNL     1     104.028 101.955 111.672  1.00  0.00     0.191 C 
BRANCH  35  36
ATOM     36  O   UNL     1     103.304 101.010 112.413  1.00  0.00    -0.394 OA
ATOM     37  H   UNL     1     103.969 100.354 112.748  1.00  0.00     0.210 HD
ENDBRANCH  35  36
ENDBRANCH  29  35
BRANCH  30  38
ATOM     38  O   UNL     1     104.000 105.443 113.106  1.00  0.00    -0.387 OA
ATOM     39  H   UNL     1     103.257 105.842 112.583  1.00  0.00     0.211 HD
ENDBRANCH  30  38
ENDBRANCH   1  25
TORSDOF 11
ENDMDL
MODEL 5
REMARK VINA RESULT:    24.950      1.767      9.185
REMARK INTER + INTRA:          35.048
REMARK INTER:                  36.022
REMARK INTRA:                  -0.974
REMARK UNBOUND:                -0.842
REMARK SMILES O=c1cc(-c2ccc(O)c(O)c2)oc2cc(O[C@H]3O[C@@H](CO)[C@H](O)[C@H](O)[C@H]3O)cc(O)c12
REMARK SMILES IDX 17 1 16 2 4 3 3 4 13 5 2 6 14 7 1 8 32 9 15 10 30 11 29 12
REMARK SMILES IDX 5 13 6 14 7 15 8 16 12 17 10 18 9 19 11 21 31 23 18 25 27 26
REMARK SMILES IDX 19 27 25 28 20 29 23 30 28 31 26 33 21 35 22 36 24 38
REMARK H PARENT 9 20 11 22 31 24 28 32 26 34 22 37 24 39
REMARK Flexibility Score: inf
ROOT
ATOM      1  O   UNL     1     103.934 104.906 104.704  1.00  0.00    -0.462 OA
ENDROOT
BRANCH   1   2
ATOM      2  C   UNL     1     104.166 105.383 103.402  1.00  0.00     0.130 A 
ATOM      3  C   UNL     1     104.095 104.333  98.749  1.00  0.00     0.138 A 
ATOM      4  C   UNL     1     104.539 105.617  98.388  1.00  0.00     0.100 A 
ATOM      5  O   UNL     1     103.928 104.037 100.036  1.00  0.00    -0.456 OA
ATOM      6  C   UNL     1     104.784 106.563  99.383  1.00  0.00     0.197 A 
ATOM      7  C   UNL     1     104.149 104.904 101.020  1.00  0.00     0.146 A 
ATOM      8  O   UNL     1     105.183 107.712  99.050  1.00  0.00    -0.289 OA
ATOM      9  C   UNL     1     104.587 106.219 100.736  1.00  0.00     0.107 A 
ATOM     10  C   UNL     1     103.943 104.502 102.342  1.00  0.00     0.094 A 
ATOM     11  C   UNL     1     104.809 107.115 101.804  1.00  0.00     0.134 A 
ATOM     12  C   UNL     1     104.596 106.694 103.126  1.00  0.00     0.093 A 
BRANCH   3  13
ATOM     13  C   UNL     1     103.819 103.286  97.734  1.00  0.00     0.021 A 
ATOM     14  C   UNL     1     103.662 101.933  98.091  1.00  0.00     0.016 A 
ATOM     15  C   UNL     1     103.413 100.967  97.112  1.00  0.00     0.051 A 
ATOM     16  C   UNL     1     103.322 101.333  95.763  1.00  0.00     0.157 A 
ATOM     17  C   UNL     1     103.740 103.642  96.376  1.00  0.00     0.062 A 
ATOM     18  C   UNL     1     103.489 102.677  95.395  1.00  0.00     0.158 A 
BRANCH  16  19
ATOM     19  O   UNL     1     103.071 100.366  94.791  1.00  0.00    -0.504 OA
ATOM     20  H   UNL     1     103.150 100.574  93.802  1.00  0.00     0.293 HD
ENDBRANCH  16  19
BRANCH  18  21
ATOM     21  O   UNL     1     103.408 103.073  94.060  1.00  0.00    -0.504 OA
ATOM     22  H   UNL     1     104.197 103.481  93.571  1.00  0.00     0.293 HD
ENDBRANCH  18  21
ENDBRANCH   3  13
BRANCH  11  23
ATOM     23  O   UNL     1     105.241 108.421 101.565  1.00  0.00    -0.507 OA
ATOM     24  H   UNL     1     105.615 109.004 102.305  1.00  0.00     0.293 HD
ENDBRANCH  11  23
ENDBRANCH   1   2
BRANCH   1  25
ATOM     25  C   UNL     1     104.855 104.194 105.539  1.00  0.00     0.339 C 
ATOM     26  C   UNL     1     104.162 103.080 106.352  1.00  0.00     0.214 C 
ATOM     27  O   UNL     1     105.562 105.101 106.376  1.00  0.00    -0.332 OA
ATOM     28  C   UNL     1     103.221 103.692 107.400  1.00  0.00     0.180 C 
ATOM     29  C   UNL     1     104.758 105.736 107.367  1.00  0.00     0.179 C 
ATOM     30  C   UNL     1     103.970 104.731 108.249  1.00  0.00     0.177 C 
BRANCH  26  31
ATOM     31  O   UNL     1     103.439 102.238 105.493  1.00  0.00    -0.384 OA
ATOM     32  H   UNL     1     102.900 101.630 106.063  1.00  0.00     0.211 HD
ENDBRANCH  26  31
BRANCH  28  33
ATOM     33  O   UNL     1     102.708 102.689 108.239  1.00  0.00    -0.387 OA
ATOM     34  H   UNL     1     103.383 101.962 108.270  1.00  0.00     0.211 HD
ENDBRANCH  28  33
BRANCH  29  35
ATOM     35  C   UNL     1     103.875 106.859 106.784  1.00  0.00     0.191 C 
BRANCH  35  36
ATOM     36  O   UNL     1     104.672 107.960 106.440  1.00  0.00    -0.394 OA
ATOM     37  H   UNL     1     104.768 107.933 105.452  1.00  0.00     0.210 HD
ENDBRANCH  35  36
ENDBRANCH  29  35
BRANCH  30  38
ATOM     38  O   UNL     1     104.821 104.105 109.181  1.00  0.00    -0.387 OA
ATOM     39  H   UNL     1     105.386 103.450 108.696  1.00  0.00     0.211 HD
ENDBRANCH  30  38
ENDBRANCH   1  25
TORSDOF 11
ENDMDL
MODEL 6
REMARK VINA RESULT:    24.985      1.920      9.912
REMARK INTER + INTRA:          35.099
REMARK INTER:                  36.077
REMARK INTRA:                  -0.978
REMARK UNBOUND:                -0.842
REMARK SMILES O=c1cc(-c2ccc(O)c(O)c2)oc2cc(O[C@H]3O[C@@H](CO)[C@H](O)[C@H](O)[C@H]3O)cc(O)c12
REMARK SMILES IDX 17 1 16 2 4 3 3 4 13 5 2 6 14 7 1 8 32 9 15 10 30 11 29 12
REMARK SMILES IDX 5 13 6 14 7 15 8 16 12 17 10 18 9 19 11 21 31 23 18 25 27 26
REMARK SMILES IDX 19 27 25 28 20 29 23 30 28 31 26 33 21 35 22 36 24 38
REMARK H PARENT 9 20 11 22 31 24 28 32 26 34 22 37 24 39
REMARK Flexibility Score: inf
ROOT
ATOM      1  O   UNL     1     104.060 103.362 104.698  1.00  0.00    -0.462 OA
ENDROOT
BRANCH   1   2
ATOM      2  C   UNL     1     103.833 102.892 103.393  1.00  0.00     0.130 A 
ATOM      3  C   UNL     1     103.918 103.966  98.746  1.00  0.00     0.138 A 
ATOM      4  C   UNL     1     103.476 102.684  98.377  1.00  0.00     0.100 A 
ATOM      5  O   UNL     1     104.080 104.255 100.035  1.00  0.00    -0.456 OA
ATOM      6  C   UNL     1     103.229 101.732  99.366  1.00  0.00     0.197 A 
ATOM      7  C   UNL     1     103.857 103.383 101.014  1.00  0.00     0.146 A 
ATOM      8  O   UNL     1     102.833 100.585  99.025  1.00  0.00    -0.289 OA
ATOM      9  C   UNL     1     103.422 102.070 100.721  1.00  0.00     0.107 A 
ATOM     10  C   UNL     1     104.058 103.779 102.338  1.00  0.00     0.094 A 
ATOM     11  C   UNL     1     103.197 101.167 101.784  1.00  0.00     0.134 A 
ATOM     12  C   UNL     1     103.405 101.581 103.109  1.00  0.00     0.093 A 
BRANCH   3  13
ATOM     13  C   UNL     1     104.196 105.020  97.737  1.00  0.00     0.021 A 
ATOM     14  C   UNL     1     104.347 106.371  98.101  1.00  0.00     0.016 A 
ATOM     15  C   UNL     1     104.599 107.342  97.129  1.00  0.00     0.051 A 
ATOM     16  C   UNL     1     104.697 106.984  95.778  1.00  0.00     0.157 A 
ATOM     17  C   UNL     1     104.282 104.670  96.378  1.00  0.00     0.062 A 
ATOM     18  C   UNL     1     104.535 105.640  95.403  1.00  0.00     0.158 A 
BRANCH  16  19
ATOM     19  O   UNL     1     104.950 107.956  94.812  1.00  0.00    -0.504 OA
ATOM     20  H   UNL     1     105.054 107.717  93.833  1.00  0.00     0.293 HD
ENDBRANCH  16  19
BRANCH  18  21
ATOM     21  O   UNL     1     104.623 105.251  94.067  1.00  0.00    -0.504 OA
ATOM     22  H   UNL     1     103.925 105.517  93.381  1.00  0.00     0.293 HD
ENDBRANCH  18  21
ENDBRANCH   3  13
BRANCH  11  23
ATOM     23  O   UNL     1     102.767  99.862 101.536  1.00  0.00    -0.507 OA
ATOM     24  H   UNL     1     102.547  99.541 100.600  1.00  0.00     0.293 HD
ENDBRANCH  11  23
ENDBRANCH   1   2
BRANCH   1  25
ATOM     25  C   UNL     1     103.140 104.079 105.530  1.00  0.00     0.339 C 
ATOM     26  C   UNL     1     103.835 105.192 106.342  1.00  0.00     0.214 C 
ATOM     27  O   UNL     1     102.427 103.177 106.366  1.00  0.00    -0.332 OA
ATOM     28  C   UNL     1     104.770 104.578 107.393  1.00  0.00     0.180 C 
ATOM     29  C   UNL     1     103.225 102.541 107.360  1.00  0.00     0.179 C 
ATOM     30  C   UNL     1     104.015 103.544 108.243  1.00  0.00     0.177 C 
BRANCH  26  31
ATOM     31  O   UNL     1     104.564 106.029 105.482  1.00  0.00    -0.384 OA
ATOM     32  H   UNL     1     105.400 106.279 105.956  1.00  0.00     0.211 HD
ENDBRANCH  26  31
BRANCH  28  33
ATOM     33  O   UNL     1     105.286 105.581 108.232  1.00  0.00    -0.387 OA
ATOM     34  H   UNL     1     106.142 105.885 107.830  1.00  0.00     0.211 HD
ENDBRANCH  28  33
BRANCH  29  35
ATOM     35  C   UNL     1     104.105 101.413 106.783  1.00  0.00     0.191 C 
BRANCH  35  36
ATOM     36  O   UNL     1     103.304 100.318 106.431  1.00  0.00    -0.394 OA
ATOM     37  H   UNL     1     102.375 100.664 106.370  1.00  0.00     0.210 HD
ENDBRANCH  35  36
ENDBRANCH  29  35
BRANCH  30  38
ATOM     38  O   UNL     1     103.165 104.176 109.171  1.00  0.00    -0.387 OA
ATOM     39  H   UNL     1     103.396 105.141 109.199  1.00  0.00     0.211 HD
ENDBRANCH  30  38
ENDBRANCH   1  25
TORSDOF 11
ENDMDL
MODEL 7
REMARK VINA RESULT:    25.003      1.938      9.791
REMARK INTER + INTRA:          35.124
REMARK INTER:                  35.116
REMARK INTRA:                   0.008
REMARK UNBOUND:                -0.842
REMARK SMILES O=c1cc(-c2ccc(O)c(O)c2)oc2cc(O[C@H]3O[C@@H](CO)[C@H](O)[C@H](O)[C@H]3O)cc(O)c12
REMARK SMILES IDX 17 1 16 2 4 3 3 4 13 5 2 6 14 7 1 8 32 9 15 10 30 11 29 12
REMARK SMILES IDX 5 13 6 14 7 15 8 16 12 17 10 18 9 19 11 21 31 23 18 25 27 26
REMARK SMILES IDX 19 27 25 28 20 29 23 30 28 31 26 33 21 35 22 36 24 38
REMARK H PARENT 9 20 11 22 31 24 28 32 26 34 22 37 24 39
REMARK Flexibility Score: inf
ROOT
ATOM      1  O   UNL     1     104.283 104.496 105.021  1.00  0.00    -0.462 OA
ENDROOT
BRANCH   1   2
ATOM      2  C   UNL     1     104.055 103.857 103.790  1.00  0.00     0.130 A 
ATOM      3  C   UNL     1     104.055 104.331  99.043  1.00  0.00     0.138 A 
ATOM      4  C   UNL     1     103.647 103.000  98.847  1.00  0.00     0.100 A 
ATOM      5  O   UNL     1     104.224 104.787 100.283  1.00  0.00    -0.456 OA
ATOM      6  C   UNL     1     103.439 102.177  99.953  1.00  0.00     0.197 A 
ATOM      7  C   UNL     1     104.037 104.041 101.367  1.00  0.00     0.146 A 
ATOM      8  O   UNL     1     103.072 100.984  99.767  1.00  0.00    -0.289 OA
ATOM      9  C   UNL     1     103.637 102.689 101.251  1.00  0.00     0.107 A 
ATOM     10  C   UNL     1     104.242 104.607 102.627  1.00  0.00     0.094 A 
ATOM     11  C   UNL     1     103.450 101.924 102.424  1.00  0.00     0.134 A 
ATOM     12  C   UNL     1     103.662 102.509 103.681  1.00  0.00     0.093 A 
BRANCH   3  13
ATOM     13  C   UNL     1     104.291 105.254  97.905  1.00  0.00     0.021 A 
ATOM     14  C   UNL     1     104.484 106.635  98.099  1.00  0.00     0.016 A 
ATOM     15  C   UNL     1     104.694 107.481  97.008  1.00  0.00     0.051 A 
ATOM     16  C   UNL     1     104.708 106.967  95.705  1.00  0.00     0.157 A 
ATOM     17  C   UNL     1     104.292 104.748  96.592  1.00  0.00     0.062 A 
ATOM     18  C   UNL     1     104.503 105.593  95.498  1.00  0.00     0.158 A 
BRANCH  16  19
ATOM     19  O   UNL     1     104.920 107.815  94.619  1.00  0.00    -0.504 OA
ATOM     20  H   UNL     1     105.727 108.426  94.572  1.00  0.00     0.293 HD
ENDBRANCH  16  19
BRANCH  18  21
ATOM     21  O   UNL     1     104.507 105.050  94.214  1.00  0.00    -0.504 OA
ATOM     22  H   UNL     1     104.277 104.078  94.039  1.00  0.00     0.293 HD
ENDBRANCH  18  21
ENDBRANCH   3  13
BRANCH  11  23
ATOM     23  O   UNL     1     103.056 100.587 102.350  1.00  0.00    -0.507 OA
ATOM     24  H   UNL     1     103.273 100.010 101.545  1.00  0.00     0.293 HD
ENDBRANCH  11  23
ENDBRANCH   1   2
BRANCH   1  25
ATOM     25  C   UNL     1     105.093 104.021 106.103  1.00  0.00     0.339 C 
ATOM     26  C   UNL     1     104.290 103.152 107.093  1.00  0.00     0.214 C 
ATOM     27  O   UNL     1     105.735 105.111 106.753  1.00  0.00    -0.332 OA
ATOM     28  C   UNL     1     103.263 104.011 107.845  1.00  0.00     0.180 C 
ATOM     29  C   UNL     1     104.851 105.978 107.458  1.00  0.00     0.179 C 
ATOM     30  C   UNL     1     103.949 105.232 108.477  1.00  0.00     0.177 C 
BRANCH  26  31
ATOM     31  O   UNL     1     103.636 102.118 106.403  1.00  0.00    -0.384 OA
ATOM     32  H   UNL     1     102.772 102.484 106.080  1.00  0.00     0.211 HD
ENDBRANCH  26  31
BRANCH  28  33
ATOM     33  O   UNL     1     102.639 103.256 108.852  1.00  0.00    -0.387 OA
ATOM     34  H   UNL     1     103.241 103.268 109.641  1.00  0.00     0.211 HD
ENDBRANCH  28  33
BRANCH  29  35
ATOM     35  C   UNL     1     104.063 106.915 106.519  1.00  0.00     0.191 C 
BRANCH  35  36
ATOM     36  O   UNL     1     104.765 108.117 106.349  1.00  0.00    -0.394 OA
ATOM     37  H   UNL     1     105.719 107.866 106.235  1.00  0.00     0.210 HD
ENDBRANCH  35  36
ENDBRANCH  29  35
BRANCH  30  38
ATOM     38  O   UNL     1     104.681 104.864 109.623  1.00  0.00    -0.387 OA
ATOM     39  H   UNL     1     105.445 105.490 109.719  1.00  0.00     0.211 HD
ENDBRANCH  30  38
ENDBRANCH   1  25
TORSDOF 11
ENDMDL
MODEL 8
REMARK VINA RESULT:    25.023      1.488      9.361
REMARK INTER + INTRA:          35.153
REMARK INTER:                  35.201
REMARK INTRA:                  -0.049
REMARK UNBOUND:                -0.842
REMARK SMILES O=c1cc(-c2ccc(O)c(O)c2)oc2cc(O[C@H]3O[C@@H](CO)[C@H](O)[C@H](O)[C@H]3O)cc(O)c12
REMARK SMILES IDX 17 1 16 2 4 3 3 4 13 5 2 6 14 7 1 8 32 9 15 10 30 11 29 12
REMARK SMILES IDX 5 13 6 14 7 15 8 16 12 17 10 18 9 19 11 21 31 23 18 25 27 26
REMARK SMILES IDX 19 27 25 28 20 29 23 30 28 31 26 33 21 35 22 36 24 38
REMARK H PARENT 9 20 11 22 31 24 28 32 26 34 22 37 24 39
REMARK Flexibility Score: inf
ROOT
ATOM      1  O   UNL     1     103.770 103.872 105.030  1.00  0.00    -0.462 OA
ENDROOT
BRANCH   1   2
ATOM      2  C   UNL     1     103.990 104.503 103.793  1.00  0.00     0.130 A 
ATOM      3  C   UNL     1     103.969 103.994  99.050  1.00  0.00     0.138 A 
ATOM      4  C   UNL     1     104.370 105.325  98.842  1.00  0.00     0.100 A 
ATOM      5  O   UNL     1     103.808 103.546 100.293  1.00  0.00    -0.456 OA
ATOM      6  C   UNL     1     104.579 106.158  99.940  1.00  0.00     0.197 A 
ATOM      7  C   UNL     1     103.996 104.301 101.371  1.00  0.00     0.146 A 
ATOM      8  O   UNL     1     104.940 107.350  99.744  1.00  0.00    -0.289 OA
ATOM      9  C   UNL     1     104.390 105.654 101.243  1.00  0.00     0.107 A 
ATOM     10  C   UNL     1     103.800 103.743 102.637  1.00  0.00     0.094 A 
ATOM     11  C   UNL     1     104.578 106.429 102.409  1.00  0.00     0.134 A 
ATOM     12  C   UNL     1     104.376 105.852 103.672  1.00  0.00     0.093 A 
BRANCH   3  13
ATOM     13  C   UNL     1     103.732 103.061  97.919  1.00  0.00     0.021 A 
ATOM     14  C   UNL     1     103.518 101.685  98.127  1.00  0.00     0.016 A 
ATOM     15  C   UNL     1     103.308 100.830  97.043  1.00  0.00     0.051 A 
ATOM     16  C   UNL     1     103.313 101.329  95.735  1.00  0.00     0.157 A 
ATOM     17  C   UNL     1     103.750 103.552  96.602  1.00  0.00     0.062 A 
ATOM     18  C   UNL     1     103.539 102.698  95.515  1.00  0.00     0.158 A 
BRANCH  16  19
ATOM     19  O   UNL     1     103.101 100.472  94.656  1.00  0.00    -0.504 OA
ATOM     20  H   UNL     1     103.720  99.692  94.468  1.00  0.00     0.293 HD
ENDBRANCH  16  19
BRANCH  18  21
ATOM     21  O   UNL     1     103.555 103.226  94.224  1.00  0.00    -0.504 OA
ATOM     22  H   UNL     1     103.424 102.646  93.403  1.00  0.00     0.293 HD
ENDBRANCH  18  21
ENDBRANCH   3  13
BRANCH  11  23
ATOM     23  O   UNL     1     104.966 107.767 102.324  1.00  0.00    -0.507 OA
ATOM     24  H   UNL     1     105.228 108.301 103.145  1.00  0.00     0.293 HD
ENDBRANCH  11  23
ENDBRANCH   1   2
BRANCH   1  25
ATOM     25  C   UNL     1     102.951 104.344 106.106  1.00  0.00     0.339 C 
ATOM     26  C   UNL     1     103.744 105.216 107.102  1.00  0.00     0.214 C 
ATOM     27  O   UNL     1     102.309 103.251 106.751  1.00  0.00    -0.332 OA
ATOM     28  C   UNL     1     104.768 104.361 107.860  1.00  0.00     0.180 C 
ATOM     29  C   UNL     1     103.191 102.387 107.462  1.00  0.00     0.179 C 
ATOM     30  C   UNL     1     104.083 103.137 108.488  1.00  0.00     0.177 C 
BRANCH  26  31
ATOM     31  O   UNL     1     104.398 106.252 106.417  1.00  0.00    -0.384 OA
ATOM     32  H   UNL     1     105.373 106.075 106.480  1.00  0.00     0.211 HD
ENDBRANCH  26  31
BRANCH  28  33
ATOM     33  O   UNL     1     105.383 105.119 108.872  1.00  0.00    -0.387 OA
ATOM     34  H   UNL     1     104.849 105.948 108.980  1.00  0.00     0.211 HD
ENDBRANCH  28  33
BRANCH  29  35
ATOM     35  C   UNL     1     103.989 101.453 106.529  1.00  0.00     0.191 C 
BRANCH  35  36
ATOM     36  O   UNL     1     103.243 100.296 106.264  1.00  0.00    -0.394 OA
ATOM     37  H   UNL     1     103.904  99.575 106.095  1.00  0.00     0.210 HD
ENDBRANCH  35  36
ENDBRANCH  29  35
BRANCH  30  38
ATOM     38  O   UNL     1     103.341 103.502 109.629  1.00  0.00    -0.387 OA
ATOM     39  H   UNL     1     103.789 104.277 110.056  1.00  0.00     0.211 HD
ENDBRANCH  30  38
ENDBRANCH   1  25
TORSDOF 11
ENDMDL
