MODEL 1
REMARK VINA RESULT:    -4.716      0.000      0.000
REMARK INTER + INTRA:          -5.009
REMARK INTER:                  -4.992
REMARK INTRA:                  -0.017
REMARK UNBOUND:                -0.017
REMARK SMILES O=C([O-])c1cccnc1
REMARK SMILES IDX 4 1 5 2 9 3 6 4 8 5 7 6 2 7 1 8 3 9
REMARK H PARENT
REMARK Flexibility Score: inf
ROOT
ATOM      1  C   UNL     1     152.124 141.984 132.513  1.00  0.00     0.016 A 
ATOM      2  C   UNL     1     152.611 140.926 131.727  1.00  0.00     0.013 A 
ATOM      3  C   UNL     1     152.380 141.960 133.896  1.00  0.00     0.120 A 
ATOM      4  C   UNL     1     153.329 139.886 132.318  1.00  0.00     0.021 A 
ATOM      5  N   UNL     1     153.082 140.934 134.447  1.00  0.00    -0.264 NA
ATOM      6  C   UNL     1     153.557 139.907 133.694  1.00  0.00     0.111 A 
ENDROOT
BRANCH   1   7
ATOM      7  C   UNL     1     151.363 143.092 131.898  1.00  0.00     0.073 C 
ATOM      8  O   UNL     1     150.225 142.887 131.398  1.00  0.00    -0.545 OA
ATOM      9  O   UNL     1     151.894 144.376 131.863  1.00  0.00    -0.545 OA
ENDBRANCH   1   7
TORSDOF 1
ENDMDL
MODEL 2
REMARK VINA RESULT:    -4.426      3.004      3.795
REMARK INTER + INTRA:          -4.702
REMARK INTER:                  -4.683
REMARK INTRA:                  -0.019
REMARK UNBOUND:                -0.017
REMARK SMILES O=C([O-])c1cccnc1
REMARK SMILES IDX 4 1 5 2 9 3 6 4 8 5 7 6 2 7 1 8 3 9
REMARK H PARENT
REMARK Flexibility Score: inf
ROOT
ATOM      1  C   UNL     1     152.475 142.575 133.563  1.00  0.00     0.016 A 
ATOM      2  C   UNL     1     151.701 142.233 132.441  1.00  0.00     0.013 A 
ATOM      3  C   UNL     1     152.916 143.903 133.690  1.00  0.00     0.120 A 
ATOM      4  C   UNL     1     151.387 143.201 131.485  1.00  0.00     0.021 A 
ATOM      5  N   UNL     1     152.596 144.827 132.745  1.00  0.00    -0.264 NA
ATOM      6  C   UNL     1     151.849 144.506 131.656  1.00  0.00     0.111 A 
ENDROOT
BRANCH   1   7
ATOM      7  C   UNL     1     152.814 141.558 134.582  1.00  0.00     0.073 C 
ATOM      8  O   UNL     1     153.333 140.461 134.244  1.00  0.00    -0.545 OA
ATOM      9  O   UNL     1     152.562 141.799 135.927  1.00  0.00    -0.545 OA
ENDBRANCH   1   7
TORSDOF 1
ENDMDL
MODEL 3
REMARK VINA RESULT:    -4.269      2.008      2.797
REMARK INTER + INTRA:          -4.535
REMARK INTER:                  -4.517
REMARK INTRA:                  -0.018
REMARK UNBOUND:                -0.017
REMARK SMILES O=C([O-])c1cccnc1
REMARK SMILES IDX 4 1 5 2 9 3 6 4 8 5 7 6 2 7 1 8 3 9
REMARK H PARENT
REMARK Flexibility Score: inf
ROOT
ATOM      1  C   UNL     1     152.548 144.367 132.736  1.00  0.00     0.016 A 
ATOM      2  C   UNL     1     151.933 143.372 131.957  1.00  0.00     0.013 A 
ATOM      3  C   UNL     1     153.063 144.007 133.994  1.00  0.00     0.120 A 
ATOM      4  C   UNL     1     151.845 142.064 132.435  1.00  0.00     0.021 A 
ATOM      5  N   UNL     1     152.963 142.725 134.436  1.00  0.00    -0.264 NA
ATOM      6  C   UNL     1     152.370 141.756 133.690  1.00  0.00     0.111 A 
ENDROOT
BRANCH   1   7
ATOM      7  C   UNL     1     152.648 145.756 132.241  1.00  0.00     0.073 C 
ATOM      8  O   UNL     1     153.767 146.331 132.168  1.00  0.00    -0.545 OA
ATOM      9  O   UNL     1     151.508 146.449 131.850  1.00  0.00    -0.545 OA
ENDBRANCH   1   7
TORSDOF 1
ENDMDL
MODEL 4
REMARK VINA RESULT:    -4.200      2.972      4.168
REMARK INTER + INTRA:          -4.463
REMARK INTER:                  -4.444
REMARK INTRA:                  -0.018
REMARK UNBOUND:                -0.017
REMARK SMILES O=C([O-])c1cccnc1
REMARK SMILES IDX 4 1 5 2 9 3 6 4 8 5 7 6 2 7 1 8 3 9
REMARK H PARENT
REMARK Flexibility Score: inf
ROOT
ATOM      1  C   UNL     1     152.570 142.893 133.423  1.00  0.00     0.016 A 
ATOM      2  C   UNL     1     153.033 144.189 133.707  1.00  0.00     0.013 A 
ATOM      3  C   UNL     1     151.767 142.705 132.285  1.00  0.00     0.120 A 
ATOM      4  C   UNL     1     152.696 145.252 132.868  1.00  0.00     0.021 A 
ATOM      5  N   UNL     1     151.453 143.759 131.485  1.00  0.00    -0.264 NA
ATOM      6  C   UNL     1     151.896 145.016 131.750  1.00  0.00     0.111 A 
ENDROOT
BRANCH   1   7
ATOM      7  C   UNL     1     152.921 141.758 134.303  1.00  0.00     0.073 C 
ATOM      8  O   UNL     1     152.661 141.799 135.536  1.00  0.00    -0.545 OA
ATOM      9  O   UNL     1     153.545 140.630 133.783  1.00  0.00    -0.545 OA
ENDBRANCH   1   7
TORSDOF 1
ENDMDL
MODEL 5
REMARK VINA RESULT:    -4.145      2.625      3.654
REMARK INTER + INTRA:          -4.405
REMARK INTER:                  -4.386
REMARK INTRA:                  -0.019
REMARK UNBOUND:                -0.017
REMARK SMILES O=C([O-])c1cccnc1
REMARK SMILES IDX 4 1 5 2 9 3 6 4 8 5 7 6 2 7 1 8 3 9
REMARK H PARENT
REMARK Flexibility Score: inf
ROOT
ATOM      1  C   UNL     1     152.453 143.376 133.013  1.00  0.00     0.016 A 
ATOM      2  C   UNL     1     152.317 144.517 132.205  1.00  0.00     0.013 A 
ATOM      3  C   UNL     1     153.053 143.520 134.277  1.00  0.00     0.120 A 
ATOM      4  C   UNL     1     152.771 145.756 132.661  1.00  0.00     0.021 A 
ATOM      5  N   UNL     1     153.487 144.739 134.696  1.00  0.00    -0.264 NA
ATOM      6  C   UNL     1     153.359 145.848 133.922  1.00  0.00     0.111 A 
ENDROOT
BRANCH   1   7
ATOM      7  C   UNL     1     151.976 142.058 132.542  1.00  0.00     0.073 C 
ATOM      8  O   UNL     1     150.783 141.906 132.168  1.00  0.00    -0.545 OA
ATOM      9  O   UNL     1     152.838 140.968 132.508  1.00  0.00    -0.545 OA
ENDBRANCH   1   7
TORSDOF 1
ENDMDL
MODEL 6
REMARK VINA RESULT:    -4.096      2.242      3.189
REMARK INTER + INTRA:          -4.353
REMARK INTER:                  -4.335
REMARK INTRA:                  -0.018
REMARK UNBOUND:                -0.017
REMARK SMILES O=C([O-])c1cccnc1
REMARK SMILES IDX 4 1 5 2 9 3 6 4 8 5 7 6 2 7 1 8 3 9
REMARK H PARENT
REMARK Flexibility Score: inf
ROOT
ATOM      1  C   UNL     1     152.514 144.420 132.691  1.00  0.00     0.016 A 
ATOM      2  C   UNL     1     153.038 144.024 133.933  1.00  0.00     0.013 A 
ATOM      3  C   UNL     1     151.875 143.451 131.897  1.00  0.00     0.120 A 
ATOM      4  C   UNL     1     152.920 142.698 134.353  1.00  0.00     0.021 A 
ATOM      5  N   UNL     1     151.774 142.166 132.329  1.00  0.00    -0.264 NA
ATOM      6  C   UNL     1     152.279 141.774 133.529  1.00  0.00     0.111 A 
ENDROOT
BRANCH   1   7
ATOM      7  C   UNL     1     152.632 145.822 132.236  1.00  0.00     0.073 C 
ATOM      8  O   UNL     1     153.764 146.354 132.089  1.00  0.00    -0.545 OA
ATOM      9  O   UNL     1     151.493 146.573 131.966  1.00  0.00    -0.545 OA
ENDBRANCH   1   7
TORSDOF 1
ENDMDL
MODEL 7
REMARK VINA RESULT:    -4.054      2.631      3.346
REMARK INTER + INTRA:          -4.309
REMARK INTER:                  -4.293
REMARK INTRA:                  -0.016
REMARK UNBOUND:                -0.017
REMARK SMILES O=C([O-])c1cccnc1
REMARK SMILES IDX 4 1 5 2 9 3 6 4 8 5 7 6 2 7 1 8 3 9
REMARK H PARENT
REMARK Flexibility Score: inf
ROOT
ATOM      1  C   UNL     1     152.866 144.288 133.520  1.00  0.00     0.016 A 
ATOM      2  C   UNL     1     152.231 144.227 132.268  1.00  0.00     0.013 A 
ATOM      3  C   UNL     1     152.950 143.110 134.284  1.00  0.00     0.120 A 
ATOM      4  C   UNL     1     151.702 143.020 131.809  1.00  0.00     0.021 A 
ATOM      5  N   UNL     1     152.426 141.947 133.813  1.00  0.00    -0.264 NA
ATOM      6  C   UNL     1     151.810 141.879 132.603  1.00  0.00     0.111 A 
ENDROOT
BRANCH   1   7
ATOM      7  C   UNL     1     153.430 145.561 134.018  1.00  0.00     0.073 C 
ATOM      8  O   UNL     1     152.717 146.363 134.678  1.00  0.00    -0.545 OA
ATOM      9  O   UNL     1     154.756 145.891 133.762  1.00  0.00    -0.545 OA
ENDBRANCH   1   7
TORSDOF 1
ENDMDL
MODEL 8
REMARK VINA RESULT:    -3.870      2.492      3.512
REMARK INTER + INTRA:          -4.114
REMARK INTER:                  -4.093
REMARK INTRA:                  -0.021
REMARK UNBOUND:                -0.017
REMARK SMILES O=C([O-])c1cccnc1
REMARK SMILES IDX 4 1 5 2 9 3 6 4 8 5 7 6 2 7 1 8 3 9
REMARK H PARENT
REMARK Flexibility Score: inf
ROOT
ATOM      1  C   UNL     1     151.735 144.237 131.880  1.00  0.00     0.016 A 
ATOM      2  C   UNL     1     152.164 145.572 131.964  1.00  0.00     0.013 A 
ATOM      3  C   UNL     1     152.209 143.322 132.836  1.00  0.00     0.120 A 
ATOM      4  C   UNL     1     153.039 145.964 132.978  1.00  0.00     0.021 A 
ATOM      5  N   UNL     1     153.061 143.730 133.814  1.00  0.00    -0.264 NA
ATOM      6  C   UNL     1     153.482 145.020 133.903  1.00  0.00     0.111 A 
ENDROOT
BRANCH   1   7
ATOM      7  C   UNL     1     150.808 143.810 130.811  1.00  0.00     0.073 C 
ATOM      8  O   UNL     1     149.947 142.915 131.029  1.00  0.00    -0.545 OA
ATOM      9  O   UNL     1     150.873 144.389 129.548  1.00  0.00    -0.545 OA
ENDBRANCH   1   7
TORSDOF 1
ENDMDL
MODEL 9
REMARK VINA RESULT:    -3.734      5.578      6.320
REMARK INTER + INTRA:          -3.969
REMARK INTER:                  -3.948
REMARK INTRA:                  -0.021
REMARK UNBOUND:                -0.017
REMARK SMILES O=C([O-])c1cccnc1
REMARK SMILES IDX 4 1 5 2 9 3 6 4 8 5 7 6 2 7 1 8 3 9
REMARK H PARENT
REMARK Flexibility Score: inf
ROOT
ATOM      1  C   UNL     1     154.602 146.725 131.784  1.00  0.00     0.016 A 
ATOM      2  C   UNL     1     154.101 145.981 132.865  1.00  0.00     0.013 A 
ATOM      3  C   UNL     1     153.685 147.325 130.903  1.00  0.00     0.120 A 
ATOM      4  C   UNL     1     152.723 145.851 133.046  1.00  0.00     0.021 A 
ATOM      5  N   UNL     1     152.347 147.182 131.103  1.00  0.00    -0.264 NA
ATOM      6  C   UNL     1     151.853 146.464 132.146  1.00  0.00     0.111 A 
ENDROOT
BRANCH   1   7
ATOM      7  C   UNL     1     156.059 146.871 131.582  1.00  0.00     0.073 C 
ATOM      8  O   UNL     1     156.537 146.981 130.421  1.00  0.00    -0.545 OA
ATOM      9  O   UNL     1     156.924 146.886 132.670  1.00  0.00    -0.545 OA
ENDBRANCH   1   7
TORSDOF 1
ENDMDL
