MODEL 1
REMARK VINA RESULT:    -3.576      0.000      0.000
REMARK INTER + INTRA:          -5.029
REMARK INTER:                  -4.621
REMARK INTRA:                  -0.407
REMARK UNBOUND:                -0.407
REMARK SMILES CCO[C@@H]1O[C@@H](CO)[C@@H](O)[C@@H](O)[C@H]1O
REMARK SMILES IDX 4 1 13 2 11 3 9 4 6 5 5 6 3 7 2 8 1 9 14 10 12 12 7 14 8 15
REMARK SMILES IDX 10 17
REMARK H PARENT 14 11 12 13 8 16 10 18
REMARK Flexibility Score: inf
ROOT
ATOM      1  C   UNL     1      14.680  -6.533   3.604  1.00  0.00     0.281 C 
ATOM      2  C   UNL     1      15.349  -7.910   3.341  1.00  0.00     0.202 C 
ATOM      3  C   UNL     1      16.754  -7.967   4.001  1.00  0.00     0.179 C 
ATOM      4  C   UNL     1      17.420  -6.568   4.084  1.00  0.00     0.177 C 
ATOM      5  C   UNL     1      16.821  -5.642   2.995  1.00  0.00     0.178 C 
ATOM      6  O   UNL     1      15.437  -5.389   3.197  1.00  0.00    -0.341 OA
ENDROOT
BRANCH   1   7
ATOM      7  O   UNL     1      13.370  -6.492   3.060  1.00  0.00    -0.350 OA
BRANCH   7   8
ATOM      8  C   UNL     1      12.494  -5.660   3.803  1.00  0.00     0.160 C 
ATOM      9  C   UNL     1      12.065  -6.380   5.074  1.00  0.00     0.035 C 
ENDBRANCH   7   8
ENDBRANCH   1   7
BRANCH   2  10
ATOM     10  O   UNL     1      14.521  -8.937   3.824  1.00  0.00    -0.385 OA
ATOM     11  H   UNL     1      13.641  -8.522   4.024  1.00  0.00     0.211 HD
ENDBRANCH   2  10
BRANCH   3  12
ATOM     12  O   UNL     1      16.726  -8.593   5.262  1.00  0.00    -0.387 OA
ATOM     13  H   UNL     1      17.344  -9.369   5.231  1.00  0.00     0.211 HD
ENDBRANCH   3  12
BRANCH   5  14
ATOM     14  C   UNL     1      17.567  -4.305   2.906  1.00  0.00     0.191 C 
BRANCH  14  15
ATOM     15  O   UNL     1      18.892  -4.448   3.343  1.00  0.00    -0.394 OA
ATOM     16  H   UNL     1      19.085  -3.652   3.902  1.00  0.00     0.210 HD
ENDBRANCH  14  15
ENDBRANCH   5  14
BRANCH   4  17
ATOM     17  O   UNL     1      17.215  -6.003   5.357  1.00  0.00    -0.387 OA
ATOM     18  H   UNL     1      18.109  -5.856   5.763  1.00  0.00     0.211 HD
ENDBRANCH   4  17
TORSDOF 7
ENDMDL
MODEL 2
REMARK VINA RESULT:    -3.482      1.621      4.240
REMARK INTER + INTRA:          -4.907
REMARK INTER:                  -4.481
REMARK INTRA:                  -0.426
REMARK UNBOUND:                -0.407
REMARK SMILES CCO[C@@H]1O[C@@H](CO)[C@@H](O)[C@@H](O)[C@H]1O
REMARK SMILES IDX 4 1 13 2 11 3 9 4 6 5 5 6 3 7 2 8 1 9 14 10 12 12 7 14 8 15
REMARK SMILES IDX 10 17
REMARK H PARENT 14 11 12 13 8 16 10 18
REMARK Flexibility Score: inf
ROOT
ATOM      1  C   UNL     1      16.535  -7.812   3.705  1.00  0.00     0.281 C 
ATOM      2  C   UNL     1      17.267  -6.578   3.111  1.00  0.00     0.202 C 
ATOM      3  C   UNL     1      16.700  -5.265   3.720  1.00  0.00     0.179 C 
ATOM      4  C   UNL     1      15.210  -5.402   4.127  1.00  0.00     0.177 C 
ATOM      5  C   UNL     1      14.548  -6.534   3.300  1.00  0.00     0.178 C 
ATOM      6  O   UNL     1      15.111  -7.810   3.575  1.00  0.00    -0.341 OA
ENDROOT
BRANCH   1   7
ATOM      7  O   UNL     1      17.087  -9.019   3.204  1.00  0.00    -0.350 OA
BRANCH   7   8
ATOM      8  C   UNL     1      16.916 -10.111   4.093  1.00  0.00     0.160 C 
ATOM      9  C   UNL     1      17.396  -9.714   5.483  1.00  0.00     0.035 C 
ENDBRANCH   7   8
ENDBRANCH   1   7
BRANCH   2  10
ATOM     10  O   UNL     1      18.647  -6.689   3.345  1.00  0.00    -0.385 OA
ATOM     11  H   UNL     1      18.819  -7.637   3.588  1.00  0.00     0.211 HD
ENDBRANCH   2  10
BRANCH   3  12
ATOM     12  O   UNL     1      17.481  -4.795   4.794  1.00  0.00    -0.387 OA
ATOM     13  H   UNL     1      18.216  -4.245   4.419  1.00  0.00     0.211 HD
ENDBRANCH   3  12
BRANCH   5  14
ATOM     14  C   UNL     1      13.032  -6.595   3.524  1.00  0.00     0.191 C 
BRANCH  14  15
ATOM     15  O   UNL     1      12.736  -7.253   4.726  1.00  0.00    -0.394 OA
ATOM     16  H   UNL     1      12.930  -8.212   4.570  1.00  0.00     0.210 HD
ENDBRANCH  14  15
ENDBRANCH   5  14
BRANCH   4  17
ATOM     17  O   UNL     1      15.102  -5.690   5.501  1.00  0.00    -0.387 OA
ATOM     18  H   UNL     1      14.177  -6.012   5.664  1.00  0.00     0.211 HD
ENDBRANCH   4  17
TORSDOF 7
ENDMDL
MODEL 3
REMARK VINA RESULT:    -2.976      8.922     11.340
REMARK INTER + INTRA:          -4.252
REMARK INTER:                  -4.016
REMARK INTRA:                  -0.237
REMARK UNBOUND:                -0.407
REMARK SMILES CCO[C@@H]1O[C@@H](CO)[C@@H](O)[C@@H](O)[C@H]1O
REMARK SMILES IDX 4 1 13 2 11 3 9 4 6 5 5 6 3 7 2 8 1 9 14 10 12 12 7 14 8 15
REMARK SMILES IDX 10 17
REMARK H PARENT 14 11 12 13 8 16 10 18
REMARK Flexibility Score: inf
ROOT
ATOM      1  C   UNL     1       4.488  -6.813   3.819  1.00  0.00     0.281 C 
ATOM      2  C   UNL     1       5.552  -5.823   4.365  1.00  0.00     0.202 C 
ATOM      3  C   UNL     1       6.693  -6.594   5.084  1.00  0.00     0.179 C 
ATOM      4  C   UNL     1       6.198  -7.924   5.710  1.00  0.00     0.177 C 
ATOM      5  C   UNL     1       4.674  -7.836   5.978  1.00  0.00     0.178 C 
ATOM      6  O   UNL     1       3.917  -7.703   4.782  1.00  0.00    -0.341 OA
ENDROOT
BRANCH   1   7
ATOM      7  O   UNL     1       3.473  -6.125   3.104  1.00  0.00    -0.350 OA
BRANCH   7   8
ATOM      8  C   UNL     1       2.553  -5.464   3.957  1.00  0.00     0.160 C 
ATOM      9  C   UNL     1       2.455  -3.997   3.561  1.00  0.00     0.035 C 
ENDBRANCH   7   8
ENDBRANCH   1   7
BRANCH   2  10
ATOM     10  O   UNL     1       6.056  -5.042   3.311  1.00  0.00    -0.385 OA
ATOM     11  H   UNL     1       5.276  -4.589   2.895  1.00  0.00     0.211 HD
ENDBRANCH   2  10
BRANCH   3  12
ATOM     12  O   UNL     1       7.804  -6.808   4.245  1.00  0.00    -0.387 OA
ATOM     13  H   UNL     1       7.643  -6.322   3.396  1.00  0.00     0.211 HD
ENDBRANCH   3  12
BRANCH   5  14
ATOM     14  C   UNL     1       4.160  -9.048   6.765  1.00  0.00     0.191 C 
BRANCH  14  15
ATOM     15  O   UNL     1       4.566  -8.977   8.105  1.00  0.00    -0.394 OA
ATOM     16  H   UNL     1       5.281  -8.291   8.140  1.00  0.00     0.210 HD
ENDBRANCH  14  15
ENDBRANCH   5  14
BRANCH   4  17
ATOM     17  O   UNL     1       6.469  -9.003   4.847  1.00  0.00    -0.387 OA
ATOM     18  H   UNL     1       5.596  -9.353   4.528  1.00  0.00     0.211 HD
ENDBRANCH   4  17
TORSDOF 7
ENDMDL
MODEL 4
REMARK VINA RESULT:    -2.918      8.946     11.358
REMARK INTER + INTRA:          -4.178
REMARK INTER:                  -3.762
REMARK INTRA:                  -0.417
REMARK UNBOUND:                -0.407
REMARK SMILES CCO[C@@H]1O[C@@H](CO)[C@@H](O)[C@@H](O)[C@H]1O
REMARK SMILES IDX 4 1 13 2 11 3 9 4 6 5 5 6 3 7 2 8 1 9 14 10 12 12 7 14 8 15
REMARK SMILES IDX 10 17
REMARK H PARENT 14 11 12 13 8 16 10 18
REMARK Flexibility Score: inf
ROOT
ATOM      1  C   UNL     1       5.496  -6.346   5.412  1.00  0.00     0.281 C 
ATOM      2  C   UNL     1       6.566  -6.626   4.322  1.00  0.00     0.202 C 
ATOM      3  C   UNL     1       6.296  -5.762   3.060  1.00  0.00     0.179 C 
ATOM      4  C   UNL     1       4.789  -5.446   2.877  1.00  0.00     0.177 C 
ATOM      5  C   UNL     1       3.941  -6.525   3.597  1.00  0.00     0.178 C 
ATOM      6  O   UNL     1       4.136  -6.521   5.005  1.00  0.00    -0.341 OA
ENDROOT
BRANCH   1   7
ATOM      7  O   UNL     1       5.768  -7.083   6.594  1.00  0.00    -0.350 OA
BRANCH   7   8
ATOM      8  C   UNL     1       5.506  -8.469   6.449  1.00  0.00     0.160 C 
ATOM      9  C   UNL     1       4.528  -8.916   7.527  1.00  0.00     0.035 C 
ENDBRANCH   7   8
ENDBRANCH   1   7
BRANCH   2  10
ATOM     10  O   UNL     1       7.847  -6.377   4.842  1.00  0.00    -0.385 OA
ATOM     11  H   UNL     1       8.127  -7.203   5.318  1.00  0.00     0.211 HD
ENDBRANCH   2  10
BRANCH   3  12
ATOM     12  O   UNL     1       7.069  -4.584   3.045  1.00  0.00    -0.387 OA
ATOM     13  H   UNL     1       7.979  -4.820   2.728  1.00  0.00     0.211 HD
ENDBRANCH   3  12
BRANCH   5  14
ATOM     14  C   UNL     1       2.444  -6.372   3.298  1.00  0.00     0.191 C 
BRANCH  14  15
ATOM     15  O   UNL     1       1.909  -5.282   3.998  1.00  0.00    -0.394 OA
ATOM     16  H   UNL     1       1.272  -4.842   3.378  1.00  0.00     0.210 HD
ENDBRANCH  14  15
ENDBRANCH   5  14
BRANCH   4  17
ATOM     17  O   UNL     1       4.488  -4.174   3.401  1.00  0.00    -0.387 OA
ATOM     18  H   UNL     1       5.210  -3.557   3.113  1.00  0.00     0.211 HD
ENDBRANCH   4  17
TORSDOF 7
ENDMDL
MODEL 5
REMARK VINA RESULT:    -2.863      1.889      4.628
REMARK INTER + INTRA:          -4.106
REMARK INTER:                  -3.745
REMARK INTRA:                  -0.361
REMARK UNBOUND:                -0.407
REMARK SMILES CCO[C@@H]1O[C@@H](CO)[C@@H](O)[C@@H](O)[C@H]1O
REMARK SMILES IDX 4 1 13 2 11 3 9 4 6 5 5 6 3 7 2 8 1 9 14 10 12 12 7 14 8 15
REMARK SMILES IDX 10 17
REMARK H PARENT 14 11 12 13 8 16 10 18
REMARK Flexibility Score: inf
ROOT
ATOM      1  C   UNL     1      14.881  -5.877   3.845  1.00  0.00     0.281 C 
ATOM      2  C   UNL     1      13.772  -5.261   2.950  1.00  0.00     0.202 C 
ATOM      3  C   UNL     1      12.466  -6.097   3.049  1.00  0.00     0.179 C 
ATOM      4  C   UNL     1      12.749  -7.593   3.347  1.00  0.00     0.177 C 
ATOM      5  C   UNL     1      14.181  -7.954   2.875  1.00  0.00     0.178 C 
ATOM      6  O   UNL     1      15.185  -7.253   3.597  1.00  0.00    -0.341 OA
ENDROOT
BRANCH   1   7
ATOM      7  O   UNL     1      16.059  -5.086   3.812  1.00  0.00    -0.350 OA
BRANCH   7   8
ATOM      8  C   UNL     1      17.039  -5.522   4.740  1.00  0.00     0.160 C 
ATOM      9  C   UNL     1      16.508  -5.353   6.157  1.00  0.00     0.035 C 
ENDBRANCH   7   8
ENDBRANCH   1   7
BRANCH   2  10
ATOM     10  O   UNL     1      13.548  -3.927   3.327  1.00  0.00    -0.385 OA
ATOM     11  H   UNL     1      13.191  -3.461   2.525  1.00  0.00     0.211 HD
ENDBRANCH   2  10
BRANCH   3  12
ATOM     12  O   UNL     1      11.556  -5.556   3.977  1.00  0.00    -0.387 OA
ATOM     13  H   UNL     1      10.641  -5.677   3.614  1.00  0.00     0.211 HD
ENDBRANCH   3  12
BRANCH   5  14
ATOM     14  C   UNL     1      14.453  -9.461   2.974  1.00  0.00     0.191 C 
BRANCH  14  15
ATOM     15  O   UNL     1      14.557  -9.859   4.314  1.00  0.00    -0.394 OA
ATOM     16  H   UNL     1      14.490 -10.848   4.314  1.00  0.00     0.210 HD
ENDBRANCH  14  15
ENDBRANCH   5  14
BRANCH   4  17
ATOM     17  O   UNL     1      12.621  -7.851   4.725  1.00  0.00    -0.387 OA
ATOM     18  H   UNL     1      13.487  -8.224   5.037  1.00  0.00     0.211 HD
ENDBRANCH   4  17
TORSDOF 7
ENDMDL
MODEL 6
REMARK VINA RESULT:    -2.718     10.417     12.005
REMARK INTER + INTRA:          -3.919
REMARK INTER:                  -3.525
REMARK INTRA:                  -0.394
REMARK UNBOUND:                -0.407
REMARK SMILES CCO[C@@H]1O[C@@H](CO)[C@@H](O)[C@@H](O)[C@H]1O
REMARK SMILES IDX 4 1 13 2 11 3 9 4 6 5 5 6 3 7 2 8 1 9 14 10 12 12 7 14 8 15
REMARK SMILES IDX 10 17
REMARK H PARENT 14 11 12 13 8 16 10 18
REMARK Flexibility Score: inf
ROOT
ATOM      1  C   UNL     1       5.054  -6.642   4.233  1.00  0.00     0.281 C 
ATOM      2  C   UNL     1       5.187  -6.863   5.764  1.00  0.00     0.202 C 
ATOM      3  C   UNL     1       5.054  -8.372   6.110  1.00  0.00     0.179 C 
ATOM      4  C   UNL     1       4.153  -9.128   5.099  1.00  0.00     0.177 C 
ATOM      5  C   UNL     1       3.182  -8.128   4.420  1.00  0.00     0.178 C 
ATOM      6  O   UNL     1       3.861  -7.157   3.634  1.00  0.00    -0.341 OA
ENDROOT
BRANCH   1   7
ATOM      7  O   UNL     1       5.237  -5.275   3.898  1.00  0.00    -0.350 OA
BRANCH   7   8
ATOM      8  C   UNL     1       4.063  -4.677   3.374  1.00  0.00     0.160 C 
ATOM      9  C   UNL     1       3.401  -3.827   4.451  1.00  0.00     0.035 C 
ENDBRANCH   7   8
ENDBRANCH   1   7
BRANCH   2  10
ATOM     10  O   UNL     1       6.416  -6.348   6.210  1.00  0.00    -0.385 OA
ATOM     11  H   UNL     1       6.252  -5.402   6.464  1.00  0.00     0.211 HD
ENDBRANCH   2  10
BRANCH   3  12
ATOM     12  O   UNL     1       6.307  -9.001   6.245  1.00  0.00    -0.387 OA
ATOM     13  H   UNL     1       6.948  -8.331   6.597  1.00  0.00     0.211 HD
ENDBRANCH   3  12
BRANCH   5  14
ATOM     14  C   UNL     1       2.142  -8.842   3.547  1.00  0.00     0.191 C 
BRANCH  14  15
ATOM     15  O   UNL     1       1.875 -10.125   4.045  1.00  0.00    -0.394 OA
ATOM     16  H   UNL     1       0.936 -10.325   3.801  1.00  0.00     0.210 HD
ENDBRANCH  14  15
ENDBRANCH   5  14
BRANCH   4  17
ATOM     17  O   UNL     1       4.941  -9.765   4.121  1.00  0.00    -0.387 OA
ATOM     18  H   UNL     1       5.850  -9.370   4.171  1.00  0.00     0.211 HD
ENDBRANCH   4  17
TORSDOF 7
ENDMDL
MODEL 7
REMARK VINA RESULT:    -2.673      8.528     11.161
REMARK INTER + INTRA:          -3.861
REMARK INTER:                  -3.716
REMARK INTRA:                  -0.145
REMARK UNBOUND:                -0.407
REMARK SMILES CCO[C@@H]1O[C@@H](CO)[C@@H](O)[C@@H](O)[C@H]1O
REMARK SMILES IDX 4 1 13 2 11 3 9 4 6 5 5 6 3 7 2 8 1 9 14 10 12 12 7 14 8 15
REMARK SMILES IDX 10 17
REMARK H PARENT 14 11 12 13 8 16 10 18
REMARK Flexibility Score: inf
ROOT
ATOM      1  C   UNL     1       3.850  -6.762   4.356  1.00  0.00     0.281 C 
ATOM      2  C   UNL     1       3.738  -8.305   4.487  1.00  0.00     0.202 C 
ATOM      3  C   UNL     1       4.646  -8.821   5.638  1.00  0.00     0.179 C 
ATOM      4  C   UNL     1       5.890  -7.920   5.851  1.00  0.00     0.177 C 
ATOM      5  C   UNL     1       6.207  -7.155   4.541  1.00  0.00     0.178 C 
ATOM      6  O   UNL     1       5.174  -6.250   4.174  1.00  0.00    -0.341 OA
ENDROOT
BRANCH   1   7
ATOM      7  O   UNL     1       2.977  -6.273   3.349  1.00  0.00    -0.350 OA
BRANCH   7   8
ATOM      8  C   UNL     1       3.292  -4.950   2.946  1.00  0.00     0.160 C 
ATOM      9  C   UNL     1       2.600  -3.958   3.871  1.00  0.00     0.035 C 
ENDBRANCH   7   8
ENDBRANCH   1   7
BRANCH   2  10
ATOM     10  O   UNL     1       2.397  -8.665   4.701  1.00  0.00    -0.385 OA
ATOM     11  H   UNL     1       2.332  -9.641   4.526  1.00  0.00     0.211 HD
ENDBRANCH   2  10
BRANCH   3  12
ATOM     12  O   UNL     1       3.933  -8.999   6.840  1.00  0.00    -0.387 OA
ATOM     13  H   UNL     1       4.198  -8.273   7.462  1.00  0.00     0.211 HD
ENDBRANCH   3  12
BRANCH   5  14
ATOM     14  C   UNL     1       7.534  -6.390   4.632  1.00  0.00     0.191 C 
BRANCH  14  15
ATOM     15  O   UNL     1       7.654  -5.481   3.571  1.00  0.00    -0.394 OA
ATOM     16  H   UNL     1       8.621  -5.274   3.494  1.00  0.00     0.210 HD
ENDBRANCH  14  15
ENDBRANCH   5  14
BRANCH   4  17
ATOM     17  O   UNL     1       5.659  -7.004   6.895  1.00  0.00    -0.387 OA
ATOM     18  H   UNL     1       5.535  -6.110   6.481  1.00  0.00     0.211 HD
ENDBRANCH   4  17
TORSDOF 7
ENDMDL
MODEL 8
REMARK VINA RESULT:    -1.801      8.445     11.073
REMARK INTER + INTRA:          -2.735
REMARK INTER:                  -2.409
REMARK INTRA:                  -0.326
REMARK UNBOUND:                -0.407
REMARK SMILES CCO[C@@H]1O[C@@H](CO)[C@@H](O)[C@@H](O)[C@H]1O
REMARK SMILES IDX 4 1 13 2 11 3 9 4 6 5 5 6 3 7 2 8 1 9 14 10 12 12 7 14 8 15
REMARK SMILES IDX 10 17
REMARK H PARENT 14 11 12 13 8 16 10 18
REMARK Flexibility Score: inf
ROOT
ATOM      1  C   UNL     1       3.833  -7.702   4.647  1.00  0.00     0.281 C 
ATOM      2  C   UNL     1       4.154  -8.980   5.468  1.00  0.00     0.202 C 
ATOM      3  C   UNL     1       5.327  -8.714   6.452  1.00  0.00     0.179 C 
ATOM      4  C   UNL     1       6.306  -7.636   5.918  1.00  0.00     0.177 C 
ATOM      5  C   UNL     1       6.210  -7.566   4.373  1.00  0.00     0.178 C 
ATOM      6  O   UNL     1       4.932  -7.137   3.925  1.00  0.00    -0.341 OA
ENDROOT
BRANCH   1   7
ATOM      7  O   UNL     1       2.722  -7.914   3.790  1.00  0.00    -0.350 OA
BRANCH   7   8
ATOM      8  C   UNL     1       2.513  -6.841   2.886  1.00  0.00     0.160 C 
ATOM      9  C   UNL     1       1.875  -5.671   3.624  1.00  0.00     0.035 C 
ENDBRANCH   7   8
ENDBRANCH   1   7
BRANCH   2  10
ATOM     10  O   UNL     1       3.004  -9.402   6.155  1.00  0.00    -0.385 OA
ATOM     11  H   UNL     1       3.253 -10.228   6.647  1.00  0.00     0.211 HD
ENDBRANCH   2  10
BRANCH   3  12
ATOM     12  O   UNL     1       4.875  -8.397   7.747  1.00  0.00    -0.387 OA
ATOM     13  H   UNL     1       3.883  -8.393   7.732  1.00  0.00     0.211 HD
ENDBRANCH   3  12
BRANCH   5  14
ATOM     14  C   UNL     1       7.285  -6.651   3.773  1.00  0.00     0.191 C 
BRANCH  14  15
ATOM     15  O   UNL     1       8.181  -6.224   4.764  1.00  0.00    -0.394 OA
ATOM     16  H   UNL     1       7.878  -5.321   5.038  1.00  0.00     0.210 HD
ENDBRANCH  14  15
ENDBRANCH   5  14
BRANCH   4  17
ATOM     17  O   UNL     1       5.999  -6.379   6.473  1.00  0.00    -0.387 OA
ATOM     18  H   UNL     1       5.011  -6.325   6.553  1.00  0.00     0.211 HD
ENDBRANCH   4  17
TORSDOF 7
ENDMDL
