MODEL 1
REMARK VINA RESULT:    -2.681      0.000      0.000
REMARK INTER + INTRA:          -3.176
REMARK INTER:                  -3.151
REMARK INTRA:                  -0.026
REMARK UNBOUND:                -0.026
REMARK SMILES CCCCC(=O)[O-]
REMARK SMILES IDX 4 1 5 2 6 3 7 4 3 5 2 6 1 7
REMARK H PARENT
REMARK Flexibility Score: inf
ROOT
ATOM      1  C   UNL     1      21.473  23.092  18.722  1.00  0.00     0.053 C 
ENDROOT
BRANCH   1   2
ATOM      2  C   UNL     1      21.732  24.497  18.278  1.00  0.00     0.041 C 
ATOM      3  O   UNL     1      22.763  25.105  18.670  1.00  0.00    -0.550 OA
ATOM      4  O   UNL     1      20.861  25.118  17.393  1.00  0.00    -0.550 OA
ENDBRANCH   1   2
BRANCH   1   5
ATOM      5  C   UNL     1      22.734  22.492  19.358  1.00  0.00     0.006 C 
BRANCH   5   6
ATOM      6  C   UNL     1      22.582  20.995  19.669  1.00  0.00    -0.003 C 
ATOM      7  C   UNL     1      22.527  20.132  18.409  1.00  0.00     0.004 C 
ENDBRANCH   5   6
ENDBRANCH   1   5
TORSDOF 3
ENDMDL
MODEL 2
REMARK VINA RESULT:    -2.662      3.008      4.004
REMARK INTER + INTRA:          -3.155
REMARK INTER:                  -3.123
REMARK INTRA:                  -0.032
REMARK UNBOUND:                -0.026
REMARK SMILES CCCCC(=O)[O-]
REMARK SMILES IDX 4 1 5 2 6 3 7 4 3 5 2 6 1 7
REMARK H PARENT
REMARK Flexibility Score: inf
ROOT
ATOM      1  C   UNL     1      21.680  21.993  18.889  1.00  0.00     0.053 C 
ENDROOT
BRANCH   1   2
ATOM      2  C   UNL     1      21.909  20.517  18.985  1.00  0.00     0.041 C 
ATOM      3  O   UNL     1      21.274  19.832  19.829  1.00  0.00    -0.550 OA
ATOM      4  O   UNL     1      22.787  19.892  18.110  1.00  0.00    -0.550 OA
ENDBRANCH   1   2
BRANCH   1   5
ATOM      5  C   UNL     1      22.803  22.755  19.605  1.00  0.00     0.006 C 
BRANCH   5   6
ATOM      6  C   UNL     1      22.830  24.246  19.238  1.00  0.00    -0.003 C 
ATOM      7  C   UNL     1      21.771  24.619  18.201  1.00  0.00     0.004 C 
ENDBRANCH   5   6
ENDBRANCH   1   5
TORSDOF 3
ENDMDL
MODEL 3
REMARK VINA RESULT:    -2.488      1.500      1.925
REMARK INTER + INTRA:          -2.950
REMARK INTER:                  -2.880
REMARK INTRA:                  -0.070
REMARK UNBOUND:                -0.026
REMARK SMILES CCCCC(=O)[O-]
REMARK SMILES IDX 4 1 5 2 6 3 7 4 3 5 2 6 1 7
REMARK H PARENT
REMARK Flexibility Score: inf
ROOT
ATOM      1  C   UNL     1      21.239  23.242  19.853  1.00  0.00     0.053 C 
ENDROOT
BRANCH   1   2
ATOM      2  C   UNL     1      20.159  23.384  18.827  1.00  0.00     0.041 C 
ATOM      3  O   UNL     1      19.061  22.787  18.978  1.00  0.00    -0.550 OA
ATOM      4  O   UNL     1      20.348  24.212  17.730  1.00  0.00    -0.550 OA
ENDBRANCH   1   2
BRANCH   1   5
ATOM      5  C   UNL     1      22.508  22.661  19.216  1.00  0.00     0.006 C 
BRANCH   5   6
ATOM      6  C   UNL     1      22.740  21.192  19.600  1.00  0.00    -0.003 C 
ATOM      7  C   UNL     1      22.389  20.224  18.470  1.00  0.00     0.004 C 
ENDBRANCH   5   6
ENDBRANCH   1   5
TORSDOF 3
ENDMDL
MODEL 4
REMARK VINA RESULT:    -2.269     15.573     16.803
REMARK INTER + INTRA:          -2.693
REMARK INTER:                  -2.645
REMARK INTRA:                  -0.048
REMARK UNBOUND:                -0.026
REMARK SMILES CCCCC(=O)[O-]
REMARK SMILES IDX 4 1 5 2 6 3 7 4 3 5 2 6 1 7
REMARK H PARENT
REMARK Flexibility Score: inf
ROOT
ATOM      1  C   UNL     1      25.081   7.849  16.807  1.00  0.00     0.053 C 
ENDROOT
BRANCH   1   2
ATOM      2  C   UNL     1      26.048   7.639  17.929  1.00  0.00     0.041 C 
ATOM      3  O   UNL     1      26.604   6.521  18.084  1.00  0.00    -0.550 OA
ATOM      4  O   UNL     1      26.372   8.693  18.774  1.00  0.00    -0.550 OA
ENDBRANCH   1   2
BRANCH   1   5
ATOM      5  C   UNL     1      24.558   6.501  16.293  1.00  0.00     0.006 C 
BRANCH   5   6
ATOM      6  C   UNL     1      25.001   6.208  14.852  1.00  0.00    -0.003 C 
ATOM      7  C   UNL     1      24.160   5.121  14.185  1.00  0.00     0.004 C 
ENDBRANCH   5   6
ENDBRANCH   1   5
TORSDOF 3
ENDMDL
MODEL 5
REMARK VINA RESULT:    -2.268     11.024     12.295
REMARK INTER + INTRA:          -2.691
REMARK INTER:                  -2.590
REMARK INTRA:                  -0.101
REMARK UNBOUND:                -0.026
REMARK SMILES CCCCC(=O)[O-]
REMARK SMILES IDX 4 1 5 2 6 3 7 4 3 5 2 6 1 7
REMARK H PARENT
REMARK Flexibility Score: inf
ROOT
ATOM      1  C   UNL     1      19.651  12.228  17.575  1.00  0.00     0.053 C 
ENDROOT
BRANCH   1   2
ATOM      2  C   UNL     1      20.979  12.057  16.906  1.00  0.00     0.041 C 
ATOM      3  O   UNL     1      21.514  10.919  16.843  1.00  0.00    -0.550 OA
ATOM      4  O   UNL     1      21.602  13.146  16.312  1.00  0.00    -0.550 OA
ENDBRANCH   1   2
BRANCH   1   5
ATOM      5  C   UNL     1      18.533  11.648  16.698  1.00  0.00     0.006 C 
BRANCH   5   6
ATOM      6  C   UNL     1      18.067  10.265  17.178  1.00  0.00    -0.003 C 
ATOM      7  C   UNL     1      18.320   9.165  16.147  1.00  0.00     0.004 C 
ENDBRANCH   5   6
ENDBRANCH   1   5
TORSDOF 3
ENDMDL
MODEL 6
REMARK VINA RESULT:    -2.251     15.525     16.753
REMARK INTER + INTRA:          -2.671
REMARK INTER:                  -2.623
REMARK INTRA:                  -0.048
REMARK UNBOUND:                -0.026
REMARK SMILES CCCCC(=O)[O-]
REMARK SMILES IDX 4 1 5 2 6 3 7 4 3 5 2 6 1 7
REMARK H PARENT
REMARK Flexibility Score: inf
ROOT
ATOM      1  C   UNL     1      24.948   7.896  16.817  1.00  0.00     0.053 C 
ENDROOT
BRANCH   1   2
ATOM      2  C   UNL     1      26.018   7.714  17.847  1.00  0.00     0.041 C 
ATOM      3  O   UNL     1      26.380   8.685  18.562  1.00  0.00    -0.550 OA
ATOM      4  O   UNL     1      26.581   6.461  18.050  1.00  0.00    -0.550 OA
ENDBRANCH   1   2
BRANCH   1   5
ATOM      5  C   UNL     1      24.439   6.533  16.328  1.00  0.00     0.006 C 
BRANCH   5   6
ATOM      6  C   UNL     1      24.891   6.215  14.895  1.00  0.00    -0.003 C 
ATOM      7  C   UNL     1      23.923   5.285  14.164  1.00  0.00     0.004 C 
ENDBRANCH   5   6
ENDBRANCH   1   5
TORSDOF 3
ENDMDL
MODEL 7
REMARK VINA RESULT:    -2.225      1.390      2.008
REMARK INTER + INTRA:          -2.640
REMARK INTER:                  -2.609
REMARK INTRA:                  -0.031
REMARK UNBOUND:                -0.026
REMARK SMILES CCCCC(=O)[O-]
REMARK SMILES IDX 4 1 5 2 6 3 7 4 3 5 2 6 1 7
REMARK H PARENT
REMARK Flexibility Score: inf
ROOT
ATOM      1  C   UNL     1      21.937  22.405  19.935  1.00  0.00     0.053 C 
ENDROOT
BRANCH   1   2
ATOM      2  C   UNL     1      22.426  23.810  19.780  1.00  0.00     0.041 C 
ATOM      3  O   UNL     1      22.700  24.262  18.637  1.00  0.00    -0.550 OA
ATOM      4  O   UNL     1      22.534  24.635  20.891  1.00  0.00    -0.550 OA
ENDBRANCH   1   2
BRANCH   1   5
ATOM      5  C   UNL     1      22.880  21.429  19.220  1.00  0.00     0.006 C 
BRANCH   5   6
ATOM      6  C   UNL     1      22.163  20.154  18.751  1.00  0.00    -0.003 C 
ATOM      7  C   UNL     1      21.194  19.602  19.797  1.00  0.00     0.004 C 
ENDBRANCH   5   6
ENDBRANCH   1   5
TORSDOF 3
ENDMDL
MODEL 8
REMARK VINA RESULT:    -2.179     15.576     16.886
REMARK INTER + INTRA:          -2.586
REMARK INTER:                  -2.535
REMARK INTRA:                  -0.052
REMARK UNBOUND:                -0.026
REMARK SMILES CCCCC(=O)[O-]
REMARK SMILES IDX 4 1 5 2 6 3 7 4 3 5 2 6 1 7
REMARK H PARENT
REMARK Flexibility Score: inf
ROOT
ATOM      1  C   UNL     1      25.040   6.664  15.781  1.00  0.00     0.053 C 
ENDROOT
BRANCH   1   2
ATOM      2  C   UNL     1      24.954   7.801  16.750  1.00  0.00     0.041 C 
ATOM      3  O   UNL     1      23.832   8.260  17.089  1.00  0.00    -0.550 OA
ATOM      4  O   UNL     1      26.111   8.322  17.314  1.00  0.00    -0.550 OA
ENDBRANCH   1   2
BRANCH   1   5
ATOM      5  C   UNL     1      23.913   5.656  16.040  1.00  0.00     0.006 C 
BRANCH   5   6
ATOM      6  C   UNL     1      22.969   5.506  14.837  1.00  0.00    -0.003 C 
ATOM      7  C   UNL     1      23.654   4.877  13.623  1.00  0.00     0.004 C 
ENDBRANCH   5   6
ENDBRANCH   1   5
TORSDOF 3
ENDMDL
