MODEL 1
REMARK VINA RESULT:    -5.631      0.000      0.000
REMARK INTER + INTRA:         -14.985
REMARK INTER:                 -12.872
REMARK INTRA:                  -2.112
REMARK UNBOUND:                -2.112
REMARK SMILES CCCCCCCCCCCCCCCCCCCCCCCC(=O)[O-]
REMARK SMILES IDX 13 1 14 2 15 3 16 4 17 5 18 6 19 7 20 8 21 9 22 10 23 11
REMARK SMILES IDX 24 12 25 13 26 14 12 15 11 16 10 17 9 18 8 19 7 20 6 21 5 22
REMARK SMILES IDX 4 23 3 24 2 25 1 26
REMARK H PARENT
REMARK Flexibility Score: inf
ROOT
ATOM      1  C   UNL     1      29.677  -1.504  30.204  1.00  0.00     0.000 C 
ENDROOT
BRANCH   1   2
ATOM      2  C   UNL     1      30.389  -0.197  30.592  1.00  0.00     0.000 C 
BRANCH   2   3
ATOM      3  C   UNL     1      29.770   0.467  31.835  1.00  0.00     0.000 C 
BRANCH   3   4
ATOM      4  C   UNL     1      29.169   1.868  31.590  1.00  0.00     0.000 C 
BRANCH   4   5
ATOM      5  C   UNL     1      27.800   1.877  30.880  1.00  0.00     0.000 C 
BRANCH   5   6
ATOM      6  C   UNL     1      27.835   2.331  29.409  1.00  0.00     0.000 C 
BRANCH   6   7
ATOM      7  C   UNL     1      27.598   3.838  29.185  1.00  0.00     0.000 C 
BRANCH   7   8
ATOM      8  C   UNL     1      28.119   4.730  30.333  1.00  0.00     0.000 C 
BRANCH   8   9
ATOM      9  C   UNL     1      27.017   5.610  30.951  1.00  0.00     0.000 C 
BRANCH   9  10
ATOM     10  C   UNL     1      27.009   7.036  30.378  1.00  0.00     0.006 C 
BRANCH  10  11
ATOM     11  C   UNL     1      28.414   7.652  30.308  1.00  0.00     0.053 C 
BRANCH  11  12
ATOM     12  C   UNL     1      28.348   9.082  29.864  1.00  0.00     0.041 C 
ATOM     13  O   UNL     1      29.353   9.831  29.990  1.00  0.00    -0.550 OA
ATOM     14  O   UNL     1      27.183   9.582  29.294  1.00  0.00    -0.550 OA
ENDBRANCH  11  12
ENDBRANCH  10  11
ENDBRANCH   9  10
ENDBRANCH   8   9
ENDBRANCH   7   8
ENDBRANCH   6   7
ENDBRANCH   5   6
ENDBRANCH   4   5
ENDBRANCH   3   4
ENDBRANCH   2   3
ENDBRANCH   1   2
BRANCH   1  15
ATOM     15  C   UNL     1      28.877  -1.375  28.898  1.00  0.00     0.000 C 
BRANCH  15  16
ATOM     16  C   UNL     1      27.359  -1.318  29.141  1.00  0.00     0.000 C 
BRANCH  16  17
ATOM     17  C   UNL     1      26.963  -1.866  30.521  1.00  0.00     0.000 C 
BRANCH  17  18
ATOM     18  C   UNL     1      26.413  -3.302  30.452  1.00  0.00    -0.000 C 
BRANCH  18  19
ATOM     19  C   UNL     1      27.397  -4.333  31.044  1.00  0.00    -0.000 C 
BRANCH  19  20
ATOM     20  C   UNL     1      27.499  -5.632  30.227  1.00  0.00    -0.000 C 
BRANCH  20  21
ATOM     21  C   UNL     1      28.903  -5.866  29.646  1.00  0.00    -0.000 C 
BRANCH  21  22
ATOM     22  C   UNL     1      29.007  -7.185  28.864  1.00  0.00    -0.000 C 
BRANCH  22  23
ATOM     23  C   UNL     1      28.358  -8.366  29.609  1.00  0.00    -0.000 C 
BRANCH  23  24
ATOM     24  C   UNL     1      29.361  -9.482  29.945  1.00  0.00    -0.000 C 
BRANCH  24  25
ATOM     25  C   UNL     1      29.728  -9.590  31.436  1.00  0.00    -0.003 C 
ATOM     26  C   UNL     1      28.701  -8.922  32.351  1.00  0.00     0.004 C 
ENDBRANCH  24  25
ENDBRANCH  23  24
ENDBRANCH  22  23
ENDBRANCH  21  22
ENDBRANCH  20  21
ENDBRANCH  19  20
ENDBRANCH  18  19
ENDBRANCH  17  18
ENDBRANCH  16  17
ENDBRANCH  15  16
ENDBRANCH   1  15
TORSDOF 22
ENDMDL
MODEL 2
REMARK VINA RESULT:    -5.431      1.630      2.675
REMARK INTER + INTRA:         -14.527
REMARK INTER:                 -12.750
REMARK INTRA:                  -1.777
REMARK UNBOUND:                -2.112
REMARK SMILES CCCCCCCCCCCCCCCCCCCCCCCC(=O)[O-]
REMARK SMILES IDX 13 1 14 2 15 3 16 4 17 5 18 6 19 7 20 8 21 9 22 10 23 11
REMARK SMILES IDX 24 12 25 13 26 14 12 15 11 16 10 17 9 18 8 19 7 20 6 21 5 22
REMARK SMILES IDX 4 23 3 24 2 25 1 26
REMARK H PARENT
REMARK Flexibility Score: inf
ROOT
ATOM      1  C   UNL     1      26.160  -0.651  30.293  1.00  0.00     0.000 C 
ENDROOT
BRANCH   1   2
ATOM      2  C   UNL     1      26.613   0.022  28.987  1.00  0.00     0.000 C 
BRANCH   2   3
ATOM      3  C   UNL     1      27.128   1.456  29.208  1.00  0.00     0.000 C 
BRANCH   3   4
ATOM      4  C   UNL     1      28.593   1.552  29.683  1.00  0.00     0.000 C 
BRANCH   4   5
ATOM      5  C   UNL     1      28.778   2.004  31.146  1.00  0.00     0.000 C 
BRANCH   5   6
ATOM      6  C   UNL     1      28.032   3.296  31.526  1.00  0.00     0.000 C 
BRANCH   6   7
ATOM      7  C   UNL     1      28.750   4.603  31.134  1.00  0.00     0.000 C 
BRANCH   7   8
ATOM      8  C   UNL     1      27.872   5.579  30.320  1.00  0.00     0.000 C 
BRANCH   8   9
ATOM      9  C   UNL     1      28.597   6.898  29.991  1.00  0.00     0.000 C 
BRANCH   9  10
ATOM     10  C   UNL     1      27.632   8.089  29.877  1.00  0.00     0.006 C 
BRANCH  10  11
ATOM     11  C   UNL     1      27.864   9.144  30.970  1.00  0.00     0.053 C 
BRANCH  11  12
ATOM     12  C   UNL     1      26.568   9.553  31.599  1.00  0.00     0.041 C 
ATOM     13  O   UNL     1      26.529   9.878  32.816  1.00  0.00    -0.550 OA
ATOM     14  O   UNL     1      25.405   9.594  30.838  1.00  0.00    -0.550 OA
ENDBRANCH  11  12
ENDBRANCH  10  11
ENDBRANCH   9  10
ENDBRANCH   8   9
ENDBRANCH   7   8
ENDBRANCH   6   7
ENDBRANCH   5   6
ENDBRANCH   4   5
ENDBRANCH   3   4
ENDBRANCH   2   3
ENDBRANCH   1   2
BRANCH   1  15
ATOM     15  C   UNL     1      26.844  -2.007  30.526  1.00  0.00     0.000 C 
BRANCH  15  16
ATOM     16  C   UNL     1      28.293  -1.858  31.020  1.00  0.00     0.000 C 
BRANCH  16  17
ATOM     17  C   UNL     1      29.324  -2.146  29.918  1.00  0.00     0.000 C 
BRANCH  17  18
ATOM     18  C   UNL     1      30.107  -3.447  30.167  1.00  0.00    -0.000 C 
BRANCH  18  19
ATOM     19  C   UNL     1      29.288  -4.702  29.795  1.00  0.00    -0.000 C 
BRANCH  19  20
ATOM     20  C   UNL     1      29.622  -5.935  30.651  1.00  0.00    -0.000 C 
BRANCH  20  21
ATOM     21  C   UNL     1      28.393  -6.817  30.935  1.00  0.00    -0.000 C 
BRANCH  21  22
ATOM     22  C   UNL     1      28.741  -8.063  31.764  1.00  0.00    -0.000 C 
BRANCH  22  23
ATOM     23  C   UNL     1      29.557  -9.096  30.966  1.00  0.00    -0.000 C 
BRANCH  23  24
ATOM     24  C   UNL     1      28.672 -10.120  30.235  1.00  0.00    -0.000 C 
BRANCH  24  25
ATOM     25  C   UNL     1      28.322  -9.748  28.783  1.00  0.00    -0.003 C 
ATOM     26  C   UNL     1      29.447  -8.991  28.076  1.00  0.00     0.004 C 
ENDBRANCH  24  25
ENDBRANCH  23  24
ENDBRANCH  22  23
ENDBRANCH  21  22
ENDBRANCH  20  21
ENDBRANCH  19  20
ENDBRANCH  18  19
ENDBRANCH  17  18
ENDBRANCH  16  17
ENDBRANCH  15  16
ENDBRANCH   1  15
TORSDOF 22
ENDMDL
MODEL 3
REMARK VINA RESULT:    -5.386      5.601     12.434
REMARK INTER + INTRA:         -14.425
REMARK INTER:                 -12.670
REMARK INTRA:                  -1.755
REMARK UNBOUND:                -2.112
REMARK SMILES CCCCCCCCCCCCCCCCCCCCCCCC(=O)[O-]
REMARK SMILES IDX 13 1 14 2 15 3 16 4 17 5 18 6 19 7 20 8 21 9 22 10 23 11
REMARK SMILES IDX 24 12 25 13 26 14 12 15 11 16 10 17 9 18 8 19 7 20 6 21 5 22
REMARK SMILES IDX 4 23 3 24 2 25 1 26
REMARK H PARENT
REMARK Flexibility Score: inf
ROOT
ATOM      1  C   UNL     1      27.211  -1.048  28.979  1.00  0.00     0.000 C 
ENDROOT
BRANCH   1   2
ATOM      2  C   UNL     1      26.476  -1.839  30.074  1.00  0.00     0.000 C 
BRANCH   2   3
ATOM      3  C   UNL     1      27.274  -3.063  30.558  1.00  0.00     0.000 C 
BRANCH   3   4
ATOM      4  C   UNL     1      28.798  -2.844  30.657  1.00  0.00     0.000 C 
BRANCH   4   5
ATOM      5  C   UNL     1      29.642  -3.649  29.648  1.00  0.00     0.000 C 
BRANCH   5   6
ATOM      6  C   UNL     1      30.491  -4.776  30.264  1.00  0.00     0.000 C 
BRANCH   6   7
ATOM      7  C   UNL     1      29.696  -6.015  30.722  1.00  0.00     0.000 C 
BRANCH   7   8
ATOM      8  C   UNL     1      28.577  -6.436  29.746  1.00  0.00     0.000 C 
BRANCH   8   9
ATOM      9  C   UNL     1      29.082  -7.364  28.625  1.00  0.00     0.000 C 
BRANCH   9  10
ATOM     10  C   UNL     1      29.067  -8.846  29.033  1.00  0.00     0.006 C 
BRANCH  10  11
ATOM     11  C   UNL     1      28.151  -9.118  30.236  1.00  0.00     0.053 C 
BRANCH  11  12
ATOM     12  C   UNL     1      28.945  -9.603  31.411  1.00  0.00     0.041 C 
ATOM     13  O   UNL     1      30.087 -10.105  31.239  1.00  0.00    -0.550 OA
ATOM     14  O   UNL     1      28.430  -9.483  32.697  1.00  0.00    -0.550 OA
ENDBRANCH  11  12
ENDBRANCH  10  11
ENDBRANCH   9  10
ENDBRANCH   8   9
ENDBRANCH   7   8
ENDBRANCH   6   7
ENDBRANCH   5   6
ENDBRANCH   4   5
ENDBRANCH   3   4
ENDBRANCH   2   3
ENDBRANCH   1   2
BRANCH   1  15
ATOM     15  C   UNL     1      26.539   0.300  28.674  1.00  0.00     0.000 C 
BRANCH  15  16
ATOM     16  C   UNL     1      27.327   1.492  29.245  1.00  0.00     0.000 C 
BRANCH  16  17
ATOM     17  C   UNL     1      28.737   1.097  29.710  1.00  0.00     0.000 C 
BRANCH  17  18
ATOM     18  C   UNL     1      29.025   1.530  31.159  1.00  0.00    -0.000 C 
BRANCH  18  19
ATOM     19  C   UNL     1      28.108   2.685  31.615  1.00  0.00    -0.000 C 
BRANCH  19  20
ATOM     20  C   UNL     1      28.709   4.082  31.380  1.00  0.00    -0.000 C 
BRANCH  20  21
ATOM     21  C   UNL     1      27.824   4.973  30.492  1.00  0.00    -0.000 C 
BRANCH  21  22
ATOM     22  C   UNL     1      28.623   6.080  29.784  1.00  0.00    -0.000 C 
BRANCH  22  23
ATOM     23  C   UNL     1      28.270   7.486  30.302  1.00  0.00    -0.000 C 
BRANCH  23  24
ATOM     24  C   UNL     1      26.783   7.630  30.669  1.00  0.00    -0.000 C 
BRANCH  24  25
ATOM     25  C   UNL     1      26.246   9.072  30.624  1.00  0.00    -0.003 C 
ATOM     26  C   UNL     1      26.838   9.892  29.477  1.00  0.00     0.004 C 
ENDBRANCH  24  25
ENDBRANCH  23  24
ENDBRANCH  22  23
ENDBRANCH  21  22
ENDBRANCH  20  21
ENDBRANCH  19  20
ENDBRANCH  18  19
ENDBRANCH  17  18
ENDBRANCH  16  17
ENDBRANCH  15  16
ENDBRANCH   1  15
TORSDOF 22
ENDMDL
MODEL 4
REMARK VINA RESULT:    -5.383      5.559     12.856
REMARK INTER + INTRA:         -14.419
REMARK INTER:                 -13.034
REMARK INTRA:                  -1.385
REMARK UNBOUND:                -2.112
REMARK SMILES CCCCCCCCCCCCCCCCCCCCCCCC(=O)[O-]
REMARK SMILES IDX 13 1 14 2 15 3 16 4 17 5 18 6 19 7 20 8 21 9 22 10 23 11
REMARK SMILES IDX 24 12 25 13 26 14 12 15 11 16 10 17 9 18 8 19 7 20 6 21 5 22
REMARK SMILES IDX 4 23 3 24 2 25 1 26
REMARK H PARENT
REMARK Flexibility Score: inf
ROOT
ATOM      1  C   UNL     1      29.432   0.120  29.223  1.00  0.00     0.000 C 
ENDROOT
BRANCH   1   2
ATOM      2  C   UNL     1      28.648  -1.160  28.891  1.00  0.00     0.000 C 
BRANCH   2   3
ATOM      3  C   UNL     1      27.150  -1.039  29.225  1.00  0.00     0.000 C 
BRANCH   3   4
ATOM      4  C   UNL     1      26.654  -1.990  30.335  1.00  0.00     0.000 C 
BRANCH   4   5
ATOM      5  C   UNL     1      27.456  -3.300  30.479  1.00  0.00     0.000 C 
BRANCH   5   6
ATOM      6  C   UNL     1      26.614  -4.587  30.405  1.00  0.00     0.000 C 
BRANCH   6   7
ATOM      7  C   UNL     1      27.405  -5.865  30.060  1.00  0.00     0.000 C 
BRANCH   7   8
ATOM      8  C   UNL     1      28.578  -6.155  31.023  1.00  0.00     0.000 C 
BRANCH   8   9
ATOM      9  C   UNL     1      29.518  -7.257  30.501  1.00  0.00     0.000 C 
BRANCH   9  10
ATOM     10  C   UNL     1      29.258  -8.618  31.167  1.00  0.00     0.006 C 
BRANCH  10  11
ATOM     11  C   UNL     1      29.849  -9.789  30.368  1.00  0.00     0.053 C 
BRANCH  11  12
ATOM     12  C   UNL     1      29.291  -9.822  28.979  1.00  0.00     0.041 C 
ATOM     13  O   UNL     1      28.062 -10.028  28.795  1.00  0.00    -0.550 OA
ATOM     14  O   UNL     1      30.125  -9.607  27.887  1.00  0.00    -0.550 OA
ENDBRANCH  11  12
ENDBRANCH  10  11
ENDBRANCH   9  10
ENDBRANCH   8   9
ENDBRANCH   7   8
ENDBRANCH   6   7
ENDBRANCH   5   6
ENDBRANCH   4   5
ENDBRANCH   3   4
ENDBRANCH   2   3
ENDBRANCH   1   2
BRANCH   1  15
ATOM     15  C   UNL     1      29.797   0.219  30.713  1.00  0.00     0.000 C 
BRANCH  15  16
ATOM     16  C   UNL     1      28.695   0.900  31.544  1.00  0.00     0.000 C 
BRANCH  16  17
ATOM     17  C   UNL     1      28.212   2.216  30.915  1.00  0.00     0.000 C 
BRANCH  17  18
ATOM     18  C   UNL     1      28.568   3.445  31.769  1.00  0.00    -0.000 C 
BRANCH  18  19
ATOM     19  C   UNL     1      28.575   4.748  30.942  1.00  0.00    -0.000 C 
BRANCH  19  20
ATOM     20  C   UNL     1      27.220   5.477  30.923  1.00  0.00    -0.000 C 
BRANCH  20  21
ATOM     21  C   UNL     1      27.186   6.651  29.930  1.00  0.00    -0.000 C 
BRANCH  21  22
ATOM     22  C   UNL     1      28.432   7.545  30.029  1.00  0.00    -0.000 C 
BRANCH  22  23
ATOM     23  C   UNL     1      28.096   9.043  29.907  1.00  0.00    -0.000 C 
BRANCH  23  24
ATOM     24  C   UNL     1      26.583   9.311  29.846  1.00  0.00    -0.000 C 
BRANCH  24  25
ATOM     25  C   UNL     1      25.945   9.709  31.189  1.00  0.00    -0.003 C 
ATOM     26  C   UNL     1      26.977  10.123  32.238  1.00  0.00     0.004 C 
ENDBRANCH  24  25
ENDBRANCH  23  24
ENDBRANCH  22  23
ENDBRANCH  21  22
ENDBRANCH  20  21
ENDBRANCH  19  20
ENDBRANCH  18  19
ENDBRANCH  17  18
ENDBRANCH  16  17
ENDBRANCH  15  16
ENDBRANCH   1  15
TORSDOF 22
ENDMDL
MODEL 5
REMARK VINA RESULT:    -5.381      6.050     10.181
REMARK INTER + INTRA:         -14.415
REMARK INTER:                 -12.286
REMARK INTRA:                  -2.129
REMARK UNBOUND:                -2.112
REMARK SMILES CCCCCCCCCCCCCCCCCCCCCCCC(=O)[O-]
REMARK SMILES IDX 13 1 14 2 15 3 16 4 17 5 18 6 19 7 20 8 21 9 22 10 23 11
REMARK SMILES IDX 24 12 25 13 26 14 12 15 11 16 10 17 9 18 8 19 7 20 6 21 5 22
REMARK SMILES IDX 4 23 3 24 2 25 1 26
REMARK H PARENT
REMARK Flexibility Score: inf
ROOT
ATOM      1  C   UNL     1      29.544   0.988  30.075  1.00  0.00     0.000 C 
ENDROOT
BRANCH   1   2
ATOM      2  C   UNL     1      29.028   0.345  31.374  1.00  0.00     0.000 C 
BRANCH   2   3
ATOM      3  C   UNL     1      29.471  -1.121  31.525  1.00  0.00     0.000 C 
BRANCH   3   4
ATOM      4  C   UNL     1      29.756  -1.852  30.197  1.00  0.00     0.000 C 
BRANCH   4   5
ATOM      5  C   UNL     1      28.688  -2.882  29.775  1.00  0.00     0.000 C 
BRANCH   5   6
ATOM      6  C   UNL     1      27.633  -3.200  30.851  1.00  0.00     0.000 C 
BRANCH   6   7
ATOM      7  C   UNL     1      26.649  -4.329  30.485  1.00  0.00     0.000 C 
BRANCH   7   8
ATOM      8  C   UNL     1      27.331  -5.683  30.192  1.00  0.00     0.000 C 
BRANCH   8   9
ATOM      9  C   UNL     1      28.423  -6.034  31.220  1.00  0.00     0.000 C 
BRANCH   9  10
ATOM     10  C   UNL     1      29.542  -6.900  30.620  1.00  0.00     0.006 C 
BRANCH  10  11
ATOM     11  C   UNL     1      29.191  -8.395  30.607  1.00  0.00     0.053 C 
BRANCH  11  12
ATOM     12  C   UNL     1      28.711  -8.818  29.253  1.00  0.00     0.041 C 
ATOM     13  O   UNL     1      27.851  -9.732  29.142  1.00  0.00    -0.550 OA
ATOM     14  O   UNL     1      29.201  -8.192  28.112  1.00  0.00    -0.550 OA
ENDBRANCH  11  12
ENDBRANCH  10  11
ENDBRANCH   9  10
ENDBRANCH   8   9
ENDBRANCH   7   8
ENDBRANCH   6   7
ENDBRANCH   5   6
ENDBRANCH   4   5
ENDBRANCH   3   4
ENDBRANCH   2   3
ENDBRANCH   1   2
BRANCH   1  15
ATOM     15  C   UNL     1      28.436   1.165  29.025  1.00  0.00     0.000 C 
BRANCH  15  16
ATOM     16  C   UNL     1      27.033   1.221  29.654  1.00  0.00     0.000 C 
BRANCH  16  17
ATOM     17  C   UNL     1      26.247  -0.084  29.455  1.00  0.00     0.000 C 
BRANCH  17  18
ATOM     18  C   UNL     1      26.119  -0.478  27.973  1.00  0.00    -0.000 C 
BRANCH  18  19
ATOM     19  C   UNL     1      25.345   0.578  27.154  1.00  0.00    -0.000 C 
BRANCH  19  20
ATOM     20  C   UNL     1      24.608  -0.003  25.935  1.00  0.00    -0.000 C 
BRANCH  20  21
ATOM     21  C   UNL     1      23.171   0.526  25.796  1.00  0.00    -0.000 C 
BRANCH  21  22
ATOM     22  C   UNL     1      22.116  -0.577  25.981  1.00  0.00    -0.000 C 
BRANCH  22  23
ATOM     23  C   UNL     1      21.404  -0.490  27.344  1.00  0.00    -0.000 C 
BRANCH  23  24
ATOM     24  C   UNL     1      21.100  -1.873  27.946  1.00  0.00    -0.000 C 
BRANCH  24  25
ATOM     25  C   UNL     1      20.989  -1.896  29.481  1.00  0.00    -0.003 C 
ATOM     26  C   UNL     1      22.309  -1.568  30.178  1.00  0.00     0.004 C 
ENDBRANCH  24  25
ENDBRANCH  23  24
ENDBRANCH  22  23
ENDBRANCH  21  22
ENDBRANCH  20  21
ENDBRANCH  19  20
ENDBRANCH  18  19
ENDBRANCH  17  18
ENDBRANCH  16  17
ENDBRANCH  15  16
ENDBRANCH   1  15
TORSDOF 22
ENDMDL
MODEL 6
REMARK VINA RESULT:    -5.352      3.583      5.738
REMARK INTER + INTRA:         -14.349
REMARK INTER:                 -12.503
REMARK INTRA:                  -1.846
REMARK UNBOUND:                -2.112
REMARK SMILES CCCCCCCCCCCCCCCCCCCCCCCC(=O)[O-]
REMARK SMILES IDX 13 1 14 2 15 3 16 4 17 5 18 6 19 7 20 8 21 9 22 10 23 11
REMARK SMILES IDX 24 12 25 13 26 14 12 15 11 16 10 17 9 18 8 19 7 20 6 21 5 22
REMARK SMILES IDX 4 23 3 24 2 25 1 26
REMARK H PARENT
REMARK Flexibility Score: inf
ROOT
ATOM      1  C   UNL     1      29.331  -1.048  30.907  1.00  0.00     0.000 C 
ENDROOT
BRANCH   1   2
ATOM      2  C   UNL     1      29.865   0.358  30.587  1.00  0.00     0.000 C 
BRANCH   2   3
ATOM      3  C   UNL     1      29.198   1.452  31.440  1.00  0.00     0.000 C 
BRANCH   3   4
ATOM      4  C   UNL     1      27.909   2.048  30.837  1.00  0.00     0.000 C 
BRANCH   4   5
ATOM      5  C   UNL     1      28.125   3.003  29.645  1.00  0.00     0.000 C 
BRANCH   5   6
ATOM      6  C   UNL     1      27.201   4.235  29.625  1.00  0.00     0.000 C 
BRANCH   6   7
ATOM      7  C   UNL     1      27.497   5.290  30.709  1.00  0.00     0.000 C 
BRANCH   7   8
ATOM      8  C   UNL     1      27.209   6.741  30.264  1.00  0.00     0.000 C 
BRANCH   8   9
ATOM      9  C   UNL     1      28.473   7.477  29.782  1.00  0.00     0.000 C 
BRANCH   9  10
ATOM     10  C   UNL     1      28.671   8.832  30.481  1.00  0.00     0.006 C 
BRANCH  10  11
ATOM     11  C   UNL     1      28.173  10.012  29.634  1.00  0.00     0.053 C 
BRANCH  11  12
ATOM     12  C   UNL     1      26.677  10.027  29.566  1.00  0.00     0.041 C 
ATOM     13  O   UNL     1      26.094  10.089  28.451  1.00  0.00    -0.550 OA
ATOM     14  O   UNL     1      25.925   9.956  30.734  1.00  0.00    -0.550 OA
ENDBRANCH  11  12
ENDBRANCH  10  11
ENDBRANCH   9  10
ENDBRANCH   8   9
ENDBRANCH   7   8
ENDBRANCH   6   7
ENDBRANCH   5   6
ENDBRANCH   4   5
ENDBRANCH   3   4
ENDBRANCH   2   3
ENDBRANCH   1   2
BRANCH   1  15
ATOM     15  C   UNL     1      28.471  -1.625  29.771  1.00  0.00     0.000 C 
BRANCH  15  16
ATOM     16  C   UNL     1      26.991  -1.766  30.168  1.00  0.00     0.000 C 
BRANCH  16  17
ATOM     17  C   UNL     1      26.114  -0.652  29.577  1.00  0.00     0.000 C 
BRANCH  17  18
ATOM     18  C   UNL     1      26.488  -0.313  28.123  1.00  0.00    -0.000 C 
BRANCH  18  19
ATOM     19  C   UNL     1      25.427   0.578  27.441  1.00  0.00    -0.000 C 
BRANCH  19  20
ATOM     20  C   UNL     1      24.746  -0.087  26.233  1.00  0.00    -0.000 C 
BRANCH  20  21
ATOM     21  C   UNL     1      23.421   0.592  25.845  1.00  0.00    -0.000 C 
BRANCH  21  22
ATOM     22  C   UNL     1      22.249  -0.400  25.773  1.00  0.00    -0.000 C 
BRANCH  22  23
ATOM     23  C   UNL     1      21.375  -0.374  27.041  1.00  0.00    -0.000 C 
BRANCH  23  24
ATOM     24  C   UNL     1      21.320  -1.735  27.755  1.00  0.00    -0.000 C 
BRANCH  24  25
ATOM     25  C   UNL     1      21.009  -1.660  29.260  1.00  0.00    -0.003 C 
ATOM     26  C   UNL     1      22.269  -1.587  30.124  1.00  0.00     0.004 C 
ENDBRANCH  24  25
ENDBRANCH  23  24
ENDBRANCH  22  23
ENDBRANCH  21  22
ENDBRANCH  20  21
ENDBRANCH  19  20
ENDBRANCH  18  19
ENDBRANCH  17  18
ENDBRANCH  16  17
ENDBRANCH  15  16
ENDBRANCH   1  15
TORSDOF 22
ENDMDL
MODEL 7
REMARK VINA RESULT:    -5.318      6.168     10.064
REMARK INTER + INTRA:         -14.271
REMARK INTER:                 -12.147
REMARK INTRA:                  -2.124
REMARK UNBOUND:                -2.112
REMARK SMILES CCCCCCCCCCCCCCCCCCCCCCCC(=O)[O-]
REMARK SMILES IDX 13 1 14 2 15 3 16 4 17 5 18 6 19 7 20 8 21 9 22 10 23 11
REMARK SMILES IDX 24 12 25 13 26 14 12 15 11 16 10 17 9 18 8 19 7 20 6 21 5 22
REMARK SMILES IDX 4 23 3 24 2 25 1 26
REMARK H PARENT
REMARK Flexibility Score: inf
ROOT
ATOM      1  C   UNL     1      27.742   1.572  29.852  1.00  0.00     0.000 C 
ENDROOT
BRANCH   1   2
ATOM      2  C   UNL     1      28.108   1.387  31.334  1.00  0.00     0.000 C 
BRANCH   2   3
ATOM      3  C   UNL     1      29.560   0.916  31.531  1.00  0.00     0.000 C 
BRANCH   3   4
ATOM      4  C   UNL     1      30.250   0.392  30.253  1.00  0.00     0.000 C 
BRANCH   4   5
ATOM      5  C   UNL     1      30.412  -1.140  30.179  1.00  0.00     0.000 C 
BRANCH   5   6
ATOM      6  C   UNL     1      29.276  -1.945  30.836  1.00  0.00     0.000 C 
BRANCH   6   7
ATOM      7  C   UNL     1      28.827  -3.196  30.055  1.00  0.00     0.000 C 
BRANCH   7   8
ATOM      8  C   UNL     1      27.632  -3.938  30.694  1.00  0.00     0.000 C 
BRANCH   8   9
ATOM      9  C   UNL     1      27.527  -5.404  30.235  1.00  0.00     0.000 C 
BRANCH   9  10
ATOM     10  C   UNL     1      28.868  -6.150  30.330  1.00  0.00     0.006 C 
BRANCH  10  11
ATOM     11  C   UNL     1      28.770  -7.604  29.845  1.00  0.00     0.053 C 
BRANCH  11  12
ATOM     12  C   UNL     1      28.907  -8.559  30.992  1.00  0.00     0.041 C 
ATOM     13  O   UNL     1      28.601  -8.196  32.158  1.00  0.00    -0.550 OA
ATOM     14  O   UNL     1      29.357  -9.856  30.770  1.00  0.00    -0.550 OA
ENDBRANCH  11  12
ENDBRANCH  10  11
ENDBRANCH   9  10
ENDBRANCH   8   9
ENDBRANCH   7   8
ENDBRANCH   6   7
ENDBRANCH   5   6
ENDBRANCH   4   5
ENDBRANCH   3   4
ENDBRANCH   2   3
ENDBRANCH   1   2
BRANCH   1  15
ATOM     15  C   UNL     1      26.922   0.396  29.297  1.00  0.00     0.000 C 
BRANCH  15  16
ATOM     16  C   UNL     1      26.208  -0.397  30.405  1.00  0.00     0.000 C 
BRANCH  16  17
ATOM     17  C   UNL     1      25.029  -1.225  29.870  1.00  0.00     0.000 C 
BRANCH  17  18
ATOM     18  C   UNL     1      23.738  -1.007  30.677  1.00  0.00    -0.000 C 
BRANCH  18  19
ATOM     19  C   UNL     1      22.709  -2.135  30.447  1.00  0.00    -0.000 C 
BRANCH  19  20
ATOM     20  C   UNL     1      21.330  -1.631  29.989  1.00  0.00    -0.000 C 
BRANCH  20  21
ATOM     21  C   UNL     1      20.983  -2.058  28.553  1.00  0.00    -0.000 C 
BRANCH  21  22
ATOM     22  C   UNL     1      20.903  -0.867  27.586  1.00  0.00    -0.000 C 
BRANCH  22  23
ATOM     23  C   UNL     1      21.712  -1.097  26.297  1.00  0.00    -0.000 C 
BRANCH  23  24
ATOM     24  C   UNL     1      22.488   0.154  25.848  1.00  0.00    -0.000 C 
BRANCH  24  25
ATOM     25  C   UNL     1      24.009   0.082  26.071  1.00  0.00    -0.003 C 
ATOM     26  C   UNL     1      24.710   1.419  25.826  1.00  0.00     0.004 C 
ENDBRANCH  24  25
ENDBRANCH  23  24
ENDBRANCH  22  23
ENDBRANCH  21  22
ENDBRANCH  20  21
ENDBRANCH  19  20
ENDBRANCH  18  19
ENDBRANCH  17  18
ENDBRANCH  16  17
ENDBRANCH  15  16
ENDBRANCH   1  15
TORSDOF 22
ENDMDL
MODEL 8
REMARK VINA RESULT:    -5.310      4.193      6.336
REMARK INTER + INTRA:         -14.252
REMARK INTER:                 -12.185
REMARK INTRA:                  -2.067
REMARK UNBOUND:                -2.112
REMARK SMILES CCCCCCCCCCCCCCCCCCCCCCCC(=O)[O-]
REMARK SMILES IDX 13 1 14 2 15 3 16 4 17 5 18 6 19 7 20 8 21 9 22 10 23 11
REMARK SMILES IDX 24 12 25 13 26 14 12 15 11 16 10 17 9 18 8 19 7 20 6 21 5 22
REMARK SMILES IDX 4 23 3 24 2 25 1 26
REMARK H PARENT
REMARK Flexibility Score: inf
ROOT
ATOM      1  C   UNL     1      27.768   1.336  29.691  1.00  0.00     0.000 C 
ENDROOT
BRANCH   1   2
ATOM      2  C   UNL     1      26.708   0.301  29.279  1.00  0.00     0.000 C 
BRANCH   2   3
ATOM      3  C   UNL     1      25.951  -0.283  30.486  1.00  0.00     0.000 C 
BRANCH   3   4
ATOM      4  C   UNL     1      24.868  -1.322  30.130  1.00  0.00     0.000 C 
BRANCH   4   5
ATOM      5  C   UNL     1      23.445  -0.976  30.617  1.00  0.00     0.000 C 
BRANCH   5   6
ATOM      6  C   UNL     1      22.414  -2.109  30.465  1.00  0.00     0.000 C 
BRANCH   6   7
ATOM      7  C   UNL     1      21.201  -1.773  29.574  1.00  0.00     0.000 C 
BRANCH   7   8
ATOM      8  C   UNL     1      21.249  -2.431  28.178  1.00  0.00     0.000 C 
BRANCH   8   9
ATOM      9  C   UNL     1      20.911  -1.445  27.044  1.00  0.00     0.000 C 
BRANCH   9  10
ATOM     10  C   UNL     1      21.813  -0.201  27.053  1.00  0.00     0.006 C 
BRANCH  10  11
ATOM     11  C   UNL     1      22.483   0.053  25.695  1.00  0.00     0.053 C 
BRANCH  11  12
ATOM     12  C   UNL     1      23.855   0.626  25.876  1.00  0.00     0.041 C 
ATOM     13  O   UNL     1      24.831  -0.132  26.124  1.00  0.00    -0.550 OA
ATOM     14  O   UNL     1      24.061   1.996  25.753  1.00  0.00    -0.550 OA
ENDBRANCH  11  12
ENDBRANCH  10  11
ENDBRANCH   9  10
ENDBRANCH   8   9
ENDBRANCH   7   8
ENDBRANCH   6   7
ENDBRANCH   5   6
ENDBRANCH   4   5
ENDBRANCH   3   4
ENDBRANCH   2   3
ENDBRANCH   1   2
BRANCH   1  15
ATOM     15  C   UNL     1      28.183   1.200  31.164  1.00  0.00     0.000 C 
BRANCH  15  16
ATOM     16  C   UNL     1      29.504   0.429  31.334  1.00  0.00     0.000 C 
BRANCH  16  17
ATOM     17  C   UNL     1      29.294  -1.093  31.381  1.00  0.00     0.000 C 
BRANCH  17  18
ATOM     18  C   UNL     1      29.625  -1.777  30.042  1.00  0.00    -0.000 C 
BRANCH  18  19
ATOM     19  C   UNL     1      29.090  -3.223  29.979  1.00  0.00    -0.000 C 
BRANCH  19  20
ATOM     20  C   UNL     1      27.844  -3.461  30.849  1.00  0.00    -0.000 C 
BRANCH  20  21
ATOM     21  C   UNL     1      27.087  -4.746  30.473  1.00  0.00    -0.000 C 
BRANCH  21  22
ATOM     22  C   UNL     1      28.031  -5.898  30.094  1.00  0.00    -0.000 C 
BRANCH  22  23
ATOM     23  C   UNL     1      28.832  -6.426  31.298  1.00  0.00    -0.000 C 
BRANCH  23  24
ATOM     24  C   UNL     1      28.683  -7.945  31.492  1.00  0.00    -0.000 C 
BRANCH  24  25
ATOM     25  C   UNL     1      29.108  -8.794  30.280  1.00  0.00    -0.003 C 
ATOM     26  C   UNL     1      27.970  -9.653  29.728  1.00  0.00     0.004 C 
ENDBRANCH  24  25
ENDBRANCH  23  24
ENDBRANCH  22  23
ENDBRANCH  21  22
ENDBRANCH  20  21
ENDBRANCH  19  20
ENDBRANCH  18  19
ENDBRANCH  17  18
ENDBRANCH  16  17
ENDBRANCH  15  16
ENDBRANCH   1  15
TORSDOF 22
ENDMDL
MODEL 9
REMARK VINA RESULT:    -5.308      4.724      6.721
REMARK INTER + INTRA:         -14.247
REMARK INTER:                 -12.198
REMARK INTRA:                  -2.049
REMARK UNBOUND:                -2.112
REMARK SMILES CCCCCCCCCCCCCCCCCCCCCCCC(=O)[O-]
REMARK SMILES IDX 13 1 14 2 15 3 16 4 17 5 18 6 19 7 20 8 21 9 22 10 23 11
REMARK SMILES IDX 24 12 25 13 26 14 12 15 11 16 10 17 9 18 8 19 7 20 6 21 5 22
REMARK SMILES IDX 4 23 3 24 2 25 1 26
REMARK H PARENT
REMARK Flexibility Score: inf
ROOT
ATOM      1  C   UNL     1      27.849   1.205  31.032  1.00  0.00     0.000 C 
ENDROOT
BRANCH   1   2
ATOM      2  C   UNL     1      27.571   1.024  29.530  1.00  0.00     0.000 C 
BRANCH   2   3
ATOM      3  C   UNL     1      26.334   0.150  29.259  1.00  0.00     0.000 C 
BRANCH   3   4
ATOM      4  C   UNL     1      26.123  -0.233  27.779  1.00  0.00     0.000 C 
BRANCH   4   5
ATOM      5  C   UNL     1      25.074   0.613  27.028  1.00  0.00     0.000 C 
BRANCH   5   6
ATOM      6  C   UNL     1      24.319  -0.132  25.912  1.00  0.00     0.000 C 
BRANCH   6   7
ATOM      7  C   UNL     1      22.788   0.054  25.924  1.00  0.00     0.000 C 
BRANCH   7   8
ATOM      8  C   UNL     1      22.034  -1.016  26.742  1.00  0.00     0.000 C 
BRANCH   8   9
ATOM      9  C   UNL     1      20.898  -0.422  27.596  1.00  0.00     0.000 C 
BRANCH   9  10
ATOM     10  C   UNL     1      20.670  -1.202  28.900  1.00  0.00     0.006 C 
BRANCH  10  11
ATOM     11  C   UNL     1      21.526  -2.474  28.986  1.00  0.00     0.053 C 
BRANCH  11  12
ATOM     12  C   UNL     1      22.416  -2.437  30.191  1.00  0.00     0.041 C 
ATOM     13  O   UNL     1      22.564  -3.468  30.900  1.00  0.00    -0.550 OA
ATOM     14  O   UNL     1      23.096  -1.270  30.521  1.00  0.00    -0.550 OA
ENDBRANCH  11  12
ENDBRANCH  10  11
ENDBRANCH   9  10
ENDBRANCH   8   9
ENDBRANCH   7   8
ENDBRANCH   6   7
ENDBRANCH   5   6
ENDBRANCH   4   5
ENDBRANCH   3   4
ENDBRANCH   2   3
ENDBRANCH   1   2
BRANCH   1  15
ATOM     15  C   UNL     1      29.247   0.711  31.437  1.00  0.00     0.000 C 
BRANCH  15  16
ATOM     16  C   UNL     1      29.350  -0.825  31.438  1.00  0.00     0.000 C 
BRANCH  16  17
ATOM     17  C   UNL     1      29.871  -1.381  30.104  1.00  0.00     0.000 C 
BRANCH  17  18
ATOM     18  C   UNL     1      28.958  -2.473  29.520  1.00  0.00    -0.000 C 
BRANCH  18  19
ATOM     19  C   UNL     1      27.915  -2.970  30.545  1.00  0.00    -0.000 C 
BRANCH  19  20
ATOM     20  C   UNL     1      27.771  -4.501  30.588  1.00  0.00    -0.000 C 
BRANCH  20  21
ATOM     21  C   UNL     1      29.117  -5.233  30.454  1.00  0.00    -0.000 C 
BRANCH  21  22
ATOM     22  C   UNL     1      29.053  -6.407  29.464  1.00  0.00    -0.000 C 
BRANCH  22  23
ATOM     23  C   UNL     1      28.069  -7.504  29.909  1.00  0.00    -0.000 C 
BRANCH  23  24
ATOM     24  C   UNL     1      28.621  -8.924  29.694  1.00  0.00    -0.000 C 
BRANCH  24  25
ATOM     25  C   UNL     1      29.367  -9.514  30.904  1.00  0.00    -0.003 C 
ATOM     26  C   UNL     1      28.760  -9.090  32.242  1.00  0.00     0.004 C 
ENDBRANCH  24  25
ENDBRANCH  23  24
ENDBRANCH  22  23
ENDBRANCH  21  22
ENDBRANCH  20  21
ENDBRANCH  19  20
ENDBRANCH  18  19
ENDBRANCH  17  18
ENDBRANCH  16  17
ENDBRANCH  15  16
ENDBRANCH   1  15
TORSDOF 22
ENDMDL
