MODEL 1
REMARK VINA RESULT:    -3.271      0.000      0.000
REMARK INTER + INTRA:          -3.887
REMARK INTER:                  -3.749
REMARK INTRA:                  -0.137
REMARK UNBOUND:                -0.137
REMARK SMILES COc1cc(C(C)=O)ccc1O
REMARK SMILES IDX 5 1 4 2 3 3 11 4 10 5 9 6 6 7 7 8 8 9 2 10 1 11 12 12
REMARK H PARENT 12 13
REMARK Flexibility Score: inf
ROOT
ATOM      1  C   UNL     1      31.945  25.113  32.420  1.00  0.00     0.021 A 
ATOM      2  C   UNL     1      32.484  25.100  31.118  1.00  0.00     0.062 A 
ATOM      3  C   UNL     1      31.641  25.096  29.987  1.00  0.00     0.161 A 
ATOM      4  C   UNL     1      30.247  25.107  30.168  1.00  0.00     0.157 A 
ATOM      5  C   UNL     1      29.711  25.121  31.457  1.00  0.00     0.051 A 
ATOM      6  C   UNL     1      30.548  25.125  32.573  1.00  0.00     0.016 A 
ENDROOT
BRANCH   1   7
ATOM      7  C   UNL     1      32.823  25.117  33.622  1.00  0.00     0.159 C 
ATOM      8  C   UNL     1      32.265  25.115  35.014  1.00  0.00     0.093 C 
ATOM      9  O   UNL     1      34.077  25.120  33.481  1.00  0.00    -0.295 OA
ENDBRANCH   1   7
BRANCH   3  10
ATOM     10  O   UNL     1      32.153  25.082  28.678  1.00  0.00    -0.493 OA
ATOM     11  C   UNL     1      32.536  23.907  27.972  1.00  0.00     0.278 C 
ENDBRANCH   3  10
BRANCH   4  12
ATOM     12  O   UNL     1      29.378  25.104  29.077  1.00  0.00    -0.504 OA
ATOM     13  H   UNL     1      28.402  24.848  29.165  1.00  0.00     0.293 HD
ENDBRANCH   4  12
TORSDOF 3
ENDMDL
MODEL 2
REMARK VINA RESULT:    -3.171      2.106      2.744
REMARK INTER + INTRA:          -3.771
REMARK INTER:                  -3.652
REMARK INTRA:                  -0.120
REMARK UNBOUND:                -0.137
REMARK SMILES COc1cc(C(C)=O)ccc1O
REMARK SMILES IDX 5 1 4 2 3 3 11 4 10 5 9 6 6 7 7 8 8 9 2 10 1 11 12 12
REMARK H PARENT 12 13
REMARK Flexibility Score: inf
ROOT
ATOM      1  C   UNL     1      34.062  25.048  32.487  1.00  0.00     0.021 A 
ATOM      2  C   UNL     1      33.324  25.076  31.286  1.00  0.00     0.062 A 
ATOM      3  C   UNL     1      31.913  25.097  31.305  1.00  0.00     0.161 A 
ATOM      4  C   UNL     1      31.242  25.090  32.540  1.00  0.00     0.157 A 
ATOM      5  C   UNL     1      31.970  25.062  33.731  1.00  0.00     0.051 A 
ATOM      6  C   UNL     1      33.365  25.042  33.708  1.00  0.00     0.016 A 
ENDROOT
BRANCH   1   7
ATOM      7  C   UNL     1      35.550  25.025  32.481  1.00  0.00     0.159 C 
ATOM      8  C   UNL     1      36.348  24.885  33.743  1.00  0.00     0.093 C 
ATOM      9  O   UNL     1      36.173  25.124  31.388  1.00  0.00    -0.295 OA
ENDBRANCH   1   7
BRANCH   3  10
ATOM     10  O   UNL     1      31.154  25.125  30.123  1.00  0.00    -0.493 OA
ATOM     11  C   UNL     1      30.673  23.970  29.443  1.00  0.00     0.278 C 
ENDBRANCH   3  10
BRANCH   4  12
ATOM     12  O   UNL     1      29.849  25.110  32.603  1.00  0.00    -0.504 OA
ATOM     13  H   UNL     1      29.300  25.855  32.190  1.00  0.00     0.293 HD
ENDBRANCH   4  12
TORSDOF 3
ENDMDL
MODEL 3
REMARK VINA RESULT:    -3.128      2.014      4.054
REMARK INTER + INTRA:          -3.723
REMARK INTER:                  -3.619
REMARK INTRA:                  -0.104
REMARK UNBOUND:                -0.137
REMARK SMILES COc1cc(C(C)=O)ccc1O
REMARK SMILES IDX 5 1 4 2 3 3 11 4 10 5 9 6 6 7 7 8 8 9 2 10 1 11 12 12
REMARK H PARENT 12 13
REMARK Flexibility Score: inf
ROOT
ATOM      1  C   UNL     1      31.999  25.106  31.771  1.00  0.00     0.021 A 
ATOM      2  C   UNL     1      32.951  25.101  30.733  1.00  0.00     0.062 A 
ATOM      3  C   UNL     1      34.333  25.108  31.018  1.00  0.00     0.161 A 
ATOM      4  C   UNL     1      34.758  25.117  32.358  1.00  0.00     0.157 A 
ATOM      5  C   UNL     1      33.817  25.121  33.389  1.00  0.00     0.051 A 
ATOM      6  C   UNL     1      32.452  25.115  33.102  1.00  0.00     0.016 A 
ENDROOT
BRANCH   1   7
ATOM      7  C   UNL     1      30.538  25.100  31.484  1.00  0.00     0.159 C 
ATOM      8  C   UNL     1      30.004  25.125  30.083  1.00  0.00     0.093 C 
ATOM      9  O   UNL     1      29.713  25.071  32.438  1.00  0.00    -0.295 OA
ENDBRANCH   1   7
BRANCH   3  10
ATOM     10  O   UNL     1      35.302  25.104  30.001  1.00  0.00    -0.493 OA
ATOM     11  C   UNL     1      35.370  24.146  28.951  1.00  0.00     0.278 C 
ENDBRANCH   3  10
BRANCH   4  12
ATOM     12  O   UNL     1      36.114  25.124  32.684  1.00  0.00    -0.504 OA
ATOM     13  H   UNL     1      36.804  25.601  32.116  1.00  0.00     0.293 HD
ENDBRANCH   4  12
TORSDOF 3
ENDMDL
MODEL 4
REMARK VINA RESULT:    -2.924      2.028      3.521
REMARK INTER + INTRA:          -3.489
REMARK INTER:                  -3.379
REMARK INTRA:                  -0.110
REMARK UNBOUND:                -0.137
REMARK SMILES COc1cc(C(C)=O)ccc1O
REMARK SMILES IDX 5 1 4 2 3 3 11 4 10 5 9 6 6 7 7 8 8 9 2 10 1 11 12 12
REMARK H PARENT 12 13
REMARK Flexibility Score: inf
ROOT
ATOM      1  C   UNL     1      32.985  25.074  32.674  1.00  0.00     0.021 A 
ATOM      2  C   UNL     1      32.834  25.009  31.275  1.00  0.00     0.062 A 
ATOM      3  C   UNL     1      33.961  24.997  30.426  1.00  0.00     0.161 A 
ATOM      4  C   UNL     1      35.247  25.050  30.990  1.00  0.00     0.157 A 
ATOM      5  C   UNL     1      35.400  25.114  32.376  1.00  0.00     0.051 A 
ATOM      6  C   UNL     1      34.283  25.125  33.212  1.00  0.00     0.016 A 
ENDROOT
BRANCH   1   7
ATOM      7  C   UNL     1      31.804  25.088  33.581  1.00  0.00     0.159 C 
ATOM      8  C   UNL     1      30.399  25.097  33.057  1.00  0.00     0.093 C 
ATOM      9  O   UNL     1      31.976  25.091  34.831  1.00  0.00    -0.295 OA
ENDBRANCH   1   7
BRANCH   3  10
ATOM     10  O   UNL     1      33.838  24.934  29.028  1.00  0.00    -0.493 OA
ATOM     11  C   UNL     1      33.316  23.820  28.311  1.00  0.00     0.278 C 
ENDBRANCH   3  10
BRANCH   4  12
ATOM     12  O   UNL     1      36.387  25.040  30.187  1.00  0.00    -0.504 OA
ATOM     13  H   UNL     1      36.635  25.821  29.592  1.00  0.00     0.293 HD
ENDBRANCH   4  12
TORSDOF 3
ENDMDL
MODEL 5
REMARK VINA RESULT:    -2.855      2.234      3.879
REMARK INTER + INTRA:          -3.410
REMARK INTER:                  -3.287
REMARK INTRA:                  -0.123
REMARK UNBOUND:                -0.137
REMARK SMILES COc1cc(C(C)=O)ccc1O
REMARK SMILES IDX 5 1 4 2 3 3 11 4 10 5 9 6 6 7 7 8 8 9 2 10 1 11 12 12
REMARK H PARENT 12 13
REMARK Flexibility Score: inf
ROOT
ATOM      1  C   UNL     1      33.047  24.209  29.337  1.00  0.00     0.021 A 
ATOM      2  C   UNL     1      32.012  24.776  30.107  1.00  0.00     0.062 A 
ATOM      3  C   UNL     1      30.659  24.570  29.765  1.00  0.00     0.161 A 
ATOM      4  C   UNL     1      30.347  23.787  28.640  1.00  0.00     0.157 A 
ATOM      5  C   UNL     1      31.370  23.224  27.875  1.00  0.00     0.051 A 
ATOM      6  C   UNL     1      32.706  23.429  28.218  1.00  0.00     0.016 A 
ENDROOT
BRANCH   1   7
ATOM      7  C   UNL     1      34.478  24.418  29.688  1.00  0.00     0.159 C 
ATOM      8  C   UNL     1      35.591  23.845  28.862  1.00  0.00     0.093 C 
ATOM      9  O   UNL     1      34.780  25.097  30.707  1.00  0.00    -0.295 OA
ENDBRANCH   1   7
BRANCH   3  10
ATOM     10  O   UNL     1      29.609  25.125  30.515  1.00  0.00    -0.493 OA
ATOM     11  C   UNL     1      29.537  25.114  31.937  1.00  0.00     0.278 C 
ENDBRANCH   3  10
BRANCH   4  12
ATOM     12  O   UNL     1      29.022  23.559  28.266  1.00  0.00    -0.504 OA
ATOM     13  H   UNL     1      28.603  22.638  28.301  1.00  0.00     0.293 HD
ENDBRANCH   4  12
TORSDOF 3
ENDMDL
MODEL 6
REMARK VINA RESULT:    -2.723      1.671      4.300
REMARK INTER + INTRA:          -3.258
REMARK INTER:                  -3.165
REMARK INTRA:                  -0.093
REMARK UNBOUND:                -0.137
REMARK SMILES COc1cc(C(C)=O)ccc1O
REMARK SMILES IDX 5 1 4 2 3 3 11 4 10 5 9 6 6 7 7 8 8 9 2 10 1 11 12 12
REMARK H PARENT 12 13
REMARK Flexibility Score: inf
ROOT
ATOM      1  C   UNL     1      30.921  24.507  29.975  1.00  0.00     0.021 A 
ATOM      2  C   UNL     1      32.294  24.705  29.728  1.00  0.00     0.062 A 
ATOM      3  C   UNL     1      33.197  24.914  30.791  1.00  0.00     0.161 A 
ATOM      4  C   UNL     1      32.715  24.922  32.111  1.00  0.00     0.157 A 
ATOM      5  C   UNL     1      31.355  24.725  32.359  1.00  0.00     0.051 A 
ATOM      6  C   UNL     1      30.465  24.518  31.305  1.00  0.00     0.016 A 
ENDROOT
BRANCH   1   7
ATOM      7  C   UNL     1      29.957  24.285  28.862  1.00  0.00     0.159 C 
ATOM      8  C   UNL     1      30.056  23.100  27.949  1.00  0.00     0.093 C 
ATOM      9  O   UNL     1      29.023  25.111  28.670  1.00  0.00    -0.295 OA
ENDBRANCH   1   7
BRANCH   3  10
ATOM     10  O   UNL     1      34.570  25.115  30.571  1.00  0.00    -0.493 OA
ATOM     11  C   UNL     1      35.326  24.486  29.542  1.00  0.00     0.278 C 
ENDBRANCH   3  10
BRANCH   4  12
ATOM     12  O   UNL     1      33.574  25.125  33.191  1.00  0.00    -0.504 OA
ATOM     13  H   UNL     1      34.263  25.867  33.201  1.00  0.00     0.293 HD
ENDBRANCH   4  12
TORSDOF 3
ENDMDL
MODEL 7
REMARK VINA RESULT:    -2.494      2.220      3.139
REMARK INTER + INTRA:          -2.996
REMARK INTER:                  -2.865
REMARK INTRA:                  -0.131
REMARK UNBOUND:                -0.137
REMARK SMILES COc1cc(C(C)=O)ccc1O
REMARK SMILES IDX 5 1 4 2 3 3 11 4 10 5 9 6 6 7 7 8 8 9 2 10 1 11 12 12
REMARK H PARENT 12 13
REMARK Flexibility Score: inf
ROOT
ATOM      1  C   UNL     1      31.707  24.559  31.319  1.00  0.00     0.021 A 
ATOM      2  C   UNL     1      33.017  25.036  31.114  1.00  0.00     0.062 A 
ATOM      3  C   UNL     1      33.751  24.664  29.968  1.00  0.00     0.161 A 
ATOM      4  C   UNL     1      33.162  23.806  29.023  1.00  0.00     0.157 A 
ATOM      5  C   UNL     1      31.864  23.332  29.224  1.00  0.00     0.051 A 
ATOM      6  C   UNL     1      31.142  23.703  30.358  1.00  0.00     0.016 A 
ENDROOT
BRANCH   1   7
ATOM      7  C   UNL     1      30.922  24.943  32.524  1.00  0.00     0.159 C 
ATOM      8  C   UNL     1      29.434  25.125  32.479  1.00  0.00     0.093 C 
ATOM      9  O   UNL     1      31.513  25.125  33.624  1.00  0.00    -0.295 OA
ENDBRANCH   1   7
BRANCH   3  10
ATOM     10  O   UNL     1      35.058  25.125  29.740  1.00  0.00    -0.493 OA
ATOM     11  C   UNL     1      36.205  24.702  30.470  1.00  0.00     0.278 C 
ENDBRANCH   3  10
BRANCH   4  12
ATOM     12  O   UNL     1      33.852  23.414  27.877  1.00  0.00    -0.504 OA
ATOM     13  H   UNL     1      33.690  22.520  27.428  1.00  0.00     0.293 HD
ENDBRANCH   4  12
TORSDOF 3
ENDMDL
MODEL 8
REMARK VINA RESULT:    -2.427      2.419      4.555
REMARK INTER + INTRA:          -2.919
REMARK INTER:                  -2.822
REMARK INTRA:                  -0.097
REMARK UNBOUND:                -0.137
REMARK SMILES COc1cc(C(C)=O)ccc1O
REMARK SMILES IDX 5 1 4 2 3 3 11 4 10 5 9 6 6 7 7 8 8 9 2 10 1 11 12 12
REMARK H PARENT 12 13
REMARK Flexibility Score: inf
ROOT
ATOM      1  C   UNL     1      32.588  24.649  30.096  1.00  0.00     0.021 A 
ATOM      2  C   UNL     1      33.780  25.034  30.741  1.00  0.00     0.062 A 
ATOM      3  C   UNL     1      35.037  24.752  30.167  1.00  0.00     0.161 A 
ATOM      4  C   UNL     1      35.094  24.079  28.935  1.00  0.00     0.157 A 
ATOM      5  C   UNL     1      33.915  23.696  28.293  1.00  0.00     0.051 A 
ATOM      6  C   UNL     1      32.674  23.977  28.864  1.00  0.00     0.016 A 
ENDROOT
BRANCH   1   7
ATOM      7  C   UNL     1      31.255  24.940  30.692  1.00  0.00     0.159 C 
ATOM      8  C   UNL     1      31.067  25.125  32.168  1.00  0.00     0.093 C 
ATOM      9  O   UNL     1      30.244  25.038  29.944  1.00  0.00    -0.295 OA
ENDBRANCH   1   7
BRANCH   3  10
ATOM     10  O   UNL     1      36.240  25.125  30.791  1.00  0.00    -0.493 OA
ATOM     11  C   UNL     1      36.512  24.974  32.180  1.00  0.00     0.278 C 
ENDBRANCH   3  10
BRANCH   4  12
ATOM     12  O   UNL     1      36.316  23.780  28.333  1.00  0.00    -0.504 OA
ATOM     13  H   UNL     1      36.912  24.497  27.936  1.00  0.00     0.293 HD
ENDBRANCH   4  12
TORSDOF 3
ENDMDL
MODEL 9
REMARK VINA RESULT:    -1.989      1.753      5.053
REMARK INTER + INTRA:          -2.418
REMARK INTER:                  -2.411
REMARK INTRA:                  -0.006
REMARK UNBOUND:                -0.137
REMARK SMILES COc1cc(C(C)=O)ccc1O
REMARK SMILES IDX 5 1 4 2 3 3 11 4 10 5 9 6 6 7 7 8 8 9 2 10 1 11 12 12
REMARK H PARENT 12 13
REMARK Flexibility Score: inf
ROOT
ATOM      1  C   UNL     1      31.022  23.889  29.289  1.00  0.00     0.021 A 
ATOM      2  C   UNL     1      30.941  24.323  30.627  1.00  0.00     0.062 A 
ATOM      3  C   UNL     1      32.102  24.687  31.341  1.00  0.00     0.161 A 
ATOM      4  C   UNL     1      33.352  24.615  30.703  1.00  0.00     0.157 A 
ATOM      5  C   UNL     1      33.436  24.185  29.377  1.00  0.00     0.051 A 
ATOM      6  C   UNL     1      32.285  23.827  28.675  1.00  0.00     0.016 A 
ENDROOT
BRANCH   1   7
ATOM      7  C   UNL     1      29.805  23.502  28.524  1.00  0.00     0.159 C 
ATOM      8  C   UNL     1      29.667  22.156  27.878  1.00  0.00     0.093 C 
ATOM      9  O   UNL     1      28.852  24.320  28.410  1.00  0.00    -0.295 OA
ENDBRANCH   1   7
BRANCH   3  10
ATOM     10  O   UNL     1      32.049  25.122  32.676  1.00  0.00    -0.493 OA
ATOM     11  C   UNL     1      32.460  24.348  33.797  1.00  0.00     0.278 C 
ENDBRANCH   3  10
BRANCH   4  12
ATOM     12  O   UNL     1      34.525  24.965  31.372  1.00  0.00    -0.504 OA
ATOM     13  H   UNL     1      35.044  24.303  31.935  1.00  0.00     0.293 HD
ENDBRANCH   4  12
TORSDOF 3
ENDMDL
