MODEL 1
REMARK VINA RESULT:    -4.360      0.000      0.000
REMARK INTER + INTRA:          -6.704
REMARK INTER:                  -6.653
REMARK INTRA:                  -0.051
REMARK UNBOUND:                -0.051
REMARK SMILES CC1=CCC[C@@H](C)C(=O)C[C@H](C(C)C)C(=O)C1
REMARK SMILES IDX 8 1 9 2 6 3 7 4 5 5 4 6 3 7 2 8 1 9 10 11 11 12 15 13 16 14
REMARK SMILES IDX 17 15 12 17 13 18 14 19
REMARK H PARENT
REMARK Flexibility Score: 70.00
ROOT
ATOM      1  C   UNL     1     -14.332  12.506   0.172  1.00  0.00     0.136 C 
ATOM      2  O   UNL     1     -15.087  12.873  -0.715  1.00  0.00    -0.299 OA
ENDROOT
BRANCH   1   3
ATOM      3  C   UNL     1     -14.070  11.014   0.310  1.00  0.00     0.053 C 
ATOM      4  C   UNL     1     -15.349  10.164   0.364  1.00  0.00     0.016 C 
BRANCH   3   5
ATOM      5  C   UNL     1     -13.009  10.697   1.401  1.00  0.00     0.015 C 
BRANCH   5   6
ATOM      6  C   UNL     1     -13.492  10.232   2.790  1.00  0.00     0.028 C 
BRANCH   6   7
ATOM      7  C   UNL     1     -12.960  10.975   3.992  1.00  0.00    -0.028 C 
ATOM      8  C   UNL     1     -13.425  12.148   4.479  1.00  0.00    -0.070 CG0
ATOM      9  C   UNL     1     -12.609  12.843   5.541  1.00  0.00     0.039 C 
ATOM     10  G   UNL     1     -14.731  12.774   4.034  1.00  0.00     0.000 G0
ENDBRANCH   6   7
ENDBRANCH   5   6
ENDBRANCH   3   5
ENDBRANCH   1   3
BRANCH   1  11
ATOM     11  C   UNL     1     -13.712  13.554   1.077  1.00  0.00     0.087 C 
BRANCH  11  12
ATOM     12  C   UNL     1     -14.724  14.389   1.918  1.00  0.00     0.066 C 
BRANCH  12  13
ATOM     13  C   UNL     1     -14.583  14.142   3.417  1.00  0.00     0.140 C 
ATOM     14  O   UNL     1     -14.362  15.081   4.166  1.00  0.00    -0.299 OA
BRANCH  13  15
ATOM     15  C   UNL     1     -14.743  12.764   4.024  1.00  0.00     0.106 CG0
ATOM     16  G   UNL     1     -13.425  12.168   4.477  1.00  0.00     0.000 G0
ENDBRANCH  13  15
ENDBRANCH  12  13
BRANCH  12  17
ATOM     17  C   UNL     1     -14.821  15.909   1.557  1.00  0.00    -0.006 C 
ATOM     18  C   UNL     1     -13.802  16.389   0.512  1.00  0.00     0.008 C 
ATOM     19  C   UNL     1     -16.240  16.296   1.107  1.00  0.00     0.008 C 
ENDBRANCH  12  17
ENDBRANCH  11  12
ENDBRANCH   1  11
TORSDOF 1
ENDMDL
MODEL 2
REMARK VINA RESULT:    -4.211      1.551      3.846
REMARK INTER + INTRA:          -6.477
REMARK INTER:                  -6.763
REMARK INTRA:                   0.286
REMARK UNBOUND:                -0.051
REMARK SMILES CC1=CCC[C@@H](C)C(=O)C[C@H](C(C)C)C(=O)C1
REMARK SMILES IDX 8 1 9 2 6 3 7 4 5 5 4 6 3 7 2 8 1 9 10 11 11 12 15 13 16 14
REMARK SMILES IDX 17 15 12 17 13 18 14 19
REMARK H PARENT
REMARK Flexibility Score: 70.00
ROOT
ATOM      1  C   UNL     1     -13.238  13.344   4.498  1.00  0.00     0.136 C 
ATOM      2  O   UNL     1     -12.114  13.747   4.242  1.00  0.00    -0.299 OA
ENDROOT
BRANCH   1   3
ATOM      3  C   UNL     1     -13.455  12.635   5.826  1.00  0.00     0.053 C 
ATOM      4  C   UNL     1     -12.169  12.453   6.647  1.00  0.00     0.016 C 
BRANCH   3   5
ATOM      5  C   UNL     1     -14.344  11.368   5.684  1.00  0.00     0.015 C 
BRANCH   5   6
ATOM      6  C   UNL     1     -13.665  10.020   5.367  1.00  0.00     0.028 C 
BRANCH   6   7
ATOM      7  C   UNL     1     -12.715   9.983   4.193  1.00  0.00    -0.028 C 
ATOM      8  C   UNL     1     -13.035  10.199   2.897  1.00  0.00    -0.070 CG0
ATOM      9  C   UNL     1     -11.994   9.884   1.852  1.00  0.00     0.039 C 
ATOM     10  G   UNL     1     -14.367  10.770   2.453  1.00  0.00     0.000 G0
ENDBRANCH   6   7
ENDBRANCH   5   6
ENDBRANCH   3   5
ENDBRANCH   1   3
BRANCH   1  11
ATOM     11  C   UNL     1     -14.339  13.570   3.478  1.00  0.00     0.087 C 
BRANCH  11  12
ATOM     12  C   UNL     1     -13.921  13.358   1.991  1.00  0.00     0.066 C 
BRANCH  12  13
ATOM     13  C   UNL     1     -14.231  11.950   1.492  1.00  0.00     0.140 C 
ATOM     14  O   UNL     1     -14.350  11.746   0.294  1.00  0.00    -0.299 OA
BRANCH  13  15
ATOM     15  C   UNL     1     -14.365  10.772   2.436  1.00  0.00     0.106 CG0
ATOM     16  G   UNL     1     -13.023  10.232   2.889  1.00  0.00     0.000 G0
ENDBRANCH  13  15
ENDBRANCH  12  13
BRANCH  12  17
ATOM     17  C   UNL     1     -14.372  14.473   0.990  1.00  0.00    -0.006 C 
ATOM     18  C   UNL     1     -15.276  15.556   1.597  1.00  0.00     0.008 C 
ATOM     19  C   UNL     1     -13.167  15.136   0.300  1.00  0.00     0.008 C 
ENDBRANCH  12  17
ENDBRANCH  11  12
ENDBRANCH   1  11
TORSDOF 1
ENDMDL
MODEL 3
REMARK VINA RESULT:    -4.190      1.753      4.460
REMARK INTER + INTRA:          -6.445
REMARK INTER:                  -6.649
REMARK INTRA:                   0.203
REMARK UNBOUND:                -0.051
REMARK SMILES CC1=CCC[C@@H](C)C(=O)C[C@H](C(C)C)C(=O)C1
REMARK SMILES IDX 8 1 9 2 6 3 7 4 5 5 4 6 3 7 2 8 1 9 10 11 11 12 15 13 16 14
REMARK SMILES IDX 17 15 12 17 13 18 14 19
REMARK H PARENT
REMARK Flexibility Score: 70.00
ROOT
ATOM      1  C   UNL     1     -14.545  14.376   3.006  1.00  0.00     0.136 C 
ATOM      2  O   UNL     1     -15.526  14.421   3.730  1.00  0.00    -0.299 OA
ENDROOT
BRANCH   1   3
ATOM      3  C   UNL     1     -14.595  15.138   1.690  1.00  0.00     0.053 C 
ATOM      4  C   UNL     1     -15.925  15.870   1.451  1.00  0.00     0.016 C 
BRANCH   3   5
ATOM      5  C   UNL     1     -14.072  14.293   0.495  1.00  0.00     0.015 C 
BRANCH   5   6
ATOM      6  C   UNL     1     -14.693  12.904   0.243  1.00  0.00     0.028 C 
BRANCH   6   7
ATOM      7  C   UNL     1     -13.776  11.708   0.342  1.00  0.00    -0.028 C 
ATOM      8  C   UNL     1     -13.637  10.891   1.411  1.00  0.00    -0.070 CG0
ATOM      9  C   UNL     1     -12.501   9.899   1.397  1.00  0.00     0.039 C 
ATOM     10  G   UNL     1     -14.581  10.905   2.597  1.00  0.00     0.000 G0
ENDBRANCH   6   7
ENDBRANCH   5   6
ENDBRANCH   3   5
ENDBRANCH   1   3
BRANCH   1  11
ATOM     11  C   UNL     1     -13.346  13.564   3.458  1.00  0.00     0.087 C 
BRANCH  11  12
ATOM     12  C   UNL     1     -13.648  12.475   4.533  1.00  0.00     0.066 C 
BRANCH  12  13
ATOM     13  C   UNL     1     -13.874  11.096   3.920  1.00  0.00     0.140 C 
ATOM     14  O   UNL     1     -13.507  10.099   4.523  1.00  0.00    -0.299 OA
BRANCH  13  15
ATOM     15  C   UNL     1     -14.576  10.911   2.591  1.00  0.00     0.106 CG0
ATOM     16  G   UNL     1     -13.616  10.900   1.418  1.00  0.00     0.000 G0
ENDBRANCH  13  15
ENDBRANCH  12  13
BRANCH  12  17
ATOM     17  C   UNL     1     -12.682  12.444   5.764  1.00  0.00    -0.006 C 
ATOM     18  C   UNL     1     -11.708  13.630   5.848  1.00  0.00     0.008 C 
ATOM     19  C   UNL     1     -13.454  12.318   7.088  1.00  0.00     0.008 C 
ENDBRANCH  12  17
ENDBRANCH  11  12
ENDBRANCH   1  11
TORSDOF 1
ENDMDL
MODEL 4
REMARK VINA RESULT:    -3.930      1.862      4.287
REMARK INTER + INTRA:          -6.049
REMARK INTER:                  -5.876
REMARK INTRA:                  -0.173
REMARK UNBOUND:                -0.051
REMARK SMILES CC1=CCC[C@@H](C)C(=O)C[C@H](C(C)C)C(=O)C1
REMARK SMILES IDX 8 1 9 2 6 3 7 4 5 5 4 6 3 7 2 8 1 9 10 11 11 12 15 13 16 14
REMARK SMILES IDX 17 15 12 17 13 18 14 19
REMARK H PARENT
REMARK Flexibility Score: 70.00
ROOT
ATOM      1  C   UNL     1     -13.529  10.514   3.130  1.00  0.00     0.136 C 
ATOM      2  O   UNL     1     -12.785   9.895   3.874  1.00  0.00    -0.299 OA
ENDROOT
BRANCH   1   3
ATOM      3  C   UNL     1     -13.561  10.115   1.662  1.00  0.00     0.053 C 
ATOM      4  C   UNL     1     -12.168   9.913   1.045  1.00  0.00     0.016 C 
BRANCH   3   5
ATOM      5  C   UNL     1     -14.541  10.990   0.831  1.00  0.00     0.015 C 
BRANCH   5   6
ATOM      6  C   UNL     1     -13.978  12.197   0.054  1.00  0.00     0.028 C 
BRANCH   6   7
ATOM      7  C   UNL     1     -14.836  13.438  -0.014  1.00  0.00    -0.028 C 
ATOM      8  C   UNL     1     -14.833  14.463   0.868  1.00  0.00    -0.070 CG0
ATOM      9  C   UNL     1     -15.929  15.494   0.754  1.00  0.00     0.039 C 
ATOM     10  G   UNL     1     -13.772  14.639   1.936  1.00  0.00     0.000 G0
ENDBRANCH   6   7
ENDBRANCH   5   6
ENDBRANCH   3   5
ENDBRANCH   1   3
BRANCH   1  11
ATOM     11  C   UNL     1     -14.364  11.640   3.711  1.00  0.00     0.087 C 
BRANCH  11  12
ATOM     12  C   UNL     1     -13.592  12.965   3.990  1.00  0.00     0.066 C 
BRANCH  12  13
ATOM     13  C   UNL     1     -14.236  14.170   3.312  1.00  0.00     0.140 C 
ATOM     14  O   UNL     1     -15.125  14.782   3.885  1.00  0.00    -0.299 OA
BRANCH  13  15
ATOM     15  C   UNL     1     -13.786  14.666   1.954  1.00  0.00     0.106 CG0
ATOM     16  G   UNL     1     -14.839  14.471   0.881  1.00  0.00     0.000 G0
ENDBRANCH  13  15
ENDBRANCH  12  13
BRANCH  12  17
ATOM     17  C   UNL     1     -13.217  13.235   5.485  1.00  0.00    -0.006 C 
ATOM     18  C   UNL     1     -13.778  12.211   6.484  1.00  0.00     0.008 C 
ATOM     19  C   UNL     1     -11.695  13.358   5.675  1.00  0.00     0.008 C 
ENDBRANCH  12  17
ENDBRANCH  11  12
ENDBRANCH   1  11
TORSDOF 1
ENDMDL
MODEL 5
REMARK VINA RESULT:    -3.340      1.805      3.863
REMARK INTER + INTRA:          -5.148
REMARK INTER:                  -6.624
REMARK INTRA:                   1.476
REMARK UNBOUND:                -0.051
REMARK SMILES CC1=CCC[C@@H](C)C(=O)C[C@H](C(C)C)C(=O)C1
REMARK SMILES IDX 8 1 9 2 6 3 7 4 5 5 4 6 3 7 2 8 1 9 10 11 11 12 15 13 16 14
REMARK SMILES IDX 17 15 12 17 13 18 14 19
REMARK H PARENT
REMARK Flexibility Score: 70.00
ROOT
ATOM      1  C   UNL     1     -14.080  14.028   3.852  1.00  0.00     0.136 C 
ATOM      2  O   UNL     1     -13.292  14.914   4.141  1.00  0.00    -0.299 OA
ENDROOT
BRANCH   1   3
ATOM      3  C   UNL     1     -13.947  12.694   4.572  1.00  0.00     0.053 C 
ATOM      4  C   UNL     1     -12.681  12.581   5.434  1.00  0.00     0.016 C 
BRANCH   3   5
ATOM      5  C   UNL     1     -14.232  11.485   3.638  1.00  0.00     0.015 C 
BRANCH   5   6
ATOM      6  C   UNL     1     -13.440  11.366   2.319  1.00  0.00     0.028 C 
BRANCH   6   7
ATOM      7  C   UNL     1     -14.184  11.652   1.037  1.00  0.00    -0.028 C 
ATOM      8  C   UNL     1     -14.175  12.816   0.348  1.00  0.00    -0.070 CG0
ATOM      9  C   UNL     1     -15.168  12.977  -0.777  1.00  0.00     0.039 C 
ATOM     10  G   UNL     1     -13.201  13.942   0.629  1.00  0.00     0.000 G0
ENDBRANCH   6   7
ENDBRANCH   5   6
ENDBRANCH   3   5
ENDBRANCH   1   3
BRANCH   1  11
ATOM     11  C   UNL     1     -15.132  14.308   2.795  1.00  0.00     0.087 C 
BRANCH  11  12
ATOM     12  C   UNL     1     -14.865  15.562   1.908  1.00  0.00     0.066 C 
BRANCH  12  13
ATOM     13  C   UNL     1     -13.880  15.279   0.778  1.00  0.00     0.140 C 
ATOM     14  O   UNL     1     -13.597  16.165  -0.014  1.00  0.00    -0.299 OA
BRANCH  13  15
ATOM     15  C   UNL     1     -13.203  13.933   0.618  1.00  0.00     0.106 CG0
ATOM     16  G   UNL     1     -14.187  12.811   0.356  1.00  0.00     0.000 G0
ENDBRANCH  13  15
ENDBRANCH  12  13
BRANCH  12  17
ATOM     17  C   UNL     1     -16.134  16.344   1.430  1.00  0.00    -0.006 C 
ATOM     18  C   UNL     1     -15.849  17.727   0.826  1.00  0.00     0.008 C 
ATOM     19  C   UNL     1     -16.971  15.514   0.441  1.00  0.00     0.008 C 
ENDBRANCH  12  17
ENDBRANCH  11  12
ENDBRANCH   1  11
TORSDOF 1
ENDMDL
MODEL 6
REMARK VINA RESULT:    -3.102      1.532      3.727
REMARK INTER + INTRA:          -4.785
REMARK INTER:                  -5.948
REMARK INTRA:                   1.163
REMARK UNBOUND:                -0.051
REMARK SMILES CC1=CCC[C@@H](C)C(=O)C[C@H](C(C)C)C(=O)C1
REMARK SMILES IDX 8 1 9 2 6 3 7 4 5 5 4 6 3 7 2 8 1 9 10 11 11 12 15 13 16 14
REMARK SMILES IDX 17 15 12 17 13 18 14 19
REMARK H PARENT
REMARK Flexibility Score: 70.00
ROOT
ATOM      1  C   UNL     1     -13.708  13.591   3.971  1.00  0.00     0.136 C 
ATOM      2  O   UNL     1     -12.544  13.900   3.770  1.00  0.00    -0.299 OA
ENDROOT
BRANCH   1   3
ATOM      3  C   UNL     1     -13.987  12.474   4.965  1.00  0.00     0.053 C 
ATOM      4  C   UNL     1     -13.441  12.751   6.374  1.00  0.00     0.016 C 
BRANCH   3   5
ATOM      5  C   UNL     1     -13.662  11.069   4.385  1.00  0.00     0.015 C 
BRANCH   5   6
ATOM      6  C   UNL     1     -12.877  10.979   3.060  1.00  0.00     0.028 C 
BRANCH   6   7
ATOM      7  C   UNL     1     -13.653  10.605   1.820  1.00  0.00    -0.028 C 
ATOM      8  C   UNL     1     -13.970  11.427   0.795  1.00  0.00    -0.070 CG0
ATOM      9  C   UNL     1     -14.951  10.923  -0.236  1.00  0.00     0.039 C 
ATOM     10  G   UNL     1     -13.367  12.806   0.617  1.00  0.00     0.000 G0
ENDBRANCH   6   7
ENDBRANCH   5   6
ENDBRANCH   3   5
ENDBRANCH   1   3
BRANCH   1  11
ATOM     11  C   UNL     1     -14.795  14.333   3.217  1.00  0.00     0.087 C 
BRANCH  11  12
ATOM     12  C   UNL     1     -14.360  14.939   1.848  1.00  0.00     0.066 C 
BRANCH  12  13
ATOM     13  C   UNL     1     -14.405  13.917   0.716  1.00  0.00     0.140 C 
ATOM     14  O   UNL     1     -15.272  14.002  -0.140  1.00  0.00    -0.299 OA
BRANCH  13  15
ATOM     15  C   UNL     1     -13.381  12.808   0.591  1.00  0.00     0.106 CG0
ATOM     16  G   UNL     1     -13.982  11.432   0.801  1.00  0.00     0.000 G0
ENDBRANCH  13  15
ENDBRANCH  12  13
BRANCH  12  17
ATOM     17  C   UNL     1     -15.023  16.304   1.464  1.00  0.00    -0.006 C 
ATOM     18  C   UNL     1     -14.331  17.055   0.315  1.00  0.00     0.008 C 
ATOM     19  C   UNL     1     -16.518  16.138   1.143  1.00  0.00     0.008 C 
ENDBRANCH  12  17
ENDBRANCH  11  12
ENDBRANCH   1  11
TORSDOF 1
ENDMDL
MODEL 7
REMARK VINA RESULT:    -2.983      1.837      4.779
REMARK INTER + INTRA:          -4.603
REMARK INTER:                  -6.056
REMARK INTRA:                   1.453
REMARK UNBOUND:                -0.051
REMARK SMILES CC1=CCC[C@@H](C)C(=O)C[C@H](C(C)C)C(=O)C1
REMARK SMILES IDX 8 1 9 2 6 3 7 4 5 5 4 6 3 7 2 8 1 9 10 11 11 12 15 13 16 14
REMARK SMILES IDX 17 15 12 17 13 18 14 19
REMARK H PARENT
REMARK Flexibility Score: 70.00
ROOT
ATOM      1  C   UNL     1     -15.064  15.243   2.312  1.00  0.00     0.136 C 
ATOM      2  O   UNL     1     -16.172  14.792   2.559  1.00  0.00    -0.299 OA
ENDROOT
BRANCH   1   3
ATOM      3  C   UNL     1     -14.969  16.397   1.325  1.00  0.00     0.053 C 
ATOM      4  C   UNL     1     -16.303  16.742   0.647  1.00  0.00     0.016 C 
BRANCH   3   5
ATOM      5  C   UNL     1     -13.748  16.262   0.371  1.00  0.00     0.015 C 
BRANCH   5   6
ATOM      6  C   UNL     1     -13.140  14.863   0.142  1.00  0.00     0.028 C 
BRANCH   6   7
ATOM      7  C   UNL     1     -14.093  13.742  -0.200  1.00  0.00    -0.028 C 
ATOM      8  C   UNL     1     -14.083  12.496   0.325  1.00  0.00    -0.070 CG0
ATOM      9  C   UNL     1     -14.965  11.454  -0.318  1.00  0.00     0.039 C 
ATOM     10  G   UNL     1     -13.261  12.109   1.538  1.00  0.00     0.000 G0
ENDBRANCH   6   7
ENDBRANCH   5   6
ENDBRANCH   3   5
ENDBRANCH   1   3
BRANCH   1  11
ATOM     11  C   UNL     1     -13.860  14.625   2.997  1.00  0.00     0.087 C 
BRANCH  11  12
ATOM     12  C   UNL     1     -14.137  13.286   3.748  1.00  0.00     0.066 C 
BRANCH  12  13
ATOM     13  C   UNL     1     -14.064  12.074   2.825  1.00  0.00     0.140 C 
ATOM     14  O   UNL     1     -14.692  11.063   3.104  1.00  0.00    -0.299 OA
BRANCH  13  15
ATOM     15  C   UNL     1     -13.262  12.086   1.540  1.00  0.00     0.106 CG0
ATOM     16  G   UNL     1     -14.087  12.509   0.341  1.00  0.00     0.000 G0
ENDBRANCH  13  15
ENDBRANCH  12  13
BRANCH  12  17
ATOM     17  C   UNL     1     -13.355  13.081   5.088  1.00  0.00    -0.006 C 
ATOM     18  C   UNL     1     -13.753  11.825   5.879  1.00  0.00     0.008 C 
ATOM     19  C   UNL     1     -11.834  13.086   4.864  1.00  0.00     0.008 C 
ENDBRANCH  12  17
ENDBRANCH  11  12
ENDBRANCH   1  11
TORSDOF 1
ENDMDL
MODEL 8
REMARK VINA RESULT:    -2.349      2.023      4.169
REMARK INTER + INTRA:          -3.636
REMARK INTER:                  -4.166
REMARK INTRA:                   0.530
REMARK UNBOUND:                -0.051
REMARK SMILES CC1=CCC[C@@H](C)C(=O)C[C@H](C(C)C)C(=O)C1
REMARK SMILES IDX 8 1 9 2 6 3 7 4 5 5 4 6 3 7 2 8 1 9 10 11 11 12 15 13 16 14
REMARK SMILES IDX 17 15 12 17 13 18 14 19
REMARK H PARENT
REMARK Flexibility Score: 70.00
ROOT
ATOM      1  C   UNL     1     -13.501  11.483   2.853  1.00  0.00     0.136 C 
ATOM      2  O   UNL     1     -14.380  10.642   2.745  1.00  0.00    -0.299 OA
ENDROOT
BRANCH   1   3
ATOM      3  C   UNL     1     -13.029  11.843   4.253  1.00  0.00     0.053 C 
ATOM      4  C   UNL     1     -12.690  10.624   5.124  1.00  0.00     0.016 C 
BRANCH   3   5
ATOM      5  C   UNL     1     -13.930  12.917   4.925  1.00  0.00     0.015 C 
BRANCH   5   6
ATOM      6  C   UNL     1     -13.959  14.338   4.327  1.00  0.00     0.028 C 
BRANCH   6   7
ATOM      7  C   UNL     1     -15.136  14.697   3.451  1.00  0.00    -0.028 C 
ATOM      8  C   UNL     1     -15.089  15.383   2.287  1.00  0.00    -0.070 CG0
ATOM      9  C   UNL     1     -16.394  15.843   1.686  1.00  0.00     0.039 C 
ATOM     10  G   UNL     1     -13.799  15.680   1.548  1.00  0.00     0.000 G0
ENDBRANCH   6   7
ENDBRANCH   5   6
ENDBRANCH   3   5
ENDBRANCH   1   3
BRANCH   1  11
ATOM     11  C   UNL     1     -12.943  12.115   1.591  1.00  0.00     0.087 C 
BRANCH  11  12
ATOM     12  C   UNL     1     -13.899  13.113   0.869  1.00  0.00     0.066 C 
BRANCH  12  13
ATOM     13  C   UNL     1     -13.297  14.509   0.739  1.00  0.00     0.140 C 
ATOM     14  O   UNL     1     -12.401  14.707  -0.068  1.00  0.00    -0.299 OA
BRANCH  13  15
ATOM     15  C   UNL     1     -13.798  15.681   1.556  1.00  0.00     0.106 CG0
ATOM     16  G   UNL     1     -15.092  15.377   2.284  1.00  0.00     0.000 G0
ENDBRANCH  13  15
ENDBRANCH  12  13
BRANCH  12  17
ATOM     17  C   UNL     1     -14.543  12.600  -0.462  1.00  0.00    -0.006 C 
ATOM     18  C   UNL     1     -14.737  11.078  -0.538  1.00  0.00     0.008 C 
ATOM     19  C   UNL     1     -15.879  13.304  -0.755  1.00  0.00     0.008 C 
ENDBRANCH  12  17
ENDBRANCH  11  12
ENDBRANCH   1  11
TORSDOF 1
ENDMDL
MODEL 9
REMARK VINA RESULT:    -2.111      1.895      4.276
REMARK INTER + INTRA:          -3.272
REMARK INTER:                  -3.783
REMARK INTRA:                   0.511
REMARK UNBOUND:                -0.051
REMARK SMILES CC1=CCC[C@@H](C)C(=O)C[C@H](C(C)C)C(=O)C1
REMARK SMILES IDX 8 1 9 2 6 3 7 4 5 5 4 6 3 7 2 8 1 9 10 11 11 12 15 13 16 14
REMARK SMILES IDX 17 15 12 17 13 18 14 19
REMARK H PARENT
REMARK Flexibility Score: 70.00
ROOT
ATOM      1  C   UNL     1     -14.309  13.196   1.905  1.00  0.00     0.136 C 
ATOM      2  O   UNL     1     -13.797  13.314   0.803  1.00  0.00    -0.299 OA
ENDROOT
BRANCH   1   3
ATOM      3  C   UNL     1     -14.735  14.464   2.631  1.00  0.00     0.053 C 
ATOM      4  C   UNL     1     -14.364  15.756   1.888  1.00  0.00     0.016 C 
BRANCH   3   5
ATOM      5  C   UNL     1     -14.372  14.433   4.142  1.00  0.00     0.015 C 
BRANCH   5   6
ATOM      6  C   UNL     1     -12.989  13.892   4.559  1.00  0.00     0.028 C 
BRANCH   6   7
ATOM      7  C   UNL     1     -12.884  13.229   5.912  1.00  0.00    -0.028 C 
ATOM      8  C   UNL     1     -13.440  12.050   6.271  1.00  0.00    -0.070 CG0
ATOM      9  C   UNL     1     -13.418  11.676   7.733  1.00  0.00     0.039 C 
ATOM     10  G   UNL     1     -14.050  11.080   5.278  1.00  0.00     0.000 G0
ENDBRANCH   6   7
ENDBRANCH   5   6
ENDBRANCH   3   5
ENDBRANCH   1   3
BRANCH   1  11
ATOM     11  C   UNL     1     -14.481  11.803   2.480  1.00  0.00     0.087 C 
BRANCH  11  12
ATOM     12  C   UNL     1     -13.155  11.044   2.792  1.00  0.00     0.066 C 
BRANCH  12  13
ATOM     13  C   UNL     1     -13.064  10.604   4.250  1.00  0.00     0.140 C 
ATOM     14  O   UNL     1     -12.150   9.875   4.605  1.00  0.00    -0.299 OA
BRANCH  13  15
ATOM     15  C   UNL     1     -14.055  11.071   5.296  1.00  0.00     0.106 CG0
ATOM     16  G   UNL     1     -13.452  12.064   6.270  1.00  0.00     0.000 G0
ENDBRANCH  13  15
ENDBRANCH  12  13
BRANCH  12  17
ATOM     17  C   UNL     1     -12.765   9.910   1.787  1.00  0.00    -0.006 C 
ATOM     18  C   UNL     1     -13.602   9.875   0.499  1.00  0.00     0.008 C 
ATOM     19  C   UNL     1     -11.270   9.961   1.428  1.00  0.00     0.008 C 
ENDBRANCH  12  17
ENDBRANCH  11  12
ENDBRANCH   1  11
TORSDOF 1
ENDMDL
