MODEL 1
REMARK VINA RESULT:    10.584      0.000      0.000
REMARK INTER + INTRA:          12.888
REMARK INTER:                  12.750
REMARK INTRA:                   0.138
REMARK UNBOUND:                 0.138
REMARK SMILES O=c1c(O)c(-c2ccc(O)c(O)c2)oc2cc(O)cc(O)c12
REMARK SMILES IDX 5 1 3 2 2 3 1 4 22 5 20 6 19 7 17 8 16 9 15 10 14 11 6 12
REMARK SMILES IDX 7 13 8 14 9 15 13 16 11 17 10 18 12 20 4 22 21 24 18 26
REMARK H PARENT 10 19 12 21 4 23 21 25 18 27
REMARK Flexibility Score: inf
ROOT
ATOM      1  C   UNL     1     -27.270 141.278  54.290  1.00  0.00     0.180 A 
ATOM      2  C   UNL     1     -27.948 140.048  54.357  1.00  0.00     0.208 A 
ATOM      3  C   UNL     1     -27.451 139.041  55.201  1.00  0.00     0.238 A 
ATOM      4  O   UNL     1     -28.020 137.919  55.198  1.00  0.00    -0.285 OA
ATOM      5  C   UNL     1     -26.317 139.295  56.009  1.00  0.00     0.111 A 
ATOM      6  C   UNL     1     -25.753 138.364  56.934  1.00  0.00     0.134 A 
ATOM      7  C   UNL     1     -24.566 138.686  57.602  1.00  0.00     0.093 A 
ATOM      8  C   UNL     1     -23.957 139.931  57.428  1.00  0.00     0.123 A 
ATOM      9  C   UNL     1     -24.528 140.867  56.570  1.00  0.00     0.094 A 
ATOM     10  C   UNL     1     -25.691 140.561  55.860  1.00  0.00     0.146 A 
ATOM     11  O   UNL     1     -26.189 141.476  55.036  1.00  0.00    -0.452 OA
ENDROOT
BRANCH   1  12
ATOM     12  C   UNL     1     -27.724 142.382  53.415  1.00  0.00     0.025 A 
ATOM     13  C   UNL     1     -28.159 142.096  52.112  1.00  0.00     0.016 A 
ATOM     14  C   UNL     1     -28.612 143.120  51.276  1.00  0.00     0.051 A 
ATOM     15  C   UNL     1     -28.653 144.440  51.733  1.00  0.00     0.157 A 
ATOM     16  C   UNL     1     -27.786 143.708  53.881  1.00  0.00     0.062 A 
ATOM     17  C   UNL     1     -28.243 144.736  53.044  1.00  0.00     0.158 A 
BRANCH  15  18
ATOM     18  O   UNL     1     -29.108 145.441  50.875  1.00  0.00    -0.504 OA
ATOM     19  H   UNL     1     -29.208 145.291  49.879  1.00  0.00     0.293 HD
ENDBRANCH  15  18
BRANCH  17  20
ATOM     20  O   UNL     1     -28.295 146.049  53.512  1.00  0.00    -0.504 OA
ATOM     21  H   UNL     1     -27.881 146.314  54.398  1.00  0.00     0.293 HD
ENDBRANCH  17  20
ENDBRANCH   1  12
BRANCH   2  22
ATOM     22  O   UNL     1     -29.110 139.845  53.609  1.00  0.00    -0.502 OA
ATOM     23  H   UNL     1     -30.013 139.686  54.040  1.00  0.00     0.293 HD
ENDBRANCH   2  22
BRANCH   6  24
ATOM     24  O   UNL     1     -26.328 137.129  57.249  1.00  0.00    -0.507 OA
ATOM     25  H   UNL     1     -26.282 136.305  56.669  1.00  0.00     0.293 HD
ENDBRANCH   6  24
BRANCH   8  26
ATOM     26  O   UNL     1     -22.785 140.250  58.111  1.00  0.00    -0.508 OA
ATOM     27  H   UNL     1     -22.130 140.934  57.751  1.00  0.00     0.293 HD
ENDBRANCH   8  26
TORSDOF 6
ENDMDL
MODEL 2
REMARK VINA RESULT:    11.434      2.009      6.676
REMARK INTER + INTRA:          13.912
REMARK INTER:                  13.510
REMARK INTRA:                   0.402
REMARK UNBOUND:                 0.138
REMARK SMILES O=c1c(O)c(-c2ccc(O)c(O)c2)oc2cc(O)cc(O)c12
REMARK SMILES IDX 5 1 3 2 2 3 1 4 22 5 20 6 19 7 17 8 16 9 15 10 14 11 6 12
REMARK SMILES IDX 7 13 8 14 9 15 13 16 11 17 10 18 12 20 4 22 21 24 18 26
REMARK H PARENT 10 19 12 21 4 23 21 25 18 27
REMARK Flexibility Score: inf
ROOT
ATOM      1  C   UNL     1     -24.689 140.105  56.403  1.00  0.00     0.180 A 
ATOM      2  C   UNL     1     -25.247 138.837  56.639  1.00  0.00     0.208 A 
ATOM      3  C   UNL     1     -26.512 138.539  56.107  1.00  0.00     0.238 A 
ATOM      4  O   UNL     1     -27.037 137.430  56.386  1.00  0.00    -0.285 OA
ATOM      5  C   UNL     1     -27.180 139.492  55.300  1.00  0.00     0.111 A 
ATOM      6  C   UNL     1     -28.444 139.281  54.672  1.00  0.00     0.134 A 
ATOM      7  C   UNL     1     -29.058 140.334  53.982  1.00  0.00     0.093 A 
ATOM      8  C   UNL     1     -28.422 141.571  53.843  1.00  0.00     0.123 A 
ATOM      9  C   UNL     1     -27.164 141.769  54.405  1.00  0.00     0.094 A 
ATOM     10  C   UNL     1     -26.543 140.750  55.131  1.00  0.00     0.146 A 
ATOM     11  O   UNL     1     -25.353 140.991  55.668  1.00  0.00    -0.452 OA
ENDROOT
BRANCH   1  12
ATOM     12  C   UNL     1     -23.367 140.498  56.942  1.00  0.00     0.025 A 
ATOM     13  C   UNL     1     -22.735 141.650  56.448  1.00  0.00     0.016 A 
ATOM     14  C   UNL     1     -21.498 142.051  56.957  1.00  0.00     0.051 A 
ATOM     15  C   UNL     1     -20.880 141.319  57.975  1.00  0.00     0.157 A 
ATOM     16  C   UNL     1     -22.756 139.775  57.981  1.00  0.00     0.062 A 
ATOM     17  C   UNL     1     -21.514 140.177  58.494  1.00  0.00     0.158 A 
BRANCH  15  18
ATOM     18  O   UNL     1     -19.644 141.743  58.461  1.00  0.00    -0.504 OA
ATOM     19  H   UNL     1     -19.249 141.375  59.318  1.00  0.00     0.293 HD
ENDBRANCH  15  18
BRANCH  17  20
ATOM     20  O   UNL     1     -20.911 139.451  59.521  1.00  0.00    -0.504 OA
ATOM     21  H   UNL     1     -21.121 139.635  60.495  1.00  0.00     0.293 HD
ENDBRANCH  17  20
ENDBRANCH   1  12
BRANCH   2  22
ATOM     22  O   UNL     1     -24.539 137.884  57.375  1.00  0.00    -0.502 OA
ATOM     23  H   UNL     1     -24.455 136.919  57.077  1.00  0.00     0.293 HD
ENDBRANCH   2  22
BRANCH   6  24
ATOM     24  O   UNL     1     -29.125 138.060  54.673  1.00  0.00    -0.507 OA
ATOM     25  H   UNL     1     -29.615 137.672  55.465  1.00  0.00     0.293 HD
ENDBRANCH   6  24
BRANCH   8  26
ATOM     26  O   UNL     1     -29.032 142.607  53.140  1.00  0.00    -0.508 OA
ATOM     27  H   UNL     1     -29.829 142.442  52.536  1.00  0.00     0.293 HD
ENDBRANCH   8  26
TORSDOF 6
ENDMDL
MODEL 3
REMARK VINA RESULT:    11.895      3.512      5.276
REMARK INTER + INTRA:          14.467
REMARK INTER:                  14.599
REMARK INTRA:                  -0.132
REMARK UNBOUND:                 0.138
REMARK SMILES O=c1c(O)c(-c2ccc(O)c(O)c2)oc2cc(O)cc(O)c12
REMARK SMILES IDX 5 1 3 2 2 3 1 4 22 5 20 6 19 7 17 8 16 9 15 10 14 11 6 12
REMARK SMILES IDX 7 13 8 14 9 15 13 16 11 17 10 18 12 20 4 22 21 24 18 26
REMARK H PARENT 10 19 12 21 4 23 21 25 18 27
REMARK Flexibility Score: inf
ROOT
ATOM      1  C   UNL     1     -26.925 138.720  55.300  1.00  0.00     0.180 A 
ATOM      2  C   UNL     1     -27.699 139.791  55.779  1.00  0.00     0.208 A 
ATOM      3  C   UNL     1     -27.123 140.698  56.683  1.00  0.00     0.238 A 
ATOM      4  O   UNL     1     -27.845 141.609  57.164  1.00  0.00    -0.285 OA
ATOM      5  C   UNL     1     -25.764 140.557  57.053  1.00  0.00     0.111 A 
ATOM      6  C   UNL     1     -25.063 141.444  57.926  1.00  0.00     0.134 A 
ATOM      7  C   UNL     1     -23.749 141.146  58.305  1.00  0.00     0.093 A 
ATOM      8  C   UNL     1     -23.088 140.027  57.791  1.00  0.00     0.123 A 
ATOM      9  C   UNL     1     -23.744 139.186  56.896  1.00  0.00     0.094 A 
ATOM     10  C   UNL     1     -25.068 139.436  56.529  1.00  0.00     0.146 A 
ATOM     11  O   UNL     1     -25.661 138.595  55.689  1.00  0.00    -0.452 OA
ENDROOT
BRANCH   1  12
ATOM     12  C   UNL     1     -27.465 137.715  54.356  1.00  0.00     0.025 A 
ATOM     13  C   UNL     1     -28.549 136.914  54.747  1.00  0.00     0.016 A 
ATOM     14  C   UNL     1     -29.089 135.975  53.865  1.00  0.00     0.051 A 
ATOM     15  C   UNL     1     -28.567 135.832  52.576  1.00  0.00     0.157 A 
ATOM     16  C   UNL     1     -26.954 137.587  53.052  1.00  0.00     0.062 A 
ATOM     17  C   UNL     1     -27.497 136.646  52.165  1.00  0.00     0.158 A 
BRANCH  15  18
ATOM     18  O   UNL     1     -29.125 134.884  51.719  1.00  0.00    -0.504 OA
ATOM     19  H   UNL     1     -28.763 134.725  50.787  1.00  0.00     0.293 HD
ENDBRANCH  15  18
BRANCH  17  20
ATOM     20  O   UNL     1     -26.981 136.520  50.875  1.00  0.00    -0.504 OA
ATOM     21  H   UNL     1     -25.992 136.370  50.712  1.00  0.00     0.293 HD
ENDBRANCH  17  20
ENDBRANCH   1  12
BRANCH   2  22
ATOM     22  O   UNL     1     -29.016 139.955  55.342  1.00  0.00    -0.502 OA
ATOM     23  H   UNL     1     -29.780 139.387  55.690  1.00  0.00     0.293 HD
ENDBRANCH   2  22
BRANCH   6  24
ATOM     24  O   UNL     1     -25.599 142.635  58.426  1.00  0.00    -0.507 OA
ATOM     25  H   UNL     1     -25.058 143.419  58.756  1.00  0.00     0.293 HD
ENDBRANCH   6  24
BRANCH   8  26
ATOM     26  O   UNL     1     -21.773 139.748  58.160  1.00  0.00    -0.508 OA
ATOM     27  H   UNL     1     -21.224 139.046  57.677  1.00  0.00     0.293 HD
ENDBRANCH   8  26
TORSDOF 6
ENDMDL
