MODEL 1
REMARK VINA RESULT:    -6.362      0.000      0.000
REMARK INTER + INTRA:          -8.703
REMARK INTER:                  -8.035
REMARK INTRA:                  -0.668
REMARK UNBOUND:                -0.668
REMARK SMILES Oc1cc(O)cc(CCc2ccccc2O)c1
REMARK SMILES IDX 9 1 10 2 12 3 13 4 11 5 14 6 15 7 16 8 8 10 7 11 6 12 17 13
REMARK SMILES IDX 4 14 2 15 3 16 5 17 1 19
REMARK H PARENT 16 9 5 18 1 20
REMARK Flexibility Score: inf
ROOT
ATOM      1  C   UNL     1      -7.993 -22.448 -20.346  1.00  0.00     0.044 C 
ENDROOT
BRANCH   1   2
ATOM      2  C   UNL     1      -7.624 -21.200 -19.586  1.00  0.00    -0.006 A 
ATOM      3  C   UNL     1      -8.078 -18.875 -19.034  1.00  0.00     0.001 A 
ATOM      4  C   UNL     1      -7.011 -18.875 -18.134  1.00  0.00     0.004 A 
ATOM      5  C   UNL     1      -8.388 -20.032 -19.754  1.00  0.00     0.007 A 
ATOM      6  C   UNL     1      -6.254 -20.034 -17.947  1.00  0.00     0.046 A 
ATOM      7  C   UNL     1      -6.557 -21.201 -18.664  1.00  0.00     0.118 A 
BRANCH   7   8
ATOM      8  O   UNL     1      -5.806 -22.359 -18.461  1.00  0.00    -0.508 OA
ATOM      9  H   UNL     1      -5.519 -22.948 -19.233  1.00  0.00     0.293 HD
ENDBRANCH   7   8
ENDBRANCH   1   2
BRANCH   1  10
ATOM     10  C   UNL     1      -8.116 -22.151 -21.844  1.00  0.00     0.040 C 
BRANCH  10  11
ATOM     11  C   UNL     1      -6.776 -22.272 -22.519  1.00  0.00    -0.040 A 
ATOM     12  C   UNL     1      -6.488 -21.510 -23.663  1.00  0.00     0.050 A 
ATOM     13  C   UNL     1      -5.825 -23.191 -22.045  1.00  0.00     0.050 A 
ATOM     14  C   UNL     1      -5.253 -21.646 -24.312  1.00  0.00     0.119 A 
ATOM     15  C   UNL     1      -4.590 -23.327 -22.694  1.00  0.00     0.119 A 
ATOM     16  C   UNL     1      -4.307 -22.553 -23.823  1.00  0.00     0.092 A 
BRANCH  14  17
ATOM     17  O   UNL     1      -4.957 -20.888 -25.442  1.00  0.00    -0.508 OA
ATOM     18  H   UNL     1      -4.011 -20.818 -25.799  1.00  0.00     0.293 HD
ENDBRANCH  14  17
BRANCH  15  19
ATOM     19  O   UNL     1      -3.638 -24.231 -22.225  1.00  0.00    -0.508 OA
ATOM     20  H   UNL     1      -3.124 -24.834 -22.857  1.00  0.00     0.293 HD
ENDBRANCH  15  19
ENDBRANCH  10  11
ENDBRANCH   1  10
TORSDOF 6
ENDMDL
MODEL 2
REMARK VINA RESULT:    -6.326      0.272      2.043
REMARK INTER + INTRA:          -8.658
REMARK INTER:                  -8.059
REMARK INTRA:                  -0.600
REMARK UNBOUND:                -0.668
REMARK SMILES Oc1cc(O)cc(CCc2ccccc2O)c1
REMARK SMILES IDX 9 1 10 2 12 3 13 4 11 5 14 6 15 7 16 8 8 10 7 11 6 12 17 13
REMARK SMILES IDX 4 14 2 15 3 16 5 17 1 19
REMARK H PARENT 16 9 5 18 1 20
REMARK Flexibility Score: inf
ROOT
ATOM      1  C   UNL     1      -8.052 -22.251 -20.678  1.00  0.00     0.044 C 
ENDROOT
BRANCH   1   2
ATOM      2  C   UNL     1      -7.683 -21.124 -19.747  1.00  0.00    -0.006 A 
ATOM      3  C   UNL     1      -8.097 -18.875 -18.916  1.00  0.00     0.001 A 
ATOM      4  C   UNL     1      -7.072 -19.027 -17.981  1.00  0.00     0.004 A 
ATOM      5  C   UNL     1      -8.407 -19.919 -19.792  1.00  0.00     0.007 A 
ATOM      6  C   UNL     1      -6.356 -20.224 -17.916  1.00  0.00     0.046 A 
ATOM      7  C   UNL     1      -6.659 -21.279 -18.790  1.00  0.00     0.118 A 
BRANCH   7   8
ATOM      8  O   UNL     1      -5.949 -22.477 -18.709  1.00  0.00    -0.508 OA
ATOM      9  H   UNL     1      -6.283 -23.323 -19.155  1.00  0.00     0.293 HD
ENDBRANCH   7   8
ENDBRANCH   1   2
BRANCH   1  10
ATOM     10  C   UNL     1      -8.039 -21.774 -22.133  1.00  0.00     0.040 C 
BRANCH  10  11
ATOM     11  C   UNL     1      -6.711 -22.072 -22.776  1.00  0.00    -0.040 A 
ATOM     12  C   UNL     1      -5.818 -22.971 -22.170  1.00  0.00     0.050 A 
ATOM     13  C   UNL     1      -6.330 -21.411 -23.955  1.00  0.00     0.050 A 
ATOM     14  C   UNL     1      -4.567 -23.225 -22.750  1.00  0.00     0.119 A 
ATOM     15  C   UNL     1      -5.079 -21.665 -24.535  1.00  0.00     0.119 A 
ATOM     16  C   UNL     1      -4.203 -22.572 -23.931  1.00  0.00     0.092 A 
BRANCH  14  17
ATOM     17  O   UNL     1      -3.679 -24.121 -22.159  1.00  0.00    -0.508 OA
ATOM     18  H   UNL     1      -4.004 -24.867 -21.554  1.00  0.00     0.293 HD
ENDBRANCH  14  17
BRANCH  15  19
ATOM     19  O   UNL     1      -4.697 -21.017 -25.709  1.00  0.00    -0.508 OA
ATOM     20  H   UNL     1      -3.792 -20.570 -25.796  1.00  0.00     0.293 HD
ENDBRANCH  15  19
ENDBRANCH  10  11
ENDBRANCH   1  10
TORSDOF 6
ENDMDL
MODEL 3
REMARK VINA RESULT:    -6.291      2.523      4.239
REMARK INTER + INTRA:          -8.613
REMARK INTER:                  -7.859
REMARK INTRA:                  -0.754
REMARK UNBOUND:                -0.668
REMARK SMILES Oc1cc(O)cc(CCc2ccccc2O)c1
REMARK SMILES IDX 9 1 10 2 12 3 13 4 11 5 14 6 15 7 16 8 8 10 7 11 6 12 17 13
REMARK SMILES IDX 4 14 2 15 3 16 5 17 1 19
REMARK H PARENT 16 9 5 18 1 20
REMARK Flexibility Score: inf
ROOT
ATOM      1  C   UNL     1      -6.576 -21.668 -19.210  1.00  0.00     0.044 C 
ENDROOT
BRANCH   1   2
ATOM      2  C   UNL     1      -6.399 -23.161 -19.097  1.00  0.00    -0.006 A 
ATOM      3  C   UNL     1      -6.961 -25.258 -18.001  1.00  0.00     0.001 A 
ATOM      4  C   UNL     1      -6.150 -25.952 -18.901  1.00  0.00     0.004 A 
ATOM      5  C   UNL     1      -7.090 -23.871 -18.100  1.00  0.00     0.007 A 
ATOM      6  C   UNL     1      -5.471 -25.260 -19.907  1.00  0.00     0.046 A 
ATOM      7  C   UNL     1      -5.595 -23.867 -20.015  1.00  0.00     0.118 A 
BRANCH   7   8
ATOM      8  O   UNL     1      -4.924 -23.185 -21.031  1.00  0.00    -0.508 OA
ATOM      9  H   UNL     1      -3.995 -22.807 -20.893  1.00  0.00     0.293 HD
ENDBRANCH   7   8
ENDBRANCH   1   2
BRANCH   1  10
ATOM     10  C   UNL     1      -7.972 -21.330 -19.742  1.00  0.00     0.040 C 
BRANCH  10  11
ATOM     11  C   UNL     1      -7.993 -21.388 -21.246  1.00  0.00    -0.040 A 
ATOM     12  C   UNL     1      -8.713 -22.398 -21.905  1.00  0.00     0.050 A 
ATOM     13  C   UNL     1      -7.247 -20.468 -22.001  1.00  0.00     0.050 A 
ATOM     14  C   UNL     1      -8.707 -22.473 -23.305  1.00  0.00     0.119 A 
ATOM     15  C   UNL     1      -7.241 -20.543 -23.401  1.00  0.00     0.119 A 
ATOM     16  C   UNL     1      -7.972 -21.544 -24.048  1.00  0.00     0.092 A 
BRANCH  14  17
ATOM     17  O   UNL     1      -9.424 -23.467 -23.966  1.00  0.00    -0.508 OA
ATOM     18  H   UNL     1      -9.175 -24.446 -23.878  1.00  0.00     0.293 HD
ENDBRANCH  14  17
BRANCH  15  19
ATOM     19  O   UNL     1      -6.508 -19.629 -24.156  1.00  0.00    -0.508 OA
ATOM     20  H   UNL     1      -6.962 -18.989 -24.797  1.00  0.00     0.293 HD
ENDBRANCH  15  19
ENDBRANCH  10  11
ENDBRANCH   1  10
TORSDOF 6
ENDMDL
MODEL 4
REMARK VINA RESULT:    -6.232      2.542      4.051
REMARK INTER + INTRA:          -8.539
REMARK INTER:                  -7.807
REMARK INTRA:                  -0.732
REMARK UNBOUND:                -0.668
REMARK SMILES Oc1cc(O)cc(CCc2ccccc2O)c1
REMARK SMILES IDX 9 1 10 2 12 3 13 4 11 5 14 6 15 7 16 8 8 10 7 11 6 12 17 13
REMARK SMILES IDX 4 14 2 15 3 16 5 17 1 19
REMARK H PARENT 16 9 5 18 1 20
REMARK Flexibility Score: inf
ROOT
ATOM      1  C   UNL     1      -6.587 -21.713 -19.248  1.00  0.00     0.044 C 
ENDROOT
BRANCH   1   2
ATOM      2  C   UNL     1      -6.378 -23.198 -19.103  1.00  0.00    -0.006 A 
ATOM      3  C   UNL     1      -6.910 -25.286 -17.974  1.00  0.00     0.001 A 
ATOM      4  C   UNL     1      -6.069 -25.978 -18.847  1.00  0.00     0.004 A 
ATOM      5  C   UNL     1      -7.070 -23.904 -18.102  1.00  0.00     0.007 A 
ATOM      6  C   UNL     1      -5.389 -25.291 -19.855  1.00  0.00     0.046 A 
ATOM      7  C   UNL     1      -5.543 -23.904 -19.994  1.00  0.00     0.118 A 
BRANCH   7   8
ATOM      8  O   UNL     1      -4.871 -23.227 -21.012  1.00  0.00    -0.508 OA
ATOM      9  H   UNL     1      -5.319 -22.492 -21.546  1.00  0.00     0.293 HD
ENDBRANCH   7   8
ENDBRANCH   1   2
BRANCH   1  10
ATOM     10  C   UNL     1      -7.980 -21.418 -19.815  1.00  0.00     0.040 C 
BRANCH  10  11
ATOM     11  C   UNL     1      -7.965 -21.493 -21.319  1.00  0.00    -0.040 A 
ATOM     12  C   UNL     1      -7.198 -20.585 -22.065  1.00  0.00     0.050 A 
ATOM     13  C   UNL     1      -8.764 -22.434 -21.988  1.00  0.00     0.050 A 
ATOM     14  C   UNL     1      -7.209 -20.632 -23.466  1.00  0.00     0.119 A 
ATOM     15  C   UNL     1      -8.776 -22.483 -23.389  1.00  0.00     0.119 A 
ATOM     16  C   UNL     1      -7.997 -21.583 -24.123  1.00  0.00     0.092 A 
BRANCH  14  17
ATOM     17  O   UNL     1      -6.445 -19.740 -24.214  1.00  0.00    -0.508 OA
ATOM     18  H   UNL     1      -5.450 -19.631 -24.052  1.00  0.00     0.293 HD
ENDBRANCH  14  17
BRANCH  15  19
ATOM     19  O   UNL     1      -9.561 -23.419 -24.060  1.00  0.00    -0.508 OA
ATOM     20  H   UNL     1     -10.013 -23.197 -24.939  1.00  0.00     0.293 HD
ENDBRANCH  15  19
ENDBRANCH  10  11
ENDBRANCH   1  10
TORSDOF 6
ENDMDL
MODEL 5
REMARK VINA RESULT:    -5.940      4.895      7.789
REMARK INTER + INTRA:          -8.170
REMARK INTER:                  -7.637
REMARK INTRA:                  -0.533
REMARK UNBOUND:                -0.668
REMARK SMILES Oc1cc(O)cc(CCc2ccccc2O)c1
REMARK SMILES IDX 9 1 10 2 12 3 13 4 11 5 14 6 15 7 16 8 8 10 7 11 6 12 17 13
REMARK SMILES IDX 4 14 2 15 3 16 5 17 1 19
REMARK H PARENT 16 9 5 18 1 20
REMARK Flexibility Score: inf
ROOT
ATOM      1  C   UNL     1      -4.842 -27.701 -22.125  1.00  0.00     0.044 C 
ENDROOT
BRANCH   1   2
ATOM      2  C   UNL     1      -5.719 -28.878 -22.466  1.00  0.00    -0.006 A 
ATOM      3  C   UNL     1      -7.790 -29.742 -23.403  1.00  0.00     0.001 A 
ATOM      4  C   UNL     1      -7.351 -31.049 -23.182  1.00  0.00     0.004 A 
ATOM      5  C   UNL     1      -6.978 -28.661 -23.053  1.00  0.00     0.007 A 
ATOM      6  C   UNL     1      -6.096 -31.278 -22.614  1.00  0.00     0.046 A 
ATOM      7  C   UNL     1      -5.272 -30.199 -22.260  1.00  0.00     0.118 A 
BRANCH   7   8
ATOM      8  O   UNL     1      -4.013 -30.436 -21.707  1.00  0.00    -0.508 OA
ATOM      9  H   UNL     1      -3.905 -30.899 -20.812  1.00  0.00     0.293 HD
ENDBRANCH   7   8
ENDBRANCH   1   2
BRANCH   1  10
ATOM     10  C   UNL     1      -5.100 -27.235 -20.688  1.00  0.00     0.040 C 
BRANCH  10  11
ATOM     11  C   UNL     1      -5.490 -25.781 -20.666  1.00  0.00    -0.040 A 
ATOM     12  C   UNL     1      -6.223 -25.262 -19.587  1.00  0.00     0.050 A 
ATOM     13  C   UNL     1      -5.174 -24.947 -21.751  1.00  0.00     0.050 A 
ATOM     14  C   UNL     1      -6.616 -23.916 -19.580  1.00  0.00     0.119 A 
ATOM     15  C   UNL     1      -5.566 -23.601 -21.744  1.00  0.00     0.119 A 
ATOM     16  C   UNL     1      -6.284 -23.090 -20.658  1.00  0.00     0.092 A 
BRANCH  14  17
ATOM     17  O   UNL     1      -7.336 -23.392 -18.510  1.00  0.00    -0.508 OA
ATOM     18  H   UNL     1      -8.338 -23.244 -18.569  1.00  0.00     0.293 HD
ENDBRANCH  14  17
BRANCH  15  19
ATOM     19  O   UNL     1      -5.250 -22.765 -22.814  1.00  0.00    -0.508 OA
ATOM     20  H   UNL     1      -4.471 -22.119 -22.769  1.00  0.00     0.293 HD
ENDBRANCH  15  19
ENDBRANCH  10  11
ENDBRANCH   1  10
TORSDOF 6
ENDMDL
MODEL 6
REMARK VINA RESULT:    -5.939      2.984      7.330
REMARK INTER + INTRA:          -8.170
REMARK INTER:                  -7.578
REMARK INTRA:                  -0.592
REMARK UNBOUND:                -0.668
REMARK SMILES Oc1cc(O)cc(CCc2ccccc2O)c1
REMARK SMILES IDX 9 1 10 2 12 3 13 4 11 5 14 6 15 7 16 8 8 10 7 11 6 12 17 13
REMARK SMILES IDX 4 14 2 15 3 16 5 17 1 19
REMARK H PARENT 16 9 5 18 1 20
REMARK Flexibility Score: inf
ROOT
ATOM      1  C   UNL     1      -3.028 -22.118 -25.423  1.00  0.00     0.044 C 
ENDROOT
BRANCH   1   2
ATOM      2  C   UNL     1      -3.113 -23.186 -26.484  1.00  0.00    -0.006 A 
ATOM      3  C   UNL     1      -2.724 -25.485 -27.175  1.00  0.00     0.001 A 
ATOM      4  C   UNL     1      -3.318 -25.220 -28.410  1.00  0.00     0.004 A 
ATOM      5  C   UNL     1      -2.625 -24.477 -26.214  1.00  0.00     0.007 A 
ATOM      6  C   UNL     1      -3.821 -23.946 -28.685  1.00  0.00     0.046 A 
ATOM      7  C   UNL     1      -3.728 -22.926 -27.726  1.00  0.00     0.118 A 
BRANCH   7   8
ATOM      8  O   UNL     1      -4.246 -21.661 -28.003  1.00  0.00    -0.508 OA
ATOM      9  H   UNL     1      -4.894 -21.203 -27.373  1.00  0.00     0.293 HD
ENDBRANCH   7   8
ENDBRANCH   1   2
BRANCH   1  10
ATOM     10  C   UNL     1      -3.086 -22.742 -24.025  1.00  0.00     0.040 C 
BRANCH  10  11
ATOM     11  C   UNL     1      -4.477 -22.643 -23.459  1.00  0.00    -0.040 A 
ATOM     12  C   UNL     1      -5.411 -21.762 -24.027  1.00  0.00     0.050 A 
ATOM     13  C   UNL     1      -4.834 -23.388 -22.323  1.00  0.00     0.050 A 
ATOM     14  C   UNL     1      -6.697 -21.645 -23.481  1.00  0.00     0.119 A 
ATOM     15  C   UNL     1      -6.119 -23.271 -21.776  1.00  0.00     0.119 A 
ATOM     16  C   UNL     1      -7.047 -22.402 -22.358  1.00  0.00     0.092 A 
BRANCH  14  17
ATOM     17  O   UNL     1      -7.631 -20.778 -24.043  1.00  0.00    -0.508 OA
ATOM     18  H   UNL     1      -8.130 -21.017 -24.893  1.00  0.00     0.293 HD
ENDBRANCH  14  17
BRANCH  15  19
ATOM     19  O   UNL     1      -6.483 -24.013 -20.653  1.00  0.00    -0.508 OA
ATOM     20  H   UNL     1      -5.945 -24.818 -20.354  1.00  0.00     0.293 HD
ENDBRANCH  15  19
ENDBRANCH  10  11
ENDBRANCH   1  10
TORSDOF 6
ENDMDL
MODEL 7
REMARK VINA RESULT:    -5.932      2.983      7.645
REMARK INTER + INTRA:          -8.161
REMARK INTER:                  -7.571
REMARK INTRA:                  -0.590
REMARK UNBOUND:                -0.668
REMARK SMILES Oc1cc(O)cc(CCc2ccccc2O)c1
REMARK SMILES IDX 9 1 10 2 12 3 13 4 11 5 14 6 15 7 16 8 8 10 7 11 6 12 17 13
REMARK SMILES IDX 4 14 2 15 3 16 5 17 1 19
REMARK H PARENT 16 9 5 18 1 20
REMARK Flexibility Score: inf
ROOT
ATOM      1  C   UNL     1      -2.955 -22.183 -25.469  1.00  0.00     0.044 C 
ENDROOT
BRANCH   1   2
ATOM      2  C   UNL     1      -3.079 -23.228 -26.548  1.00  0.00    -0.006 A 
ATOM      3  C   UNL     1      -2.728 -25.515 -27.297  1.00  0.00     0.001 A 
ATOM      4  C   UNL     1      -3.355 -25.220 -28.509  1.00  0.00     0.004 A 
ATOM      5  C   UNL     1      -2.594 -24.527 -26.319  1.00  0.00     0.007 A 
ATOM      6  C   UNL     1      -3.856 -23.938 -28.743  1.00  0.00     0.046 A 
ATOM      7  C   UNL     1      -3.727 -22.938 -27.767  1.00  0.00     0.118 A 
BRANCH   7   8
ATOM      8  O   UNL     1      -4.242 -21.663 -28.003  1.00  0.00    -0.508 OA
ATOM      9  H   UNL     1      -4.081 -20.898 -27.359  1.00  0.00     0.293 HD
ENDBRANCH   7   8
ENDBRANCH   1   2
BRANCH   1  10
ATOM     10  C   UNL     1      -3.014 -22.832 -24.082  1.00  0.00     0.040 C 
BRANCH  10  11
ATOM     11  C   UNL     1      -4.377 -22.648 -23.470  1.00  0.00    -0.040 A 
ATOM     12  C   UNL     1      -4.751 -23.394 -22.341  1.00  0.00     0.050 A 
ATOM     13  C   UNL     1      -5.305 -21.774 -24.059  1.00  0.00     0.050 A 
ATOM     14  C   UNL     1      -6.032 -23.249 -21.789  1.00  0.00     0.119 A 
ATOM     15  C   UNL     1      -6.586 -21.628 -23.507  1.00  0.00     0.119 A 
ATOM     16  C   UNL     1      -6.944 -22.364 -22.374  1.00  0.00     0.092 A 
BRANCH  14  17
ATOM     17  O   UNL     1      -6.408 -23.978 -20.664  1.00  0.00    -0.508 OA
ATOM     18  H   UNL     1      -7.166 -24.651 -20.699  1.00  0.00     0.293 HD
ENDBRANCH  14  17
BRANCH  15  19
ATOM     19  O   UNL     1      -7.511 -20.757 -24.082  1.00  0.00    -0.508 OA
ATOM     20  H   UNL     1      -7.299 -19.776 -24.217  1.00  0.00     0.293 HD
ENDBRANCH  15  19
ENDBRANCH  10  11
ENDBRANCH   1  10
TORSDOF 6
ENDMDL
MODEL 8
REMARK VINA RESULT:    -5.875      3.125      5.109
REMARK INTER + INTRA:          -8.089
REMARK INTER:                  -7.486
REMARK INTRA:                  -0.602
REMARK UNBOUND:                -0.668
REMARK SMILES Oc1cc(O)cc(CCc2ccccc2O)c1
REMARK SMILES IDX 9 1 10 2 12 3 13 4 11 5 14 6 15 7 16 8 8 10 7 11 6 12 17 13
REMARK SMILES IDX 4 14 2 15 3 16 5 17 1 19
REMARK H PARENT 16 9 5 18 1 20
REMARK Flexibility Score: inf
ROOT
ATOM      1  C   UNL     1      -3.606 -22.307 -23.975  1.00  0.00     0.044 C 
ENDROOT
BRANCH   1   2
ATOM      2  C   UNL     1      -5.033 -22.281 -23.491  1.00  0.00    -0.006 A 
ATOM      3  C   UNL     1      -7.333 -21.548 -23.794  1.00  0.00     0.001 A 
ATOM      4  C   UNL     1      -7.717 -22.268 -22.661  1.00  0.00     0.004 A 
ATOM      5  C   UNL     1      -6.000 -21.557 -24.212  1.00  0.00     0.007 A 
ATOM      6  C   UNL     1      -6.769 -23.004 -21.946  1.00  0.00     0.046 A 
ATOM      7  C   UNL     1      -5.428 -23.020 -22.357  1.00  0.00     0.118 A 
BRANCH   7   8
ATOM      8  O   UNL     1      -4.490 -23.769 -21.646  1.00  0.00    -0.508 OA
ATOM      9  H   UNL     1      -4.723 -24.671 -21.247  1.00  0.00     0.293 HD
ENDBRANCH   7   8
ENDBRANCH   1   2
BRANCH   1  10
ATOM     10  C   UNL     1      -3.516 -21.791 -25.415  1.00  0.00     0.040 C 
BRANCH  10  11
ATOM     11  C   UNL     1      -3.397 -22.940 -26.381  1.00  0.00    -0.040 A 
ATOM     12  C   UNL     1      -3.929 -22.833 -27.676  1.00  0.00     0.050 A 
ATOM     13  C   UNL     1      -2.807 -24.148 -25.976  1.00  0.00     0.050 A 
ATOM     14  C   UNL     1      -3.849 -23.913 -28.566  1.00  0.00     0.119 A 
ATOM     15  C   UNL     1      -2.726 -25.229 -26.865  1.00  0.00     0.119 A 
ATOM     16  C   UNL     1      -3.246 -25.107 -28.158  1.00  0.00     0.092 A 
BRANCH  14  17
ATOM     17  O   UNL     1      -4.367 -23.812 -29.855  1.00  0.00    -0.508 OA
ATOM     18  H   UNL     1      -5.356 -23.658 -30.017  1.00  0.00     0.293 HD
ENDBRANCH  14  17
BRANCH  15  19
ATOM     19  O   UNL     1      -2.134 -26.428 -26.472  1.00  0.00    -0.508 OA
ATOM     20  H   UNL     1      -2.436 -26.919 -25.639  1.00  0.00     0.293 HD
ENDBRANCH  15  19
ENDBRANCH  10  11
ENDBRANCH   1  10
TORSDOF 6
ENDMDL
MODEL 9
REMARK VINA RESULT:    -5.875      3.135      5.501
REMARK INTER + INTRA:          -8.088
REMARK INTER:                  -7.496
REMARK INTRA:                  -0.592
REMARK UNBOUND:                -0.668
REMARK SMILES Oc1cc(O)cc(CCc2ccccc2O)c1
REMARK SMILES IDX 9 1 10 2 12 3 13 4 11 5 14 6 15 7 16 8 8 10 7 11 6 12 17 13
REMARK SMILES IDX 4 14 2 15 3 16 5 17 1 19
REMARK H PARENT 16 9 5 18 1 20
REMARK Flexibility Score: inf
ROOT
ATOM      1  C   UNL     1      -3.618 -22.350 -23.991  1.00  0.00     0.044 C 
ENDROOT
BRANCH   1   2
ATOM      2  C   UNL     1      -5.046 -22.288 -23.514  1.00  0.00    -0.006 A 
ATOM      3  C   UNL     1      -7.331 -21.523 -23.844  1.00  0.00     0.001 A 
ATOM      4  C   UNL     1      -7.732 -22.209 -22.696  1.00  0.00     0.004 A 
ATOM      5  C   UNL     1      -5.997 -21.565 -24.256  1.00  0.00     0.007 A 
ATOM      6  C   UNL     1      -6.800 -22.945 -21.960  1.00  0.00     0.046 A 
ATOM      7  C   UNL     1      -5.458 -22.994 -22.365  1.00  0.00     0.118 A 
BRANCH   7   8
ATOM      8  O   UNL     1      -4.536 -23.742 -21.632  1.00  0.00    -0.508 OA
ATOM      9  H   UNL     1      -4.786 -24.630 -21.214  1.00  0.00     0.293 HD
ENDBRANCH   7   8
ENDBRANCH   1   2
BRANCH   1  10
ATOM     10  C   UNL     1      -3.511 -21.858 -25.438  1.00  0.00     0.040 C 
BRANCH  10  11
ATOM     11  C   UNL     1      -3.464 -23.023 -26.390  1.00  0.00    -0.040 A 
ATOM     12  C   UNL     1      -2.857 -24.229 -26.004  1.00  0.00     0.050 A 
ATOM     13  C   UNL     1      -3.974 -22.894 -27.692  1.00  0.00     0.050 A 
ATOM     14  C   UNL     1      -2.783 -25.304 -26.901  1.00  0.00     0.119 A 
ATOM     15  C   UNL     1      -3.901 -23.969 -28.590  1.00  0.00     0.119 A 
ATOM     16  C   UNL     1      -3.308 -25.170 -28.190  1.00  0.00     0.092 A 
BRANCH  14  17
ATOM     17  O   UNL     1      -2.190 -26.505 -26.522  1.00  0.00    -0.508 OA
ATOM     18  H   UNL     1      -1.209 -26.555 -26.269  1.00  0.00     0.293 HD
ENDBRANCH  14  17
BRANCH  15  19
ATOM     19  O   UNL     1      -4.412 -23.851 -29.881  1.00  0.00    -0.508 OA
ATOM     20  H   UNL     1      -3.802 -23.767 -30.686  1.00  0.00     0.293 HD
ENDBRANCH  15  19
ENDBRANCH  10  11
ENDBRANCH   1  10
TORSDOF 6
ENDMDL
