MODEL 1
REMARK VINA RESULT:    -2.938      0.000      0.000
REMARK INTER + INTRA:          -3.759
REMARK INTER:                  -3.539
REMARK INTRA:                  -0.220
REMARK UNBOUND:                -0.220
REMARK SMILES OCC(O)CO
REMARK SMILES IDX 3 1 5 2 6 3 2 5 1 6 4 8
REMARK H PARENT 6 4 1 7 4 9
REMARK Flexibility Score: inf
ROOT
ATOM      1  C   UNL     1      63.394  14.730  -1.788  1.00  0.00     0.165 C 
ENDROOT
BRANCH   1   2
ATOM      2  C   UNL     1      63.355  15.278  -3.221  1.00  0.00     0.190 C 
BRANCH   2   3
ATOM      3  O   UNL     1      64.491  16.060  -3.476  1.00  0.00    -0.394 OA
ATOM      4  H   UNL     1      65.271  15.446  -3.464  1.00  0.00     0.210 HD
ENDBRANCH   2   3
ENDBRANCH   1   2
BRANCH   1   5
ATOM      5  C   UNL     1      64.190  15.660  -0.861  1.00  0.00     0.190 C 
BRANCH   5   6
ATOM      6  O   UNL     1      63.548  16.899  -0.751  1.00  0.00    -0.394 OA
ATOM      7  H   UNL     1      63.946  17.479  -1.451  1.00  0.00     0.210 HD
ENDBRANCH   5   6
ENDBRANCH   1   5
BRANCH   1   8
ATOM      8  O   UNL     1      63.985  13.458  -1.797  1.00  0.00    -0.388 OA
ATOM      9  H   UNL     1      63.627  12.968  -1.011  1.00  0.00     0.211 HD
ENDBRANCH   1   8
TORSDOF 5
ENDMDL
MODEL 2
REMARK VINA RESULT:    -2.802      1.976      2.662
REMARK INTER + INTRA:          -3.595
REMARK INTER:                  -3.376
REMARK INTRA:                  -0.219
REMARK UNBOUND:                -0.220
REMARK SMILES OCC(O)CO
REMARK SMILES IDX 3 1 5 2 6 3 2 5 1 6 4 8
REMARK H PARENT 6 4 1 7 4 9
REMARK Flexibility Score: inf
ROOT
ATOM      1  C   UNL     1      64.717  15.779  -0.157  1.00  0.00     0.165 C 
ENDROOT
BRANCH   1   2
ATOM      2  C   UNL     1      63.306  16.196   0.282  1.00  0.00     0.190 C 
BRANCH   2   3
ATOM      3  O   UNL     1      62.864  17.292  -0.473  1.00  0.00    -0.394 OA
ATOM      4  H   UNL     1      61.882  17.189  -0.579  1.00  0.00     0.210 HD
ENDBRANCH   2   3
ENDBRANCH   1   2
BRANCH   1   5
ATOM      5  C   UNL     1      65.420  16.916  -0.913  1.00  0.00     0.190 C 
BRANCH   5   6
ATOM      6  O   UNL     1      65.204  16.788  -2.290  1.00  0.00    -0.394 OA
ATOM      7  H   UNL     1      64.460  17.406  -2.511  1.00  0.00     0.210 HD
ENDBRANCH   5   6
ENDBRANCH   1   5
BRANCH   1   8
ATOM      8  O   UNL     1      64.627  14.651  -0.987  1.00  0.00    -0.388 OA
ATOM      9  H   UNL     1      63.661  14.439  -1.083  1.00  0.00     0.211 HD
ENDBRANCH   1   8
TORSDOF 5
ENDMDL
MODEL 3
REMARK VINA RESULT:    -2.797      1.125      2.745
REMARK INTER + INTRA:          -3.590
REMARK INTER:                  -3.369
REMARK INTRA:                  -0.221
REMARK UNBOUND:                -0.220
REMARK SMILES OCC(O)CO
REMARK SMILES IDX 3 1 5 2 6 3 2 5 1 6 4 8
REMARK H PARENT 6 4 1 7 4 9
REMARK Flexibility Score: inf
ROOT
ATOM      1  C   UNL     1      63.802  16.121  -0.462  1.00  0.00     0.165 C 
ENDROOT
BRANCH   1   2
ATOM      2  C   UNL     1      65.182  16.665  -0.860  1.00  0.00     0.190 C 
BRANCH   2   3
ATOM      3  O   UNL     1      65.272  16.794  -2.254  1.00  0.00    -0.394 OA
ATOM      4  H   UNL     1      65.837  17.592  -2.431  1.00  0.00     0.210 HD
ENDBRANCH   2   3
ENDBRANCH   1   2
BRANCH   1   5
ATOM      5  C   UNL     1      63.307  15.075  -1.472  1.00  0.00     0.190 C 
BRANCH   5   6
ATOM      6  O   UNL     1      64.253  14.051  -1.609  1.00  0.00    -0.394 OA
ATOM      7  H   UNL     1      63.984  13.533  -2.411  1.00  0.00     0.210 HD
ENDBRANCH   5   6
ENDBRANCH   1   5
BRANCH   1   8
ATOM      8  O   UNL     1      62.888  17.183  -0.402  1.00  0.00    -0.388 OA
ATOM      9  H   UNL     1      63.097  17.788  -1.161  1.00  0.00     0.211 HD
ENDBRANCH   1   8
TORSDOF 5
ENDMDL
MODEL 4
REMARK VINA RESULT:    -2.749      0.958      2.697
REMARK INTER + INTRA:          -3.531
REMARK INTER:                  -3.330
REMARK INTRA:                  -0.201
REMARK UNBOUND:                -0.220
REMARK SMILES OCC(O)CO
REMARK SMILES IDX 3 1 5 2 6 3 2 5 1 6 4 8
REMARK H PARENT 6 4 1 7 4 9
REMARK Flexibility Score: inf
ROOT
ATOM      1  C   UNL     1      62.934  15.452  -2.167  1.00  0.00     0.165 C 
ENDROOT
BRANCH   1   2
ATOM      2  C   UNL     1      62.978  14.041  -1.562  1.00  0.00     0.190 C 
BRANCH   2   3
ATOM      3  O   UNL     1      64.206  13.426  -1.846  1.00  0.00    -0.394 OA
ATOM      4  H   UNL     1      64.271  13.358  -2.834  1.00  0.00     0.210 HD
ENDBRANCH   2   3
ENDBRANCH   1   2
BRANCH   1   5
ATOM      5  C   UNL     1      63.309  15.427  -3.656  1.00  0.00     0.190 C 
BRANCH   5   6
ATOM      6  O   UNL     1      64.657  15.769  -3.821  1.00  0.00    -0.394 OA
ATOM      7  H   UNL     1      64.970  16.089  -2.936  1.00  0.00     0.210 HD
ENDBRANCH   5   6
ENDBRANCH   1   5
BRANCH   1   8
ATOM      8  O   UNL     1      63.829  16.279  -1.472  1.00  0.00    -0.388 OA
ATOM      9  H   UNL     1      63.724  16.072  -0.507  1.00  0.00     0.211 HD
ENDBRANCH   1   8
TORSDOF 5
ENDMDL
MODEL 5
REMARK VINA RESULT:    -2.733      1.348      2.694
REMARK INTER + INTRA:          -3.512
REMARK INTER:                  -3.289
REMARK INTRA:                  -0.224
REMARK UNBOUND:                -0.220
REMARK SMILES OCC(O)CO
REMARK SMILES IDX 3 1 5 2 6 3 2 5 1 6 4 8
REMARK H PARENT 6 4 1 7 4 9
REMARK Flexibility Score: inf
ROOT
ATOM      1  C   UNL     1      62.972  15.391  -1.640  1.00  0.00     0.165 C 
ENDROOT
BRANCH   1   2
ATOM      2  C   UNL     1      64.211  15.772  -0.818  1.00  0.00     0.190 C 
BRANCH   2   3
ATOM      3  O   UNL     1      64.360  17.166  -0.778  1.00  0.00    -0.394 OA
ATOM      4  H   UNL     1      64.022  17.466   0.107  1.00  0.00     0.210 HD
ENDBRANCH   2   3
ENDBRANCH   1   2
BRANCH   1   5
ATOM      5  C   UNL     1      63.329  15.198  -3.121  1.00  0.00     0.190 C 
BRANCH   5   6
ATOM      6  O   UNL     1      64.417  16.010  -3.466  1.00  0.00    -0.394 OA
ATOM      7  H   UNL     1      64.042  16.765  -3.990  1.00  0.00     0.210 HD
ENDBRANCH   5   6
ENDBRANCH   1   5
BRANCH   1   8
ATOM      8  O   UNL     1      62.008  16.402  -1.518  1.00  0.00    -0.388 OA
ATOM      9  H   UNL     1      61.127  15.953  -1.430  1.00  0.00     0.211 HD
ENDBRANCH   1   8
TORSDOF 5
ENDMDL
MODEL 6
REMARK VINA RESULT:    -2.585      1.298      2.964
REMARK INTER + INTRA:          -3.334
REMARK INTER:                  -3.111
REMARK INTRA:                  -0.224
REMARK UNBOUND:                -0.220
REMARK SMILES OCC(O)CO
REMARK SMILES IDX 3 1 5 2 6 3 2 5 1 6 4 8
REMARK H PARENT 6 4 1 7 4 9
REMARK Flexibility Score: inf
ROOT
ATOM      1  C   UNL     1      63.431  15.625  -1.542  1.00  0.00     0.165 C 
ENDROOT
BRANCH   1   2
ATOM      2  C   UNL     1      63.704  15.425  -0.045  1.00  0.00     0.190 C 
BRANCH   2   3
ATOM      3  O   UNL     1      65.074  15.228   0.180  1.00  0.00    -0.394 OA
ATOM      4  H   UNL     1      65.392  16.006   0.709  1.00  0.00     0.210 HD
ENDBRANCH   2   3
ENDBRANCH   1   2
BRANCH   1   5
ATOM      5  C   UNL     1      63.135  14.287  -2.235  1.00  0.00     0.190 C 
BRANCH   5   6
ATOM      6  O   UNL     1      64.020  13.301  -1.781  1.00  0.00    -0.394 OA
ATOM      7  H   UNL     1      64.102  13.434  -0.802  1.00  0.00     0.210 HD
ENDBRANCH   5   6
ENDBRANCH   1   5
BRANCH   1   8
ATOM      8  O   UNL     1      64.551  16.224  -2.139  1.00  0.00    -0.388 OA
ATOM      9  H   UNL     1      64.254  16.578  -3.018  1.00  0.00     0.211 HD
ENDBRANCH   1   8
TORSDOF 5
ENDMDL
MODEL 7
REMARK VINA RESULT:    -2.537      2.183      2.633
REMARK INTER + INTRA:          -3.276
REMARK INTER:                  -3.274
REMARK INTRA:                  -0.003
REMARK UNBOUND:                -0.220
REMARK SMILES OCC(O)CO
REMARK SMILES IDX 3 1 5 2 6 3 2 5 1 6 4 8
REMARK H PARENT 6 4 1 7 4 9
REMARK Flexibility Score: inf
ROOT
ATOM      1  C   UNL     1      64.664  16.236  -0.388  1.00  0.00     0.165 C 
ENDROOT
BRANCH   1   2
ATOM      2  C   UNL     1      65.591  17.089  -1.265  1.00  0.00     0.190 C 
BRANCH   2   3
ATOM      3  O   UNL     1      65.375  16.809  -2.622  1.00  0.00    -0.394 OA
ATOM      4  H   UNL     1      64.707  17.467  -2.948  1.00  0.00     0.210 HD
ENDBRANCH   2   3
ENDBRANCH   1   2
BRANCH   1   5
ATOM      5  C   UNL     1      65.046  16.348   1.095  1.00  0.00     0.190 C 
BRANCH   5   6
ATOM      6  O   UNL     1      65.821  15.247   1.480  1.00  0.00    -0.394 OA
ATOM      7  H   UNL     1      66.760  15.482   1.263  1.00  0.00     0.210 HD
ENDBRANCH   5   6
ENDBRANCH   1   5
BRANCH   1   8
ATOM      8  O   UNL     1      64.751  14.895  -0.794  1.00  0.00    -0.388 OA
ATOM      9  H   UNL     1      63.996  14.414  -0.364  1.00  0.00     0.211 HD
ENDBRANCH   1   8
TORSDOF 5
ENDMDL
MODEL 8
REMARK VINA RESULT:    -2.535      1.429      1.825
REMARK INTER + INTRA:          -3.274
REMARK INTER:                  -3.244
REMARK INTRA:                  -0.030
REMARK UNBOUND:                -0.220
REMARK SMILES OCC(O)CO
REMARK SMILES IDX 3 1 5 2 6 3 2 5 1 6 4 8
REMARK H PARENT 6 4 1 7 4 9
REMARK Flexibility Score: inf
ROOT
ATOM      1  C   UNL     1      63.933  15.648  -1.359  1.00  0.00     0.165 C 
ENDROOT
BRANCH   1   2
ATOM      2  C   UNL     1      65.125  16.555  -1.023  1.00  0.00     0.190 C 
BRANCH   2   3
ATOM      3  O   UNL     1      65.671  17.098  -2.195  1.00  0.00    -0.394 OA
ATOM      4  H   UNL     1      66.658  17.075  -2.089  1.00  0.00     0.210 HD
ENDBRANCH   2   3
ENDBRANCH   1   2
BRANCH   1   5
ATOM      5  C   UNL     1      62.726  15.965  -0.464  1.00  0.00     0.190 C 
BRANCH   5   6
ATOM      6  O   UNL     1      62.538  17.350  -0.379  1.00  0.00    -0.394 OA
ATOM      7  H   UNL     1      61.571  17.488  -0.206  1.00  0.00     0.210 HD
ENDBRANCH   5   6
ENDBRANCH   1   5
BRANCH   1   8
ATOM      8  O   UNL     1      64.309  14.308  -1.180  1.00  0.00    -0.388 OA
ATOM      9  H   UNL     1      64.058  14.058  -0.252  1.00  0.00     0.211 HD
ENDBRANCH   1   8
TORSDOF 5
ENDMDL
MODEL 9
REMARK VINA RESULT:    -2.464      1.596      2.302
REMARK INTER + INTRA:          -3.188
REMARK INTER:                  -3.178
REMARK INTRA:                  -0.010
REMARK UNBOUND:                -0.220
REMARK SMILES OCC(O)CO
REMARK SMILES IDX 3 1 5 2 6 3 2 5 1 6 4 8
REMARK H PARENT 6 4 1 7 4 9
REMARK Flexibility Score: inf
ROOT
ATOM      1  C   UNL     1      63.007  15.991  -0.724  1.00  0.00     0.165 C 
ENDROOT
BRANCH   1   2
ATOM      2  C   UNL     1      63.271  15.297  -2.067  1.00  0.00     0.190 C 
BRANCH   2   3
ATOM      3  O   UNL     1      64.241  15.998  -2.797  1.00  0.00    -0.394 OA
ATOM      4  H   UNL     1      65.121  15.606  -2.556  1.00  0.00     0.210 HD
ENDBRANCH   2   3
ENDBRANCH   1   2
BRANCH   1   5
ATOM      5  C   UNL     1      61.570  16.529  -0.651  1.00  0.00     0.190 C 
BRANCH   5   6
ATOM      6  O   UNL     1      61.582  17.924  -0.523  1.00  0.00    -0.394 OA
ATOM      7  H   UNL     1      62.045  18.118   0.333  1.00  0.00     0.210 HD
ENDBRANCH   5   6
ENDBRANCH   1   5
BRANCH   1   8
ATOM      8  O   UNL     1      63.913  17.051  -0.567  1.00  0.00    -0.388 OA
ATOM      9  H   UNL     1      63.492  17.702   0.054  1.00  0.00     0.211 HD
ENDBRANCH   1   8
TORSDOF 5
ENDMDL
