MODEL 1
REMARK VINA RESULT:    -4.378      0.000      0.000
REMARK INTER + INTRA:          -5.249
REMARK INTER:                  -5.402
REMARK INTRA:                   0.153
REMARK UNBOUND:                 0.153
REMARK SMILES O=C1c2c(O)cc(O)cc2O[C@H](c2cc(O)c(O)c(O)c2)[C@H]1O
REMARK SMILES IDX 12 1 22 2 2 3 1 4 3 5 4 6 6 7 7 8 9 9 10 10 11 11 13 12
REMARK SMILES IDX 14 13 15 14 21 15 17 16 19 17 16 18 18 20 20 22 23 24 5 26
REMARK SMILES IDX 8 28
REMARK H PARENT 16 19 18 21 20 23 23 25 5 27 8 29
REMARK Flexibility Score: inf
ROOT
ATOM      1  C   UNL     1       2.176  22.479   4.847  1.00  0.00     0.240 C 
ATOM      2  C   UNL     1       2.238  22.799   6.350  1.00  0.00     0.231 C 
ATOM      3  C   UNL     1       3.684  22.917   6.759  1.00  0.00     0.202 C 
ATOM      4  O   UNL     1       4.095  22.330   7.796  1.00  0.00    -0.291 OA
ATOM      5  C   UNL     1       4.609  23.682   5.887  1.00  0.00     0.105 A 
ATOM      6  C   UNL     1       5.857  24.207   6.317  1.00  0.00     0.133 A 
ATOM      7  C   UNL     1       6.688  24.852   5.393  1.00  0.00     0.093 A 
ATOM      8  C   UNL     1       6.281  25.037   4.070  1.00  0.00     0.123 A 
ATOM      9  C   UNL     1       5.034  24.563   3.655  1.00  0.00     0.093 A 
ATOM     10  C   UNL     1       4.205  23.882   4.549  1.00  0.00     0.138 A 
ATOM     11  O   UNL     1       2.965  23.408   4.100  1.00  0.00    -0.481 OA
ENDROOT
BRANCH   1  12
ATOM     12  C   UNL     1       0.750  22.505   4.346  1.00  0.00     0.003 A 
ATOM     13  C   UNL     1      -0.220  21.672   4.926  1.00  0.00     0.058 A 
ATOM     14  C   UNL     1      -1.549  21.712   4.484  1.00  0.00     0.161 A 
ATOM     15  C   UNL     1       0.367  23.399   3.332  1.00  0.00     0.058 A 
ATOM     16  C   UNL     1      -1.920  22.599   3.460  1.00  0.00     0.200 A 
ATOM     17  C   UNL     1      -0.961  23.444   2.887  1.00  0.00     0.161 A 
BRANCH  14  18
ATOM     18  O   UNL     1      -2.503  20.875   5.062  1.00  0.00    -0.504 OA
ATOM     19  H   UNL     1      -2.369  19.872   5.115  1.00  0.00     0.293 HD
ENDBRANCH  14  18
BRANCH  16  20
ATOM     20  O   UNL     1      -3.238  22.657   3.004  1.00  0.00    -0.502 OA
ATOM     21  H   UNL     1      -3.572  22.077   2.244  1.00  0.00     0.293 HD
ENDBRANCH  16  20
BRANCH  17  22
ATOM     22  O   UNL     1      -1.335  24.326   1.875  1.00  0.00    -0.504 OA
ATOM     23  H   UNL     1      -0.793  25.157   1.669  1.00  0.00     0.293 HD
ENDBRANCH  17  22
ENDBRANCH   1  12
BRANCH   2  24
ATOM     24  O   UNL     1       1.597  21.779   7.076  1.00  0.00    -0.381 OA
ATOM     25  H   UNL     1       0.629  22.002   7.089  1.00  0.00     0.211 HD
ENDBRANCH   2  24
BRANCH   6  26
ATOM     26  O   UNL     1       6.293  24.148   7.642  1.00  0.00    -0.507 OA
ATOM     27  H   UNL     1       6.646  24.941   8.157  1.00  0.00     0.293 HD
ENDBRANCH   6  26
BRANCH   8  28
ATOM     28  O   UNL     1       7.123  25.698   3.179  1.00  0.00    -0.508 OA
ATOM     29  H   UNL     1       7.627  25.199   2.456  1.00  0.00     0.293 HD
ENDBRANCH   8  28
TORSDOF 7
ENDMDL
MODEL 2
REMARK VINA RESULT:    -4.347      2.213      6.885
REMARK INTER + INTRA:          -5.210
REMARK INTER:                  -4.969
REMARK INTRA:                  -0.241
REMARK UNBOUND:                 0.153
REMARK SMILES O=C1c2c(O)cc(O)cc2O[C@H](c2cc(O)c(O)c(O)c2)[C@H]1O
REMARK SMILES IDX 12 1 22 2 2 3 1 4 3 5 4 6 6 7 7 8 9 9 10 10 11 11 13 12
REMARK SMILES IDX 14 13 15 14 21 15 17 16 19 17 16 18 18 20 20 22 23 24 5 26
REMARK SMILES IDX 8 28
REMARK H PARENT 16 19 18 21 20 23 23 25 5 27 8 29
REMARK Flexibility Score: inf
ROOT
ATOM      1  C   UNL     1       2.299  22.208   4.054  1.00  0.00     0.240 C 
ATOM      2  C   UNL     1       1.013  22.425   3.237  1.00  0.00     0.231 C 
ATOM      3  C   UNL     1      -0.089  21.593   3.841  1.00  0.00     0.202 C 
ATOM      4  O   UNL     1      -0.823  20.888   3.098  1.00  0.00    -0.291 OA
ATOM      5  C   UNL     1      -0.244  21.582   5.316  1.00  0.00     0.105 A 
ATOM      6  C   UNL     1      -1.432  21.190   5.988  1.00  0.00     0.133 A 
ATOM      7  C   UNL     1      -1.450  21.145   7.388  1.00  0.00     0.093 A 
ATOM      8  C   UNL     1      -0.335  21.537   8.131  1.00  0.00     0.123 A 
ATOM      9  C   UNL     1       0.820  21.969   7.474  1.00  0.00     0.093 A 
ATOM     10  C   UNL     1       0.874  21.984   6.078  1.00  0.00     0.138 A 
ATOM     11  O   UNL     1       2.051  22.410   5.448  1.00  0.00    -0.481 OA
ENDROOT
BRANCH   1  12
ATOM     12  C   UNL     1       3.398  23.137   3.594  1.00  0.00     0.003 A 
ATOM     13  C   UNL     1       3.085  24.415   3.104  1.00  0.00     0.058 A 
ATOM     14  C   UNL     1       4.101  25.292   2.701  1.00  0.00     0.161 A 
ATOM     15  C   UNL     1       4.746  22.755   3.698  1.00  0.00     0.058 A 
ATOM     16  C   UNL     1       5.446  24.896   2.797  1.00  0.00     0.200 A 
ATOM     17  C   UNL     1       5.766  23.628   3.297  1.00  0.00     0.161 A 
BRANCH  14  18
ATOM     18  O   UNL     1       3.780  26.557   2.210  1.00  0.00    -0.504 OA
ATOM     19  H   UNL     1       2.830  26.909   2.231  1.00  0.00     0.293 HD
ENDBRANCH  14  18
BRANCH  16  20
ATOM     20  O   UNL     1       6.475  25.752   2.401  1.00  0.00    -0.502 OA
ATOM     21  H   UNL     1       7.441  25.451   2.360  1.00  0.00     0.293 HD
ENDBRANCH  16  20
BRANCH  17  22
ATOM     22  O   UNL     1       7.102  23.241   3.395  1.00  0.00    -0.504 OA
ATOM     23  H   UNL     1       7.824  23.686   2.841  1.00  0.00     0.293 HD
ENDBRANCH  17  22
ENDBRANCH   1  12
BRANCH   2  24
ATOM     24  O   UNL     1       1.239  22.058   1.899  1.00  0.00    -0.381 OA
ATOM     25  H   UNL     1       0.870  22.789   1.335  1.00  0.00     0.211 HD
ENDBRANCH   2  24
BRANCH   6  26
ATOM     26  O   UNL     1      -2.618  20.875   5.321  1.00  0.00    -0.507 OA
ATOM     27  H   UNL     1      -3.252  21.562   4.942  1.00  0.00     0.293 HD
ENDBRANCH   6  26
BRANCH   8  28
ATOM     28  O   UNL     1      -0.388  21.500   9.522  1.00  0.00    -0.508 OA
ATOM     29  H   UNL     1       0.420  21.243  10.077  1.00  0.00     0.293 HD
ENDBRANCH   8  28
TORSDOF 7
ENDMDL
MODEL 3
REMARK VINA RESULT:    -4.298      1.982      7.396
REMARK INTER + INTRA:          -5.149
REMARK INTER:                  -5.403
REMARK INTRA:                   0.254
REMARK UNBOUND:                 0.153
REMARK SMILES O=C1c2c(O)cc(O)cc2O[C@H](c2cc(O)c(O)c(O)c2)[C@H]1O
REMARK SMILES IDX 12 1 22 2 2 3 1 4 3 5 4 6 6 7 7 8 9 9 10 10 11 11 13 12
REMARK SMILES IDX 14 13 15 14 21 15 17 16 19 17 16 18 18 20 20 22 23 24 5 26
REMARK SMILES IDX 8 28
REMARK H PARENT 16 19 18 21 20 23 23 25 5 27 8 29
REMARK Flexibility Score: inf
ROOT
ATOM      1  C   UNL     1       2.541  21.964   5.693  1.00  0.00     0.240 C 
ATOM      2  C   UNL     1       1.618  22.346   4.522  1.00  0.00     0.231 C 
ATOM      3  C   UNL     1       0.347  21.544   4.627  1.00  0.00     0.202 C 
ATOM      4  O   UNL     1      -0.116  20.963   3.609  1.00  0.00    -0.291 OA
ATOM      5  C   UNL     1      -0.301  21.410   5.954  1.00  0.00     0.105 A 
ATOM      6  C   UNL     1      -1.661  21.045   6.144  1.00  0.00     0.133 A 
ATOM      7  C   UNL     1      -2.155  20.875   7.443  1.00  0.00     0.093 A 
ATOM      8  C   UNL     1      -1.345  21.117   8.554  1.00  0.00     0.123 A 
ATOM      9  C   UNL     1      -0.020  21.523   8.373  1.00  0.00     0.093 A 
ATOM     10  C   UNL     1       0.505  21.660   7.086  1.00  0.00     0.138 A 
ATOM     11  O   UNL     1       1.841  22.056   6.937  1.00  0.00    -0.481 OA
ENDROOT
BRANCH   1  12
ATOM     12  C   UNL     1       3.764  22.850   5.731  1.00  0.00     0.003 A 
ATOM     13  C   UNL     1       4.073  23.678   4.639  1.00  0.00     0.058 A 
ATOM     14  C   UNL     1       5.191  24.522   4.680  1.00  0.00     0.161 A 
ATOM     15  C   UNL     1       4.577  22.895   6.876  1.00  0.00     0.058 A 
ATOM     16  C   UNL     1       6.005  24.551   5.824  1.00  0.00     0.200 A 
ATOM     17  C   UNL     1       5.695  23.738   6.922  1.00  0.00     0.161 A 
BRANCH  14  18
ATOM     18  O   UNL     1       5.492  25.335   3.588  1.00  0.00    -0.504 OA
ATOM     19  H   UNL     1       5.940  26.236   3.704  1.00  0.00     0.293 HD
ENDBRANCH  14  18
BRANCH  16  20
ATOM     20  O   UNL     1       7.124  25.384   5.887  1.00  0.00    -0.502 OA
ATOM     21  H   UNL     1       8.068  25.020   5.865  1.00  0.00     0.293 HD
ENDBRANCH  16  20
BRANCH  17  22
ATOM     22  O   UNL     1       6.503  23.774   8.057  1.00  0.00    -0.504 OA
ATOM     23  H   UNL     1       7.471  24.069   8.009  1.00  0.00     0.293 HD
ENDBRANCH  17  22
ENDBRANCH   1  12
BRANCH   2  24
ATOM     24  O   UNL     1       2.272  22.087   3.304  1.00  0.00    -0.381 OA
ATOM     25  H   UNL     1       3.115  21.611   3.527  1.00  0.00     0.211 HD
ENDBRANCH   2  24
BRANCH   6  26
ATOM     26  O   UNL     1      -2.559  20.878   5.088  1.00  0.00    -0.507 OA
ATOM     27  H   UNL     1      -2.317  21.000   4.116  1.00  0.00     0.293 HD
ENDBRANCH   6  26
BRANCH   8  28
ATOM     28  O   UNL     1      -1.870  20.957   9.835  1.00  0.00    -0.508 OA
ATOM     29  H   UNL     1      -2.723  20.436   9.996  1.00  0.00     0.293 HD
ENDBRANCH   8  28
TORSDOF 7
ENDMDL
MODEL 4
REMARK VINA RESULT:    -4.226      1.481      1.717
REMARK INTER + INTRA:          -5.060
REMARK INTER:                  -5.235
REMARK INTRA:                   0.174
REMARK UNBOUND:                 0.153
REMARK SMILES O=C1c2c(O)cc(O)cc2O[C@H](c2cc(O)c(O)c(O)c2)[C@H]1O
REMARK SMILES IDX 12 1 22 2 2 3 1 4 3 5 4 6 6 7 7 8 9 9 10 10 11 11 13 12
REMARK SMILES IDX 14 13 15 14 21 15 17 16 19 17 16 18 18 20 20 22 23 24 5 26
REMARK SMILES IDX 8 28
REMARK H PARENT 16 19 18 21 20 23 23 25 5 27 8 29
REMARK Flexibility Score: inf
ROOT
ATOM      1  C   UNL     1       2.540  21.701   5.516  1.00  0.00     0.240 C 
ATOM      2  C   UNL     1       2.967  22.030   6.957  1.00  0.00     0.231 C 
ATOM      3  C   UNL     1       4.423  22.418   6.954  1.00  0.00     0.202 C 
ATOM      4  O   UNL     1       5.208  21.920   7.804  1.00  0.00    -0.291 OA
ATOM      5  C   UNL     1       4.910  23.341   5.900  1.00  0.00     0.105 A 
ATOM      6  C   UNL     1       6.111  24.093   5.992  1.00  0.00     0.133 A 
ATOM      7  C   UNL     1       6.517  24.880   4.908  1.00  0.00     0.093 A 
ATOM      8  C   UNL     1       5.727  24.983   3.761  1.00  0.00     0.123 A 
ATOM      9  C   UNL     1       4.520  24.283   3.686  1.00  0.00     0.093 A 
ATOM     10  C   UNL     1       4.115  23.460   4.739  1.00  0.00     0.138 A 
ATOM     11  O   UNL     1       2.905  22.761   4.628  1.00  0.00    -0.481 OA
ENDROOT
BRANCH   1  12
ATOM     12  C   UNL     1       1.051  21.458   5.433  1.00  0.00     0.003 A 
ATOM     13  C   UNL     1       0.267  21.465   6.598  1.00  0.00     0.058 A 
ATOM     14  C   UNL     1      -1.119  21.269   6.524  1.00  0.00     0.161 A 
ATOM     15  C   UNL     1       0.427  21.276   4.188  1.00  0.00     0.058 A 
ATOM     16  C   UNL     1      -1.733  21.073   5.276  1.00  0.00     0.200 A 
ATOM     17  C   UNL     1      -0.959  21.080   4.109  1.00  0.00     0.161 A 
BRANCH  14  18
ATOM     18  O   UNL     1      -1.888  21.270   7.687  1.00  0.00    -0.504 OA
ATOM     19  H   UNL     1      -1.664  21.871   8.472  1.00  0.00     0.293 HD
ENDBRANCH  14  18
BRANCH  16  20
ATOM     20  O   UNL     1      -3.111  20.875   5.178  1.00  0.00    -0.502 OA
ATOM     21  H   UNL     1      -3.758  21.643   5.046  1.00  0.00     0.293 HD
ENDBRANCH  16  20
BRANCH  17  22
ATOM     22  O   UNL     1      -1.573  20.891   2.872  1.00  0.00    -0.504 OA
ATOM     23  H   UNL     1      -2.111  20.056   2.669  1.00  0.00     0.293 HD
ENDBRANCH  17  22
ENDBRANCH   1  12
BRANCH   2  24
ATOM     24  O   UNL     1       2.751  20.909   7.779  1.00  0.00    -0.381 OA
ATOM     25  H   UNL     1       1.901  20.493   7.478  1.00  0.00     0.211 HD
ENDBRANCH   2  24
BRANCH   6  26
ATOM     26  O   UNL     1       6.908  24.118   7.139  1.00  0.00    -0.507 OA
ATOM     27  H   UNL     1       6.657  24.600   7.990  1.00  0.00     0.293 HD
ENDBRANCH   6  26
BRANCH   8  28
ATOM     28  O   UNL     1       6.148  25.789   2.706  1.00  0.00    -0.508 OA
ATOM     29  H   UNL     1       5.929  25.559   1.744  1.00  0.00     0.293 HD
ENDBRANCH   8  28
TORSDOF 7
ENDMDL
MODEL 5
REMARK VINA RESULT:    -3.787     23.245     24.598
REMARK INTER + INTRA:          -4.520
REMARK INTER:                  -4.736
REMARK INTRA:                   0.217
REMARK UNBOUND:                 0.153
REMARK SMILES O=C1c2c(O)cc(O)cc2O[C@H](c2cc(O)c(O)c(O)c2)[C@H]1O
REMARK SMILES IDX 12 1 22 2 2 3 1 4 3 5 4 6 6 7 7 8 9 9 10 10 11 11 13 12
REMARK SMILES IDX 14 13 15 14 21 15 17 16 19 17 16 18 18 20 20 22 23 24 5 26
REMARK SMILES IDX 8 28
REMARK H PARENT 16 19 18 21 20 23 23 25 5 27 8 29
REMARK Flexibility Score: inf
ROOT
ATOM      1  C   UNL     1      -6.889  41.124  18.441  1.00  0.00     0.240 C 
ATOM      2  C   UNL     1      -7.496  40.021  19.325  1.00  0.00     0.231 C 
ATOM      3  C   UNL     1      -8.994  40.042  19.164  1.00  0.00     0.202 C 
ATOM      4  O   UNL     1      -9.737  40.001  20.182  1.00  0.00    -0.291 OA
ATOM      5  C   UNL     1      -9.561  40.173  17.800  1.00  0.00     0.105 A 
ATOM      6  C   UNL     1     -10.891  39.816  17.452  1.00  0.00     0.133 A 
ATOM      7  C   UNL     1     -11.349  40.048  16.149  1.00  0.00     0.093 A 
ATOM      8  C   UNL     1     -10.497  40.570  15.173  1.00  0.00     0.123 A 
ATOM      9  C   UNL     1      -9.174  40.877  15.499  1.00  0.00     0.093 A 
ATOM     10  C   UNL     1      -8.707  40.691  16.802  1.00  0.00     0.138 A 
ATOM     11  O   UNL     1      -7.378  41.021  17.100  1.00  0.00    -0.481 OA
ENDROOT
BRANCH   1  12
ATOM     12  C   UNL     1      -5.380  41.049  18.438  1.00  0.00     0.003 A 
ATOM     13  C   UNL     1      -4.671  41.111  17.228  1.00  0.00     0.058 A 
ATOM     14  C   UNL     1      -3.270  41.069  17.221  1.00  0.00     0.161 A 
ATOM     15  C   UNL     1      -4.668  40.968  19.646  1.00  0.00     0.058 A 
ATOM     16  C   UNL     1      -2.566  40.975  18.434  1.00  0.00     0.200 A 
ATOM     17  C   UNL     1      -3.267  40.927  19.645  1.00  0.00     0.161 A 
BRANCH  14  18
ATOM     18  O   UNL     1      -2.575  41.124  16.013  1.00  0.00    -0.504 OA
ATOM     19  H   UNL     1      -2.935  40.690  15.172  1.00  0.00     0.293 HD
ENDBRANCH  14  18
BRANCH  16  20
ATOM     20  O   UNL     1      -1.171  40.932  18.451  1.00  0.00    -0.502 OA
ATOM     21  H   UNL     1      -0.604  41.750  18.270  1.00  0.00     0.293 HD
ENDBRANCH  16  20
BRANCH  17  22
ATOM     22  O   UNL     1      -2.564  40.839  20.846  1.00  0.00    -0.504 OA
ATOM     23  H   UNL     1      -3.043  40.793  21.738  1.00  0.00     0.293 HD
ENDBRANCH  17  22
ENDBRANCH   1  12
BRANCH   2  24
ATOM     24  O   UNL     1      -7.136  40.243  20.667  1.00  0.00    -0.381 OA
ATOM     25  H   UNL     1      -7.686  41.005  20.989  1.00  0.00     0.211 HD
ENDBRANCH   2  24
BRANCH   6  26
ATOM     26  O   UNL     1     -11.773  39.202  18.344  1.00  0.00    -0.507 OA
ATOM     27  H   UNL     1     -11.902  38.204  18.413  1.00  0.00     0.293 HD
ENDBRANCH   6  26
BRANCH   8  28
ATOM     28  O   UNL     1     -10.976  40.772  13.881  1.00  0.00    -0.508 OA
ATOM     29  H   UNL     1     -11.062  40.007  13.222  1.00  0.00     0.293 HD
ENDBRANCH   8  28
TORSDOF 7
ENDMDL
MODEL 6
REMARK VINA RESULT:    -3.641      1.478      2.990
REMARK INTER + INTRA:          -4.339
REMARK INTER:                  -4.649
REMARK INTRA:                   0.310
REMARK UNBOUND:                 0.153
REMARK SMILES O=C1c2c(O)cc(O)cc2O[C@H](c2cc(O)c(O)c(O)c2)[C@H]1O
REMARK SMILES IDX 12 1 22 2 2 3 1 4 3 5 4 6 6 7 7 8 9 9 10 10 11 11 13 12
REMARK SMILES IDX 14 13 15 14 21 15 17 16 19 17 16 18 18 20 20 22 23 24 5 26
REMARK SMILES IDX 8 28
REMARK H PARENT 16 19 18 21 20 23 23 25 5 27 8 29
REMARK Flexibility Score: inf
ROOT
ATOM      1  C   UNL     1       2.024  23.500   5.297  1.00  0.00     0.240 C 
ATOM      2  C   UNL     1       2.738  23.473   3.934  1.00  0.00     0.231 C 
ATOM      3  C   UNL     1       4.118  24.054   4.101  1.00  0.00     0.202 C 
ATOM      4  O   UNL     1       4.542  24.913   3.281  1.00  0.00    -0.291 OA
ATOM      5  C   UNL     1       4.928  23.640   5.272  1.00  0.00     0.105 A 
ATOM      6  C   UNL     1       6.339  23.777   5.354  1.00  0.00     0.133 A 
ATOM      7  C   UNL     1       7.000  23.421   6.537  1.00  0.00     0.093 A 
ATOM      8  C   UNL     1       6.296  22.878   7.614  1.00  0.00     0.123 A 
ATOM      9  C   UNL     1       4.914  22.697   7.520  1.00  0.00     0.093 A 
ATOM     10  C   UNL     1       4.229  23.082   6.365  1.00  0.00     0.138 A 
ATOM     11  O   UNL     1       2.841  22.900   6.306  1.00  0.00    -0.481 OA
ENDROOT
BRANCH   1  12
ATOM     12  C   UNL     1       0.695  22.785   5.228  1.00  0.00     0.003 A 
ATOM     13  C   UNL     1       0.119  22.247   6.390  1.00  0.00     0.058 A 
ATOM     14  C   UNL     1      -1.126  21.607   6.337  1.00  0.00     0.161 A 
ATOM     15  C   UNL     1      -0.003  22.694   4.012  1.00  0.00     0.058 A 
ATOM     16  C   UNL     1      -1.812  21.509   5.114  1.00  0.00     0.200 A 
ATOM     17  C   UNL     1      -1.249  22.055   3.953  1.00  0.00     0.161 A 
BRANCH  14  18
ATOM     18  O   UNL     1      -1.687  21.071   7.496  1.00  0.00    -0.504 OA
ATOM     19  H   UNL     1      -2.508  20.479   7.464  1.00  0.00     0.293 HD
ENDBRANCH  14  18
BRANCH  16  20
ATOM     20  O   UNL     1      -3.053  20.875   5.037  1.00  0.00    -0.502 OA
ATOM     21  H   UNL     1      -3.421  20.316   5.796  1.00  0.00     0.293 HD
ENDBRANCH  16  20
BRANCH  17  22
ATOM     22  O   UNL     1      -1.935  21.960   2.744  1.00  0.00    -0.504 OA
ATOM     23  H   UNL     1      -2.824  21.477   2.675  1.00  0.00     0.293 HD
ENDBRANCH  17  22
ENDBRANCH   1  12
BRANCH   2  24
ATOM     24  O   UNL     1       1.994  24.214   2.999  1.00  0.00    -0.381 OA
ATOM     25  H   UNL     1       2.593  24.381   2.224  1.00  0.00     0.211 HD
ENDBRANCH   2  24
BRANCH   6  26
ATOM     26  O   UNL     1       7.125  24.221   4.288  1.00  0.00    -0.507 OA
ATOM     27  H   UNL     1       7.225  25.191   4.026  1.00  0.00     0.293 HD
ENDBRANCH   6  26
BRANCH   8  28
ATOM     28  O   UNL     1       6.983  22.516   8.770  1.00  0.00    -0.508 OA
ATOM     29  H   UNL     1       7.441  23.207   9.352  1.00  0.00     0.293 HD
ENDBRANCH   8  28
TORSDOF 7
ENDMDL
MODEL 7
REMARK VINA RESULT:    -3.442      1.989      3.500
REMARK INTER + INTRA:          -4.093
REMARK INTER:                  -4.116
REMARK INTRA:                   0.023
REMARK UNBOUND:                 0.153
REMARK SMILES O=C1c2c(O)cc(O)cc2O[C@H](c2cc(O)c(O)c(O)c2)[C@H]1O
REMARK SMILES IDX 12 1 22 2 2 3 1 4 3 5 4 6 6 7 7 8 9 9 10 10 11 11 13 12
REMARK SMILES IDX 14 13 15 14 21 15 17 16 19 17 16 18 18 20 20 22 23 24 5 26
REMARK SMILES IDX 8 28
REMARK H PARENT 16 19 18 21 20 23 23 25 5 27 8 29
REMARK Flexibility Score: inf
ROOT
ATOM      1  C   UNL     1       1.630  22.716   4.765  1.00  0.00     0.240 C 
ATOM      2  C   UNL     1       2.194  21.581   3.893  1.00  0.00     0.231 C 
ATOM      3  C   UNL     1       3.381  22.106   3.127  1.00  0.00     0.202 C 
ATOM      4  O   UNL     1       3.484  21.876   1.892  1.00  0.00    -0.291 OA
ATOM      5  C   UNL     1       4.378  22.939   3.843  1.00  0.00     0.105 A 
ATOM      6  C   UNL     1       5.704  23.163   3.386  1.00  0.00     0.133 A 
ATOM      7  C   UNL     1       6.543  24.027   4.102  1.00  0.00     0.093 A 
ATOM      8  C   UNL     1       6.112  24.624   5.288  1.00  0.00     0.123 A 
ATOM      9  C   UNL     1       4.824  24.368   5.766  1.00  0.00     0.093 A 
ATOM     10  C   UNL     1       3.957  23.541   5.048  1.00  0.00     0.138 A 
ATOM     11  O   UNL     1       2.667  23.315   5.547  1.00  0.00    -0.481 OA
ENDROOT
BRANCH   1  12
ATOM     12  C   UNL     1       0.536  22.207   5.676  1.00  0.00     0.003 A 
ATOM     13  C   UNL     1       0.721  22.200   7.068  1.00  0.00     0.058 A 
ATOM     14  C   UNL     1      -0.299  21.756   7.919  1.00  0.00     0.161 A 
ATOM     15  C   UNL     1      -0.694  21.785   5.146  1.00  0.00     0.058 A 
ATOM     16  C   UNL     1      -1.522  21.323   7.380  1.00  0.00     0.200 A 
ATOM     17  C   UNL     1      -1.718  21.340   5.993  1.00  0.00     0.161 A 
BRANCH  14  18
ATOM     18  O   UNL     1      -0.103  21.747   9.300  1.00  0.00    -0.504 OA
ATOM     19  H   UNL     1       0.809  21.910   9.708  1.00  0.00     0.293 HD
ENDBRANCH  14  18
BRANCH  16  20
ATOM     20  O   UNL     1      -2.553  20.875   8.208  1.00  0.00    -0.502 OA
ATOM     21  H   UNL     1      -2.419  20.133   8.883  1.00  0.00     0.293 HD
ENDBRANCH  16  20
BRANCH  17  22
ATOM     22  O   UNL     1      -2.935  20.915   5.463  1.00  0.00    -0.504 OA
ATOM     23  H   UNL     1      -3.082  19.953   5.179  1.00  0.00     0.293 HD
ENDBRANCH  17  22
ENDBRANCH   1  12
BRANCH   2  24
ATOM     24  O   UNL     1       1.197  21.123   3.014  1.00  0.00    -0.381 OA
ATOM     25  H   UNL     1       0.558  20.591   3.558  1.00  0.00     0.211 HD
ENDBRANCH   2  24
BRANCH   6  26
ATOM     26  O   UNL     1       6.241  22.530   2.263  1.00  0.00    -0.507 OA
ATOM     27  H   UNL     1       6.344  21.530   2.174  1.00  0.00     0.293 HD
ENDBRANCH   6  26
BRANCH   8  28
ATOM     28  O   UNL     1       6.975  25.464   5.987  1.00  0.00    -0.508 OA
ATOM     29  H   UNL     1       6.776  25.757   6.936  1.00  0.00     0.293 HD
ENDBRANCH   8  28
TORSDOF 7
ENDMDL
MODEL 8
REMARK VINA RESULT:    -1.900      1.827      3.195
REMARK INTER + INTRA:          -2.191
REMARK INTER:                  -2.405
REMARK INTRA:                   0.214
REMARK UNBOUND:                 0.153
REMARK SMILES O=C1c2c(O)cc(O)cc2O[C@H](c2cc(O)c(O)c(O)c2)[C@H]1O
REMARK SMILES IDX 12 1 22 2 2 3 1 4 3 5 4 6 6 7 7 8 9 9 10 10 11 11 13 12
REMARK SMILES IDX 14 13 15 14 21 15 17 16 19 17 16 18 18 20 20 22 23 24 5 26
REMARK SMILES IDX 8 28
REMARK H PARENT 16 19 18 21 20 23 23 25 5 27 8 29
REMARK Flexibility Score: inf
ROOT
ATOM      1  C   UNL     1       1.263  23.937   4.019  1.00  0.00     0.240 C 
ATOM      2  C   UNL     1       1.507  24.531   2.620  1.00  0.00     0.231 C 
ATOM      3  C   UNL     1       2.852  25.209   2.611  1.00  0.00     0.202 C 
ATOM      4  O   UNL     1       2.971  26.366   2.125  1.00  0.00    -0.291 OA
ATOM      5  C   UNL     1       4.003  24.513   3.236  1.00  0.00     0.105 A 
ATOM      6  C   UNL     1       5.363  24.821   2.965  1.00  0.00     0.133 A 
ATOM      7  C   UNL     1       6.375  24.151   3.665  1.00  0.00     0.093 A 
ATOM      8  C   UNL     1       6.066  23.144   4.581  1.00  0.00     0.123 A 
ATOM      9  C   UNL     1       4.731  22.805   4.815  1.00  0.00     0.093 A 
ATOM     10  C   UNL     1       3.704  23.487   4.159  1.00  0.00     0.138 A 
ATOM     11  O   UNL     1       2.374  23.132   4.425  1.00  0.00    -0.481 OA
ENDROOT
BRANCH   1  12
ATOM     12  C   UNL     1       0.000  23.108   4.043  1.00  0.00     0.003 A 
ATOM     13  C   UNL     1      -0.343  22.375   5.191  1.00  0.00     0.058 A 
ATOM     14  C   UNL     1      -1.527  21.626   5.230  1.00  0.00     0.161 A 
ATOM     15  C   UNL     1      -0.870  23.101   2.941  1.00  0.00     0.058 A 
ATOM     16  C   UNL     1      -2.385  21.615   4.117  1.00  0.00     0.200 A 
ATOM     17  C   UNL     1      -2.055  22.354   2.974  1.00  0.00     0.161 A 
BRANCH  14  18
ATOM     18  O   UNL     1      -1.856  20.897   6.372  1.00  0.00    -0.504 OA
ATOM     19  H   UNL     1      -2.724  21.053   6.871  1.00  0.00     0.293 HD
ENDBRANCH  14  18
BRANCH  16  20
ATOM     20  O   UNL     1      -3.570  20.876   4.133  1.00  0.00    -0.502 OA
ATOM     21  H   UNL     1      -4.347  21.116   4.735  1.00  0.00     0.293 HD
ENDBRANCH  16  20
BRANCH  17  22
ATOM     22  O   UNL     1      -2.912  22.344   1.875  1.00  0.00    -0.504 OA
ATOM     23  H   UNL     1      -2.588  22.076   0.953  1.00  0.00     0.293 HD
ENDBRANCH  17  22
ENDBRANCH   1  12
BRANCH   2  24
ATOM     24  O   UNL     1       0.485  25.448   2.315  1.00  0.00    -0.381 OA
ATOM     25  H   UNL     1      -0.195  25.369   3.035  1.00  0.00     0.211 HD
ENDBRANCH   2  24
BRANCH   6  26
ATOM     26  O   UNL     1       5.757  25.746   1.996  1.00  0.00    -0.507 OA
ATOM     27  H   UNL     1       5.377  25.781   1.061  1.00  0.00     0.293 HD
ENDBRANCH   6  26
BRANCH   8  28
ATOM     28  O   UNL     1       7.094  22.483   5.248  1.00  0.00    -0.508 OA
ATOM     29  H   UNL     1       8.017  22.391   4.841  1.00  0.00     0.293 HD
ENDBRANCH   8  28
TORSDOF 7
ENDMDL
