MODEL 1
REMARK VINA RESULT:    -5.310      0.000      0.000
REMARK INTER + INTRA:         -14.010
REMARK INTER:                 -11.518
REMARK INTRA:                  -2.492
REMARK UNBOUND:                -2.492
REMARK SMILES CCCCCCCCCCCCCCCCCCCCCC(=O)[O-]
REMARK SMILES IDX 12 1 11 2 10 3 9 4 8 5 7 6 6 7 5 8 4 9 3 10 2 11 1 12 13 13
REMARK SMILES IDX 14 14 15 15 16 16 17 17 18 18 19 19 20 20 21 21 22 22 23 23
REMARK SMILES IDX 24 24
REMARK H PARENT
REMARK Flexibility Score: inf
ROOT
ATOM      1  C   UNL     1       1.237  44.049   8.914  1.00  0.00     0.000 C 
ENDROOT
BRANCH   1   2
ATOM      2  C   UNL     1       0.544  44.387   7.586  1.00  0.00     0.000 C 
BRANCH   2   3
ATOM      3  C   UNL     1      -0.559  45.435   7.794  1.00  0.00     0.000 C 
BRANCH   3   4
ATOM      4  C   UNL     1      -0.508  46.090   9.187  1.00  0.00    -0.000 C 
BRANCH   4   5
ATOM      5  C   UNL     1      -0.203  47.601   9.185  1.00  0.00    -0.000 C 
BRANCH   5   6
ATOM      6  C   UNL     1       0.140  48.196   7.806  1.00  0.00    -0.000 C 
BRANCH   6   7
ATOM      7  C   UNL     1       1.580  48.727   7.663  1.00  0.00    -0.000 C 
BRANCH   7   8
ATOM      8  C   UNL     1       2.599  48.115   8.643  1.00  0.00    -0.000 C 
BRANCH   8   9
ATOM      9  C   UNL     1       3.954  47.734   8.018  1.00  0.00    -0.000 C 
BRANCH   9  10
ATOM     10  C   UNL     1       5.048  47.405   9.057  1.00  0.00    -0.000 C 
BRANCH  10  11
ATOM     11  C   UNL     1       6.323  48.235   8.851  1.00  0.00    -0.003 C 
ATOM     12  C   UNL     1       7.535  47.547   9.474  1.00  0.00     0.004 C 
ENDBRANCH  10  11
ENDBRANCH   9  10
ENDBRANCH   8   9
ENDBRANCH   7   8
ENDBRANCH   6   7
ENDBRANCH   5   6
ENDBRANCH   4   5
ENDBRANCH   3   4
ENDBRANCH   2   3
ENDBRANCH   1   2
BRANCH   1  13
ATOM     13  C   UNL     1       2.445  43.110   8.741  1.00  0.00     0.000 C 
BRANCH  13  14
ATOM     14  C   UNL     1       3.789  43.675   9.233  1.00  0.00     0.000 C 
BRANCH  14  15
ATOM     15  C   UNL     1       3.623  44.846  10.215  1.00  0.00     0.000 C 
BRANCH  15  16
ATOM     16  C   UNL     1       4.523  44.709  11.454  1.00  0.00     0.000 C 
BRANCH  16  17
ATOM     17  C   UNL     1       3.831  43.974  12.615  1.00  0.00     0.000 C 
BRANCH  17  18
ATOM     18  C   UNL     1       2.294  43.983  12.476  1.00  0.00     0.000 C 
BRANCH  18  19
ATOM     19  C   UNL     1       1.685  42.586  12.266  1.00  0.00     0.000 C 
BRANCH  19  20
ATOM     20  C   UNL     1       2.747  41.479  12.171  1.00  0.00     0.006 C 
BRANCH  20  21
ATOM     21  C   UNL     1       2.295  40.181  12.853  1.00  0.00     0.053 C 
BRANCH  21  22
ATOM     22  C   UNL     1       3.332  39.105  12.743  1.00  0.00     0.041 C 
ATOM     23  O   UNL     1       3.010  37.954  12.344  1.00  0.00    -0.550 OA
ATOM     24  O   UNL     1       4.645  39.362  13.116  1.00  0.00    -0.550 OA
ENDBRANCH  21  22
ENDBRANCH  20  21
ENDBRANCH  19  20
ENDBRANCH  18  19
ENDBRANCH  17  18
ENDBRANCH  16  17
ENDBRANCH  15  16
ENDBRANCH  14  15
ENDBRANCH  13  14
ENDBRANCH   1  13
TORSDOF 20
ENDMDL
MODEL 2
REMARK VINA RESULT:    -5.112      1.152      4.053
REMARK INTER + INTRA:         -13.581
REMARK INTER:                 -10.626
REMARK INTRA:                  -2.955
REMARK UNBOUND:                -2.492
REMARK SMILES CCCCCCCCCCCCCCCCCCCCCC(=O)[O-]
REMARK SMILES IDX 12 1 11 2 10 3 9 4 8 5 7 6 6 7 5 8 4 9 3 10 2 11 1 12 13 13
REMARK SMILES IDX 14 14 15 15 16 16 17 17 18 18 19 19 20 20 21 21 22 22 23 23
REMARK SMILES IDX 24 24
REMARK H PARENT
REMARK Flexibility Score: inf
ROOT
ATOM      1  C   UNL     1       4.682  45.031  10.943  1.00  0.00     0.000 C 
ENDROOT
BRANCH   1   2
ATOM      2  C   UNL     1       4.305  46.425  10.420  1.00  0.00     0.000 C 
BRANCH   2   3
ATOM      3  C   UNL     1       5.489  47.076   9.691  1.00  0.00     0.000 C 
BRANCH   3   4
ATOM      4  C   UNL     1       5.048  48.036   8.570  1.00  0.00    -0.000 C 
BRANCH   4   5
ATOM      5  C   UNL     1       3.721  47.664   7.879  1.00  0.00    -0.000 C 
BRANCH   5   6
ATOM      6  C   UNL     1       3.004  48.830   7.171  1.00  0.00    -0.000 C 
BRANCH   6   7
ATOM      7  C   UNL     1       1.775  49.389   7.915  1.00  0.00    -0.000 C 
BRANCH   7   8
ATOM      8  C   UNL     1       1.291  48.537   9.103  1.00  0.00    -0.000 C 
BRANCH   8   9
ATOM      9  C   UNL     1      -0.142  47.988   8.968  1.00  0.00    -0.000 C 
BRANCH   9  10
ATOM     10  C   UNL     1      -0.475  47.460   7.555  1.00  0.00    -0.000 C 
BRANCH  10  11
ATOM     11  C   UNL     1      -1.125  46.070   7.584  1.00  0.00    -0.003 C 
ATOM     12  C   UNL     1      -0.402  45.105   6.648  1.00  0.00     0.004 C 
ENDBRANCH  10  11
ENDBRANCH   9  10
ENDBRANCH   8   9
ENDBRANCH   7   8
ENDBRANCH   6   7
ENDBRANCH   5   6
ENDBRANCH   4   5
ENDBRANCH   3   4
ENDBRANCH   2   3
ENDBRANCH   1   2
BRANCH   1  13
ATOM     13  C   UNL     1       4.164  43.891  10.047  1.00  0.00     0.000 C 
BRANCH  13  14
ATOM     14  C   UNL     1       3.123  44.308   8.992  1.00  0.00     0.000 C 
BRANCH  14  15
ATOM     15  C   UNL     1       1.697  43.857   9.346  1.00  0.00     0.000 C 
BRANCH  15  16
ATOM     16  C   UNL     1       0.969  44.860  10.255  1.00  0.00     0.000 C 
BRANCH  16  17
ATOM     17  C   UNL     1       0.576  44.256  11.615  1.00  0.00     0.000 C 
BRANCH  17  18
ATOM     18  C   UNL     1       1.775  43.595  12.327  1.00  0.00     0.000 C 
BRANCH  18  19
ATOM     19  C   UNL     1       1.612  42.079  12.533  1.00  0.00     0.000 C 
BRANCH  19  20
ATOM     20  C   UNL     1       2.663  41.255  11.772  1.00  0.00     0.006 C 
BRANCH  20  21
ATOM     21  C   UNL     1       3.979  41.131  12.551  1.00  0.00     0.053 C 
BRANCH  21  22
ATOM     22  C   UNL     1       4.186  39.742  13.076  1.00  0.00     0.041 C 
ATOM     23  O   UNL     1       5.203  39.472  13.768  1.00  0.00    -0.550 OA
ATOM     24  O   UNL     1       3.275  38.739  12.768  1.00  0.00    -0.550 OA
ENDBRANCH  21  22
ENDBRANCH  20  21
ENDBRANCH  19  20
ENDBRANCH  18  19
ENDBRANCH  17  18
ENDBRANCH  16  17
ENDBRANCH  15  16
ENDBRANCH  14  15
ENDBRANCH  13  14
ENDBRANCH   1  13
TORSDOF 20
ENDMDL
MODEL 3
REMARK VINA RESULT:    -5.093      1.153      3.037
REMARK INTER + INTRA:         -13.540
REMARK INTER:                 -10.699
REMARK INTRA:                  -2.841
REMARK UNBOUND:                -2.492
REMARK SMILES CCCCCCCCCCCCCCCCCCCCCC(=O)[O-]
REMARK SMILES IDX 12 1 11 2 10 3 9 4 8 5 7 6 6 7 5 8 4 9 3 10 2 11 1 12 13 13
REMARK SMILES IDX 14 14 15 15 16 16 17 17 18 18 19 19 20 20 21 21 22 22 23 23
REMARK SMILES IDX 24 24
REMARK H PARENT
REMARK Flexibility Score: inf
ROOT
ATOM      1  C   UNL     1      -0.949  46.951   6.908  1.00  0.00     0.000 C 
ENDROOT
BRANCH   1   2
ATOM      2  C   UNL     1      -0.768  48.303   7.614  1.00  0.00     0.000 C 
BRANCH   2   3
ATOM      3  C   UNL     1      -0.192  48.112   9.025  1.00  0.00     0.000 C 
BRANCH   3   4
ATOM      4  C   UNL     1       1.171  48.804   9.213  1.00  0.00    -0.000 C 
BRANCH   4   5
ATOM      5  C   UNL     1       1.741  49.475   7.948  1.00  0.00    -0.000 C 
BRANCH   5   6
ATOM      6  C   UNL     1       2.962  48.769   7.328  1.00  0.00    -0.000 C 
BRANCH   6   7
ATOM      7  C   UNL     1       3.576  47.648   8.189  1.00  0.00    -0.000 C 
BRANCH   7   8
ATOM      8  C   UNL     1       5.027  47.897   8.644  1.00  0.00    -0.000 C 
BRANCH   8   9
ATOM      9  C   UNL     1       5.485  47.050   9.846  1.00  0.00    -0.000 C 
BRANCH   9  10
ATOM     10  C   UNL     1       4.321  46.448  10.663  1.00  0.00    -0.000 C 
BRANCH  10  11
ATOM     11  C   UNL     1       4.581  44.992  11.074  1.00  0.00    -0.003 C 
ATOM     12  C   UNL     1       4.343  44.040   9.904  1.00  0.00     0.004 C 
ENDBRANCH  10  11
ENDBRANCH   9  10
ENDBRANCH   8   9
ENDBRANCH   7   8
ENDBRANCH   6   7
ENDBRANCH   5   6
ENDBRANCH   4   5
ENDBRANCH   3   4
ENDBRANCH   2   3
ENDBRANCH   1   2
BRANCH   1  13
ATOM     13  C   UNL     1       0.243  45.999   7.116  1.00  0.00     0.000 C 
BRANCH  13  14
ATOM     14  C   UNL     1      -0.079  44.703   7.881  1.00  0.00     0.000 C 
BRANCH  14  15
ATOM     15  C   UNL     1       0.992  44.342   8.924  1.00  0.00     0.000 C 
BRANCH  15  16
ATOM     16  C   UNL     1       0.860  45.166  10.215  1.00  0.00     0.000 C 
BRANCH  16  17
ATOM     17  C   UNL     1       0.435  44.315  11.424  1.00  0.00     0.000 C 
BRANCH  17  18
ATOM     18  C   UNL     1       1.644  43.845  12.260  1.00  0.00     0.000 C 
BRANCH  18  19
ATOM     19  C   UNL     1       1.676  42.326  12.500  1.00  0.00     0.000 C 
BRANCH  19  20
ATOM     20  C   UNL     1       2.686  41.599  11.598  1.00  0.00     0.006 C 
BRANCH  20  21
ATOM     21  C   UNL     1       3.979  41.242  12.343  1.00  0.00     0.053 C 
BRANCH  21  22
ATOM     22  C   UNL     1       3.906  39.881  12.965  1.00  0.00     0.041 C 
ATOM     23  O   UNL     1       4.843  39.468  13.698  1.00  0.00    -0.550 OA
ATOM     24  O   UNL     1       2.820  39.054  12.704  1.00  0.00    -0.550 OA
ENDBRANCH  21  22
ENDBRANCH  20  21
ENDBRANCH  19  20
ENDBRANCH  18  19
ENDBRANCH  17  18
ENDBRANCH  16  17
ENDBRANCH  15  16
ENDBRANCH  14  15
ENDBRANCH  13  14
ENDBRANCH   1  13
TORSDOF 20
ENDMDL
MODEL 4
REMARK VINA RESULT:    -5.005      3.051      7.124
REMARK INTER + INTRA:         -13.348
REMARK INTER:                 -10.730
REMARK INTRA:                  -2.618
REMARK UNBOUND:                -2.492
REMARK SMILES CCCCCCCCCCCCCCCCCCCCCC(=O)[O-]
REMARK SMILES IDX 12 1 11 2 10 3 9 4 8 5 7 6 6 7 5 8 4 9 3 10 2 11 1 12 13 13
REMARK SMILES IDX 14 14 15 15 16 16 17 17 18 18 19 19 20 20 21 21 22 22 23 23
REMARK SMILES IDX 24 24
REMARK H PARENT
REMARK Flexibility Score: inf
ROOT
ATOM      1  C   UNL     1       0.637  45.113   9.842  1.00  0.00     0.000 C 
ENDROOT
BRANCH   1   2
ATOM      2  C   UNL     1       1.076  44.439   8.533  1.00  0.00     0.000 C 
BRANCH   2   3
ATOM      3  C   UNL     1       2.019  43.260   8.813  1.00  0.00     0.000 C 
BRANCH   3   4
ATOM      4  C   UNL     1       3.506  43.651   8.735  1.00  0.00    -0.000 C 
BRANCH   4   5
ATOM      5  C   UNL     1       4.298  43.467  10.044  1.00  0.00    -0.000 C 
BRANCH   5   6
ATOM      6  C   UNL     1       4.035  44.537  11.122  1.00  0.00    -0.000 C 
BRANCH   6   7
ATOM      7  C   UNL     1       3.601  43.987  12.495  1.00  0.00    -0.000 C 
BRANCH   7   8
ATOM      8  C   UNL     1       2.152  43.468  12.559  1.00  0.00    -0.000 C 
BRANCH   8   9
ATOM      9  C   UNL     1       1.996  41.951  12.345  1.00  0.00    -0.000 C 
BRANCH   9  10
ATOM     10  C   UNL     1       3.335  41.213  12.121  1.00  0.00    -0.000 C 
BRANCH  10  11
ATOM     11  C   UNL     1       3.396  39.868  12.859  1.00  0.00    -0.003 C 
ATOM     12  C   UNL     1       4.795  39.604  13.408  1.00  0.00     0.004 C 
ENDBRANCH  10  11
ENDBRANCH   9  10
ENDBRANCH   8   9
ENDBRANCH   7   8
ENDBRANCH   6   7
ENDBRANCH   5   6
ENDBRANCH   4   5
ENDBRANCH   3   4
ENDBRANCH   2   3
ENDBRANCH   1   2
BRANCH   1  13
ATOM     13  C   UNL     1      -0.216  46.374   9.613  1.00  0.00     0.000 C 
BRANCH  13  14
ATOM     14  C   UNL     1      -0.688  46.592   8.164  1.00  0.00     0.000 C 
BRANCH  14  15
ATOM     15  C   UNL     1      -0.360  47.997   7.632  1.00  0.00     0.000 C 
BRANCH  15  16
ATOM     16  C   UNL     1       0.798  48.660   8.395  1.00  0.00     0.000 C 
BRANCH  16  17
ATOM     17  C   UNL     1       1.698  49.516   7.486  1.00  0.00     0.000 C 
BRANCH  17  18
ATOM     18  C   UNL     1       3.046  48.827   7.187  1.00  0.00     0.000 C 
BRANCH  18  19
ATOM     19  C   UNL     1       3.228  47.483   7.913  1.00  0.00     0.000 C 
BRANCH  19  20
ATOM     20  C   UNL     1       3.991  47.619   9.240  1.00  0.00     0.006 C 
BRANCH  20  21
ATOM     21  C   UNL     1       5.342  46.891   9.210  1.00  0.00     0.053 C 
BRANCH  21  22
ATOM     22  C   UNL     1       6.490  47.851   9.130  1.00  0.00     0.041 C 
ATOM     23  O   UNL     1       6.350  48.958   8.546  1.00  0.00    -0.550 OA
ATOM     24  O   UNL     1       7.724  47.507   9.668  1.00  0.00    -0.550 OA
ENDBRANCH  21  22
ENDBRANCH  20  21
ENDBRANCH  19  20
ENDBRANCH  18  19
ENDBRANCH  17  18
ENDBRANCH  16  17
ENDBRANCH  15  16
ENDBRANCH  14  15
ENDBRANCH  13  14
ENDBRANCH   1  13
TORSDOF 20
ENDMDL
MODEL 5
REMARK VINA RESULT:    -4.973      3.093      7.413
REMARK INTER + INTRA:         -13.280
REMARK INTER:                 -10.676
REMARK INTRA:                  -2.604
REMARK UNBOUND:                -2.492
REMARK SMILES CCCCCCCCCCCCCCCCCCCCCC(=O)[O-]
REMARK SMILES IDX 12 1 11 2 10 3 9 4 8 5 7 6 6 7 5 8 4 9 3 10 2 11 1 12 13 13
REMARK SMILES IDX 14 14 15 15 16 16 17 17 18 18 19 19 20 20 21 21 22 22 23 23
REMARK SMILES IDX 24 24
REMARK H PARENT
REMARK Flexibility Score: inf
ROOT
ATOM      1  C   UNL     1       0.762  44.003   7.975  1.00  0.00     0.000 C 
ENDROOT
BRANCH   1   2
ATOM      2  C   UNL     1       1.652  43.561   9.146  1.00  0.00     0.000 C 
BRANCH   2   3
ATOM      3  C   UNL     1       3.086  43.283   8.671  1.00  0.00     0.000 C 
BRANCH   3   4
ATOM      4  C   UNL     1       4.150  43.707   9.701  1.00  0.00    -0.000 C 
BRANCH   4   5
ATOM      5  C   UNL     1       3.635  44.614  10.835  1.00  0.00    -0.000 C 
BRANCH   5   6
ATOM      6  C   UNL     1       3.680  43.991  12.243  1.00  0.00    -0.000 C 
BRANCH   6   7
ATOM      7  C   UNL     1       2.454  43.135  12.618  1.00  0.00    -0.000 C 
BRANCH   7   8
ATOM      8  C   UNL     1       2.538  41.656  12.192  1.00  0.00    -0.000 C 
BRANCH   8   9
ATOM      9  C   UNL     1       3.936  41.023  12.314  1.00  0.00    -0.000 C 
BRANCH   9  10
ATOM     10  C   UNL     1       3.954  39.703  13.114  1.00  0.00    -0.000 C 
BRANCH  10  11
ATOM     11  C   UNL     1       2.701  38.851  12.871  1.00  0.00    -0.003 C 
ATOM     12  C   UNL     1       2.980  37.731  11.873  1.00  0.00     0.004 C 
ENDBRANCH  10  11
ENDBRANCH   9  10
ENDBRANCH   8   9
ENDBRANCH   7   8
ENDBRANCH   6   7
ENDBRANCH   5   6
ENDBRANCH   4   5
ENDBRANCH   3   4
ENDBRANCH   2   3
ENDBRANCH   1   2
BRANCH   1  13
ATOM     13  C   UNL     1       0.106  45.377   8.203  1.00  0.00     0.000 C 
BRANCH  13  14
ATOM     14  C   UNL     1       0.145  45.889   9.655  1.00  0.00     0.000 C 
BRANCH  14  15
ATOM     15  C   UNL     1       1.061  47.110   9.834  1.00  0.00     0.000 C 
BRANCH  15  16
ATOM     16  C   UNL     1       0.459  48.392   9.236  1.00  0.00     0.000 C 
BRANCH  16  17
ATOM     17  C   UNL     1       1.337  49.002   8.129  1.00  0.00     0.000 C 
BRANCH  17  18
ATOM     18  C   UNL     1       2.284  47.960   7.496  1.00  0.00     0.000 C 
BRANCH  18  19
ATOM     19  C   UNL     1       3.775  48.268   7.716  1.00  0.00     0.000 C 
BRANCH  19  20
ATOM     20  C   UNL     1       4.536  47.104   8.370  1.00  0.00     0.006 C 
BRANCH  20  21
ATOM     21  C   UNL     1       5.336  47.551   9.601  1.00  0.00     0.053 C 
BRANCH  21  22
ATOM     22  C   UNL     1       6.677  48.104   9.222  1.00  0.00     0.041 C 
ATOM     23  O   UNL     1       7.729  47.497   9.555  1.00  0.00    -0.550 OA
ATOM     24  O   UNL     1       6.764  49.307   8.534  1.00  0.00    -0.550 OA
ENDBRANCH  21  22
ENDBRANCH  20  21
ENDBRANCH  19  20
ENDBRANCH  18  19
ENDBRANCH  17  18
ENDBRANCH  16  17
ENDBRANCH  15  16
ENDBRANCH  14  15
ENDBRANCH  13  14
ENDBRANCH   1  13
TORSDOF 20
ENDMDL
MODEL 6
REMARK VINA RESULT:    -4.891      3.107      7.560
REMARK INTER + INTRA:         -13.101
REMARK INTER:                 -10.336
REMARK INTRA:                  -2.765
REMARK UNBOUND:                -2.492
REMARK SMILES CCCCCCCCCCCCCCCCCCCCCC(=O)[O-]
REMARK SMILES IDX 12 1 11 2 10 3 9 4 8 5 7 6 6 7 5 8 4 9 3 10 2 11 1 12 13 13
REMARK SMILES IDX 14 14 15 15 16 16 17 17 18 18 19 19 20 20 21 21 22 22 23 23
REMARK SMILES IDX 24 24
REMARK H PARENT
REMARK Flexibility Score: inf
ROOT
ATOM      1  C   UNL     1       4.148  43.363  10.131  1.00  0.00     0.000 C 
ENDROOT
BRANCH   1   2
ATOM      2  C   UNL     1       4.394  44.482  11.153  1.00  0.00     0.000 C 
BRANCH   2   3
ATOM      3  C   UNL     1       3.689  44.176  12.482  1.00  0.00     0.000 C 
BRANCH   3   4
ATOM      4  C   UNL     1       2.187  43.884  12.310  1.00  0.00    -0.000 C 
BRANCH   4   5
ATOM      5  C   UNL     1       1.782  42.411  12.515  1.00  0.00    -0.000 C 
BRANCH   5   6
ATOM      6  C   UNL     1       0.454  42.197  13.267  1.00  0.00    -0.000 C 
BRANCH   6   7
ATOM      7  C   UNL     1       0.126  40.730  13.608  1.00  0.00    -0.000 C 
BRANCH   7   8
ATOM      8  C   UNL     1       1.343  39.856  13.963  1.00  0.00    -0.000 C 
BRANCH   8   9
ATOM      9  C   UNL     1       1.673  38.755  12.938  1.00  0.00    -0.000 C 
BRANCH   9  10
ATOM     10  C   UNL     1       3.152  38.738  12.496  1.00  0.00    -0.000 C 
BRANCH  10  11
ATOM     11  C   UNL     1       4.071  39.463  13.489  1.00  0.00    -0.003 C 
ATOM     12  C   UNL     1       4.890  40.547  12.793  1.00  0.00     0.004 C 
ENDBRANCH  10  11
ENDBRANCH   9  10
ENDBRANCH   8   9
ENDBRANCH   7   8
ENDBRANCH   6   7
ENDBRANCH   5   6
ENDBRANCH   4   5
ENDBRANCH   3   4
ENDBRANCH   2   3
ENDBRANCH   1   2
BRANCH   1  13
ATOM     13  C   UNL     1       3.342  43.832   8.906  1.00  0.00     0.000 C 
BRANCH  13  14
ATOM     14  C   UNL     1       1.853  43.442   8.913  1.00  0.00     0.000 C 
BRANCH  14  15
ATOM     15  C   UNL     1       0.923  44.622   8.587  1.00  0.00     0.000 C 
BRANCH  15  16
ATOM     16  C   UNL     1       0.430  45.350   9.847  1.00  0.00     0.000 C 
BRANCH  16  17
ATOM     17  C   UNL     1       0.773  46.851   9.841  1.00  0.00     0.000 C 
BRANCH  17  18
ATOM     18  C   UNL     1       2.275  47.104   9.594  1.00  0.00     0.000 C 
BRANCH  18  19
ATOM     19  C   UNL     1       2.565  47.895   8.308  1.00  0.00     0.000 C 
BRANCH  19  20
ATOM     20  C   UNL     1       4.058  47.924   7.947  1.00  0.00     0.006 C 
BRANCH  20  21
ATOM     21  C   UNL     1       4.937  47.342   9.063  1.00  0.00     0.053 C 
BRANCH  21  22
ATOM     22  C   UNL     1       6.319  47.920   9.041  1.00  0.00     0.041 C 
ATOM     23  O   UNL     1       7.267  47.317   9.612  1.00  0.00    -0.550 OA
ATOM     24  O   UNL     1       6.554  49.141   8.422  1.00  0.00    -0.550 OA
ENDBRANCH  21  22
ENDBRANCH  20  21
ENDBRANCH  19  20
ENDBRANCH  18  19
ENDBRANCH  17  18
ENDBRANCH  16  17
ENDBRANCH  15  16
ENDBRANCH  14  15
ENDBRANCH  13  14
ENDBRANCH   1  13
TORSDOF 20
ENDMDL
MODEL 7
REMARK VINA RESULT:    -4.845      0.891      2.469
REMARK INTER + INTRA:         -13.001
REMARK INTER:                 -10.108
REMARK INTRA:                  -2.893
REMARK UNBOUND:                -2.492
REMARK SMILES CCCCCCCCCCCCCCCCCCCCCC(=O)[O-]
REMARK SMILES IDX 12 1 11 2 10 3 9 4 8 5 7 6 6 7 5 8 4 9 3 10 2 11 1 12 13 13
REMARK SMILES IDX 14 14 15 15 16 16 17 17 18 18 19 19 20 20 21 21 22 22 23 23
REMARK SMILES IDX 24 24
REMARK H PARENT
REMARK Flexibility Score: inf
ROOT
ATOM      1  C   UNL     1      -0.420  46.295   9.273  1.00  0.00     0.000 C 
ENDROOT
BRANCH   1   2
ATOM      2  C   UNL     1      -0.810  47.779   9.346  1.00  0.00     0.000 C 
BRANCH   2   3
ATOM      3  C   UNL     1      -0.307  48.539   8.110  1.00  0.00     0.000 C 
BRANCH   3   4
ATOM      4  C   UNL     1       0.905  49.440   8.413  1.00  0.00    -0.000 C 
BRANCH   4   5
ATOM      5  C   UNL     1       1.946  49.534   7.281  1.00  0.00    -0.000 C 
BRANCH   5   6
ATOM      6  C   UNL     1       3.263  48.775   7.540  1.00  0.00    -0.000 C 
BRANCH   6   7
ATOM      7  C   UNL     1       3.095  47.347   8.095  1.00  0.00    -0.000 C 
BRANCH   7   8
ATOM      8  C   UNL     1       3.074  47.244   9.632  1.00  0.00    -0.000 C 
BRANCH   8   9
ATOM      9  C   UNL     1       4.440  46.957  10.283  1.00  0.00    -0.000 C 
BRANCH   9  10
ATOM     10  C   UNL     1       5.575  46.710   9.264  1.00  0.00    -0.000 C 
BRANCH  10  11
ATOM     11  C   UNL     1       6.815  47.570   9.545  1.00  0.00    -0.003 C 
ATOM     12  C   UNL     1       6.686  48.948   8.903  1.00  0.00     0.004 C 
ENDBRANCH  10  11
ENDBRANCH   9  10
ENDBRANCH   8   9
ENDBRANCH   7   8
ENDBRANCH   6   7
ENDBRANCH   5   6
ENDBRANCH   4   5
ENDBRANCH   3   4
ENDBRANCH   2   3
ENDBRANCH   1   2
BRANCH   1  13
ATOM     13  C   UNL     1      -0.259  45.785   7.829  1.00  0.00     0.000 C 
BRANCH  13  14
ATOM     14  C   UNL     1       0.453  44.427   7.690  1.00  0.00     0.000 C 
BRANCH  14  15
ATOM     15  C   UNL     1       1.144  43.977   8.987  1.00  0.00     0.000 C 
BRANCH  15  16
ATOM     16  C   UNL     1       2.608  43.563   8.762  1.00  0.00     0.000 C 
BRANCH  16  17
ATOM     17  C   UNL     1       3.393  43.412  10.077  1.00  0.00     0.000 C 
BRANCH  17  18
ATOM     18  C   UNL     1       2.587  43.907  11.297  1.00  0.00     0.000 C 
BRANCH  18  19
ATOM     19  C   UNL     1       2.229  42.791  12.294  1.00  0.00     0.000 C 
BRANCH  19  20
ATOM     20  C   UNL     1       3.055  41.513  12.082  1.00  0.00     0.006 C 
BRANCH  20  21
ATOM     21  C   UNL     1       2.446  40.302  12.802  1.00  0.00     0.053 C 
BRANCH  21  22
ATOM     22  C   UNL     1       3.360  39.115  12.767  1.00  0.00     0.041 C 
ATOM     23  O   UNL     1       2.927  37.993  12.394  1.00  0.00    -0.550 OA
ATOM     24  O   UNL     1       4.680  39.241  13.180  1.00  0.00    -0.550 OA
ENDBRANCH  21  22
ENDBRANCH  20  21
ENDBRANCH  19  20
ENDBRANCH  18  19
ENDBRANCH  17  18
ENDBRANCH  16  17
ENDBRANCH  15  16
ENDBRANCH  14  15
ENDBRANCH  13  14
ENDBRANCH   1  13
TORSDOF 20
ENDMDL
MODEL 8
REMARK VINA RESULT:    -4.669      2.117      6.372
REMARK INTER + INTRA:         -12.621
REMARK INTER:                 -10.058
REMARK INTRA:                  -2.563
REMARK UNBOUND:                -2.492
REMARK SMILES CCCCCCCCCCCCCCCCCCCCCC(=O)[O-]
REMARK SMILES IDX 12 1 11 2 10 3 9 4 8 5 7 6 6 7 5 8 4 9 3 10 2 11 1 12 13 13
REMARK SMILES IDX 14 14 15 15 16 16 17 17 18 18 19 19 20 20 21 21 22 22 23 23
REMARK SMILES IDX 24 24
REMARK H PARENT
REMARK Flexibility Score: inf
ROOT
ATOM      1  C   UNL     1      -0.538  46.699   6.873  1.00  0.00     0.000 C 
ENDROOT
BRANCH   1   2
ATOM      2  C   UNL     1      -0.812  45.500   7.794  1.00  0.00     0.000 C 
BRANCH   2   3
ATOM      3  C   UNL     1       0.376  44.528   7.796  1.00  0.00     0.000 C 
BRANCH   3   4
ATOM      4  C   UNL     1       1.043  44.400   9.179  1.00  0.00    -0.000 C 
BRANCH   4   5
ATOM      5  C   UNL     1       0.308  45.123  10.325  1.00  0.00    -0.000 C 
BRANCH   5   6
ATOM      6  C   UNL     1       0.458  44.468  11.712  1.00  0.00    -0.000 C 
BRANCH   6   7
ATOM      7  C   UNL     1       1.406  43.254  11.763  1.00  0.00    -0.000 C 
BRANCH   7   8
ATOM      8  C   UNL     1       1.121  42.253  12.898  1.00  0.00    -0.000 C 
BRANCH   8   9
ATOM      9  C   UNL     1       1.853  40.904  12.773  1.00  0.00    -0.000 C 
BRANCH   9  10
ATOM     10  C   UNL     1       3.381  41.039  12.596  1.00  0.00    -0.000 C 
BRANCH  10  11
ATOM     11  C   UNL     1       4.127  39.733  12.903  1.00  0.00    -0.003 C 
ATOM     12  C   UNL     1       3.219  38.521  12.711  1.00  0.00     0.004 C 
ENDBRANCH  10  11
ENDBRANCH   9  10
ENDBRANCH   8   9
ENDBRANCH   7   8
ENDBRANCH   6   7
ENDBRANCH   5   6
ENDBRANCH   4   5
ENDBRANCH   3   4
ENDBRANCH   2   3
ENDBRANCH   1   2
BRANCH   1  13
ATOM     13  C   UNL     1      -0.915  48.048   7.513  1.00  0.00     0.000 C 
BRANCH  13  14
ATOM     14  C   UNL     1      -0.377  48.270   8.938  1.00  0.00     0.000 C 
BRANCH  14  15
ATOM     15  C   UNL     1       1.159  48.267   9.006  1.00  0.00     0.000 C 
BRANCH  15  16
ATOM     16  C   UNL     1       1.795  49.238   7.998  1.00  0.00     0.000 C 
BRANCH  16  17
ATOM     17  C   UNL     1       3.069  48.671   7.346  1.00  0.00     0.000 C 
BRANCH  17  18
ATOM     18  C   UNL     1       3.640  47.471   8.131  1.00  0.00     0.000 C 
BRANCH  18  19
ATOM     19  C   UNL     1       5.086  47.680   8.611  1.00  0.00     0.000 C 
BRANCH  19  20
ATOM     20  C   UNL     1       5.346  47.079  10.002  1.00  0.00     0.006 C 
BRANCH  20  21
ATOM     21  C   UNL     1       4.079  46.473  10.620  1.00  0.00     0.053 C 
BRANCH  21  22
ATOM     22  C   UNL     1       4.287  45.048  11.031  1.00  0.00     0.041 C 
ATOM     23  O   UNL     1       4.378  44.747  12.251  1.00  0.00    -0.550 OA
ATOM     24  O   UNL     1       4.417  44.056  10.066  1.00  0.00    -0.550 OA
ENDBRANCH  21  22
ENDBRANCH  20  21
ENDBRANCH  19  20
ENDBRANCH  18  19
ENDBRANCH  17  18
ENDBRANCH  16  17
ENDBRANCH  15  16
ENDBRANCH  14  15
ENDBRANCH  13  14
ENDBRANCH   1  13
TORSDOF 20
ENDMDL
MODEL 9
REMARK VINA RESULT:    -4.662      1.067      3.637
REMARK INTER + INTRA:         -12.605
REMARK INTER:                 -10.062
REMARK INTRA:                  -2.544
REMARK UNBOUND:                -2.492
REMARK SMILES CCCCCCCCCCCCCCCCCCCCCC(=O)[O-]
REMARK SMILES IDX 12 1 11 2 10 3 9 4 8 5 7 6 6 7 5 8 4 9 3 10 2 11 1 12 13 13
REMARK SMILES IDX 14 14 15 15 16 16 17 17 18 18 19 19 20 20 21 21 22 22 23 23
REMARK SMILES IDX 24 24
REMARK H PARENT
REMARK Flexibility Score: inf
ROOT
ATOM      1  C   UNL     1       5.215  46.868   9.281  1.00  0.00     0.000 C 
ENDROOT
BRANCH   1   2
ATOM      2  C   UNL     1       4.606  48.128   8.648  1.00  0.00     0.000 C 
BRANCH   2   3
ATOM      3  C   UNL     1       3.541  47.759   7.605  1.00  0.00     0.000 C 
BRANCH   3   4
ATOM      4  C   UNL     1       2.254  48.593   7.743  1.00  0.00    -0.000 C 
BRANCH   4   5
ATOM      5  C   UNL     1       1.558  48.494   9.115  1.00  0.00    -0.000 C 
BRANCH   5   6
ATOM      6  C   UNL     1       0.018  48.535   9.072  1.00  0.00    -0.000 C 
BRANCH   6   7
ATOM      7  C   UNL     1      -0.595  48.550   7.657  1.00  0.00    -0.000 C 
BRANCH   7   8
ATOM      8  C   UNL     1      -1.115  47.188   7.159  1.00  0.00    -0.000 C 
BRANCH   8   9
ATOM      9  C   UNL     1      -0.021  46.175   6.777  1.00  0.00    -0.000 C 
BRANCH   9  10
ATOM     10  C   UNL     1      -0.240  44.768   7.374  1.00  0.00    -0.000 C 
BRANCH  10  11
ATOM     11  C   UNL     1       0.744  44.451   8.509  1.00  0.00    -0.003 C 
ATOM     12  C   UNL     1       0.326  45.135   9.807  1.00  0.00     0.004 C 
ENDBRANCH  10  11
ENDBRANCH   9  10
ENDBRANCH   8   9
ENDBRANCH   7   8
ENDBRANCH   6   7
ENDBRANCH   5   6
ENDBRANCH   4   5
ENDBRANCH   3   4
ENDBRANCH   2   3
ENDBRANCH   1   2
BRANCH   1  13
ATOM     13  C   UNL     1       4.164  45.964   9.951  1.00  0.00     0.000 C 
BRANCH  13  14
ATOM     14  C   UNL     1       4.120  44.515   9.433  1.00  0.00     0.000 C 
BRANCH  14  15
ATOM     15  C   UNL     1       4.126  43.474  10.564  1.00  0.00     0.000 C 
BRANCH  15  16
ATOM     16  C   UNL     1       4.002  44.115  11.956  1.00  0.00     0.000 C 
BRANCH  16  17
ATOM     17  C   UNL     1       2.585  43.994  12.544  1.00  0.00     0.000 C 
BRANCH  17  18
ATOM     18  C   UNL     1       1.768  42.872  11.869  1.00  0.00     0.000 C 
BRANCH  18  19
ATOM     19  C   UNL     1       0.966  42.011  12.860  1.00  0.00     0.000 C 
BRANCH  19  20
ATOM     20  C   UNL     1       1.658  40.678  13.190  1.00  0.00     0.006 C 
BRANCH  20  21
ATOM     21  C   UNL     1       3.081  40.606  12.622  1.00  0.00     0.053 C 
BRANCH  21  22
ATOM     22  C   UNL     1       3.670  39.236  12.767  1.00  0.00     0.041 C 
ATOM     23  O   UNL     1       4.858  39.095  13.159  1.00  0.00    -0.550 OA
ATOM     24  O   UNL     1       2.917  38.116  12.434  1.00  0.00    -0.550 OA
ENDBRANCH  21  22
ENDBRANCH  20  21
ENDBRANCH  19  20
ENDBRANCH  18  19
ENDBRANCH  17  18
ENDBRANCH  16  17
ENDBRANCH  15  16
ENDBRANCH  14  15
ENDBRANCH  13  14
ENDBRANCH   1  13
TORSDOF 20
ENDMDL
