MODEL 1
REMARK VINA RESULT:    -7.676      0.000      0.000
REMARK INTER + INTRA:         -13.584
REMARK INTER:                 -11.939
REMARK INTRA:                  -1.645
REMARK UNBOUND:                -1.645
REMARK SMILES C[C@@]12C[C@@]3(O)O[C@@H](O1)[C@]1(COC(=O)c4ccccc4)[C@H]3C[C@@]12O[C@@H]1O[C@@H](CO)[C@H](O)[C@H](O)[C@@H]1O
REMARK SMILES IDX 1 1 2 2 3 3 4 4 20 5 21 6 22 7 9 8 7 9 8 10 6 11 23 12 24 13
REMARK SMILES IDX 33 14 25 15 31 16 26 17 29 18 34 19 32 21 27 23 28 24 30 26
REMARK SMILES IDX 5 28 10 30 11 31 12 32 13 33 14 34 15 35 19 36 16 37 18 38
REMARK SMILES IDX 17 39
REMARK H PARENT 34 20 32 22 28 25 30 27 5 29
REMARK Flexibility Score: inf
ROOT
ATOM      1  C   UNL     1       2.155 -40.650  26.356  1.00  0.00     0.046 C 
ATOM      2  C   UNL     1       2.641 -41.776  27.272  1.00  0.00     0.104 C 
ATOM      3  C   UNL     1       1.424 -42.440  28.023  1.00  0.00     0.104 C 
ATOM      4  C   UNL     1       2.100 -43.495  28.966  1.00  0.00     0.175 C 
ATOM      5  C   UNL     1       3.277 -42.843  29.758  1.00  0.00     0.070 C 
ATOM      6  C   UNL     1       3.217 -41.312  29.754  1.00  0.00     0.050 C 
ATOM      7  C   UNL     1       3.763 -41.376  28.318  1.00  0.00     0.115 C 
ATOM      8  C   UNL     1       4.300 -42.777  28.627  1.00  0.00     0.096 C 
ATOM      9  C   UNL     1       3.774 -43.686  27.526  1.00  0.00     0.267 C 
ATOM     10  O   UNL     1       3.226 -42.831  26.529  1.00  0.00    -0.342 OA
ATOM     11  O   UNL     1       2.724 -44.434  28.116  1.00  0.00    -0.320 OA
ENDROOT
BRANCH   7  12
ATOM     12  O   UNL     1       4.673 -40.306  28.057  1.00  0.00    -0.339 OA
BRANCH  12  13
ATOM     13  C   UNL     1       4.510 -39.144  28.860  1.00  0.00     0.282 C 
ATOM     14  C   UNL     1       5.877 -38.463  29.122  1.00  0.00     0.202 C 
ATOM     15  O   UNL     1       3.613 -38.221  28.260  1.00  0.00    -0.341 OA
ATOM     16  C   UNL     1       6.448 -37.773  27.864  1.00  0.00     0.179 C 
ATOM     17  C   UNL     1       4.065 -37.771  26.993  1.00  0.00     0.178 C 
ATOM     18  C   UNL     1       5.367 -36.951  27.139  1.00  0.00     0.177 C 
BRANCH  14  19
ATOM     19  O   UNL     1       6.804 -39.397  29.609  1.00  0.00    -0.385 OA
ATOM     20  H   UNL     1       7.392 -39.643  28.849  1.00  0.00     0.211 HD
ENDBRANCH  14  19
BRANCH  16  21
ATOM     21  O   UNL     1       7.086 -38.692  27.007  1.00  0.00    -0.387 OA
ATOM     22  H   UNL     1       7.862 -39.082  27.482  1.00  0.00     0.211 HD
ENDBRANCH  16  21
BRANCH  17  23
ATOM     23  C   UNL     1       2.950 -36.933  26.352  1.00  0.00     0.191 C 
BRANCH  23  24
ATOM     24  O   UNL     1       1.810 -36.924  27.168  1.00  0.00    -0.394 OA
ATOM     25  H   UNL     1       1.963 -37.615  27.862  1.00  0.00     0.210 HD
ENDBRANCH  23  24
ENDBRANCH  17  23
BRANCH  18  26
ATOM     26  O   UNL     1       5.850 -36.562  25.877  1.00  0.00    -0.387 OA
ATOM     27  H   UNL     1       5.395 -35.713  25.636  1.00  0.00     0.211 HD
ENDBRANCH  18  26
ENDBRANCH  12  13
ENDBRANCH   7  12
BRANCH   4  28
ATOM     28  O   UNL     1       1.174 -44.131  29.807  1.00  0.00    -0.365 OA
ATOM     29  H   UNL     1       1.305 -45.107  29.687  1.00  0.00     0.214 HD
ENDBRANCH   4  28
BRANCH   8  30
ATOM     30  C   UNL     1       5.752 -43.000  29.081  1.00  0.00     0.249 C 
BRANCH  30  31
ATOM     31  O   UNL     1       6.560 -43.299  27.947  1.00  0.00    -0.461 OA
BRANCH  31  32
ATOM     32  C   UNL     1       7.300 -42.335  27.257  1.00  0.00     0.338 C 
ATOM     33  O   UNL     1       7.806 -41.362  27.880  1.00  0.00    -0.246 OA
BRANCH  32  34
ATOM     34  C   UNL     1       7.493 -42.465  25.797  1.00  0.00     0.060 A 
ATOM     35  C   UNL     1       8.712 -42.084  25.206  1.00  0.00     0.015 A 
ATOM     36  C   UNL     1       6.464 -42.965  24.978  1.00  0.00     0.015 A 
ATOM     37  C   UNL     1       8.892 -42.193  23.824  1.00  0.00     0.001 A 
ATOM     38  C   UNL     1       6.652 -43.078  23.596  1.00  0.00     0.001 A 
ATOM     39  C   UNL     1       7.864 -42.691  23.020  1.00  0.00     0.000 A 
ENDBRANCH  32  34
ENDBRANCH  31  32
ENDBRANCH  30  31
ENDBRANCH   8  30
TORSDOF 12
ENDMDL
MODEL 2
REMARK VINA RESULT:    -7.658      2.194      5.688
REMARK INTER + INTRA:         -13.556
REMARK INTER:                 -11.502
REMARK INTRA:                  -2.054
REMARK UNBOUND:                -1.645
REMARK SMILES C[C@@]12C[C@@]3(O)O[C@@H](O1)[C@]1(COC(=O)c4ccccc4)[C@H]3C[C@@]12O[C@@H]1O[C@@H](CO)[C@H](O)[C@H](O)[C@@H]1O
REMARK SMILES IDX 1 1 2 2 3 3 4 4 20 5 21 6 22 7 9 8 7 9 8 10 6 11 23 12 24 13
REMARK SMILES IDX 33 14 25 15 31 16 26 17 29 18 34 19 32 21 27 23 28 24 30 26
REMARK SMILES IDX 5 28 10 30 11 31 12 32 13 33 14 34 15 35 19 36 16 37 18 38
REMARK SMILES IDX 17 39
REMARK H PARENT 34 20 32 22 28 25 30 27 5 29
REMARK Flexibility Score: inf
ROOT
ATOM      1  C   UNL     1       3.504 -39.799  28.718  1.00  0.00     0.046 C 
ATOM      2  C   UNL     1       2.907 -39.348  27.382  1.00  0.00     0.104 C 
ATOM      3  C   UNL     1       1.336 -39.272  27.479  1.00  0.00     0.104 C 
ATOM      4  C   UNL     1       0.891 -38.886  26.025  1.00  0.00     0.175 C 
ATOM      5  C   UNL     1       1.590 -39.809  24.978  1.00  0.00     0.070 C 
ATOM      6  C   UNL     1       2.170 -41.082  25.605  1.00  0.00     0.050 C 
ATOM      7  C   UNL     1       3.325 -40.207  26.117  1.00  0.00     0.115 C 
ATOM      8  C   UNL     1       2.984 -39.187  25.024  1.00  0.00     0.096 C 
ATOM      9  C   UNL     1       2.827 -37.847  25.727  1.00  0.00     0.267 C 
ATOM     10  O   UNL     1       3.313 -38.031  27.052  1.00  0.00    -0.342 OA
ATOM     11  O   UNL     1       1.431 -37.604  25.780  1.00  0.00    -0.320 OA
ENDROOT
BRANCH   7  12
ATOM     12  O   UNL     1       4.571 -40.906  26.073  1.00  0.00    -0.339 OA
BRANCH  12  13
ATOM     13  C   UNL     1       4.482 -42.324  26.029  1.00  0.00     0.282 C 
ATOM     14  C   UNL     1       5.617 -42.916  25.154  1.00  0.00     0.202 C 
ATOM     15  O   UNL     1       4.527 -42.888  27.331  1.00  0.00    -0.341 OA
ATOM     16  C   UNL     1       7.002 -42.810  25.827  1.00  0.00     0.179 C 
ATOM     17  C   UNL     1       5.734 -42.583  28.013  1.00  0.00     0.178 C 
ATOM     18  C   UNL     1       6.941 -43.241  27.304  1.00  0.00     0.177 C 
BRANCH  14  19
ATOM     19  O   UNL     1       5.651 -42.283  23.902  1.00  0.00    -0.385 OA
ATOM     20  H   UNL     1       4.834 -42.562  23.415  1.00  0.00     0.211 HD
ENDBRANCH  14  19
BRANCH  16  21
ATOM     21  O   UNL     1       7.566 -41.529  25.666  1.00  0.00    -0.387 OA
ATOM     22  H   UNL     1       7.260 -40.952  26.410  1.00  0.00     0.211 HD
ENDBRANCH  16  21
BRANCH  17  23
ATOM     23  C   UNL     1       5.608 -43.073  29.462  1.00  0.00     0.191 C 
BRANCH  23  24
ATOM     24  O   UNL     1       6.272 -44.296  29.628  1.00  0.00    -0.394 OA
ATOM     25  H   UNL     1       6.675 -44.271  30.533  1.00  0.00     0.210 HD
ENDBRANCH  23  24
ENDBRANCH  17  23
BRANCH  18  26
ATOM     26  O   UNL     1       8.142 -42.884  27.941  1.00  0.00    -0.387 OA
ATOM     27  H   UNL     1       8.597 -43.726  28.205  1.00  0.00     0.211 HD
ENDBRANCH  18  26
ENDBRANCH  12  13
ENDBRANCH   7  12
BRANCH   4  28
ATOM     28  O   UNL     1      -0.504 -38.869  25.879  1.00  0.00    -0.365 OA
ATOM     29  H   UNL     1      -0.812 -39.806  25.980  1.00  0.00     0.214 HD
ENDBRANCH   4  28
BRANCH   8  30
ATOM     30  C   UNL     1       3.715 -39.184  23.671  1.00  0.00     0.249 C 
BRANCH  30  31
ATOM     31  O   UNL     1       4.774 -38.232  23.710  1.00  0.00    -0.461 OA
BRANCH  31  32
ATOM     32  C   UNL     1       6.072 -38.548  24.121  1.00  0.00     0.338 C 
ATOM     33  O   UNL     1       6.684 -39.516  23.592  1.00  0.00    -0.246 OA
BRANCH  32  34
ATOM     34  C   UNL     1       6.726 -37.737  25.170  1.00  0.00     0.060 A 
ATOM     35  C   UNL     1       7.329 -36.508  24.844  1.00  0.00     0.015 A 
ATOM     36  C   UNL     1       6.761 -38.182  26.505  1.00  0.00     0.015 A 
ATOM     37  C   UNL     1       7.960 -35.746  25.832  1.00  0.00     0.001 A 
ATOM     38  C   UNL     1       7.387 -37.412  27.490  1.00  0.00     0.001 A 
ATOM     39  C   UNL     1       7.988 -36.197  27.154  1.00  0.00     0.000 A 
ENDBRANCH  32  34
ENDBRANCH  31  32
ENDBRANCH  30  31
ENDBRANCH   8  30
TORSDOF 12
ENDMDL
MODEL 3
REMARK VINA RESULT:    -7.594      1.970      6.644
REMARK INTER + INTRA:         -13.457
REMARK INTER:                 -11.862
REMARK INTRA:                  -1.595
REMARK UNBOUND:                -1.645
REMARK SMILES C[C@@]12C[C@@]3(O)O[C@@H](O1)[C@]1(COC(=O)c4ccccc4)[C@H]3C[C@@]12O[C@@H]1O[C@@H](CO)[C@H](O)[C@H](O)[C@@H]1O
REMARK SMILES IDX 1 1 2 2 3 3 4 4 20 5 21 6 22 7 9 8 7 9 8 10 6 11 23 12 24 13
REMARK SMILES IDX 33 14 25 15 31 16 26 17 29 18 34 19 32 21 27 23 28 24 30 26
REMARK SMILES IDX 5 28 10 30 11 31 12 32 13 33 14 34 15 35 19 36 16 37 18 38
REMARK SMILES IDX 17 39
REMARK H PARENT 34 20 32 22 28 25 30 27 5 29
REMARK Flexibility Score: inf
ROOT
ATOM      1  C   UNL     1       7.025 -40.129  26.141  1.00  0.00     0.046 C 
ATOM      2  C   UNL     1       6.555 -38.771  26.668  1.00  0.00     0.104 C 
ATOM      3  C   UNL     1       7.792 -37.870  27.050  1.00  0.00     0.104 C 
ATOM      4  C   UNL     1       7.139 -36.574  27.643  1.00  0.00     0.175 C 
ATOM      5  C   UNL     1       6.055 -36.945  28.703  1.00  0.00     0.070 C 
ATOM      6  C   UNL     1       6.186 -38.388  29.203  1.00  0.00     0.050 C 
ATOM      7  C   UNL     1       5.534 -38.819  27.880  1.00  0.00     0.115 C 
ATOM      8  C   UNL     1       4.955 -37.406  27.750  1.00  0.00     0.096 C 
ATOM      9  C   UNL     1       5.356 -36.909  26.369  1.00  0.00     0.267 C 
ATOM     10  O   UNL     1       5.868 -38.037  25.670  1.00  0.00    -0.342 OA
ATOM     11  O   UNL     1       6.410 -35.986  26.586  1.00  0.00    -0.320 OA
ENDROOT
BRANCH   7  12
ATOM     12  O   UNL     1       4.657 -39.932  28.067  1.00  0.00    -0.339 OA
BRANCH  12  13
ATOM     13  C   UNL     1       4.917 -40.739  29.208  1.00  0.00     0.282 C 
ATOM     14  C   UNL     1       3.601 -41.341  29.764  1.00  0.00     0.202 C 
ATOM     15  O   UNL     1       5.840 -41.777  28.911  1.00  0.00    -0.341 OA
ATOM     16  C   UNL     1       3.021 -42.443  28.852  1.00  0.00     0.179 C 
ATOM     17  C   UNL     1       5.363 -42.653  27.902  1.00  0.00     0.178 C 
ATOM     18  C   UNL     1       4.116 -43.423  28.393  1.00  0.00     0.177 C 
BRANCH  14  19
ATOM     19  O   UNL     1       2.643 -40.333  29.954  1.00  0.00    -0.385 OA
ATOM     20  H   UNL     1       2.896 -39.580  29.360  1.00  0.00     0.211 HD
ENDBRANCH  14  19
BRANCH  16  21
ATOM     21  O   UNL     1       2.299 -41.902  27.770  1.00  0.00    -0.387 OA
ATOM     22  H   UNL     1       1.664 -42.585  27.438  1.00  0.00     0.211 HD
ENDBRANCH  16  21
BRANCH  17  23
ATOM     23  C   UNL     1       6.497 -43.617  27.525  1.00  0.00     0.191 C 
BRANCH  23  24
ATOM     24  O   UNL     1       7.684 -43.262  28.182  1.00  0.00    -0.394 OA
ATOM     25  H   UNL     1       7.630 -43.665  29.086  1.00  0.00     0.210 HD
ENDBRANCH  23  24
ENDBRANCH  17  23
BRANCH  18  26
ATOM     26  O   UNL     1       3.606 -44.241  27.370  1.00  0.00    -0.387 OA
ATOM     27  H   UNL     1       3.894 -43.847  26.505  1.00  0.00     0.211 HD
ENDBRANCH  18  26
ENDBRANCH  12  13
ENDBRANCH   7  12
BRANCH   4  28
ATOM     28  O   UNL     1       8.093 -35.675  28.143  1.00  0.00    -0.365 OA
ATOM     29  H   UNL     1       7.756 -34.763  27.944  1.00  0.00     0.214 HD
ENDBRANCH   4  28
BRANCH   8  30
ATOM     30  C   UNL     1       3.532 -37.073  28.225  1.00  0.00     0.249 C 
BRANCH  30  31
ATOM     31  O   UNL     1       2.630 -37.188  27.129  1.00  0.00    -0.461 OA
BRANCH  31  32
ATOM     32  C   UNL     1       1.884 -38.341  26.869  1.00  0.00     0.338 C 
ATOM     33  O   UNL     1       1.479 -39.061  27.823  1.00  0.00    -0.246 OA
BRANCH  32  34
ATOM     34  C   UNL     1       1.566 -38.709  25.473  1.00  0.00     0.060 A 
ATOM     35  C   UNL     1       0.256 -39.083  25.119  1.00  0.00     0.015 A 
ATOM     36  C   UNL     1       2.564 -38.696  24.481  1.00  0.00     0.015 A 
ATOM     37  C   UNL     1      -0.044 -39.444  23.802  1.00  0.00     0.001 A 
ATOM     38  C   UNL     1       2.256 -39.051  23.164  1.00  0.00     0.001 A 
ATOM     39  C   UNL     1       0.954 -39.427  22.826  1.00  0.00     0.000 A 
ENDBRANCH  32  34
ENDBRANCH  31  32
ENDBRANCH  30  31
ENDBRANCH   8  30
TORSDOF 12
ENDMDL
MODEL 4
REMARK VINA RESULT:    -7.583      2.083      5.392
REMARK INTER + INTRA:         -13.440
REMARK INTER:                 -11.552
REMARK INTRA:                  -1.888
REMARK UNBOUND:                -1.645
REMARK SMILES C[C@@]12C[C@@]3(O)O[C@@H](O1)[C@]1(COC(=O)c4ccccc4)[C@H]3C[C@@]12O[C@@H]1O[C@@H](CO)[C@H](O)[C@H](O)[C@@H]1O
REMARK SMILES IDX 1 1 2 2 3 3 4 4 20 5 21 6 22 7 9 8 7 9 8 10 6 11 23 12 24 13
REMARK SMILES IDX 33 14 25 15 31 16 26 17 29 18 34 19 32 21 27 23 28 24 30 26
REMARK SMILES IDX 5 28 10 30 11 31 12 32 13 33 14 34 15 35 19 36 16 37 18 38
REMARK SMILES IDX 17 39
REMARK H PARENT 34 20 32 22 28 25 30 27 5 29
REMARK Flexibility Score: inf
ROOT
ATOM      1  C   UNL     1       6.018 -39.997  28.715  1.00  0.00     0.046 C 
ATOM      2  C   UNL     1       6.436 -40.942  27.586  1.00  0.00     0.104 C 
ATOM      3  C   UNL     1       8.008 -41.019  27.486  1.00  0.00     0.104 C 
ATOM      4  C   UNL     1       8.257 -41.944  26.245  1.00  0.00     0.175 C 
ATOM      5  C   UNL     1       7.395 -41.473  25.031  1.00  0.00     0.070 C 
ATOM      6  C   UNL     1       6.873 -40.042  25.197  1.00  0.00     0.050 C 
ATOM      7  C   UNL     1       5.824 -40.621  26.159  1.00  0.00     0.115 C 
ATOM      8  C   UNL     1       6.038 -41.991  25.504  1.00  0.00     0.096 C 
ATOM      9  C   UNL     1       6.328 -42.963  26.638  1.00  0.00     0.267 C 
ATOM     10  O   UNL     1       6.025 -42.272  27.845  1.00  0.00    -0.342 OA
ATOM     11  O   UNL     1       7.724 -43.206  26.587  1.00  0.00    -0.320 OA
ENDROOT
BRANCH   7  12
ATOM     12  O   UNL     1       4.566 -39.957  26.023  1.00  0.00    -0.339 OA
BRANCH  12  13
ATOM     13  C   UNL     1       4.599 -38.700  25.360  1.00  0.00     0.282 C 
ATOM     14  C   UNL     1       3.357 -38.530  24.448  1.00  0.00     0.202 C 
ATOM     15  O   UNL     1       4.674 -37.627  26.286  1.00  0.00    -0.341 OA
ATOM     16  C   UNL     1       2.056 -38.313  25.251  1.00  0.00     0.179 C 
ATOM     17  C   UNL     1       3.558 -37.588  27.162  1.00  0.00     0.178 C 
ATOM     18  C   UNL     1       2.260 -37.286  26.379  1.00  0.00     0.177 C 
BRANCH  14  19
ATOM     19  O   UNL     1       3.211 -39.643  23.606  1.00  0.00    -0.385 OA
ATOM     20  H   UNL     1       4.044 -39.712  23.072  1.00  0.00     0.211 HD
ENDBRANCH  14  19
BRANCH  16  21
ATOM     21  O   UNL     1       1.524 -39.529  25.724  1.00  0.00    -0.387 OA
ATOM     22  H   UNL     1       1.212 -40.062  24.949  1.00  0.00     0.211 HD
ENDBRANCH  16  21
BRANCH  17  23
ATOM     23  C   UNL     1       3.821 -36.520  28.233  1.00  0.00     0.191 C 
BRANCH  23  24
ATOM     24  O   UNL     1       4.035 -37.118  29.483  1.00  0.00    -0.394 OA
ATOM     25  H   UNL     1       3.305 -36.796  30.071  1.00  0.00     0.210 HD
ENDBRANCH  23  24
ENDBRANCH  17  23
BRANCH  18  26
ATOM     26  O   UNL     1       1.147 -37.313  27.237  1.00  0.00    -0.387 OA
ATOM     27  H   UNL     1       1.257 -36.571  27.887  1.00  0.00     0.211 HD
ENDBRANCH  18  26
ENDBRANCH  12  13
ENDBRANCH   7  12
BRANCH   4  28
ATOM     28  O   UNL     1       9.618 -42.056  25.925  1.00  0.00    -0.365 OA
ATOM     29  H   UNL     1       9.708 -42.846  25.331  1.00  0.00     0.214 HD
ENDBRANCH   4  28
BRANCH   8  30
ATOM     30  C   UNL     1       5.128 -42.491  24.371  1.00  0.00     0.249 C 
BRANCH  30  31
ATOM     31  O   UNL     1       4.123 -43.341  24.914  1.00  0.00    -0.461 OA
BRANCH  31  32
ATOM     32  C   UNL     1       2.883 -42.874  25.359  1.00  0.00     0.338 C 
ATOM     33  O   UNL     1       2.195 -42.112  24.626  1.00  0.00    -0.246 OA
BRANCH  32  34
ATOM     34  C   UNL     1       2.380 -43.284  26.688  1.00  0.00     0.060 A 
ATOM     35  C   UNL     1       2.607 -42.470  27.814  1.00  0.00     0.015 A 
ATOM     36  C   UNL     1       1.675 -44.491  26.848  1.00  0.00     0.015 A 
ATOM     37  C   UNL     1       2.144 -42.862  29.073  1.00  0.00     0.001 A 
ATOM     38  C   UNL     1       1.208 -44.874  28.110  1.00  0.00     0.001 A 
ATOM     39  C   UNL     1       1.444 -44.062  29.221  1.00  0.00     0.000 A 
ENDBRANCH  32  34
ENDBRANCH  31  32
ENDBRANCH  30  31
ENDBRANCH   8  30
TORSDOF 12
ENDMDL
MODEL 5
REMARK VINA RESULT:    -7.506      1.613      5.627
REMARK INTER + INTRA:         -13.320
REMARK INTER:                 -12.019
REMARK INTRA:                  -1.301
REMARK UNBOUND:                -1.645
REMARK SMILES C[C@@]12C[C@@]3(O)O[C@@H](O1)[C@]1(COC(=O)c4ccccc4)[C@H]3C[C@@]12O[C@@H]1O[C@@H](CO)[C@H](O)[C@H](O)[C@@H]1O
REMARK SMILES IDX 1 1 2 2 3 3 4 4 20 5 21 6 22 7 9 8 7 9 8 10 6 11 23 12 24 13
REMARK SMILES IDX 33 14 25 15 31 16 26 17 29 18 34 19 32 21 27 23 28 24 30 26
REMARK SMILES IDX 5 28 10 30 11 31 12 32 13 33 14 34 15 35 19 36 16 37 18 38
REMARK SMILES IDX 17 39
REMARK H PARENT 34 20 32 22 28 25 30 27 5 29
REMARK Flexibility Score: inf
ROOT
ATOM      1  C   UNL     1       4.741 -37.370  29.197  1.00  0.00     0.046 C 
ATOM      2  C   UNL     1       5.643 -37.558  27.974  1.00  0.00     0.104 C 
ATOM      3  C   UNL     1       5.867 -36.183  27.238  1.00  0.00     0.104 C 
ATOM      4  C   UNL     1       6.725 -36.568  25.983  1.00  0.00     0.175 C 
ATOM      5  C   UNL     1       6.090 -37.785  25.240  1.00  0.00     0.070 C 
ATOM      6  C   UNL     1       4.629 -38.023  25.637  1.00  0.00     0.050 C 
ATOM      7  C   UNL     1       5.168 -38.653  26.931  1.00  0.00     0.115 C 
ATOM      8  C   UNL     1       6.503 -38.885  26.216  1.00  0.00     0.096 C 
ATOM      9  C   UNL     1       7.574 -38.278  27.110  1.00  0.00     0.267 C 
ATOM     10  O   UNL     1       6.941 -37.983  28.350  1.00  0.00    -0.342 OA
ATOM     11  O   UNL     1       7.950 -37.061  26.485  1.00  0.00    -0.320 OA
ENDROOT
BRANCH   7  12
ATOM     12  O   UNL     1       4.376 -39.771  27.338  1.00  0.00    -0.339 OA
BRANCH  12  13
ATOM     13  C   UNL     1       4.525 -40.175  28.693  1.00  0.00     0.282 C 
ATOM     14  C   UNL     1       3.202 -40.775  29.234  1.00  0.00     0.202 C 
ATOM     15  O   UNL     1       5.582 -41.111  28.842  1.00  0.00    -0.341 OA
ATOM     16  C   UNL     1       2.891 -42.163  28.632  1.00  0.00     0.179 C 
ATOM     17  C   UNL     1       5.366 -42.296  28.093  1.00  0.00     0.178 C 
ATOM     18  C   UNL     1       4.138 -43.065  28.632  1.00  0.00     0.177 C 
BRANCH  14  19
ATOM     19  O   UNL     1       2.131 -39.903  28.988  1.00  0.00    -0.385 OA
ATOM     20  H   UNL     1       2.499 -39.128  28.491  1.00  0.00     0.211 HD
ENDBRANCH  14  19
BRANCH  16  21
ATOM     21  O   UNL     1       2.304 -42.060  27.355  1.00  0.00    -0.387 OA
ATOM     22  H   UNL     1       1.364 -41.767  27.460  1.00  0.00     0.211 HD
ENDBRANCH  16  21
BRANCH  17  23
ATOM     23  C   UNL     1       6.636 -43.155  28.171  1.00  0.00     0.191 C 
BRANCH  23  24
ATOM     24  O   UNL     1       6.750 -43.969  27.035  1.00  0.00    -0.394 OA
ATOM     25  H   UNL     1       6.519 -43.395  26.260  1.00  0.00     0.210 HD
ENDBRANCH  23  24
ENDBRANCH  17  23
BRANCH  18  26
ATOM     26  O   UNL     1       3.885 -44.204  27.848  1.00  0.00    -0.387 OA
ATOM     27  H   UNL     1       4.308 -44.053  26.963  1.00  0.00     0.211 HD
ENDBRANCH  18  26
ENDBRANCH  12  13
ENDBRANCH   7  12
BRANCH   4  28
ATOM     28  O   UNL     1       6.948 -35.476  25.131  1.00  0.00    -0.365 OA
ATOM     29  H   UNL     1       7.348 -35.840  24.299  1.00  0.00     0.214 HD
ENDBRANCH   4  28
BRANCH   8  30
ATOM     30  C   UNL     1       6.833 -40.228  25.545  1.00  0.00     0.249 C 
BRANCH  30  31
ATOM     31  O   UNL     1       8.156 -40.619  25.898  1.00  0.00    -0.461 OA
BRANCH  31  32
ATOM     32  C   UNL     1       8.747 -41.807  25.459  1.00  0.00     0.338 C 
ATOM     33  O   UNL     1       9.475 -42.478  26.241  1.00  0.00    -0.246 OA
BRANCH  32  34
ATOM     34  C   UNL     1       8.507 -42.277  24.077  1.00  0.00     0.060 A 
ATOM     35  C   UNL     1       7.267 -42.844  23.726  1.00  0.00     0.015 A 
ATOM     36  C   UNL     1       9.512 -42.172  23.098  1.00  0.00     0.015 A 
ATOM     37  C   UNL     1       7.044 -43.302  22.425  1.00  0.00     0.001 A 
ATOM     38  C   UNL     1       9.279 -42.625  21.795  1.00  0.00     0.001 A 
ATOM     39  C   UNL     1       8.047 -43.191  21.460  1.00  0.00     0.000 A 
ENDBRANCH  32  34
ENDBRANCH  31  32
ENDBRANCH  30  31
ENDBRANCH   8  30
TORSDOF 12
ENDMDL
MODEL 6
REMARK VINA RESULT:    -7.379      1.884      2.848
REMARK INTER + INTRA:         -13.123
REMARK INTER:                 -11.219
REMARK INTRA:                  -1.904
REMARK UNBOUND:                -1.645
REMARK SMILES C[C@@]12C[C@@]3(O)O[C@@H](O1)[C@]1(COC(=O)c4ccccc4)[C@H]3C[C@@]12O[C@@H]1O[C@@H](CO)[C@H](O)[C@H](O)[C@@H]1O
REMARK SMILES IDX 1 1 2 2 3 3 4 4 20 5 21 6 22 7 9 8 7 9 8 10 6 11 23 12 24 13
REMARK SMILES IDX 33 14 25 15 31 16 26 17 29 18 34 19 32 21 27 23 28 24 30 26
REMARK SMILES IDX 5 28 10 30 11 31 12 32 13 33 14 34 15 35 19 36 16 37 18 38
REMARK SMILES IDX 17 39
REMARK H PARENT 34 20 32 22 28 25 30 27 5 29
REMARK Flexibility Score: inf
ROOT
ATOM      1  C   UNL     1       3.305 -43.199  26.152  1.00  0.00     0.046 C 
ATOM      2  C   UNL     1       4.031 -42.977  27.482  1.00  0.00     0.104 C 
ATOM      3  C   UNL     1       3.556 -44.034  28.551  1.00  0.00     0.104 C 
ATOM      4  C   UNL     1       4.321 -43.614  29.854  1.00  0.00     0.175 C 
ATOM      5  C   UNL     1       4.163 -42.082  30.110  1.00  0.00     0.070 C 
ATOM      6  C   UNL     1       3.005 -41.466  29.317  1.00  0.00     0.050 C 
ATOM      7  C   UNL     1       3.926 -41.516  28.088  1.00  0.00     0.115 C 
ATOM      8  C   UNL     1       5.126 -41.575  29.039  1.00  0.00     0.096 C 
ATOM      9  C   UNL     1       5.952 -42.778  28.607  1.00  0.00     0.267 C 
ATOM     10  O   UNL     1       5.425 -43.196  27.353  1.00  0.00    -0.342 OA
ATOM     11  O   UNL     1       5.694 -43.785  29.572  1.00  0.00    -0.320 OA
ENDROOT
BRANCH   7  12
ATOM     12  O   UNL     1       3.739 -40.376  27.248  1.00  0.00    -0.339 OA
BRANCH  12  13
ATOM     13  C   UNL     1       2.440 -39.799  27.267  1.00  0.00     0.282 C 
ATOM     14  C   UNL     1       2.528 -38.255  27.361  1.00  0.00     0.202 C 
ATOM     15  O   UNL     1       1.688 -40.176  26.123  1.00  0.00    -0.341 OA
ATOM     16  C   UNL     1       3.028 -37.608  26.051  1.00  0.00     0.179 C 
ATOM     17  C   UNL     1       2.295 -39.753  24.912  1.00  0.00     0.178 C 
ATOM     18  C   UNL     1       2.319 -38.210  24.824  1.00  0.00     0.177 C 
BRANCH  14  19
ATOM     19  O   UNL     1       3.362 -37.875  28.423  1.00  0.00    -0.385 OA
ATOM     20  H   UNL     1       3.470 -36.891  28.367  1.00  0.00     0.211 HD
ENDBRANCH  14  19
BRANCH  16  21
ATOM     21  O   UNL     1       4.431 -37.667  25.941  1.00  0.00    -0.387 OA
ATOM     22  H   UNL     1       4.824 -37.581  26.846  1.00  0.00     0.211 HD
ENDBRANCH  16  21
BRANCH  17  23
ATOM     23  C   UNL     1       1.513 -40.363  23.741  1.00  0.00     0.191 C 
BRANCH  23  24
ATOM     24  O   UNL     1       0.559 -39.456  23.260  1.00  0.00    -0.394 OA
ATOM     25  H   UNL     1      -0.199 -40.002  22.927  1.00  0.00     0.210 HD
ENDBRANCH  23  24
ENDBRANCH  17  23
BRANCH  18  26
ATOM     26  O   UNL     1       2.979 -37.791  23.657  1.00  0.00    -0.387 OA
ATOM     27  H   UNL     1       2.619 -38.330  22.904  1.00  0.00     0.211 HD
ENDBRANCH  18  26
ENDBRANCH  12  13
ENDBRANCH   7  12
BRANCH   4  28
ATOM     28  O   UNL     1       3.948 -44.385  30.965  1.00  0.00    -0.365 OA
ATOM     29  H   UNL     1       3.940 -45.331  30.666  1.00  0.00     0.214 HD
ENDBRANCH   4  28
BRANCH   8  30
ATOM     30  C   UNL     1       5.898 -40.307  29.439  1.00  0.00     0.249 C 
BRANCH  30  31
ATOM     31  O   UNL     1       7.104 -40.232  28.685  1.00  0.00    -0.461 OA
BRANCH  31  32
ATOM     32  C   UNL     1       7.174 -39.672  27.406  1.00  0.00     0.338 C 
ATOM     33  O   UNL     1       6.941 -38.444  27.240  1.00  0.00    -0.246 OA
BRANCH  32  34
ATOM     34  C   UNL     1       7.530 -40.526  26.252  1.00  0.00     0.060 A 
ATOM     35  C   UNL     1       8.659 -41.364  26.311  1.00  0.00     0.015 A 
ATOM     36  C   UNL     1       6.751 -40.510  25.079  1.00  0.00     0.015 A 
ATOM     37  C   UNL     1       9.006 -42.160  25.216  1.00  0.00     0.001 A 
ATOM     38  C   UNL     1       7.099 -41.315  23.990  1.00  0.00     0.001 A 
ATOM     39  C   UNL     1       8.226 -42.138  24.058  1.00  0.00     0.000 A 
ENDBRANCH  32  34
ENDBRANCH  31  32
ENDBRANCH  30  31
ENDBRANCH   8  30
TORSDOF 12
ENDMDL
MODEL 7
REMARK VINA RESULT:    -7.375      2.294      4.513
REMARK INTER + INTRA:         -13.116
REMARK INTER:                 -11.761
REMARK INTRA:                  -1.355
REMARK UNBOUND:                -1.645
REMARK SMILES C[C@@]12C[C@@]3(O)O[C@@H](O1)[C@]1(COC(=O)c4ccccc4)[C@H]3C[C@@]12O[C@@H]1O[C@@H](CO)[C@H](O)[C@H](O)[C@@H]1O
REMARK SMILES IDX 1 1 2 2 3 3 4 4 20 5 21 6 22 7 9 8 7 9 8 10 6 11 23 12 24 13
REMARK SMILES IDX 33 14 25 15 31 16 26 17 29 18 34 19 32 21 27 23 28 24 30 26
REMARK SMILES IDX 5 28 10 30 11 31 12 32 13 33 14 34 15 35 19 36 16 37 18 38
REMARK SMILES IDX 17 39
REMARK H PARENT 34 20 32 22 28 25 30 27 5 29
REMARK Flexibility Score: inf
ROOT
ATOM      1  C   UNL     1       4.781 -42.260  30.158  1.00  0.00     0.046 C 
ATOM      2  C   UNL     1       3.807 -42.464  28.994  1.00  0.00     0.104 C 
ATOM      3  C   UNL     1       3.527 -43.999  28.771  1.00  0.00     0.104 C 
ATOM      4  C   UNL     1       2.597 -44.029  27.509  1.00  0.00     0.175 C 
ATOM      5  C   UNL     1       3.195 -43.146  26.369  1.00  0.00     0.070 C 
ATOM      6  C   UNL     1       4.680 -42.830  26.583  1.00  0.00     0.050 C 
ATOM      7  C   UNL     1       4.227 -41.791  27.621  1.00  0.00     0.115 C 
ATOM      8  C   UNL     1       2.852 -41.773  26.944  1.00  0.00     0.096 C 
ATOM      9  C   UNL     1       1.833 -42.018  28.046  1.00  0.00     0.267 C 
ATOM     10  O   UNL     1       2.538 -41.902  29.277  1.00  0.00    -0.342 OA
ATOM     11  O   UNL     1       1.410 -43.362  27.885  1.00  0.00    -0.320 OA
ENDROOT
BRANCH   7  12
ATOM     12  O   UNL     1       5.051 -40.625  27.587  1.00  0.00    -0.339 OA
BRANCH  12  13
ATOM     13  C   UNL     1       4.954 -39.765  28.715  1.00  0.00     0.282 C 
ATOM     14  C   UNL     1       6.292 -39.020  28.953  1.00  0.00     0.202 C 
ATOM     15  O   UNL     1       3.895 -38.831  28.566  1.00  0.00    -0.341 OA
ATOM     16  C   UNL     1       6.567 -37.939  27.886  1.00  0.00     0.179 C 
ATOM     17  C   UNL     1       4.071 -37.990  27.436  1.00  0.00     0.178 C 
ATOM     18  C   UNL     1       5.313 -37.087  27.617  1.00  0.00     0.177 C 
BRANCH  14  19
ATOM     19  O   UNL     1       7.360 -39.929  28.989  1.00  0.00    -0.385 OA
ATOM     20  H   UNL     1       7.470 -40.281  28.069  1.00  0.00     0.211 HD
ENDBRANCH  14  19
BRANCH  16  21
ATOM     21  O   UNL     1       7.101 -38.492  26.706  1.00  0.00    -0.387 OA
ATOM     22  H   UNL     1       7.519 -37.767  26.176  1.00  0.00     0.211 HD
ENDBRANCH  16  21
BRANCH  17  23
ATOM     23  C   UNL     1       2.797 -37.152  27.256  1.00  0.00     0.191 C 
BRANCH  23  24
ATOM     24  O   UNL     1       2.597 -36.845  25.903  1.00  0.00    -0.394 OA
ATOM     25  H   UNL     1       1.809 -36.245  25.870  1.00  0.00     0.210 HD
ENDBRANCH  23  24
ENDBRANCH  17  23
BRANCH  18  26
ATOM     26  O   UNL     1       5.523 -36.302  26.470  1.00  0.00    -0.387 OA
ATOM     27  H   UNL     1       6.490 -36.079  26.439  1.00  0.00     0.211 HD
ENDBRANCH  18  26
ENDBRANCH  12  13
ENDBRANCH   7  12
BRANCH   4  28
ATOM     28  O   UNL     1       2.314 -45.335  27.084  1.00  0.00    -0.365 OA
ATOM     29  H   UNL     1       3.091 -45.894  27.345  1.00  0.00     0.214 HD
ENDBRANCH   4  28
BRANCH   8  30
ATOM     30  C   UNL     1       2.492 -40.721  25.882  1.00  0.00     0.249 C 
BRANCH  30  31
ATOM     31  O   UNL     1       1.173 -40.240  26.123  1.00  0.00    -0.461 OA
BRANCH  31  32
ATOM     32  C   UNL     1       0.516 -39.348  25.272  1.00  0.00     0.338 C 
ATOM     33  O   UNL     1      -0.213 -38.437  25.752  1.00  0.00    -0.246 OA
BRANCH  32  34
ATOM     34  C   UNL     1       0.687 -39.471  23.808  1.00  0.00     0.060 A 
ATOM     35  C   UNL     1      -0.320 -40.065  23.025  1.00  0.00     0.015 A 
ATOM     36  C   UNL     1       1.856 -39.005  23.179  1.00  0.00     0.015 A 
ATOM     37  C   UNL     1      -0.155 -40.197  21.643  1.00  0.00     0.001 A 
ATOM     38  C   UNL     1       2.012 -39.133  21.795  1.00  0.00     0.001 A 
ATOM     39  C   UNL     1       1.009 -39.729  21.028  1.00  0.00     0.000 A 
ENDBRANCH  32  34
ENDBRANCH  31  32
ENDBRANCH  30  31
ENDBRANCH   8  30
TORSDOF 12
ENDMDL
MODEL 8
REMARK VINA RESULT:    -7.347      2.216      4.550
REMARK INTER + INTRA:         -13.073
REMARK INTER:                 -11.094
REMARK INTRA:                  -1.979
REMARK UNBOUND:                -1.645
REMARK SMILES C[C@@]12C[C@@]3(O)O[C@@H](O1)[C@]1(COC(=O)c4ccccc4)[C@H]3C[C@@]12O[C@@H]1O[C@@H](CO)[C@H](O)[C@H](O)[C@@H]1O
REMARK SMILES IDX 1 1 2 2 3 3 4 4 20 5 21 6 22 7 9 8 7 9 8 10 6 11 23 12 24 13
REMARK SMILES IDX 33 14 25 15 31 16 26 17 29 18 34 19 32 21 27 23 28 24 30 26
REMARK SMILES IDX 5 28 10 30 11 31 12 32 13 33 14 34 15 35 19 36 16 37 18 38
REMARK SMILES IDX 17 39
REMARK H PARENT 34 20 32 22 28 25 30 27 5 29
REMARK Flexibility Score: inf
ROOT
ATOM      1  C   UNL     1       4.391 -39.959  30.667  1.00  0.00     0.046 C 
ATOM      2  C   UNL     1       4.235 -41.365  30.081  1.00  0.00     0.104 C 
ATOM      3  C   UNL     1       4.627 -42.455  31.151  1.00  0.00     0.104 C 
ATOM      4  C   UNL     1       4.496 -43.808  30.370  1.00  0.00     0.175 C 
ATOM      5  C   UNL     1       5.240 -43.721  29.000  1.00  0.00     0.070 C 
ATOM      6  C   UNL     1       6.232 -42.554  28.939  1.00  0.00     0.050 C 
ATOM      7  C   UNL     1       5.017 -41.637  28.729  1.00  0.00     0.115 C 
ATOM      8  C   UNL     1       4.227 -42.859  28.249  1.00  0.00     0.096 C 
ATOM      9  C   UNL     1       2.949 -42.890  29.074  1.00  0.00     0.267 C 
ATOM     10  O   UNL     1       2.884 -41.644  29.759  1.00  0.00    -0.342 OA
ATOM     11  O   UNL     1       3.132 -43.927  30.024  1.00  0.00    -0.320 OA
ENDROOT
BRANCH   7  12
ATOM     12  O   UNL     1       5.313 -40.577  27.817  1.00  0.00    -0.339 OA
BRANCH  12  13
ATOM     13  C   UNL     1       6.690 -40.264  27.658  1.00  0.00     0.282 C 
ATOM     14  C   UNL     1       7.029 -40.027  26.165  1.00  0.00     0.202 C 
ATOM     15  O   UNL     1       7.056 -39.128  28.428  1.00  0.00    -0.341 OA
ATOM     16  C   UNL     1       6.446 -38.701  25.628  1.00  0.00     0.179 C 
ATOM     17  C   UNL     1       6.335 -37.965  28.052  1.00  0.00     0.178 C 
ATOM     18  C   UNL     1       6.695 -37.542  26.610  1.00  0.00     0.177 C 
BRANCH  14  19
ATOM     19  O   UNL     1       6.568 -41.096  25.381  1.00  0.00    -0.385 OA
ATOM     20  H   UNL     1       7.058 -41.054  24.520  1.00  0.00     0.211 HD
ENDBRANCH  14  19
BRANCH  16  21
ATOM     21  O   UNL     1       5.086 -38.829  25.284  1.00  0.00    -0.387 OA
ATOM     22  H   UNL     1       4.579 -38.098  25.720  1.00  0.00     0.211 HD
ENDBRANCH  16  21
BRANCH  17  23
ATOM     23  C   UNL     1       6.663 -36.849  29.055  1.00  0.00     0.191 C 
BRANCH  23  24
ATOM     24  O   UNL     1       7.762 -36.098  28.614  1.00  0.00    -0.394 OA
ATOM     25  H   UNL     1       7.704 -36.080  27.625  1.00  0.00     0.210 HD
ENDBRANCH  23  24
ENDBRANCH  17  23
BRANCH  18  26
ATOM     26  O   UNL     1       5.932 -36.430  26.216  1.00  0.00    -0.387 OA
ATOM     27  H   UNL     1       5.811 -35.856  27.017  1.00  0.00     0.211 HD
ENDBRANCH  18  26
ENDBRANCH  12  13
ENDBRANCH   7  12
BRANCH   4  28
ATOM     28  O   UNL     1       4.908 -44.909  31.135  1.00  0.00    -0.365 OA
ATOM     29  H   UNL     1       5.586 -44.573  31.776  1.00  0.00     0.214 HD
ENDBRANCH   4  28
BRANCH   8  30
ATOM     30  C   UNL     1       4.101 -43.198  26.754  1.00  0.00     0.249 C 
BRANCH  30  31
ATOM     31  O   UNL     1       2.904 -42.623  26.240  1.00  0.00    -0.461 OA
BRANCH  31  32
ATOM     32  C   UNL     1       2.886 -41.464  25.459  1.00  0.00     0.338 C 
ATOM     33  O   UNL     1       3.762 -41.288  24.568  1.00  0.00    -0.246 OA
BRANCH  32  34
ATOM     34  C   UNL     1       1.830 -40.451  25.676  1.00  0.00     0.060 A 
ATOM     35  C   UNL     1       1.614 -39.916  26.960  1.00  0.00     0.015 A 
ATOM     36  C   UNL     1       1.024 -40.013  24.609  1.00  0.00     0.015 A 
ATOM     37  C   UNL     1       0.608 -38.970  27.170  1.00  0.00     0.001 A 
ATOM     38  C   UNL     1       0.024 -39.060  24.824  1.00  0.00     0.001 A 
ATOM     39  C   UNL     1      -0.185 -38.541  26.104  1.00  0.00     0.000 A 
ENDBRANCH  32  34
ENDBRANCH  31  32
ENDBRANCH  30  31
ENDBRANCH   8  30
TORSDOF 12
ENDMDL
MODEL 9
REMARK VINA RESULT:    -7.221      2.427      5.480
REMARK INTER + INTRA:         -12.876
REMARK INTER:                 -11.451
REMARK INTRA:                  -1.425
REMARK UNBOUND:                -1.645
REMARK SMILES C[C@@]12C[C@@]3(O)O[C@@H](O1)[C@]1(COC(=O)c4ccccc4)[C@H]3C[C@@]12O[C@@H]1O[C@@H](CO)[C@H](O)[C@H](O)[C@@H]1O
REMARK SMILES IDX 1 1 2 2 3 3 4 4 20 5 21 6 22 7 9 8 7 9 8 10 6 11 23 12 24 13
REMARK SMILES IDX 33 14 25 15 31 16 26 17 29 18 34 19 32 21 27 23 28 24 30 26
REMARK SMILES IDX 5 28 10 30 11 31 12 32 13 33 14 34 15 35 19 36 16 37 18 38
REMARK SMILES IDX 17 39
REMARK H PARENT 34 20 32 22 28 25 30 27 5 29
REMARK Flexibility Score: inf
ROOT
ATOM      1  C   UNL     1       4.121 -38.462  22.772  1.00  0.00     0.046 C 
ATOM      2  C   UNL     1       3.077 -39.365  23.435  1.00  0.00     0.104 C 
ATOM      3  C   UNL     1       1.648 -39.092  22.830  1.00  0.00     0.104 C 
ATOM      4  C   UNL     1       0.704 -40.021  23.669  1.00  0.00     0.175 C 
ATOM      5  C   UNL     1       0.980 -39.843  25.195  1.00  0.00     0.070 C 
ATOM      6  C   UNL     1       1.755 -38.559  25.511  1.00  0.00     0.050 C 
ATOM      7  C   UNL     1       3.012 -39.292  25.018  1.00  0.00     0.115 C 
ATOM      8  C   UNL     1       2.293 -40.620  25.279  1.00  0.00     0.096 C 
ATOM      9  C   UNL     1       2.394 -41.420  23.989  1.00  0.00     0.267 C 
ATOM     10  O   UNL     1       3.329 -40.732  23.165  1.00  0.00    -0.342 OA
ATOM     11  O   UNL     1       1.112 -41.344  23.389  1.00  0.00    -0.320 OA
ENDROOT
BRANCH   7  12
ATOM     12  O   UNL     1       4.160 -38.941  25.792  1.00  0.00    -0.339 OA
BRANCH  12  13
ATOM     13  C   UNL     1       5.415 -39.091  25.141  1.00  0.00     0.282 C 
ATOM     14  C   UNL     1       6.450 -38.087  25.709  1.00  0.00     0.202 C 
ATOM     15  O   UNL     1       5.907 -40.417  25.262  1.00  0.00    -0.341 OA
ATOM     16  C   UNL     1       6.907 -38.450  27.139  1.00  0.00     0.179 C 
ATOM     17  C   UNL     1       6.109 -40.800  26.614  1.00  0.00     0.178 C 
ATOM     18  C   UNL     1       7.229 -39.951  27.258  1.00  0.00     0.177 C 
BRANCH  14  19
ATOM     19  O   UNL     1       5.926 -36.785  25.699  1.00  0.00    -0.385 OA
ATOM     20  H   UNL     1       5.459 -36.655  26.563  1.00  0.00     0.211 HD
ENDBRANCH  14  19
BRANCH  16  21
ATOM     21  O   UNL     1       5.980 -38.022  28.110  1.00  0.00    -0.387 OA
ATOM     22  H   UNL     1       5.123 -37.814  27.660  1.00  0.00     0.211 HD
ENDBRANCH  16  21
BRANCH  17  23
ATOM     23  C   UNL     1       6.459 -42.294  26.646  1.00  0.00     0.191 C 
BRANCH  23  24
ATOM     24  O   UNL     1       5.619 -43.014  25.784  1.00  0.00    -0.394 OA
ATOM     25  H   UNL     1       5.599 -43.943  26.130  1.00  0.00     0.210 HD
ENDBRANCH  23  24
ENDBRANCH  17  23
BRANCH  18  26
ATOM     26  O   UNL     1       7.382 -40.284  28.615  1.00  0.00    -0.387 OA
ATOM     27  H   UNL     1       8.122 -40.944  28.675  1.00  0.00     0.211 HD
ENDBRANCH  18  26
ENDBRANCH  12  13
ENDBRANCH   7  12
BRANCH   4  28
ATOM     28  O   UNL     1      -0.649 -39.844  23.344  1.00  0.00    -0.365 OA
ATOM     29  H   UNL     1      -1.164 -40.469  23.918  1.00  0.00     0.214 HD
ENDBRANCH   4  28
BRANCH   8  30
ATOM     30  C   UNL     1       2.482 -41.392  26.595  1.00  0.00     0.249 C 
BRANCH  30  31
ATOM     31  O   UNL     1       2.751 -42.760  26.305  1.00  0.00    -0.461 OA
BRANCH  31  32
ATOM     32  C   UNL     1       2.406 -43.807  27.164  1.00  0.00     0.338 C 
ATOM     33  O   UNL     1       1.707 -44.768  26.740  1.00  0.00    -0.246 OA
BRANCH  32  34
ATOM     34  C   UNL     1       2.871 -43.786  28.567  1.00  0.00     0.060 A 
ATOM     35  C   UNL     1       4.235 -43.970  28.865  1.00  0.00     0.015 A 
ATOM     36  C   UNL     1       1.962 -43.589  29.623  1.00  0.00     0.015 A 
ATOM     37  C   UNL     1       4.675 -43.966  30.192  1.00  0.00     0.001 A 
ATOM     38  C   UNL     1       2.410 -43.578  30.948  1.00  0.00     0.001 A 
ATOM     39  C   UNL     1       3.764 -43.768  31.232  1.00  0.00     0.000 A 
ENDBRANCH  32  34
ENDBRANCH  31  32
ENDBRANCH  30  31
ENDBRANCH   8  30
TORSDOF 12
ENDMDL
