MODEL 1
REMARK VINA RESULT:    -2.312      0.000      0.000
REMARK INTER + INTRA:          -2.803
REMARK INTER:                  -2.718
REMARK INTRA:                  -0.085
REMARK UNBOUND:                -0.085
REMARK SMILES O=C([O-])CCC(=O)[O-]
REMARK SMILES IDX 4 1 2 2 1 3 3 4 5 5 6 6 7 7 8 8
REMARK H PARENT
REMARK Flexibility Score: inf
ROOT
ATOM      1  C   UNL     1      75.027  89.000  92.541  1.00  0.00     0.059 C 
ENDROOT
BRANCH   1   2
ATOM      2  C   UNL     1      74.969  90.487  92.690  1.00  0.00     0.042 C 
ATOM      3  O   UNL     1      73.923  91.041  93.119  1.00  0.00    -0.550 OA
ATOM      4  O   UNL     1      76.054  91.267  92.307  1.00  0.00    -0.550 OA
ENDBRANCH   1   2
BRANCH   1   5
ATOM      5  C   UNL     1      73.626  88.430  92.305  1.00  0.00     0.059 C 
BRANCH   5   6
ATOM      6  C   UNL     1      73.499  87.920  90.905  1.00  0.00     0.042 C 
ATOM      7  O   UNL     1      74.456  88.041  90.096  1.00  0.00    -0.550 OA
ATOM      8  O   UNL     1      72.339  87.266  90.506  1.00  0.00    -0.550 OA
ENDBRANCH   5   6
ENDBRANCH   1   5
TORSDOF 3
ENDMDL
MODEL 2
REMARK VINA RESULT:    -2.184     17.487     18.380
REMARK INTER + INTRA:          -2.652
REMARK INTER:                  -2.538
REMARK INTRA:                  -0.114
REMARK UNBOUND:                -0.085
REMARK SMILES O=C([O-])CCC(=O)[O-]
REMARK SMILES IDX 4 1 2 2 1 3 3 4 5 5 6 6 7 7 8 8
REMARK H PARENT
REMARK Flexibility Score: inf
ROOT
ATOM      1  C   UNL     1      74.054  89.368  73.006  1.00  0.00     0.059 C 
ENDROOT
BRANCH   1   2
ATOM      2  C   UNL     1      74.983  88.403  73.671  1.00  0.00     0.042 C 
ATOM      3  O   UNL     1      75.009  88.311  74.927  1.00  0.00    -0.550 OA
ATOM      4  O   UNL     1      75.858  87.640  72.907  1.00  0.00    -0.550 OA
ENDBRANCH   1   2
BRANCH   1   5
ATOM      5  C   UNL     1      74.668  90.769  72.976  1.00  0.00     0.059 C 
BRANCH   5   6
ATOM      6  C   UNL     1      74.030  91.641  74.011  1.00  0.00     0.042 C 
ATOM      7  O   UNL     1      72.863  92.082  73.836  1.00  0.00    -0.550 OA
ATOM      8  O   UNL     1      74.705  91.929  75.191  1.00  0.00    -0.550 OA
ENDBRANCH   5   6
ENDBRANCH   1   5
TORSDOF 3
ENDMDL
MODEL 3
REMARK VINA RESULT:    -2.181     15.613     16.481
REMARK INTER + INTRA:          -2.649
REMARK INTER:                  -2.526
REMARK INTRA:                  -0.123
REMARK UNBOUND:                -0.085
REMARK SMILES O=C([O-])CCC(=O)[O-]
REMARK SMILES IDX 4 1 2 2 1 3 3 4 5 5 6 6 7 7 8 8
REMARK H PARENT
REMARK Flexibility Score: inf
ROOT
ATOM      1  C   UNL     1      75.438  72.567  91.878  1.00  0.00     0.059 C 
ENDROOT
BRANCH   1   2
ATOM      2  C   UNL     1      74.145  73.124  92.384  1.00  0.00     0.042 C 
ATOM      3  O   UNL     1      73.059  72.543  92.122  1.00  0.00    -0.550 OA
ATOM      4  O   UNL     1      74.135  74.313  93.103  1.00  0.00    -0.550 OA
ENDBRANCH   1   2
BRANCH   1   5
ATOM      5  C   UNL     1      76.401  72.312  93.039  1.00  0.00     0.059 C 
BRANCH   5   6
ATOM      6  C   UNL     1      77.622  73.165  92.902  1.00  0.00     0.042 C 
ATOM      7  O   UNL     1      78.763  72.678  93.116  1.00  0.00    -0.550 OA
ATOM      8  O   UNL     1      77.504  74.487  92.490  1.00  0.00    -0.550 OA
ENDBRANCH   5   6
ENDBRANCH   1   5
TORSDOF 3
ENDMDL
MODEL 4
REMARK VINA RESULT:    -2.144      1.895      4.226
REMARK INTER + INTRA:          -2.605
REMARK INTER:                  -2.490
REMARK INTRA:                  -0.115
REMARK UNBOUND:                -0.085
REMARK SMILES O=C([O-])CCC(=O)[O-]
REMARK SMILES IDX 4 1 2 2 1 3 3 4 5 5 6 6 7 7 8 8
REMARK H PARENT
REMARK Flexibility Score: inf
ROOT
ATOM      1  C   UNL     1      76.086  89.055  92.526  1.00  0.00     0.059 C 
ENDROOT
BRANCH   1   2
ATOM      2  C   UNL     1      74.651  89.441  92.353  1.00  0.00     0.042 C 
ATOM      3  O   UNL     1      73.850  88.661  91.775  1.00  0.00    -0.550 OA
ATOM      4  O   UNL     1      74.209  90.685  92.788  1.00  0.00    -0.550 OA
ENDBRANCH   1   2
BRANCH   1   5
ATOM      5  C   UNL     1      76.966  89.800  91.521  1.00  0.00     0.059 C 
BRANCH   5   6
ATOM      6  C   UNL     1      77.655  90.951  92.181  1.00  0.00     0.042 C 
ATOM      7  O   UNL     1      77.232  92.125  92.012  1.00  0.00    -0.550 OA
ATOM      8  O   UNL     1      78.736  90.724  93.024  1.00  0.00    -0.550 OA
ENDBRANCH   5   6
ENDBRANCH   1   5
TORSDOF 3
ENDMDL
MODEL 5
REMARK VINA RESULT:    -2.139     17.427     18.002
REMARK INTER + INTRA:          -2.600
REMARK INTER:                  -2.495
REMARK INTRA:                  -0.104
REMARK UNBOUND:                -0.085
REMARK SMILES O=C([O-])CCC(=O)[O-]
REMARK SMILES IDX 4 1 2 2 1 3 3 4 5 5 6 6 7 7 8 8
REMARK H PARENT
REMARK Flexibility Score: inf
ROOT
ATOM      1  C   UNL     1      74.904  90.730  73.237  1.00  0.00     0.059 C 
ENDROOT
BRANCH   1   2
ATOM      2  C   UNL     1      74.197  91.651  74.179  1.00  0.00     0.042 C 
ATOM      3  O   UNL     1      74.728  91.965  75.276  1.00  0.00    -0.550 OA
ATOM      4  O   UNL     1      72.928  92.125  73.867  1.00  0.00    -0.550 OA
ENDBRANCH   1   2
BRANCH   1   5
ATOM      5  C   UNL     1      74.129  89.420  73.085  1.00  0.00     0.059 C 
BRANCH   5   6
ATOM      6  C   UNL     1      74.824  88.314  73.816  1.00  0.00     0.042 C 
ATOM      7  O   UNL     1      74.472  87.118  73.638  1.00  0.00    -0.550 OA
ATOM      8  O   UNL     1      75.893  88.600  74.657  1.00  0.00    -0.550 OA
ENDBRANCH   5   6
ENDBRANCH   1   5
TORSDOF 3
ENDMDL
MODEL 6
REMARK VINA RESULT:    -2.127      1.610      2.063
REMARK INTER + INTRA:          -2.585
REMARK INTER:                  -2.484
REMARK INTRA:                  -0.101
REMARK UNBOUND:                -0.085
REMARK SMILES O=C([O-])CCC(=O)[O-]
REMARK SMILES IDX 4 1 2 2 1 3 3 4 5 5 6 6 7 7 8 8
REMARK H PARENT
REMARK Flexibility Score: inf
ROOT
ATOM      1  C   UNL     1      75.837  89.805  93.069  1.00  0.00     0.059 C 
ENDROOT
BRANCH   1   2
ATOM      2  C   UNL     1      76.676  90.602  92.121  1.00  0.00     0.042 C 
ATOM      3  O   UNL     1      76.817  91.842  92.289  1.00  0.00    -0.550 OA
ATOM      4  O   UNL     1      77.262  89.984  91.023  1.00  0.00    -0.550 OA
ENDBRANCH   1   2
BRANCH   1   5
ATOM      5  C   UNL     1      74.351  89.995  92.760  1.00  0.00     0.059 C 
BRANCH   5   6
ATOM      6  C   UNL     1      73.754  88.720  92.256  1.00  0.00     0.042 C 
ATOM      7  O   UNL     1      73.922  88.372  91.057  1.00  0.00    -0.550 OA
ATOM      8  O   UNL     1      73.051  87.891  93.122  1.00  0.00    -0.550 OA
ENDBRANCH   5   6
ENDBRANCH   1   5
TORSDOF 3
ENDMDL
MODEL 7
REMARK VINA RESULT:    -2.103     25.013     26.313
REMARK INTER + INTRA:          -2.557
REMARK INTER:                  -2.401
REMARK INTRA:                  -0.156
REMARK UNBOUND:                -0.085
REMARK SMILES O=C([O-])CCC(=O)[O-]
REMARK SMILES IDX 4 1 2 2 1 3 3 4 5 5 6 6 7 7 8 8
REMARK H PARENT
REMARK Flexibility Score: inf
ROOT
ATOM      1  C   UNL     1      88.348  75.073  75.766  1.00  0.00     0.059 C 
ENDROOT
BRANCH   1   2
ATOM      2  C   UNL     1      89.391  76.031  76.245  1.00  0.00     0.042 C 
ATOM      3  O   UNL     1      90.550  75.622  76.521  1.00  0.00    -0.550 OA
ATOM      4  O   UNL     1      89.071  77.370  76.435  1.00  0.00    -0.550 OA
ENDBRANCH   1   2
BRANCH   1   5
ATOM      5  C   UNL     1      88.744  74.484  74.411  1.00  0.00     0.059 C 
BRANCH   5   6
ATOM      6  C   UNL     1      88.719  75.542  73.353  1.00  0.00     0.042 C 
ATOM      7  O   UNL     1      87.621  75.983  72.925  1.00  0.00    -0.550 OA
ATOM      8  O   UNL     1      89.910  76.075  72.875  1.00  0.00    -0.550 OA
ENDBRANCH   5   6
ENDBRANCH   1   5
TORSDOF 3
ENDMDL
MODEL 8
REMARK VINA RESULT:    -2.101     15.475     16.289
REMARK INTER + INTRA:          -2.554
REMARK INTER:                  -2.516
REMARK INTRA:                  -0.038
REMARK UNBOUND:                -0.085
REMARK SMILES O=C([O-])CCC(=O)[O-]
REMARK SMILES IDX 4 1 2 2 1 3 3 4 5 5 6 6 7 7 8 8
REMARK H PARENT
REMARK Flexibility Score: inf
ROOT
ATOM      1  C   UNL     1      76.057  73.761  92.130  1.00  0.00     0.059 C 
ENDROOT
BRANCH   1   2
ATOM      2  C   UNL     1      77.484  73.394  91.872  1.00  0.00     0.042 C 
ATOM      3  O   UNL     1      77.885  72.220  92.086  1.00  0.00    -0.550 OA
ATOM      4  O   UNL     1      78.385  74.362  91.443  1.00  0.00    -0.550 OA
ENDBRANCH   1   2
BRANCH   1   5
ATOM      5  C   UNL     1      75.148  72.546  91.935  1.00  0.00     0.059 C 
BRANCH   5   6
ATOM      6  C   UNL     1      73.743  72.877  92.325  1.00  0.00     0.042 C 
ATOM      7  O   UNL     1      72.795  72.123  91.981  1.00  0.00    -0.550 OA
ATOM      8  O   UNL     1      73.483  73.993  93.112  1.00  0.00    -0.550 OA
ENDBRANCH   5   6
ENDBRANCH   1   5
TORSDOF 3
ENDMDL
