MODEL 1
REMARK VINA RESULT:    -5.098      0.000      0.000
REMARK INTER + INTRA:          -8.057
REMARK INTER:                  -7.781
REMARK INTRA:                  -0.276
REMARK UNBOUND:                -0.276
REMARK SMILES CC1=CCC[C@H](C)C(=O)C[C@H](C(C)C)C(=O)C1
REMARK SMILES IDX 8 1 9 2 6 3 7 4 5 5 4 6 3 7 2 8 1 9 10 11 11 12 15 13 16 14
REMARK SMILES IDX 17 15 12 17 13 18 14 19
REMARK H PARENT
REMARK Flexibility Score: 70.00
ROOT
ATOM      1  C   UNL     1      -7.142  30.870  23.572  1.00  0.00     0.136 C 
ATOM      2  O   UNL     1      -6.214  30.076  23.603  1.00  0.00    -0.299 OA
ENDROOT
BRANCH   1   3
ATOM      3  C   UNL     1      -8.486  30.487  24.153  1.00  0.00     0.053 C 
ATOM      4  C   UNL     1      -8.776  29.018  23.828  1.00  0.00     0.016 C 
BRANCH   3   5
ATOM      5  C   UNL     1      -8.565  30.723  25.679  1.00  0.00     0.015 C 
BRANCH   5   6
ATOM      6  C   UNL     1      -9.523  31.862  26.082  1.00  0.00     0.028 C 
BRANCH   6   7
ATOM      7  C   UNL     1      -8.768  33.098  26.518  1.00  0.00    -0.028 C 
ATOM      8  C   UNL     1      -8.717  34.282  25.863  1.00  0.00    -0.070 CG0
ATOM      9  C   UNL     1      -7.929  35.403  26.494  1.00  0.00     0.039 C 
ATOM     10  G   UNL     1      -9.340  34.522  24.504  1.00  0.00     0.000 G0
ENDBRANCH   6   7
ENDBRANCH   5   6
ENDBRANCH   3   5
ENDBRANCH   1   3
BRANCH   1  11
ATOM     11  C   UNL     1      -6.941  32.220  22.924  1.00  0.00     0.087 C 
BRANCH  11  12
ATOM     12  C   UNL     1      -8.280  32.947  22.671  1.00  0.00     0.066 C 
BRANCH  12  13
ATOM     13  C   UNL     1      -8.327  34.267  23.417  1.00  0.00     0.140 C 
ATOM     14  O   UNL     1      -7.509  35.141  23.162  1.00  0.00    -0.299 OA
BRANCH  13  15
ATOM     15  C   UNL     1      -9.336  34.512  24.505  1.00  0.00     0.106 CG0
ATOM     16  G   UNL     1      -8.709  34.265  25.861  1.00  0.00     0.000 G0
ENDBRANCH  13  15
ENDBRANCH  12  13
BRANCH  12  17
ATOM     17  C   UNL     1      -8.596  33.096  21.151  1.00  0.00    -0.006 C 
ATOM     18  C   UNL     1      -9.358  31.906  20.542  1.00  0.00     0.008 C 
ATOM     19  C   UNL     1      -7.318  33.369  20.344  1.00  0.00     0.008 C 
ENDBRANCH  12  17
ENDBRANCH  11  12
ENDBRANCH   1  11
TORSDOF 1
ENDMDL
MODEL 2
REMARK VINA RESULT:    -4.629      1.803      4.476
REMARK INTER + INTRA:          -7.341
REMARK INTER:                  -7.474
REMARK INTRA:                   0.133
REMARK UNBOUND:                -0.276
REMARK SMILES CC1=CCC[C@H](C)C(=O)C[C@H](C(C)C)C(=O)C1
REMARK SMILES IDX 8 1 9 2 6 3 7 4 5 5 4 6 3 7 2 8 1 9 10 11 11 12 15 13 16 14
REMARK SMILES IDX 17 15 12 17 13 18 14 19
REMARK H PARENT
REMARK Flexibility Score: 70.00
ROOT
ATOM      1  C   UNL     1      -7.657  34.612  22.452  1.00  0.00     0.136 C 
ATOM      2  O   UNL     1      -7.578  35.787  22.125  1.00  0.00    -0.299 OA
ENDROOT
BRANCH   1   3
ATOM      3  C   UNL     1      -7.940  33.553  21.409  1.00  0.00     0.053 C 
ATOM      4  C   UNL     1      -7.318  33.979  20.074  1.00  0.00     0.016 C 
BRANCH   3   5
ATOM      5  C   UNL     1      -7.418  32.157  21.820  1.00  0.00     0.015 C 
BRANCH   5   6
ATOM      6  C   UNL     1      -8.537  31.137  22.112  1.00  0.00     0.028 C 
BRANCH   6   7
ATOM      7  C   UNL     1      -8.372  30.502  23.474  1.00  0.00    -0.028 C 
ATOM      8  C   UNL     1      -9.000  30.872  24.616  1.00  0.00    -0.070 CG0
ATOM      9  C   UNL     1      -8.716  30.076  25.865  1.00  0.00     0.039 C 
ATOM     10  G   UNL     1      -9.909  32.078  24.725  1.00  0.00     0.000 G0
ENDBRANCH   6   7
ENDBRANCH   5   6
ENDBRANCH   3   5
ENDBRANCH   1   3
BRANCH   1  11
ATOM     11  C   UNL     1      -7.498  34.236  23.907  1.00  0.00     0.087 C 
BRANCH  11  12
ATOM     12  C   UNL     1      -8.798  34.469  24.710  1.00  0.00     0.066 C 
BRANCH  12  13
ATOM     13  C   UNL     1      -9.212  33.207  25.444  1.00  0.00     0.140 C 
ATOM     14  O   UNL     1      -8.935  33.071  26.627  1.00  0.00    -0.299 OA
BRANCH  13  15
ATOM     15  C   UNL     1      -9.920  32.087  24.730  1.00  0.00     0.106 CG0
ATOM     16  G   UNL     1      -9.013  30.878  24.631  1.00  0.00     0.000 G0
ENDBRANCH  13  15
ENDBRANCH  12  13
BRANCH  12  17
ATOM     17  C   UNL     1      -8.702  35.712  25.646  1.00  0.00    -0.006 C 
ATOM     18  C   UNL     1      -9.155  37.031  24.997  1.00  0.00     0.008 C 
ATOM     19  C   UNL     1      -7.284  35.867  26.217  1.00  0.00     0.008 C 
ENDBRANCH  12  17
ENDBRANCH  11  12
ENDBRANCH   1  11
TORSDOF 1
ENDMDL
MODEL 3
REMARK VINA RESULT:    -4.563      1.691      3.990
REMARK INTER + INTRA:          -7.241
REMARK INTER:                  -7.460
REMARK INTRA:                   0.219
REMARK UNBOUND:                -0.276
REMARK SMILES CC1=CCC[C@H](C)C(=O)C[C@H](C(C)C)C(=O)C1
REMARK SMILES IDX 8 1 9 2 6 3 7 4 5 5 4 6 3 7 2 8 1 9 10 11 11 12 15 13 16 14
REMARK SMILES IDX 17 15 12 17 13 18 14 19
REMARK H PARENT
REMARK Flexibility Score: 70.00
ROOT
ATOM      1  C   UNL     1      -7.972  34.451  24.273  1.00  0.00     0.136 C 
ATOM      2  O   UNL     1      -7.152  34.940  23.511  1.00  0.00    -0.299 OA
ENDROOT
BRANCH   1   3
ATOM      3  C   UNL     1      -8.164  35.035  25.655  1.00  0.00     0.053 C 
ATOM      4  C   UNL     1      -8.855  36.398  25.537  1.00  0.00     0.016 C 
BRANCH   3   5
ATOM      5  C   UNL     1      -8.974  34.105  26.589  1.00  0.00     0.015 C 
BRANCH   5   6
ATOM      6  C   UNL     1      -8.154  32.931  27.160  1.00  0.00     0.028 C 
BRANCH   6   7
ATOM      7  C   UNL     1      -8.891  31.618  27.024  1.00  0.00    -0.028 C 
ATOM      8  C   UNL     1      -8.570  30.598  26.193  1.00  0.00    -0.070 CG0
ATOM      9  C   UNL     1      -9.422  29.354  26.242  1.00  0.00     0.039 C 
ATOM     10  G   UNL     1      -7.455  30.662  25.170  1.00  0.00     0.000 G0
ENDBRANCH   6   7
ENDBRANCH   5   6
ENDBRANCH   3   5
ENDBRANCH   1   3
BRANCH   1  11
ATOM     11  C   UNL     1      -8.767  33.244  23.831  1.00  0.00     0.087 C 
BRANCH  11  12
ATOM     12  C   UNL     1      -7.886  32.207  23.098  1.00  0.00     0.066 C 
BRANCH  12  13
ATOM     13  C   UNL     1      -7.972  30.852  23.775  1.00  0.00     0.140 C 
ATOM     14  O   UNL     1      -8.528  29.922  23.208  1.00  0.00    -0.299 OA
BRANCH  13  15
ATOM     15  C   UNL     1      -7.426  30.636  25.160  1.00  0.00     0.106 CG0
ATOM     16  G   UNL     1      -8.558  30.610  26.166  1.00  0.00     0.000 G0
ENDBRANCH  13  15
ENDBRANCH  12  13
BRANCH  12  17
ATOM     17  C   UNL     1      -8.190  32.144  21.570  1.00  0.00    -0.006 C 
ATOM     18  C   UNL     1      -7.282  33.036  20.706  1.00  0.00     0.008 C 
ATOM     19  C   UNL     1      -9.666  32.464  21.286  1.00  0.00     0.008 C 
ENDBRANCH  12  17
ENDBRANCH  11  12
ENDBRANCH   1  11
TORSDOF 1
ENDMDL
MODEL 4
REMARK VINA RESULT:    -4.539      2.128      4.125
REMARK INTER + INTRA:          -7.204
REMARK INTER:                  -7.139
REMARK INTRA:                  -0.065
REMARK UNBOUND:                -0.276
REMARK SMILES CC1=CCC[C@H](C)C(=O)C[C@H](C(C)C)C(=O)C1
REMARK SMILES IDX 8 1 9 2 6 3 7 4 5 5 4 6 3 7 2 8 1 9 10 11 11 12 15 13 16 14
REMARK SMILES IDX 17 15 12 17 13 18 14 19
REMARK H PARENT
REMARK Flexibility Score: 70.00
ROOT
ATOM      1  C   UNL     1      -9.095  33.234  23.398  1.00  0.00     0.136 C 
ATOM      2  O   UNL     1      -9.706  33.560  22.391  1.00  0.00    -0.299 OA
ENDROOT
BRANCH   1   3
ATOM      3  C   UNL     1      -8.082  34.178  24.008  1.00  0.00     0.053 C 
ATOM      4  C   UNL     1      -7.761  35.292  23.005  1.00  0.00     0.016 C 
BRANCH   3   5
ATOM      5  C   UNL     1      -8.564  34.787  25.345  1.00  0.00     0.015 C 
BRANCH   5   6
ATOM      6  C   UNL     1      -7.835  34.224  26.582  1.00  0.00     0.028 C 
BRANCH   6   7
ATOM      7  C   UNL     1      -8.777  33.463  27.487  1.00  0.00    -0.028 C 
ATOM      8  C   UNL     1      -8.709  32.146  27.795  1.00  0.00    -0.070 CG0
ATOM      9  C   UNL     1      -9.735  31.592  28.751  1.00  0.00     0.039 C 
ATOM     10  G   UNL     1      -7.712  31.187  27.178  1.00  0.00     0.000 G0
ENDBRANCH   6   7
ENDBRANCH   5   6
ENDBRANCH   3   5
ENDBRANCH   1   3
BRANCH   1  11
ATOM     11  C   UNL     1      -9.341  31.873  24.006  1.00  0.00     0.087 C 
BRANCH  11  12
ATOM     12  C   UNL     1      -8.042  31.241  24.557  1.00  0.00     0.066 C 
BRANCH  12  13
ATOM     13  C   UNL     1      -8.290  30.589  25.904  1.00  0.00     0.140 C 
ATOM     14  O   UNL     1      -8.996  29.593  25.979  1.00  0.00    -0.299 OA
BRANCH  13  15
ATOM     15  C   UNL     1      -7.720  31.171  27.169  1.00  0.00     0.106 CG0
ATOM     16  G   UNL     1      -8.708  32.139  27.787  1.00  0.00     0.000 G0
ENDBRANCH  13  15
ENDBRANCH  12  13
BRANCH  12  17
ATOM     17  C   UNL     1      -7.368  30.280  23.531  1.00  0.00    -0.006 C 
ATOM     18  C   UNL     1      -6.595  30.993  22.408  1.00  0.00     0.008 C 
ATOM     19  C   UNL     1      -8.393  29.308  22.927  1.00  0.00     0.008 C 
ENDBRANCH  12  17
ENDBRANCH  11  12
ENDBRANCH   1  11
TORSDOF 1
ENDMDL
MODEL 5
REMARK VINA RESULT:    -4.386      2.114      4.149
REMARK INTER + INTRA:          -6.970
REMARK INTER:                  -7.177
REMARK INTRA:                   0.207
REMARK UNBOUND:                -0.276
REMARK SMILES CC1=CCC[C@H](C)C(=O)C[C@H](C(C)C)C(=O)C1
REMARK SMILES IDX 8 1 9 2 6 3 7 4 5 5 4 6 3 7 2 8 1 9 10 11 11 12 15 13 16 14
REMARK SMILES IDX 17 15 12 17 13 18 14 19
REMARK H PARENT
REMARK Flexibility Score: 70.00
ROOT
ATOM      1  C   UNL     1      -8.365  34.241  25.605  1.00  0.00     0.136 C 
ATOM      2  O   UNL     1      -7.973  35.369  25.868  1.00  0.00    -0.299 OA
ENDROOT
BRANCH   1   3
ATOM      3  C   UNL     1      -8.088  33.102  26.561  1.00  0.00     0.053 C 
ATOM      4  C   UNL     1      -8.609  33.472  27.954  1.00  0.00     0.016 C 
BRANCH   3   5
ATOM      5  C   UNL     1      -8.712  31.767  26.095  1.00  0.00     0.015 C 
BRANCH   5   6
ATOM      6  C   UNL     1      -7.672  30.715  25.658  1.00  0.00     0.028 C 
BRANCH   6   7
ATOM      7  C   UNL     1      -8.228  29.787  24.601  1.00  0.00    -0.028 C 
ATOM      8  C   UNL     1      -8.129  29.944  23.259  1.00  0.00    -0.070 CG0
ATOM      9  C   UNL     1      -8.727  28.877  22.378  1.00  0.00     0.039 C 
ATOM     10  G   UNL     1      -7.520  31.163  22.596  1.00  0.00     0.000 G0
ENDBRANCH   6   7
ENDBRANCH   5   6
ENDBRANCH   3   5
ENDBRANCH   1   3
BRANCH   1  11
ATOM     11  C   UNL     1      -9.099  33.995  24.307  1.00  0.00     0.087 C 
BRANCH  11  12
ATOM     12  C   UNL     1      -8.132  33.654  23.151  1.00  0.00     0.066 C 
BRANCH  12  13
ATOM     13  C   UNL     1      -8.479  32.310  22.538  1.00  0.00     0.140 C 
ATOM     14  O   UNL     1      -9.580  32.135  22.035  1.00  0.00    -0.299 OA
BRANCH  13  15
ATOM     15  C   UNL     1      -7.508  31.162  22.576  1.00  0.00     0.106 CG0
ATOM     16  G   UNL     1      -8.144  29.965  23.252  1.00  0.00     0.000 G0
ENDBRANCH  13  15
ENDBRANCH  12  13
BRANCH  12  17
ATOM     17  C   UNL     1      -8.042  34.798  22.096  1.00  0.00    -0.006 C 
ATOM     18  C   UNL     1      -7.558  34.343  20.708  1.00  0.00     0.008 C 
ATOM     19  C   UNL     1      -7.165  35.953  22.606  1.00  0.00     0.008 C 
ENDBRANCH  12  17
ENDBRANCH  11  12
ENDBRANCH   1  11
TORSDOF 1
ENDMDL
MODEL 6
REMARK VINA RESULT:    -4.354      1.438      3.732
REMARK INTER + INTRA:          -6.921
REMARK INTER:                  -7.542
REMARK INTRA:                   0.621
REMARK UNBOUND:                -0.276
REMARK SMILES CC1=CCC[C@H](C)C(=O)C[C@H](C(C)C)C(=O)C1
REMARK SMILES IDX 8 1 9 2 6 3 7 4 5 5 4 6 3 7 2 8 1 9 10 11 11 12 15 13 16 14
REMARK SMILES IDX 17 15 12 17 13 18 14 19
REMARK H PARENT
REMARK Flexibility Score: 70.00
ROOT
ATOM      1  C   UNL     1      -7.441  31.162  22.990  1.00  0.00     0.136 C 
ATOM      2  O   UNL     1      -6.307  30.841  23.313  1.00  0.00    -0.299 OA
ENDROOT
BRANCH   1   3
ATOM      3  C   UNL     1      -7.676  31.914  21.698  1.00  0.00     0.053 C 
ATOM      4  C   UNL     1      -8.909  31.337  20.993  1.00  0.00     0.016 C 
BRANCH   3   5
ATOM      5  C   UNL     1      -7.848  33.435  21.916  1.00  0.00     0.015 C 
BRANCH   5   6
ATOM      6  C   UNL     1      -7.062  33.982  23.124  1.00  0.00     0.028 C 
BRANCH   6   7
ATOM      7  C   UNL     1      -7.752  35.175  23.745  1.00  0.00    -0.028 C 
ATOM      8  C   UNL     1      -8.292  35.236  24.986  1.00  0.00    -0.070 CG0
ATOM      9  C   UNL     1      -8.906  36.542  25.424  1.00  0.00     0.039 C 
ATOM     10  G   UNL     1      -8.382  34.052  25.925  1.00  0.00     0.000 G0
ENDBRANCH   6   7
ENDBRANCH   5   6
ENDBRANCH   3   5
ENDBRANCH   1   3
BRANCH   1  11
ATOM     11  C   UNL     1      -8.595  30.827  23.905  1.00  0.00     0.087 C 
BRANCH  11  12
ATOM     12  C   UNL     1      -8.456  31.506  25.286  1.00  0.00     0.066 C 
BRANCH  12  13
ATOM     13  C   UNL     1      -9.069  32.894  25.268  1.00  0.00     0.140 C 
ATOM     14  O   UNL     1     -10.119  33.089  24.672  1.00  0.00    -0.299 OA
BRANCH  13  15
ATOM     15  C   UNL     1      -8.383  34.058  25.932  1.00  0.00     0.106 CG0
ATOM     16  G   UNL     1      -8.312  35.232  24.978  1.00  0.00     0.000 G0
ENDBRANCH  13  15
ENDBRANCH  12  13
BRANCH  12  17
ATOM     17  C   UNL     1      -9.002  30.616  26.443  1.00  0.00    -0.006 C 
ATOM     18  C   UNL     1      -7.937  30.178  27.463  1.00  0.00     0.008 C 
ATOM     19  C   UNL     1      -9.741  29.386  25.894  1.00  0.00     0.008 C 
ENDBRANCH  12  17
ENDBRANCH  11  12
ENDBRANCH   1  11
TORSDOF 1
ENDMDL
MODEL 7
REMARK VINA RESULT:    -4.190      2.052      5.255
REMARK INTER + INTRA:          -6.671
REMARK INTER:                  -6.727
REMARK INTRA:                   0.056
REMARK UNBOUND:                -0.276
REMARK SMILES CC1=CCC[C@H](C)C(=O)C[C@H](C(C)C)C(=O)C1
REMARK SMILES IDX 8 1 9 2 6 3 7 4 5 5 4 6 3 7 2 8 1 9 10 11 11 12 15 13 16 14
REMARK SMILES IDX 17 15 12 17 13 18 14 19
REMARK H PARENT
REMARK Flexibility Score: 70.00
ROOT
ATOM      1  C   UNL     1      -8.837  33.942  24.261  1.00  0.00     0.136 C 
ATOM      2  O   UNL     1     -10.046  33.775  24.184  1.00  0.00    -0.299 OA
ENDROOT
BRANCH   1   3
ATOM      3  C   UNL     1      -8.199  35.156  23.623  1.00  0.00     0.053 C 
ATOM      4  C   UNL     1      -6.691  35.136  23.894  1.00  0.00     0.016 C 
BRANCH   3   5
ATOM      5  C   UNL     1      -8.468  35.241  22.103  1.00  0.00     0.015 C 
BRANCH   5   6
ATOM      6  C   UNL     1      -7.564  34.319  21.260  1.00  0.00     0.028 C 
BRANCH   6   7
ATOM      7  C   UNL     1      -8.283  33.053  20.853  1.00  0.00    -0.028 C 
ATOM      8  C   UNL     1      -8.168  31.838  21.439  1.00  0.00    -0.070 CG0
ATOM      9  C   UNL     1      -9.007  30.710  20.894  1.00  0.00     0.039 C 
ATOM     10  G   UNL     1      -7.192  31.530  22.556  1.00  0.00     0.000 G0
ENDBRANCH   6   7
ENDBRANCH   5   6
ENDBRANCH   3   5
ENDBRANCH   1   3
BRANCH   1  11
ATOM     11  C   UNL     1      -7.991  32.911  24.971  1.00  0.00     0.087 C 
BRANCH  11  12
ATOM     12  C   UNL     1      -8.562  31.484  24.814  1.00  0.00     0.066 C 
BRANCH  12  13
ATOM     13  C   UNL     1      -7.893  30.760  23.661  1.00  0.00     0.140 C 
ATOM     14  O   UNL     1      -7.885  29.537  23.631  1.00  0.00    -0.299 OA
BRANCH  13  15
ATOM     15  C   UNL     1      -7.191  31.517  22.567  1.00  0.00     0.106 CG0
ATOM     16  G   UNL     1      -8.157  31.816  21.439  1.00  0.00     0.000 G0
ENDBRANCH  13  15
ENDBRANCH  12  13
BRANCH  12  17
ATOM     17  C   UNL     1      -8.517  30.677  26.146  1.00  0.00    -0.006 C 
ATOM     18  C   UNL     1      -9.790  29.862  26.437  1.00  0.00     0.008 C 
ATOM     19  C   UNL     1      -8.196  31.592  27.338  1.00  0.00     0.008 C 
ENDBRANCH  12  17
ENDBRANCH  11  12
ENDBRANCH   1  11
TORSDOF 1
ENDMDL
MODEL 8
REMARK VINA RESULT:    -4.102      2.080      4.607
REMARK INTER + INTRA:          -6.537
REMARK INTER:                  -7.231
REMARK INTRA:                   0.694
REMARK UNBOUND:                -0.276
REMARK SMILES CC1=CCC[C@H](C)C(=O)C[C@H](C(C)C)C(=O)C1
REMARK SMILES IDX 8 1 9 2 6 3 7 4 5 5 4 6 3 7 2 8 1 9 10 11 11 12 15 13 16 14
REMARK SMILES IDX 17 15 12 17 13 18 14 19
REMARK H PARENT
REMARK Flexibility Score: 70.00
ROOT
ATOM      1  C   UNL     1      -9.182  33.522  25.476  1.00  0.00     0.136 C 
ATOM      2  O   UNL     1      -8.921  32.903  26.498  1.00  0.00    -0.299 OA
ENDROOT
BRANCH   1   3
ATOM      3  C   UNL     1      -8.678  34.937  25.299  1.00  0.00     0.053 C 
ATOM      4  C   UNL     1      -8.314  35.520  26.669  1.00  0.00     0.016 C 
BRANCH   3   5
ATOM      5  C   UNL     1      -7.465  35.023  24.343  1.00  0.00     0.015 C 
BRANCH   5   6
ATOM      6  C   UNL     1      -7.778  35.724  23.006  1.00  0.00     0.028 C 
BRANCH   6   7
ATOM      7  C   UNL     1      -7.297  34.911  21.825  1.00  0.00    -0.028 C 
ATOM      8  C   UNL     1      -7.983  33.931  21.190  1.00  0.00    -0.070 CG0
ATOM      9  C   UNL     1      -7.328  33.268  20.004  1.00  0.00     0.039 C 
ATOM     10  G   UNL     1      -9.331  33.414  21.646  1.00  0.00     0.000 G0
ENDBRANCH   6   7
ENDBRANCH   5   6
ENDBRANCH   3   5
ENDBRANCH   1   3
BRANCH   1  11
ATOM     11  C   UNL     1     -10.033  32.869  24.412  1.00  0.00     0.087 C 
BRANCH  11  12
ATOM     12  C   UNL     1      -9.277  31.740  23.677  1.00  0.00     0.066 C 
BRANCH  12  13
ATOM     13  C   UNL     1      -9.204  32.020  22.188  1.00  0.00     0.140 C 
ATOM     14  O   UNL     1      -8.995  31.104  21.404  1.00  0.00    -0.299 OA
BRANCH  13  15
ATOM     15  C   UNL     1      -9.337  33.419  21.650  1.00  0.00     0.106 CG0
ATOM     16  G   UNL     1      -7.990  33.923  21.174  1.00  0.00     0.000 G0
ENDBRANCH  13  15
ENDBRANCH  12  13
BRANCH  12  17
ATOM     17  C   UNL     1      -7.883  31.449  24.310  1.00  0.00    -0.006 C 
ATOM     18  C   UNL     1      -6.711  31.506  23.315  1.00  0.00     0.008 C 
ATOM     19  C   UNL     1      -7.880  30.102  25.049  1.00  0.00     0.008 C 
ENDBRANCH  12  17
ENDBRANCH  11  12
ENDBRANCH   1  11
TORSDOF 1
ENDMDL
MODEL 9
REMARK VINA RESULT:    -3.786      1.816      2.779
REMARK INTER + INTRA:          -6.054
REMARK INTER:                  -6.918
REMARK INTRA:                   0.864
REMARK UNBOUND:                -0.276
REMARK SMILES CC1=CCC[C@H](C)C(=O)C[C@H](C(C)C)C(=O)C1
REMARK SMILES IDX 8 1 9 2 6 3 7 4 5 5 4 6 3 7 2 8 1 9 10 11 11 12 15 13 16 14
REMARK SMILES IDX 17 15 12 17 13 18 14 19
REMARK H PARENT
REMARK Flexibility Score: 70.00
ROOT
ATOM      1  C   UNL     1      -9.642  30.374  25.536  1.00  0.00     0.136 C 
ATOM      2  O   UNL     1      -9.805  29.195  25.258  1.00  0.00    -0.299 OA
ENDROOT
BRANCH   1   3
ATOM      3  C   UNL     1      -9.055  30.762  26.875  1.00  0.00     0.053 C 
ATOM      4  C   UNL     1      -7.526  30.708  26.792  1.00  0.00     0.016 C 
BRANCH   3   5
ATOM      5  C   UNL     1      -9.516  32.161  27.345  1.00  0.00     0.015 C 
BRANCH   5   6
ATOM      6  C   UNL     1      -8.365  33.177  27.491  1.00  0.00     0.028 C 
BRANCH   6   7
ATOM      7  C   UNL     1      -8.548  34.364  26.571  1.00  0.00    -0.028 C 
ATOM      8  C   UNL     1      -8.231  34.419  25.256  1.00  0.00    -0.070 CG0
ATOM      9  C   UNL     1      -8.531  35.696  24.512  1.00  0.00     0.039 C 
ATOM     10  G   UNL     1      -7.528  33.303  24.511  1.00  0.00     0.000 G0
ENDBRANCH   6   7
ENDBRANCH   5   6
ENDBRANCH   3   5
ENDBRANCH   1   3
BRANCH   1  11
ATOM     11  C   UNL     1     -10.059  31.433  24.542  1.00  0.00     0.087 C 
BRANCH  11  12
ATOM     12  C   UNL     1      -9.085  31.521  23.346  1.00  0.00     0.066 C 
BRANCH  12  13
ATOM     13  C   UNL     1      -8.373  32.860  23.328  1.00  0.00     0.140 C 
ATOM     14  O   UNL     1      -8.447  33.577  22.340  1.00  0.00    -0.299 OA
BRANCH  13  15
ATOM     15  C   UNL     1      -7.531  33.311  24.491  1.00  0.00     0.106 CG0
ATOM     16  G   UNL     1      -8.234  34.424  25.240  1.00  0.00     0.000 G0
ENDBRANCH  13  15
ENDBRANCH  12  13
BRANCH  12  17
ATOM     17  C   UNL     1      -8.104  30.311  23.289  1.00  0.00    -0.006 C 
ATOM     18  C   UNL     1      -6.622  30.701  23.154  1.00  0.00     0.008 C 
ATOM     19  C   UNL     1      -8.494  29.334  22.168  1.00  0.00     0.008 C 
ENDBRANCH  12  17
ENDBRANCH  11  12
ENDBRANCH   1  11
TORSDOF 1
ENDMDL
