MODEL 1
REMARK VINA RESULT:    -5.611      0.000      0.000
REMARK INTER + INTRA:          -8.589
REMARK INTER:                  -7.580
REMARK INTRA:                  -1.010
REMARK UNBOUND:                -1.010
REMARK SMILES CC(=O)CCC=C(C)CCC=C(C)C
REMARK SMILES IDX 7 1 6 2 8 3 9 4 10 5 11 6 13 7 12 8 14 9 5 10 4 11 2 12 3 13
REMARK SMILES IDX 1 14
REMARK H PARENT
REMARK Flexibility Score: inf
ROOT
ATOM      1  C   UNL     1     -11.951 -18.251  30.689  1.00  0.00    -0.077 C 
ATOM      2  C   UNL     1     -12.489 -17.391  31.583  1.00  0.00    -0.028 C 
ATOM      3  C   UNL     1     -12.581 -19.593  30.395  1.00  0.00     0.039 C 
ENDROOT
BRANCH   1   4
ATOM      4  C   UNL     1     -10.679 -17.861  29.970  1.00  0.00     0.034 C 
BRANCH   4   5
ATOM      5  C   UNL     1     -10.883 -16.578  29.156  1.00  0.00     0.032 C 
BRANCH   5   6
ATOM      6  C   UNL     1     -11.849 -16.811  28.021  1.00  0.00    -0.028 C 
ATOM      7  C   UNL     1     -13.463 -15.074  28.829  1.00  0.00     0.039 C 
ATOM      8  C   UNL     1     -13.028 -16.165  27.881  1.00  0.00    -0.080 C 
ATOM      9  C   UNL     1     -13.930 -16.494  26.720  1.00  0.00     0.039 C 
ENDBRANCH   5   6
ENDBRANCH   4   5
ENDBRANCH   1   4
BRANCH   2  10
ATOM     10  C   UNL     1     -13.771 -17.633  32.339  1.00  0.00     0.035 C 
BRANCH  10  11
ATOM     11  C   UNL     1     -14.041 -16.497  33.329  1.00  0.00     0.079 C 
BRANCH  11  12
ATOM     12  C   UNL     1     -15.267 -15.720  32.926  1.00  0.00     0.130 C 
ATOM     13  O   UNL     1     -16.354 -16.034  33.385  1.00  0.00    -0.300 OA
ATOM     14  C   UNL     1     -15.185 -14.573  31.962  1.00  0.00     0.087 C 
ENDBRANCH  11  12
ENDBRANCH  10  11
ENDBRANCH   2  10
TORSDOF 6
ENDMDL
MODEL 2
REMARK VINA RESULT:    -5.608      2.134      4.415
REMARK INTER + INTRA:          -8.585
REMARK INTER:                  -7.377
REMARK INTRA:                  -1.208
REMARK UNBOUND:                -1.010
REMARK SMILES CC(=O)CCC=C(C)CCC=C(C)C
REMARK SMILES IDX 7 1 6 2 8 3 9 4 10 5 11 6 13 7 12 8 14 9 5 10 4 11 2 12 3 13
REMARK SMILES IDX 1 14
REMARK H PARENT
REMARK Flexibility Score: inf
ROOT
ATOM      1  C   UNL     1     -12.951 -19.417  29.522  1.00  0.00    -0.077 C 
ATOM      2  C   UNL     1     -11.922 -18.598  29.207  1.00  0.00    -0.028 C 
ATOM      3  C   UNL     1     -14.183 -19.519  28.652  1.00  0.00     0.039 C 
ENDROOT
BRANCH   1   4
ATOM      4  C   UNL     1     -12.868 -20.246  30.784  1.00  0.00     0.034 C 
BRANCH   4   5
ATOM      5  C   UNL     1     -12.636 -19.355  32.009  1.00  0.00     0.032 C 
BRANCH   5   6
ATOM      6  C   UNL     1     -13.630 -18.221  32.044  1.00  0.00    -0.028 C 
ATOM      7  C   UNL     1     -11.860 -16.467  32.299  1.00  0.00     0.039 C 
ATOM      8  C   UNL     1     -13.296 -16.921  32.207  1.00  0.00    -0.080 C 
ATOM      9  C   UNL     1     -14.375 -15.870  32.251  1.00  0.00     0.039 C 
ENDBRANCH   5   6
ENDBRANCH   4   5
ENDBRANCH   1   4
BRANCH   2  10
ATOM     10  C   UNL     1     -11.854 -17.748  27.964  1.00  0.00     0.035 C 
BRANCH  10  11
ATOM     11  C   UNL     1     -12.020 -16.265  28.310  1.00  0.00     0.079 C 
BRANCH  11  12
ATOM     12  C   UNL     1     -13.407 -15.790  27.965  1.00  0.00     0.130 C 
ATOM     13  O   UNL     1     -14.034 -16.356  27.083  1.00  0.00    -0.300 OA
ATOM     14  C   UNL     1     -14.033 -14.625  28.674  1.00  0.00     0.087 C 
ENDBRANCH  11  12
ENDBRANCH  10  11
ENDBRANCH   2  10
TORSDOF 6
ENDMDL
MODEL 3
REMARK VINA RESULT:    -5.529      2.314      5.220
REMARK INTER + INTRA:          -8.477
REMARK INTER:                  -7.473
REMARK INTRA:                  -1.004
REMARK UNBOUND:                -1.010
REMARK SMILES CC(=O)CCC=C(C)CCC=C(C)C
REMARK SMILES IDX 7 1 6 2 8 3 9 4 10 5 11 6 13 7 12 8 14 9 5 10 4 11 2 12 3 13
REMARK SMILES IDX 1 14
REMARK H PARENT
REMARK Flexibility Score: inf
ROOT
ATOM      1  C   UNL     1     -13.169 -15.667  30.445  1.00  0.00    -0.077 C 
ATOM      2  C   UNL     1     -11.840 -15.915  30.479  1.00  0.00    -0.028 C 
ATOM      3  C   UNL     1     -13.872 -15.265  29.169  1.00  0.00     0.039 C 
ENDROOT
BRANCH   1   4
ATOM      4  C   UNL     1     -13.971 -15.789  31.722  1.00  0.00     0.034 C 
BRANCH   4   5
ATOM      5  C   UNL     1     -13.388 -16.877  32.631  1.00  0.00     0.032 C 
BRANCH   5   6
ATOM      6  C   UNL     1     -13.573 -18.243  32.019  1.00  0.00    -0.028 C 
ATOM      7  C   UNL     1     -11.141 -18.823  32.191  1.00  0.00     0.039 C 
ATOM      8  C   UNL     1     -12.566 -19.115  31.786  1.00  0.00    -0.080 C 
ATOM      9  C   UNL     1     -12.861 -20.446  31.145  1.00  0.00     0.039 C 
ENDBRANCH   5   6
ENDBRANCH   4   5
ENDBRANCH   1   4
BRANCH   2  10
ATOM     10  C   UNL     1     -10.930 -15.870  29.278  1.00  0.00     0.035 C 
BRANCH  10  11
ATOM     11  C   UNL     1     -10.631 -17.283  28.770  1.00  0.00     0.079 C 
BRANCH  11  12
ATOM     12  C   UNL     1     -11.642 -17.702  27.735  1.00  0.00     0.130 C 
ATOM     13  O   UNL     1     -12.587 -18.400  28.068  1.00  0.00    -0.300 OA
ATOM     14  C   UNL     1     -11.508 -17.291  26.299  1.00  0.00     0.087 C 
ENDBRANCH  11  12
ENDBRANCH  10  11
ENDBRANCH   2  10
TORSDOF 6
ENDMDL
MODEL 4
REMARK VINA RESULT:    -5.493      2.323      4.652
REMARK INTER + INTRA:          -8.429
REMARK INTER:                  -7.324
REMARK INTRA:                  -1.105
REMARK UNBOUND:                -1.010
REMARK SMILES CC(=O)CCC=C(C)CCC=C(C)C
REMARK SMILES IDX 7 1 6 2 8 3 9 4 10 5 11 6 13 7 12 8 14 9 5 10 4 11 2 12 3 13
REMARK SMILES IDX 1 14
REMARK H PARENT
REMARK Flexibility Score: inf
ROOT
ATOM      1  C   UNL     1     -12.105 -18.614  31.270  1.00  0.00    -0.077 C 
ATOM      2  C   UNL     1     -11.896 -18.152  30.016  1.00  0.00    -0.028 C 
ATOM      3  C   UNL     1     -13.047 -19.762  31.550  1.00  0.00     0.039 C 
ENDROOT
BRANCH   1   4
ATOM      4  C   UNL     1     -11.381 -17.955  32.423  1.00  0.00     0.034 C 
BRANCH   4   5
ATOM      5  C   UNL     1     -11.752 -16.471  32.525  1.00  0.00     0.032 C 
BRANCH   5   6
ATOM      6  C   UNL     1     -13.137 -16.303  33.098  1.00  0.00    -0.028 C 
ATOM      7  C   UNL     1     -14.077 -15.376  30.968  1.00  0.00     0.039 C 
ATOM      8  C   UNL     1     -14.183 -15.781  32.418  1.00  0.00    -0.080 C 
ATOM      9  C   UNL     1     -15.520 -15.636  33.097  1.00  0.00     0.039 C 
ENDBRANCH   5   6
ENDBRANCH   4   5
ENDBRANCH   1   4
BRANCH   2  10
ATOM     10  C   UNL     1     -12.519 -18.737  28.774  1.00  0.00     0.035 C 
BRANCH  10  11
ATOM     11  C   UNL     1     -13.668 -17.856  28.275  1.00  0.00     0.079 C 
BRANCH  11  12
ATOM     12  C   UNL     1     -13.211 -16.976  27.141  1.00  0.00     0.130 C 
ATOM     13  O   UNL     1     -13.936 -16.074  26.751  1.00  0.00    -0.300 OA
ATOM     14  C   UNL     1     -11.887 -17.191  26.469  1.00  0.00     0.087 C 
ENDBRANCH  11  12
ENDBRANCH  10  11
ENDBRANCH   2  10
TORSDOF 6
ENDMDL
MODEL 5
REMARK VINA RESULT:    -5.480      1.547      3.116
REMARK INTER + INTRA:          -8.413
REMARK INTER:                  -7.608
REMARK INTRA:                  -0.804
REMARK UNBOUND:                -1.010
REMARK SMILES CC(=O)CCC=C(C)CCC=C(C)C
REMARK SMILES IDX 7 1 6 2 8 3 9 4 10 5 11 6 13 7 12 8 14 9 5 10 4 11 2 12 3 13
REMARK SMILES IDX 1 14
REMARK H PARENT
REMARK Flexibility Score: inf
ROOT
ATOM      1  C   UNL     1     -13.104 -15.478  29.377  1.00  0.00    -0.077 C 
ATOM      2  C   UNL     1     -13.474 -15.595  30.673  1.00  0.00    -0.028 C 
ATOM      3  C   UNL     1     -13.976 -14.780  28.359  1.00  0.00     0.039 C 
ENDROOT
BRANCH   1   4
ATOM      4  C   UNL     1     -11.784 -16.070  28.936  1.00  0.00     0.034 C 
BRANCH   4   5
ATOM      5  C   UNL     1     -11.617 -17.496  29.475  1.00  0.00     0.032 C 
BRANCH   5   6
ATOM      6  C   UNL     1     -12.591 -18.437  28.812  1.00  0.00    -0.028 C 
ATOM      7  C   UNL     1     -13.326 -19.454  30.981  1.00  0.00     0.039 C 
ATOM      8  C   UNL     1     -13.342 -19.345  29.476  1.00  0.00    -0.080 C 
ATOM      9  C   UNL     1     -14.268 -20.255  28.710  1.00  0.00     0.039 C 
ENDBRANCH   5   6
ENDBRANCH   4   5
ENDBRANCH   1   4
BRANCH   2  10
ATOM     10  C   UNL     1     -14.740 -15.020  31.256  1.00  0.00     0.035 C 
BRANCH  10  11
ATOM     11  C   UNL     1     -14.694 -15.048  32.787  1.00  0.00     0.079 C 
BRANCH  11  12
ATOM     12  C   UNL     1     -15.363 -16.288  33.317  1.00  0.00     0.130 C 
ATOM     13  O   UNL     1     -14.732 -17.331  33.380  1.00  0.00    -0.300 OA
ATOM     14  C   UNL     1     -16.797 -16.275  33.759  1.00  0.00     0.087 C 
ENDBRANCH  11  12
ENDBRANCH  10  11
ENDBRANCH   2  10
TORSDOF 6
ENDMDL
MODEL 6
REMARK VINA RESULT:    -5.274      1.798      4.261
REMARK INTER + INTRA:          -8.133
REMARK INTER:                  -6.811
REMARK INTRA:                  -1.322
REMARK UNBOUND:                -1.010
REMARK SMILES CC(=O)CCC=C(C)CCC=C(C)C
REMARK SMILES IDX 7 1 6 2 8 3 9 4 10 5 11 6 13 7 12 8 14 9 5 10 4 11 2 12 3 13
REMARK SMILES IDX 1 14
REMARK H PARENT
REMARK Flexibility Score: inf
ROOT
ATOM      1  C   UNL     1     -13.018 -17.313  28.007  1.00  0.00    -0.077 C 
ATOM      2  C   UNL     1     -13.835 -18.313  28.408  1.00  0.00    -0.028 C 
ATOM      3  C   UNL     1     -11.540 -17.534  27.779  1.00  0.00     0.039 C 
ENDROOT
BRANCH   1   4
ATOM      4  C   UNL     1     -13.600 -15.934  27.788  1.00  0.00     0.034 C 
BRANCH   4   5
ATOM      5  C   UNL     1     -13.213 -14.990  28.932  1.00  0.00     0.032 C 
BRANCH   5   6
ATOM      6  C   UNL     1     -14.066 -15.246  30.150  1.00  0.00    -0.028 C 
ATOM      7  C   UNL     1     -12.155 -16.154  31.492  1.00  0.00     0.039 C 
ATOM      8  C   UNL     1     -13.609 -15.800  31.296  1.00  0.00    -0.080 C 
ATOM      9  C   UNL     1     -14.555 -16.035  32.444  1.00  0.00     0.039 C 
ENDBRANCH   5   6
ENDBRANCH   4   5
ENDBRANCH   1   4
BRANCH   2  10
ATOM     10  C   UNL     1     -13.398 -19.740  28.626  1.00  0.00     0.035 C 
BRANCH  10  11
ATOM     11  C   UNL     1     -13.883 -20.255  29.984  1.00  0.00     0.079 C 
BRANCH  11  12
ATOM     12  C   UNL     1     -13.028 -19.710  31.097  1.00  0.00     0.130 C 
ATOM     13  O   UNL     1     -13.553 -19.375  32.148  1.00  0.00    -0.300 OA
ATOM     14  C   UNL     1     -11.544 -19.555  30.940  1.00  0.00     0.087 C 
ENDBRANCH  11  12
ENDBRANCH  10  11
ENDBRANCH   2  10
TORSDOF 6
ENDMDL
MODEL 7
REMARK VINA RESULT:    -5.258      2.399      4.726
REMARK INTER + INTRA:          -8.112
REMARK INTER:                  -6.776
REMARK INTRA:                  -1.337
REMARK UNBOUND:                -1.010
REMARK SMILES CC(=O)CCC=C(C)CCC=C(C)C
REMARK SMILES IDX 7 1 6 2 8 3 9 4 10 5 11 6 13 7 12 8 14 9 5 10 4 11 2 12 3 13
REMARK SMILES IDX 1 14
REMARK H PARENT
REMARK Flexibility Score: inf
ROOT
ATOM      1  C   UNL     1     -10.195 -16.190  30.644  1.00  0.00    -0.077 C 
ATOM      2  C   UNL     1     -10.683 -17.349  30.148  1.00  0.00    -0.028 C 
ATOM      3  C   UNL     1      -9.881 -15.011  29.751  1.00  0.00     0.039 C 
ENDROOT
BRANCH   1   4
ATOM      4  C   UNL     1      -9.948 -16.075  32.131  1.00  0.00     0.034 C 
BRANCH   4   5
ATOM      5  C   UNL     1     -10.981 -16.887  32.921  1.00  0.00     0.032 C 
BRANCH   5   6
ATOM      6  C   UNL     1     -12.285 -16.138  33.027  1.00  0.00    -0.028 C 
ATOM      7  C   UNL     1     -13.619 -17.999  32.009  1.00  0.00     0.039 C 
ATOM      8  C   UNL     1     -13.474 -16.614  32.590  1.00  0.00    -0.080 C 
ATOM      9  C   UNL     1     -14.714 -15.769  32.724  1.00  0.00     0.039 C 
ENDBRANCH   5   6
ENDBRANCH   4   5
ENDBRANCH   1   4
BRANCH   2  10
ATOM     10  C   UNL     1     -11.012 -17.588  28.696  1.00  0.00     0.035 C 
BRANCH  10  11
ATOM     11  C   UNL     1     -12.517 -17.796  28.507  1.00  0.00     0.079 C 
BRANCH  11  12
ATOM     12  C   UNL     1     -13.159 -16.556  27.943  1.00  0.00     0.130 C 
ATOM     13  O   UNL     1     -13.410 -16.500  26.749  1.00  0.00    -0.300 OA
ATOM     14  C   UNL     1     -13.488 -15.380  28.814  1.00  0.00     0.087 C 
ENDBRANCH  11  12
ENDBRANCH  10  11
ENDBRANCH   2  10
TORSDOF 6
ENDMDL
MODEL 8
REMARK VINA RESULT:    -5.214      2.266      3.946
REMARK INTER + INTRA:          -8.052
REMARK INTER:                  -6.866
REMARK INTRA:                  -1.186
REMARK UNBOUND:                -1.010
REMARK SMILES CC(=O)CCC=C(C)CCC=C(C)C
REMARK SMILES IDX 7 1 6 2 8 3 9 4 10 5 11 6 13 7 12 8 14 9 5 10 4 11 2 12 3 13
REMARK SMILES IDX 1 14
REMARK H PARENT
REMARK Flexibility Score: inf
ROOT
ATOM      1  C   UNL     1     -13.117 -17.333  32.201  1.00  0.00    -0.077 C 
ATOM      2  C   UNL     1     -13.535 -18.605  32.011  1.00  0.00    -0.028 C 
ATOM      3  C   UNL     1     -11.674 -17.005  32.507  1.00  0.00     0.039 C 
ENDROOT
BRANCH   1   4
ATOM      4  C   UNL     1     -14.126 -16.210  32.113  1.00  0.00     0.034 C 
BRANCH   4   5
ATOM      5  C   UNL     1     -13.712 -15.186  31.050  1.00  0.00     0.032 C 
BRANCH   5   6
ATOM      6  C   UNL     1     -13.941 -15.732  29.662  1.00  0.00    -0.028 C 
ATOM      7  C   UNL     1     -11.507 -15.684  29.072  1.00  0.00     0.039 C 
ATOM      8  C   UNL     1     -12.961 -15.930  28.752  1.00  0.00    -0.080 C 
ATOM      9  C   UNL     1     -13.305 -16.458  27.384  1.00  0.00     0.039 C 
ENDBRANCH   5   6
ENDBRANCH   4   5
ENDBRANCH   1   4
BRANCH   2  10
ATOM     10  C   UNL     1     -12.633 -19.814  32.031  1.00  0.00     0.035 C 
BRANCH  10  11
ATOM     11  C   UNL     1     -12.907 -20.715  30.823  1.00  0.00     0.079 C 
BRANCH  11  12
ATOM     12  C   UNL     1     -12.977 -19.902  29.557  1.00  0.00     0.130 C 
ATOM     13  O   UNL     1     -12.029 -19.200  29.241  1.00  0.00    -0.300 OA
ATOM     14  C   UNL     1     -14.193 -19.926  28.679  1.00  0.00     0.087 C 
ENDBRANCH  11  12
ENDBRANCH  10  11
ENDBRANCH   2  10
TORSDOF 6
ENDMDL
MODEL 9
REMARK VINA RESULT:    -5.101      2.521      3.320
REMARK INTER + INTRA:          -7.900
REMARK INTER:                  -6.629
REMARK INTRA:                  -1.271
REMARK UNBOUND:                -1.010
REMARK SMILES CC(=O)CCC=C(C)CCC=C(C)C
REMARK SMILES IDX 7 1 6 2 8 3 9 4 10 5 11 6 13 7 12 8 14 9 5 10 4 11 2 12 3 13
REMARK SMILES IDX 1 14
REMARK H PARENT
REMARK Flexibility Score: inf
ROOT
ATOM      1  C   UNL     1     -10.656 -17.056  31.349  1.00  0.00    -0.077 C 
ATOM      2  C   UNL     1     -11.860 -16.993  31.962  1.00  0.00    -0.028 C 
ATOM      3  C   UNL     1      -9.985 -18.376  31.044  1.00  0.00     0.039 C 
ENDROOT
BRANCH   1   4
ATOM      4  C   UNL     1      -9.960 -15.770  30.966  1.00  0.00     0.034 C 
BRANCH   4   5
ATOM      5  C   UNL     1     -10.117 -15.488  29.467  1.00  0.00     0.032 C 
BRANCH   5   6
ATOM      6  C   UNL     1     -11.567 -15.553  29.059  1.00  0.00    -0.028 C 
ATOM      7  C   UNL     1     -11.223 -17.540  27.571  1.00  0.00     0.039 C 
ATOM      8  C   UNL     1     -12.071 -16.451  28.181  1.00  0.00    -0.080 C 
ATOM      9  C   UNL     1     -13.535 -16.410  27.825  1.00  0.00     0.039 C 
ENDBRANCH   5   6
ENDBRANCH   4   5
ENDBRANCH   1   4
BRANCH   2  10
ATOM     10  C   UNL     1     -12.681 -18.193  32.362  1.00  0.00     0.035 C 
BRANCH  10  11
ATOM     11  C   UNL     1     -13.701 -18.540  31.273  1.00  0.00     0.079 C 
BRANCH  11  12
ATOM     12  C   UNL     1     -13.345 -19.844  30.607  1.00  0.00     0.130 C 
ATOM     13  O   UNL     1     -12.818 -20.729  31.262  1.00  0.00    -0.300 OA
ATOM     14  C   UNL     1     -13.614 -20.075  29.149  1.00  0.00     0.087 C 
ENDBRANCH  11  12
ENDBRANCH  10  11
ENDBRANCH   2  10
TORSDOF 6
ENDMDL
