MODEL 1
REMARK VINA RESULT:    -2.574      0.000      0.000
REMARK INTER + INTRA:          -3.309
REMARK INTER:                  -3.251
REMARK INTRA:                  -0.058
REMARK UNBOUND:                -0.058
REMARK SMILES CSCC[C@@H]([NH3+])C(=O)[O-]
REMARK SMILES IDX 4 1 5 2 6 3 7 7 8 8 9 9 3 10 2 11 1 12
REMARK H PARENT 6 4 6 5 6 6
REMARK Flexibility Score: inf
ROOT
ATOM      1  C   UNL     1      19.593  -4.990   3.874  1.00  0.00     0.082 C 
ENDROOT
BRANCH   1   2
ATOM      2  C   UNL     1      19.284  -6.442   3.452  1.00  0.00     0.228 C 
BRANCH   2   3
ATOM      3  N   UNL     1      18.533  -6.462   2.190  1.00  0.00    -0.350 N 
ATOM      4  H   UNL     1      18.688  -7.374   1.700  1.00  0.00     0.345 HD
ATOM      5  H   UNL     1      18.869  -5.695   1.564  1.00  0.00     0.345 HD
ATOM      6  H   UNL     1      17.510  -6.340   2.367  1.00  0.00     0.345 HD
ENDBRANCH   2   3
BRANCH   2   7
ATOM      7  C   UNL     1      20.549  -7.250   3.315  1.00  0.00     0.099 C 
ATOM      8  O   UNL     1      20.538  -8.358   2.716  1.00  0.00    -0.544 OA
ATOM      9  O   UNL     1      21.741  -6.769   3.843  1.00  0.00    -0.544 OA
ENDBRANCH   2   7
ENDBRANCH   1   2
BRANCH   1  10
ATOM     10  C   UNL     1      18.848  -3.964   3.015  1.00  0.00     0.076 C 
BRANCH  10  11
ATOM     11  S   UNL     1      18.385  -2.524   4.036  1.00  0.00    -0.165 SA
ATOM     12  C   UNL     1      17.896  -1.489   2.620  1.00  0.00     0.085 C 
ENDBRANCH  10  11
ENDBRANCH   1  10
TORSDOF 5
ENDMDL
MODEL 2
REMARK VINA RESULT:    -2.439      5.953      7.339
REMARK INTER + INTRA:          -3.140
REMARK INTER:                  -3.031
REMARK INTRA:                  -0.109
REMARK UNBOUND:                -0.058
REMARK SMILES CSCC[C@@H]([NH3+])C(=O)[O-]
REMARK SMILES IDX 4 1 5 2 6 3 7 7 8 8 9 9 3 10 2 11 1 12
REMARK H PARENT 6 4 6 5 6 6
REMARK Flexibility Score: inf
ROOT
ATOM      1  C   UNL     1      18.059 -11.171   1.551  1.00  0.00     0.082 C 
ENDROOT
BRANCH   1   2
ATOM      2  C   UNL     1      19.079 -10.254   0.843  1.00  0.00     0.228 C 
BRANCH   2   3
ATOM      3  N   UNL     1      18.455  -8.976   0.477  1.00  0.00    -0.350 N 
ATOM      4  H   UNL     1      18.017  -8.542   1.322  1.00  0.00     0.345 HD
ATOM      5  H   UNL     1      17.705  -9.136  -0.233  1.00  0.00     0.345 HD
ATOM      6  H   UNL     1      19.166  -8.316   0.085  1.00  0.00     0.345 HD
ENDBRANCH   2   3
BRANCH   2   7
ATOM      7  C   UNL     1      20.288 -10.011   1.710  1.00  0.00     0.099 C 
ATOM      8  O   UNL     1      21.135 -10.925   1.897  1.00  0.00    -0.544 OA
ATOM      9  O   UNL     1      20.479  -8.769   2.302  1.00  0.00    -0.544 OA
ENDBRANCH   2   7
ENDBRANCH   1   2
BRANCH   1  10
ATOM     10  C   UNL     1      18.059 -12.590   0.979  1.00  0.00     0.076 C 
BRANCH  10  11
ATOM     11  S   UNL     1      17.496 -12.558  -0.757  1.00  0.00    -0.165 SA
ATOM     12  C   UNL     1      17.567 -14.364  -0.971  1.00  0.00     0.085 C 
ENDBRANCH  10  11
ENDBRANCH   1  10
TORSDOF 5
ENDMDL
MODEL 3
REMARK VINA RESULT:    -2.436      3.746      4.769
REMARK INTER + INTRA:          -3.135
REMARK INTER:                  -3.041
REMARK INTRA:                  -0.094
REMARK UNBOUND:                -0.058
REMARK SMILES CSCC[C@@H]([NH3+])C(=O)[O-]
REMARK SMILES IDX 4 1 5 2 6 3 7 7 8 8 9 9 3 10 2 11 1 12
REMARK H PARENT 6 4 6 5 6 6
REMARK Flexibility Score: inf
ROOT
ATOM      1  C   UNL     1      18.616  -7.172   2.424  1.00  0.00     0.082 C 
ENDROOT
BRANCH   1   2
ATOM      2  C   UNL     1      18.904  -5.786   3.040  1.00  0.00     0.228 C 
BRANCH   2   3
ATOM      3  N   UNL     1      20.289  -5.713   3.520  1.00  0.00    -0.350 N 
ATOM      4  H   UNL     1      20.936  -6.102   2.795  1.00  0.00     0.345 HD
ATOM      5  H   UNL     1      20.394  -6.284   4.390  1.00  0.00     0.345 HD
ATOM      6  H   UNL     1      20.559  -4.723   3.722  1.00  0.00     0.345 HD
ENDBRANCH   2   3
BRANCH   2   7
ATOM      7  C   UNL     1      18.641  -4.683   2.046  1.00  0.00     0.099 C 
ATOM      8  O   UNL     1      18.152  -4.944   0.915  1.00  0.00    -0.544 OA
ATOM      9  O   UNL     1      18.930  -3.365   2.380  1.00  0.00    -0.544 OA
ENDBRANCH   2   7
ENDBRANCH   1   2
BRANCH   1  10
ATOM     10  C   UNL     1      19.697  -8.198   2.773  1.00  0.00     0.076 C 
BRANCH  10  11
ATOM     11  S   UNL     1      19.709  -9.530   1.526  1.00  0.00    -0.165 SA
ATOM     12  C   UNL     1      18.108  -9.065   0.795  1.00  0.00     0.085 C 
ENDBRANCH  10  11
ENDBRANCH   1  10
TORSDOF 5
ENDMDL
MODEL 4
REMARK VINA RESULT:    -2.432      2.455      3.012
REMARK INTER + INTRA:          -3.131
REMARK INTER:                  -2.978
REMARK INTRA:                  -0.153
REMARK UNBOUND:                -0.058
REMARK SMILES CSCC[C@@H]([NH3+])C(=O)[O-]
REMARK SMILES IDX 4 1 5 2 6 3 7 7 8 8 9 9 3 10 2 11 1 12
REMARK H PARENT 6 4 6 5 6 6
REMARK Flexibility Score: inf
ROOT
ATOM      1  C   UNL     1      18.162  -7.487   2.280  1.00  0.00     0.082 C 
ENDROOT
BRANCH   1   2
ATOM      2  C   UNL     1      18.736  -8.850   1.838  1.00  0.00     0.228 C 
BRANCH   2   3
ATOM      3  N   UNL     1      18.493  -9.071   0.407  1.00  0.00    -0.350 N 
ATOM      4  H   UNL     1      19.090  -9.858   0.064  1.00  0.00     0.345 HD
ATOM      5  H   UNL     1      18.745  -8.212  -0.133  1.00  0.00     0.345 HD
ATOM      6  H   UNL     1      17.488  -9.304   0.234  1.00  0.00     0.345 HD
ENDBRANCH   2   3
BRANCH   2   7
ATOM      7  C   UNL     1      20.211  -8.942   2.134  1.00  0.00     0.099 C 
ATOM      8  O   UNL     1      20.889  -9.916   1.710  1.00  0.00    -0.544 OA
ATOM      9  O   UNL     1      20.835  -7.943   2.870  1.00  0.00    -0.544 OA
ENDBRANCH   2   7
ENDBRANCH   1   2
BRANCH   1  10
ATOM     10  C   UNL     1      17.489  -6.739   1.127  1.00  0.00     0.076 C 
BRANCH  10  11
ATOM     11  S   UNL     1      17.943  -4.972   1.188  1.00  0.00    -0.165 SA
ATOM     12  C   UNL     1      18.734  -5.078   2.824  1.00  0.00     0.085 C 
ENDBRANCH  10  11
ENDBRANCH   1  10
TORSDOF 5
ENDMDL
MODEL 5
REMARK VINA RESULT:    -2.395      6.392      6.816
REMARK INTER + INTRA:          -3.083
REMARK INTER:                  -3.008
REMARK INTRA:                  -0.075
REMARK UNBOUND:                -0.058
REMARK SMILES CSCC[C@@H]([NH3+])C(=O)[O-]
REMARK SMILES IDX 4 1 5 2 6 3 7 7 8 8 9 9 3 10 2 11 1 12
REMARK H PARENT 6 4 6 5 6 6
REMARK Flexibility Score: inf
ROOT
ATOM      1  C   UNL     1      18.545 -10.839   0.499  1.00  0.00     0.082 C 
ENDROOT
BRANCH   1   2
ATOM      2  C   UNL     1      19.187 -11.311   1.821  1.00  0.00     0.228 C 
BRANCH   2   3
ATOM      3  N   UNL     1      19.102 -12.771   1.942  1.00  0.00    -0.350 N 
ATOM      4  H   UNL     1      20.046 -13.164   2.163  1.00  0.00     0.345 HD
ATOM      5  H   UNL     1      18.781 -13.185   1.037  1.00  0.00     0.345 HD
ATOM      6  H   UNL     1      18.434 -13.041   2.701  1.00  0.00     0.345 HD
ENDBRANCH   2   3
BRANCH   2   7
ATOM      7  C   UNL     1      20.624 -10.865   1.919  1.00  0.00     0.099 C 
ATOM      8  O   UNL     1      20.938  -9.665   1.700  1.00  0.00    -0.544 OA
ATOM      9  O   UNL     1      21.612 -11.780   2.264  1.00  0.00    -0.544 OA
ENDBRANCH   2   7
ENDBRANCH   1   2
BRANCH   1  10
ATOM     10  C   UNL     1      17.767 -11.956  -0.200  1.00  0.00     0.076 C 
BRANCH  10  11
ATOM     11  S   UNL     1      16.424 -11.238  -1.206  1.00  0.00    -0.165 SA
ATOM     12  C   UNL     1      16.716  -9.530  -0.646  1.00  0.00     0.085 C 
ENDBRANCH  10  11
ENDBRANCH   1  10
TORSDOF 5
ENDMDL
MODEL 6
REMARK VINA RESULT:    -2.344      2.949      3.922
REMARK INTER + INTRA:          -3.019
REMARK INTER:                  -2.791
REMARK INTRA:                  -0.228
REMARK UNBOUND:                -0.058
REMARK SMILES CSCC[C@@H]([NH3+])C(=O)[O-]
REMARK SMILES IDX 4 1 5 2 6 3 7 7 8 8 9 9 3 10 2 11 1 12
REMARK H PARENT 6 4 6 5 6 6
REMARK Flexibility Score: inf
ROOT
ATOM      1  C   UNL     1      17.990  -7.027   3.588  1.00  0.00     0.082 C 
ENDROOT
BRANCH   1   2
ATOM      2  C   UNL     1      19.262  -6.591   2.831  1.00  0.00     0.228 C 
BRANCH   2   3
ATOM      3  N   UNL     1      19.553  -5.175   3.085  1.00  0.00    -0.350 N 
ATOM      4  H   UNL     1      20.056  -4.764   2.265  1.00  0.00     0.345 HD
ATOM      5  H   UNL     1      20.169  -5.084   3.925  1.00  0.00     0.345 HD
ATOM      6  H   UNL     1      18.669  -4.640   3.246  1.00  0.00     0.345 HD
ENDBRANCH   2   3
BRANCH   2   7
ATOM      7  C   UNL     1      20.445  -7.441   3.219  1.00  0.00     0.099 C 
ATOM      8  O   UNL     1      21.460  -6.919   3.754  1.00  0.00    -0.544 OA
ATOM      9  O   UNL     1      20.418  -8.812   2.998  1.00  0.00    -0.544 OA
ENDBRANCH   2   7
ENDBRANCH   1   2
BRANCH   1  10
ATOM     10  C   UNL     1      16.978  -7.721   2.672  1.00  0.00     0.076 C 
BRANCH  10  11
ATOM     11  S   UNL     1      17.458  -7.482   0.928  1.00  0.00    -0.165 SA
ATOM     12  C   UNL     1      17.786  -9.246   0.621  1.00  0.00     0.085 C 
ENDBRANCH  10  11
ENDBRANCH   1  10
TORSDOF 5
ENDMDL
MODEL 7
REMARK VINA RESULT:    -2.299      6.903      8.026
REMARK INTER + INTRA:          -2.962
REMARK INTER:                  -2.899
REMARK INTRA:                  -0.064
REMARK UNBOUND:                -0.058
REMARK SMILES CSCC[C@@H]([NH3+])C(=O)[O-]
REMARK SMILES IDX 4 1 5 2 6 3 7 7 8 8 9 9 3 10 2 11 1 12
REMARK H PARENT 6 4 6 5 6 6
REMARK Flexibility Score: inf
ROOT
ATOM      1  C   UNL     1      18.055 -11.676   0.024  1.00  0.00     0.082 C 
ENDROOT
BRANCH   1   2
ATOM      2  C   UNL     1      17.264 -12.839  -0.611  1.00  0.00     0.228 C 
BRANCH   2   3
ATOM      3  N   UNL     1      17.384 -12.805  -2.074  1.00  0.00    -0.350 N 
ATOM      4  H   UNL     1      17.932 -11.963  -2.365  1.00  0.00     0.345 HD
ATOM      5  H   UNL     1      16.435 -12.742  -2.507  1.00  0.00     0.345 HD
ATOM      6  H   UNL     1      17.867 -13.664  -2.425  1.00  0.00     0.345 HD
ENDBRANCH   2   3
BRANCH   2   7
ATOM      7  C   UNL     1      17.735 -14.171  -0.084  1.00  0.00     0.099 C 
ATOM      8  O   UNL     1      18.081 -15.087  -0.876  1.00  0.00    -0.544 OA
ATOM      9  O   UNL     1      17.800 -14.390   1.287  1.00  0.00    -0.544 OA
ENDBRANCH   2   7
ENDBRANCH   1   2
BRANCH   1  10
ATOM     10  C   UNL     1      17.305 -10.345  -0.069  1.00  0.00     0.076 C 
BRANCH  10  11
ATOM     11  S   UNL     1      18.187  -9.070   0.894  1.00  0.00    -0.165 SA
ATOM     12  C   UNL     1      19.575 -10.158   1.345  1.00  0.00     0.085 C 
ENDBRANCH  10  11
ENDBRANCH   1  10
TORSDOF 5
ENDMDL
MODEL 8
REMARK VINA RESULT:    -2.295      2.968      3.576
REMARK INTER + INTRA:          -2.957
REMARK INTER:                  -2.772
REMARK INTRA:                  -0.186
REMARK UNBOUND:                -0.058
REMARK SMILES CSCC[C@@H]([NH3+])C(=O)[O-]
REMARK SMILES IDX 4 1 5 2 6 3 7 7 8 8 9 9 3 10 2 11 1 12
REMARK H PARENT 6 4 6 5 6 6
REMARK Flexibility Score: inf
ROOT
ATOM      1  C   UNL     1      18.098  -3.000   3.660  1.00  0.00     0.082 C 
ENDROOT
BRANCH   1   2
ATOM      2  C   UNL     1      18.817  -3.792   2.547  1.00  0.00     0.228 C 
BRANCH   2   3
ATOM      3  N   UNL     1      19.635  -4.865   3.125  1.00  0.00    -0.350 N 
ATOM      4  H   UNL     1      19.031  -5.505   3.691  1.00  0.00     0.345 HD
ATOM      5  H   UNL     1      20.361  -4.457   3.758  1.00  0.00     0.345 HD
ATOM      6  H   UNL     1      20.105  -5.417   2.372  1.00  0.00     0.345 HD
ENDBRANCH   2   3
BRANCH   2   7
ATOM      7  C   UNL     1      17.830  -4.365   1.562  1.00  0.00     0.099 C 
ATOM      8  O   UNL     1      16.902  -3.651   1.096  1.00  0.00    -0.544 OA
ATOM      9  O   UNL     1      17.945  -5.689   1.155  1.00  0.00    -0.544 OA
ENDBRANCH   2   7
ENDBRANCH   1   2
BRANCH   1  10
ATOM     10  C   UNL     1      18.398  -1.500   3.592  1.00  0.00     0.076 C 
BRANCH  10  11
ATOM     11  S   UNL     1      16.854  -0.575   3.292  1.00  0.00    -0.165 SA
ATOM     12  C   UNL     1      17.257  -0.168   1.564  1.00  0.00     0.085 C 
ENDBRANCH  10  11
ENDBRANCH   1  10
TORSDOF 5
ENDMDL
MODEL 9
REMARK VINA RESULT:    -2.181      3.161      3.755
REMARK INTER + INTRA:          -2.813
REMARK INTER:                  -2.763
REMARK INTRA:                  -0.050
REMARK UNBOUND:                -0.058
REMARK SMILES CSCC[C@@H]([NH3+])C(=O)[O-]
REMARK SMILES IDX 4 1 5 2 6 3 7 7 8 8 9 9 3 10 2 11 1 12
REMARK H PARENT 6 4 6 5 6 6
REMARK Flexibility Score: inf
ROOT
ATOM      1  C   UNL     1      18.502  -8.154   2.106  1.00  0.00     0.082 C 
ENDROOT
BRANCH   1   2
ATOM      2  C   UNL     1      17.915  -9.071   1.012  1.00  0.00     0.228 C 
BRANCH   2   3
ATOM      3  N   UNL     1      17.741  -8.328  -0.243  1.00  0.00    -0.350 N 
ATOM      4  H   UNL     1      17.452  -8.984  -1.005  1.00  0.00     0.345 HD
ATOM      5  H   UNL     1      18.646  -7.884  -0.521  1.00  0.00     0.345 HD
ATOM      6  H   UNL     1      17.011  -7.587  -0.135  1.00  0.00     0.345 HD
ENDBRANCH   2   3
BRANCH   2   7
ATOM      7  C   UNL     1      18.791 -10.276   0.783  1.00  0.00     0.099 C 
ATOM      8  O   UNL     1      18.439 -11.180  -0.020  1.00  0.00    -0.544 OA
ATOM      9  O   UNL     1      20.003 -10.390   1.453  1.00  0.00    -0.544 OA
ENDBRANCH   2   7
ENDBRANCH   1   2
BRANCH   1  10
ATOM     10  C   UNL     1      18.128  -6.685   1.895  1.00  0.00     0.076 C 
BRANCH  10  11
ATOM     11  S   UNL     1      18.945  -5.652   3.158  1.00  0.00    -0.165 SA
ATOM     12  C   UNL     1      18.640  -4.082   2.287  1.00  0.00     0.085 C 
ENDBRANCH  10  11
ENDBRANCH   1  10
TORSDOF 5
ENDMDL
