MODEL 1
REMARK VINA RESULT:    -4.513      0.000      0.000
REMARK INTER + INTRA:          -5.304
REMARK INTER:                  -5.436
REMARK INTRA:                   0.132
REMARK UNBOUND:                 0.132
REMARK SMILES O=c1c(O)c(-c2ccc(O)c(O)c2)oc2cc(O)cc(O)c12
REMARK SMILES IDX 5 1 3 2 2 3 1 4 22 5 20 6 19 7 17 8 16 9 15 10 14 11 6 12
REMARK SMILES IDX 7 13 8 14 9 15 13 16 11 17 10 18 12 20 4 22 21 24 18 26
REMARK H PARENT 10 19 12 21 4 23 21 25 18 27
REMARK Flexibility Score: inf
ROOT
ATOM      1  C   UNL     1      12.032  -4.443 -18.710  1.00  0.00     0.180 A 
ATOM      2  C   UNL     1      12.468  -4.265 -20.034  1.00  0.00     0.208 A 
ATOM      3  C   UNL     1      11.513  -4.088 -21.048  1.00  0.00     0.238 A 
ATOM      4  O   UNL     1      11.911  -3.875 -22.222  1.00  0.00    -0.285 OA
ATOM      5  C   UNL     1      10.134  -4.105 -20.727  1.00  0.00     0.111 A 
ATOM      6  C   UNL     1       9.080  -3.975 -21.679  1.00  0.00     0.134 A 
ATOM      7  C   UNL     1       7.756  -3.876 -21.233  1.00  0.00     0.093 A 
ATOM      8  C   UNL     1       7.443  -3.967 -19.878  1.00  0.00     0.123 A 
ATOM      9  C   UNL     1       8.461  -4.154 -18.943  1.00  0.00     0.094 A 
ATOM     10  C   UNL     1       9.796  -4.221 -19.354  1.00  0.00     0.146 A 
ATOM     11  O   UNL     1      10.735  -4.389 -18.431  1.00  0.00    -0.452 OA
ENDROOT
BRANCH   1  12
ATOM     12  C   UNL     1      12.979  -4.660 -17.592  1.00  0.00     0.025 A 
ATOM     13  C   UNL     1      14.176  -3.930 -17.493  1.00  0.00     0.016 A 
ATOM     14  C   UNL     1      15.066  -4.170 -16.442  1.00  0.00     0.051 A 
ATOM     15  C   UNL     1      14.780  -5.151 -15.485  1.00  0.00     0.157 A 
ATOM     16  C   UNL     1      12.707  -5.657 -16.640  1.00  0.00     0.062 A 
ATOM     17  C   UNL     1      13.600  -5.898 -15.585  1.00  0.00     0.158 A 
BRANCH  15  18
ATOM     18  O   UNL     1      15.664  -5.392 -14.435  1.00  0.00    -0.504 OA
ATOM     19  H   UNL     1      16.667  -5.383 -14.574  1.00  0.00     0.293 HD
ENDBRANCH  15  18
BRANCH  17  20
ATOM     20  O   UNL     1      13.321  -6.879 -14.635  1.00  0.00    -0.504 OA
ATOM     21  H   UNL     1      12.953  -7.785 -14.900  1.00  0.00     0.293 HD
ENDBRANCH  17  20
ENDBRANCH   1  12
BRANCH   2  22
ATOM     22  O   UNL     1      13.836  -4.229 -20.325  1.00  0.00    -0.502 OA
ATOM     23  H   UNL     1      14.407  -5.065 -20.357  1.00  0.00     0.293 HD
ENDBRANCH   2  22
BRANCH   6  24
ATOM     24  O   UNL     1       9.274  -3.967 -23.064  1.00  0.00    -0.507 OA
ATOM     25  H   UNL     1       8.562  -3.742 -23.743  1.00  0.00     0.293 HD
ENDBRANCH   6  24
BRANCH   8  26
ATOM     26  O   UNL     1       6.113  -3.879 -19.472  1.00  0.00    -0.508 OA
ATOM     27  H   UNL     1       5.532  -3.088 -19.725  1.00  0.00     0.293 HD
ENDBRANCH   8  26
TORSDOF 6
ENDMDL
MODEL 2
REMARK VINA RESULT:    -4.189      1.669      7.282
REMARK INTER + INTRA:          -4.914
REMARK INTER:                  -5.468
REMARK INTRA:                   0.554
REMARK UNBOUND:                 0.132
REMARK SMILES O=c1c(O)c(-c2ccc(O)c(O)c2)oc2cc(O)cc(O)c12
REMARK SMILES IDX 5 1 3 2 2 3 1 4 22 5 20 6 19 7 17 8 16 9 15 10 14 11 6 12
REMARK SMILES IDX 7 13 8 14 9 15 13 16 11 17 10 18 12 20 4 22 21 24 18 26
REMARK H PARENT 10 19 12 21 4 23 21 25 18 27
REMARK Flexibility Score: inf
ROOT
ATOM      1  C   UNL     1      12.138  -4.338 -18.071  1.00  0.00     0.180 A 
ATOM      2  C   UNL     1      11.917  -4.520 -16.695  1.00  0.00     0.208 A 
ATOM      3  C   UNL     1      13.023  -4.630 -15.837  1.00  0.00     0.238 A 
ATOM      4  O   UNL     1      12.819  -4.737 -14.600  1.00  0.00    -0.285 OA
ATOM      5  C   UNL     1      14.334  -4.572 -16.367  1.00  0.00     0.111 A 
ATOM      6  C   UNL     1      15.526  -4.713 -15.596  1.00  0.00     0.134 A 
ATOM      7  C   UNL     1      16.771  -4.509 -16.205  1.00  0.00     0.093 A 
ATOM      8  C   UNL     1      16.869  -4.235 -17.568  1.00  0.00     0.123 A 
ATOM      9  C   UNL     1      15.713  -4.155 -18.344  1.00  0.00     0.094 A 
ATOM     10  C   UNL     1      14.455  -4.317 -17.758  1.00  0.00     0.146 A 
ATOM     11  O   UNL     1      13.379  -4.222 -18.529  1.00  0.00    -0.452 OA
ENDROOT
BRANCH   1  12
ATOM     12  C   UNL     1      11.023  -4.238 -19.041  1.00  0.00     0.025 A 
ATOM     13  C   UNL     1      11.258  -3.990 -20.405  1.00  0.00     0.016 A 
ATOM     14  C   UNL     1      10.188  -3.875 -21.297  1.00  0.00     0.051 A 
ATOM     15  C   UNL     1       8.871  -3.992 -20.839  1.00  0.00     0.157 A 
ATOM     16  C   UNL     1       9.698  -4.333 -18.583  1.00  0.00     0.062 A 
ATOM     17  C   UNL     1       8.625  -4.218 -19.479  1.00  0.00     0.158 A 
BRANCH  15  18
ATOM     18  O   UNL     1       7.802  -3.879 -21.726  1.00  0.00    -0.504 OA
ATOM     19  H   UNL     1       7.504  -2.980 -22.086  1.00  0.00     0.293 HD
ENDBRANCH  15  18
BRANCH  17  20
ATOM     20  O   UNL     1       7.311  -4.327 -19.024  1.00  0.00    -0.504 OA
ATOM     21  H   UNL     1       6.766  -5.168 -19.173  1.00  0.00     0.293 HD
ENDBRANCH  17  20
ENDBRANCH   1  12
BRANCH   2  22
ATOM     22  O   UNL     1      10.613  -4.551 -16.190  1.00  0.00    -0.502 OA
ATOM     23  H   UNL     1       9.979  -3.766 -16.276  1.00  0.00     0.293 HD
ENDBRANCH   2  22
BRANCH   6  24
ATOM     24  O   UNL     1      15.545  -5.076 -14.245  1.00  0.00    -0.507 OA
ATOM     25  H   UNL     1      16.292  -4.860 -13.602  1.00  0.00     0.293 HD
ENDBRANCH   6  24
BRANCH   8  26
ATOM     26  O   UNL     1      18.125  -4.053 -18.144  1.00  0.00    -0.508 OA
ATOM     27  H   UNL     1      18.349  -3.220 -18.676  1.00  0.00     0.293 HD
ENDBRANCH   8  26
TORSDOF 6
ENDMDL
MODEL 3
REMARK VINA RESULT:    -3.891      1.246      2.876
REMARK INTER + INTRA:          -4.555
REMARK INTER:                  -4.687
REMARK INTRA:                   0.132
REMARK UNBOUND:                 0.132
REMARK SMILES O=c1c(O)c(-c2ccc(O)c(O)c2)oc2cc(O)cc(O)c12
REMARK SMILES IDX 5 1 3 2 2 3 1 4 22 5 20 6 19 7 17 8 16 9 15 10 14 11 6 12
REMARK SMILES IDX 7 13 8 14 9 15 13 16 11 17 10 18 12 20 4 22 21 24 18 26
REMARK H PARENT 10 19 12 21 4 23 21 25 18 27
REMARK Flexibility Score: inf
ROOT
ATOM      1  C   UNL     1      11.668  -4.595 -18.545  1.00  0.00     0.180 A 
ATOM      2  C   UNL     1      10.308  -4.656 -18.192  1.00  0.00     0.208 A 
ATOM      3  C   UNL     1       9.337  -4.493 -19.192  1.00  0.00     0.238 A 
ATOM      4  O   UNL     1       8.123  -4.603 -18.879  1.00  0.00    -0.285 OA
ATOM      5  C   UNL     1       9.736  -4.255 -20.530  1.00  0.00     0.111 A 
ATOM      6  C   UNL     1       8.837  -4.035 -21.616  1.00  0.00     0.134 A 
ATOM      7  C   UNL     1       9.340  -3.938 -22.919  1.00  0.00     0.093 A 
ATOM      8  C   UNL     1      10.711  -3.989 -23.168  1.00  0.00     0.123 A 
ATOM      9  C   UNL     1      11.603  -4.144 -22.107  1.00  0.00     0.094 A 
ATOM     10  C   UNL     1      11.129  -4.279 -20.799  1.00  0.00     0.146 A 
ATOM     11  O   UNL     1      12.010  -4.436 -19.819  1.00  0.00    -0.452 OA
ENDROOT
BRANCH   1  12
ATOM     12  C   UNL     1      12.749  -4.734 -17.543  1.00  0.00     0.025 A 
ATOM     13  C   UNL     1      13.883  -3.904 -17.569  1.00  0.00     0.016 A 
ATOM     14  C   UNL     1      14.902  -4.069 -16.627  1.00  0.00     0.051 A 
ATOM     15  C   UNL     1      14.811  -5.075 -15.657  1.00  0.00     0.157 A 
ATOM     16  C   UNL     1      12.672  -5.755 -16.580  1.00  0.00     0.062 A 
ATOM     17  C   UNL     1      13.695  -5.921 -15.635  1.00  0.00     0.158 A 
BRANCH  15  18
ATOM     18  O   UNL     1      15.824  -5.242 -14.716  1.00  0.00    -0.504 OA
ATOM     19  H   UNL     1      16.797  -5.310 -14.991  1.00  0.00     0.293 HD
ENDBRANCH  15  18
BRANCH  17  20
ATOM     20  O   UNL     1      13.610  -6.926 -14.673  1.00  0.00    -0.504 OA
ATOM     21  H   UNL     1      13.696  -7.905 -14.919  1.00  0.00     0.293 HD
ENDBRANCH  17  20
ENDBRANCH   1  12
BRANCH   2  22
ATOM     22  O   UNL     1       9.937  -4.915 -16.869  1.00  0.00    -0.502 OA
ATOM     23  H   UNL     1      10.397  -5.618 -16.303  1.00  0.00     0.293 HD
ENDBRANCH   2  22
BRANCH   6  24
ATOM     24  O   UNL     1       7.455  -3.876 -21.467  1.00  0.00    -0.507 OA
ATOM     25  H   UNL     1       6.771  -4.110 -22.170  1.00  0.00     0.293 HD
ENDBRANCH   6  24
BRANCH   8  26
ATOM     26  O   UNL     1      11.176  -3.875 -24.476  1.00  0.00    -0.508 OA
ATOM     27  H   UNL     1      12.137  -3.622 -24.677  1.00  0.00     0.293 HD
ENDBRANCH   8  26
TORSDOF 6
ENDMDL
MODEL 4
REMARK VINA RESULT:    -3.874      1.371      6.634
REMARK INTER + INTRA:          -4.535
REMARK INTER:                  -4.899
REMARK INTRA:                   0.364
REMARK UNBOUND:                 0.132
REMARK SMILES O=c1c(O)c(-c2ccc(O)c(O)c2)oc2cc(O)cc(O)c12
REMARK SMILES IDX 5 1 3 2 2 3 1 4 22 5 20 6 19 7 17 8 16 9 15 10 14 11 6 12
REMARK SMILES IDX 7 13 8 14 9 15 13 16 11 17 10 18 12 20 4 22 21 24 18 26
REMARK H PARENT 10 19 12 21 4 23 21 25 18 27
REMARK Flexibility Score: inf
ROOT
ATOM      1  C   UNL     1       9.945  -4.605 -19.114  1.00  0.00     0.180 A 
ATOM      2  C   UNL     1      10.977  -4.216 -19.986  1.00  0.00     0.208 A 
ATOM      3  C   UNL     1      12.300  -4.212 -19.517  1.00  0.00     0.238 A 
ATOM      4  O   UNL     1      13.223  -3.915 -20.318  1.00  0.00    -0.285 OA
ATOM      5  C   UNL     1      12.574  -4.583 -18.178  1.00  0.00     0.111 A 
ATOM      6  C   UNL     1      13.872  -4.577 -17.586  1.00  0.00     0.134 A 
ATOM      7  C   UNL     1      14.043  -5.086 -16.293  1.00  0.00     0.093 A 
ATOM      8  C   UNL     1      12.956  -5.541 -15.548  1.00  0.00     0.123 A 
ATOM      9  C   UNL     1      11.673  -5.496 -16.095  1.00  0.00     0.094 A 
ATOM     10  C   UNL     1      11.476  -5.026 -17.397  1.00  0.00     0.146 A 
ATOM     11  O   UNL     1      10.241  -5.010 -17.884  1.00  0.00    -0.452 OA
ENDROOT
BRANCH   1  12
ATOM     12  C   UNL     1       8.524  -4.611 -19.528  1.00  0.00     0.025 A 
ATOM     13  C   UNL     1       8.082  -3.875 -20.642  1.00  0.00     0.016 A 
ATOM     14  C   UNL     1       6.731  -3.876 -21.000  1.00  0.00     0.051 A 
ATOM     15  C   UNL     1       5.801  -4.599 -20.243  1.00  0.00     0.157 A 
ATOM     16  C   UNL     1       7.582  -5.318 -18.761  1.00  0.00     0.062 A 
ATOM     17  C   UNL     1       6.226  -5.319 -19.120  1.00  0.00     0.158 A 
BRANCH  15  18
ATOM     18  O   UNL     1       4.453  -4.603 -20.597  1.00  0.00    -0.504 OA
ATOM     19  H   UNL     1       3.725  -4.765 -19.911  1.00  0.00     0.293 HD
ENDBRANCH  15  18
BRANCH  17  20
ATOM     20  O   UNL     1       5.297  -6.032 -18.364  1.00  0.00    -0.504 OA
ATOM     21  H   UNL     1       4.365  -5.674 -18.194  1.00  0.00     0.293 HD
ENDBRANCH  17  20
ENDBRANCH   1  12
BRANCH   2  22
ATOM     22  O   UNL     1      10.686  -3.876 -21.311  1.00  0.00    -0.502 OA
ATOM     23  H   UNL     1      11.064  -3.048 -21.755  1.00  0.00     0.293 HD
ENDBRANCH   2  22
BRANCH   6  24
ATOM     24  O   UNL     1      15.012  -4.059 -18.209  1.00  0.00    -0.507 OA
ATOM     25  H   UNL     1      15.959  -4.212 -17.893  1.00  0.00     0.293 HD
ENDBRANCH   6  24
BRANCH   8  26
ATOM     26  O   UNL     1      13.161  -6.027 -14.259  1.00  0.00    -0.508 OA
ATOM     27  H   UNL     1      12.386  -6.218 -13.634  1.00  0.00     0.293 HD
ENDBRANCH   8  26
TORSDOF 6
ENDMDL
MODEL 5
REMARK VINA RESULT:    -3.753      2.262      7.125
REMARK INTER + INTRA:          -4.389
REMARK INTER:                  -4.851
REMARK INTRA:                   0.462
REMARK UNBOUND:                 0.132
REMARK SMILES O=c1c(O)c(-c2ccc(O)c(O)c2)oc2cc(O)cc(O)c12
REMARK SMILES IDX 5 1 3 2 2 3 1 4 22 5 20 6 19 7 17 8 16 9 15 10 14 11 6 12
REMARK SMILES IDX 7 13 8 14 9 15 13 16 11 17 10 18 12 20 4 22 21 24 18 26
REMARK H PARENT 10 19 12 21 4 23 21 25 18 27
REMARK Flexibility Score: inf
ROOT
ATOM      1  C   UNL     1      12.766  -4.250 -19.456  1.00  0.00     0.180 A 
ATOM      2  C   UNL     1      11.635  -4.335 -18.625  1.00  0.00     0.208 A 
ATOM      3  C   UNL     1      11.818  -4.456 -17.238  1.00  0.00     0.238 A 
ATOM      4  O   UNL     1      10.803  -4.476 -16.495  1.00  0.00    -0.285 OA
ATOM      5  C   UNL     1      13.127  -4.506 -16.702  1.00  0.00     0.111 A 
ATOM      6  C   UNL     1      13.429  -4.668 -15.316  1.00  0.00     0.134 A 
ATOM      7  C   UNL     1      14.758  -4.574 -14.884  1.00  0.00     0.093 A 
ATOM      8  C   UNL     1      15.800  -4.390 -15.792  1.00  0.00     0.123 A 
ATOM      9  C   UNL     1      15.521  -4.290 -17.156  1.00  0.00     0.094 A 
ATOM     10  C   UNL     1      14.202  -4.344 -17.614  1.00  0.00     0.146 A 
ATOM     11  O   UNL     1      13.979  -4.235 -18.917  1.00  0.00    -0.452 OA
ENDROOT
BRANCH   1  12
ATOM     12  C   UNL     1      12.653  -4.146 -20.929  1.00  0.00     0.025 A 
ATOM     13  C   UNL     1      11.411  -3.946 -21.557  1.00  0.00     0.016 A 
ATOM     14  C   UNL     1      11.326  -3.875 -22.950  1.00  0.00     0.051 A 
ATOM     15  C   UNL     1      12.476  -4.018 -23.736  1.00  0.00     0.157 A 
ATOM     16  C   UNL     1      13.801  -4.309 -21.723  1.00  0.00     0.062 A 
ATOM     17  C   UNL     1      13.716  -4.238 -23.122  1.00  0.00     0.158 A 
BRANCH  15  18
ATOM     18  O   UNL     1      12.396  -3.946 -25.125  1.00  0.00    -0.504 OA
ATOM     19  H   UNL     1      11.508  -3.833 -25.599  1.00  0.00     0.293 HD
ENDBRANCH  15  18
BRANCH  17  20
ATOM     20  O   UNL     1      14.858  -4.386 -23.906  1.00  0.00    -0.504 OA
ATOM     21  H   UNL     1      15.674  -3.800 -23.772  1.00  0.00     0.293 HD
ENDBRANCH  17  20
ENDBRANCH   1  12
BRANCH   2  22
ATOM     22  O   UNL     1      10.351  -4.260 -19.174  1.00  0.00    -0.502 OA
ATOM     23  H   UNL     1       9.796  -3.413 -19.144  1.00  0.00     0.293 HD
ENDBRANCH   2  22
BRANCH   6  24
ATOM     24  O   UNL     1      12.472  -4.949 -14.336  1.00  0.00    -0.507 OA
ATOM     25  H   UNL     1      11.738  -4.317 -14.052  1.00  0.00     0.293 HD
ENDBRANCH   6  24
BRANCH   8  26
ATOM     26  O   UNL     1      17.111  -4.316 -15.328  1.00  0.00    -0.508 OA
ATOM     27  H   UNL     1      17.523  -5.063 -14.781  1.00  0.00     0.293 HD
ENDBRANCH   8  26
TORSDOF 6
ENDMDL
MODEL 6
REMARK VINA RESULT:    -3.634      1.505      3.266
REMARK INTER + INTRA:          -4.246
REMARK INTER:                  -4.700
REMARK INTRA:                   0.454
REMARK UNBOUND:                 0.132
REMARK SMILES O=c1c(O)c(-c2ccc(O)c(O)c2)oc2cc(O)cc(O)c12
REMARK SMILES IDX 5 1 3 2 2 3 1 4 22 5 20 6 19 7 17 8 16 9 15 10 14 11 6 12
REMARK SMILES IDX 7 13 8 14 9 15 13 16 11 17 10 18 12 20 4 22 21 24 18 26
REMARK H PARENT 10 19 12 21 4 23 21 25 18 27
REMARK Flexibility Score: inf
ROOT
ATOM      1  C   UNL     1      12.017  -4.448 -18.319  1.00  0.00     0.180 A 
ATOM      2  C   UNL     1      10.651  -4.526 -17.996  1.00  0.00     0.208 A 
ATOM      3  C   UNL     1       9.700  -4.404 -19.022  1.00  0.00     0.238 A 
ATOM      4  O   UNL     1       8.482  -4.529 -18.735  1.00  0.00    -0.285 OA
ATOM      5  C   UNL     1      10.126  -4.190 -20.355  1.00  0.00     0.111 A 
ATOM      6  C   UNL     1       9.250  -4.012 -21.467  1.00  0.00     0.134 A 
ATOM      7  C   UNL     1       9.782  -3.936 -22.760  1.00  0.00     0.093 A 
ATOM      8  C   UNL     1      11.159  -3.967 -22.976  1.00  0.00     0.123 A 
ATOM      9  C   UNL     1      12.028  -4.081 -21.890  1.00  0.00     0.094 A 
ATOM     10  C   UNL     1      11.526  -4.194 -20.591  1.00  0.00     0.146 A 
ATOM     11  O   UNL     1      12.386  -4.311 -19.587  1.00  0.00    -0.452 OA
ENDROOT
BRANCH   1  12
ATOM     12  C   UNL     1      13.076  -4.543 -17.289  1.00  0.00     0.025 A 
ATOM     13  C   UNL     1      12.782  -4.930 -15.969  1.00  0.00     0.016 A 
ATOM     14  C   UNL     1      13.795  -4.989 -15.008  1.00  0.00     0.051 A 
ATOM     15  C   UNL     1      15.110  -4.648 -15.345  1.00  0.00     0.157 A 
ATOM     16  C   UNL     1      14.393  -4.181 -17.616  1.00  0.00     0.062 A 
ATOM     17  C   UNL     1      15.410  -4.241 -16.651  1.00  0.00     0.158 A 
BRANCH  15  18
ATOM     18  O   UNL     1      16.122  -4.707 -14.390  1.00  0.00    -0.504 OA
ATOM     19  H   UNL     1      16.976  -5.227 -14.553  1.00  0.00     0.293 HD
ENDBRANCH  15  18
BRANCH  17  20
ATOM     20  O   UNL     1      16.719  -3.895 -16.983  1.00  0.00    -0.504 OA
ATOM     21  H   UNL     1      16.925  -3.079 -17.549  1.00  0.00     0.293 HD
ENDBRANCH  17  20
ENDBRANCH   1  12
BRANCH   2  22
ATOM     22  O   UNL     1      10.253  -4.761 -16.676  1.00  0.00    -0.502 OA
ATOM     23  H   UNL     1       9.288  -4.681 -16.377  1.00  0.00     0.293 HD
ENDBRANCH   2  22
BRANCH   6  24
ATOM     24  O   UNL     1       7.862  -3.875 -21.354  1.00  0.00    -0.507 OA
ATOM     25  H   UNL     1       7.315  -3.166 -21.819  1.00  0.00     0.293 HD
ENDBRANCH   6  24
BRANCH   8  26
ATOM     26  O   UNL     1      11.653  -3.875 -24.275  1.00  0.00    -0.508 OA
ATOM     27  H   UNL     1      11.578  -4.647 -24.927  1.00  0.00     0.293 HD
ENDBRANCH   8  26
TORSDOF 6
ENDMDL
MODEL 7
REMARK VINA RESULT:    -3.533      1.796      6.629
REMARK INTER + INTRA:          -4.124
REMARK INTER:                  -4.318
REMARK INTRA:                   0.194
REMARK UNBOUND:                 0.132
REMARK SMILES O=c1c(O)c(-c2ccc(O)c(O)c2)oc2cc(O)cc(O)c12
REMARK SMILES IDX 5 1 3 2 2 3 1 4 22 5 20 6 19 7 17 8 16 9 15 10 14 11 6 12
REMARK SMILES IDX 7 13 8 14 9 15 13 16 11 17 10 18 12 20 4 22 21 24 18 26
REMARK H PARENT 10 19 12 21 4 23 21 25 18 27
REMARK Flexibility Score: inf
ROOT
ATOM      1  C   UNL     1      11.994  -4.757 -17.980  1.00  0.00     0.180 A 
ATOM      2  C   UNL     1      12.903  -4.298 -18.948  1.00  0.00     0.208 A 
ATOM      3  C   UNL     1      14.268  -4.235 -18.626  1.00  0.00     0.238 A 
ATOM      4  O   UNL     1      15.083  -3.875 -19.514  1.00  0.00    -0.285 OA
ATOM      5  C   UNL     1      14.705  -4.617 -17.334  1.00  0.00     0.111 A 
ATOM      6  C   UNL     1      16.058  -4.556 -16.886  1.00  0.00     0.134 A 
ATOM      7  C   UNL     1      16.394  -5.082 -15.632  1.00  0.00     0.093 A 
ATOM      8  C   UNL     1      15.418  -5.607 -14.786  1.00  0.00     0.123 A 
ATOM      9  C   UNL     1      14.083  -5.617 -15.190  1.00  0.00     0.094 A 
ATOM     10  C   UNL     1      13.722  -5.132 -16.450  1.00  0.00     0.146 A 
ATOM     11  O   UNL     1      12.442  -5.170 -16.800  1.00  0.00    -0.452 OA
ENDROOT
BRANCH   1  12
ATOM     12  C   UNL     1      10.537  -4.828 -18.238  1.00  0.00     0.025 A 
ATOM     13  C   UNL     1       9.893  -3.888 -19.061  1.00  0.00     0.016 A 
ATOM     14  C   UNL     1       8.513  -3.960 -19.271  1.00  0.00     0.051 A 
ATOM     15  C   UNL     1       7.756  -4.962 -18.650  1.00  0.00     0.157 A 
ATOM     16  C   UNL     1       9.770  -5.818 -17.602  1.00  0.00     0.062 A 
ATOM     17  C   UNL     1       8.385  -5.890 -17.812  1.00  0.00     0.158 A 
BRANCH  15  18
ATOM     18  O   UNL     1       6.380  -5.038 -18.858  1.00  0.00    -0.504 OA
ATOM     19  H   UNL     1       5.903  -5.929 -18.928  1.00  0.00     0.293 HD
ENDBRANCH  15  18
BRANCH  17  20
ATOM     20  O   UNL     1       7.628  -6.882 -17.190  1.00  0.00    -0.504 OA
ATOM     21  H   UNL     1       6.615  -6.862 -17.201  1.00  0.00     0.293 HD
ENDBRANCH  17  20
ENDBRANCH   1  12
BRANCH   2  22
ATOM     22  O   UNL     1      12.453  -3.947 -20.225  1.00  0.00    -0.502 OA
ATOM     23  H   UNL     1      12.726  -3.084 -20.680  1.00  0.00     0.293 HD
ENDBRANCH   2  22
BRANCH   6  24
ATOM     24  O   UNL     1      17.097  -3.968 -17.615  1.00  0.00    -0.507 OA
ATOM     25  H   UNL     1      17.069  -3.782 -18.606  1.00  0.00     0.293 HD
ENDBRANCH   6  24
BRANCH   8  26
ATOM     26  O   UNL     1      15.787  -6.108 -13.539  1.00  0.00    -0.508 OA
ATOM     27  H   UNL     1      16.756  -6.130 -13.242  1.00  0.00     0.293 HD
ENDBRANCH   8  26
TORSDOF 6
ENDMDL
MODEL 8
REMARK VINA RESULT:    -3.444      2.019      3.633
REMARK INTER + INTRA:          -4.017
REMARK INTER:                  -4.561
REMARK INTRA:                   0.544
REMARK UNBOUND:                 0.132
REMARK SMILES O=c1c(O)c(-c2ccc(O)c(O)c2)oc2cc(O)cc(O)c12
REMARK SMILES IDX 5 1 3 2 2 3 1 4 22 5 20 6 19 7 17 8 16 9 15 10 14 11 6 12
REMARK SMILES IDX 7 13 8 14 9 15 13 16 11 17 10 18 12 20 4 22 21 24 18 26
REMARK H PARENT 10 19 12 21 4 23 21 25 18 27
REMARK Flexibility Score: inf
ROOT
ATOM      1  C   UNL     1       9.001  -4.113 -19.893  1.00  0.00     0.180 A 
ATOM      2  C   UNL     1       9.115  -4.040 -21.292  1.00  0.00     0.208 A 
ATOM      3  C   UNL     1       7.947  -3.997 -22.070  1.00  0.00     0.238 A 
ATOM      4  O   UNL     1       8.057  -3.876 -23.318  1.00  0.00    -0.285 OA
ATOM      5  C   UNL     1       6.680  -4.043 -21.441  1.00  0.00     0.111 A 
ATOM      6  C   UNL     1       5.432  -4.046 -22.133  1.00  0.00     0.134 A 
ATOM      7  C   UNL     1       4.239  -3.964 -21.404  1.00  0.00     0.093 A 
ATOM      8  C   UNL     1       4.246  -3.943 -20.010  1.00  0.00     0.123 A 
ATOM      9  C   UNL     1       5.458  -4.000 -19.322  1.00  0.00     0.094 A 
ATOM     10  C   UNL     1       6.667  -4.047 -20.022  1.00  0.00     0.146 A 
ATOM     11  O   UNL     1       7.798  -4.089 -19.330  1.00  0.00    -0.452 OA
ENDROOT
BRANCH   1  12
ATOM     12  C   UNL     1      10.186  -4.186 -19.008  1.00  0.00     0.025 A 
ATOM     13  C   UNL     1      10.054  -4.335 -17.617  1.00  0.00     0.016 A 
ATOM     14  C   UNL     1      11.186  -4.377 -16.799  1.00  0.00     0.051 A 
ATOM     15  C   UNL     1      12.465  -4.257 -17.357  1.00  0.00     0.157 A 
ATOM     16  C   UNL     1      11.470  -4.045 -19.561  1.00  0.00     0.062 A 
ATOM     17  C   UNL     1      12.607  -4.088 -18.740  1.00  0.00     0.158 A 
BRANCH  15  18
ATOM     18  O   UNL     1      13.597  -4.300 -16.546  1.00  0.00    -0.504 OA
ATOM     19  H   UNL     1      13.947  -5.174 -16.171  1.00  0.00     0.293 HD
ENDBRANCH  15  18
BRANCH  17  20
ATOM     20  O   UNL     1      13.881  -3.962 -19.293  1.00  0.00    -0.504 OA
ATOM     21  H   UNL     1      14.380  -3.080 -19.278  1.00  0.00     0.293 HD
ENDBRANCH  17  20
ENDBRANCH   1  12
BRANCH   2  22
ATOM     22  O   UNL     1      10.377  -3.972 -21.891  1.00  0.00    -0.502 OA
ATOM     23  H   UNL     1      10.501  -3.780 -22.878  1.00  0.00     0.293 HD
ENDBRANCH   2  22
BRANCH   6  24
ATOM     24  O   UNL     1       5.309  -4.157 -23.521  1.00  0.00    -0.507 OA
ATOM     25  H   UNL     1       5.779  -4.849 -24.086  1.00  0.00     0.293 HD
ENDBRANCH   6  24
BRANCH   8  26
ATOM     26  O   UNL     1       3.039  -3.875 -19.318  1.00  0.00    -0.508 OA
ATOM     27  H   UNL     1       2.391  -3.108 -19.455  1.00  0.00     0.293 HD
ENDBRANCH   8  26
TORSDOF 6
ENDMDL
MODEL 9
REMARK VINA RESULT:    -3.096      4.012      5.862
REMARK INTER + INTRA:          -3.597
REMARK INTER:                  -4.151
REMARK INTRA:                   0.554
REMARK UNBOUND:                 0.132
REMARK SMILES O=c1c(O)c(-c2ccc(O)c(O)c2)oc2cc(O)cc(O)c12
REMARK SMILES IDX 5 1 3 2 2 3 1 4 22 5 20 6 19 7 17 8 16 9 15 10 14 11 6 12
REMARK SMILES IDX 7 13 8 14 9 15 13 16 11 17 10 18 12 20 4 22 21 24 18 26
REMARK H PARENT 10 19 12 21 4 23 21 25 18 27
REMARK Flexibility Score: inf
ROOT
ATOM      1  C   UNL     1       9.452  -4.026 -22.078  1.00  0.00     0.180 A 
ATOM      2  C   UNL     1       9.388  -4.156 -20.680  1.00  0.00     0.208 A 
ATOM      3  C   UNL     1       8.132  -4.155 -20.052  1.00  0.00     0.238 A 
ATOM      4  O   UNL     1       8.079  -4.326 -18.807  1.00  0.00    -0.285 OA
ATOM      5  C   UNL     1       6.957  -4.008 -20.829  1.00  0.00     0.111 A 
ATOM      6  C   UNL     1       5.635  -3.953 -20.294  1.00  0.00     0.134 A 
ATOM      7  C   UNL     1       4.539  -3.937 -21.165  1.00  0.00     0.093 A 
ATOM      8  C   UNL     1       4.717  -3.908 -22.548  1.00  0.00     0.123 A 
ATOM      9  C   UNL     1       6.007  -3.901 -23.080  1.00  0.00     0.094 A 
ATOM     10  C   UNL     1       7.120  -3.954 -22.237  1.00  0.00     0.146 A 
ATOM     11  O   UNL     1       8.329  -3.956 -22.784  1.00  0.00    -0.452 OA
ENDROOT
BRANCH   1  12
ATOM     12  C   UNL     1      10.740  -3.994 -22.808  1.00  0.00     0.025 A 
ATOM     13  C   UNL     1      10.785  -3.931 -24.212  1.00  0.00     0.016 A 
ATOM     14  C   UNL     1      12.013  -3.927 -24.880  1.00  0.00     0.051 A 
ATOM     15  C   UNL     1      13.210  -4.000 -24.158  1.00  0.00     0.157 A 
ATOM     16  C   UNL     1      11.944  -4.088 -22.090  1.00  0.00     0.062 A 
ATOM     17  C   UNL     1      13.176  -4.084 -22.761  1.00  0.00     0.158 A 
BRANCH  15  18
ATOM     18  O   UNL     1      14.436  -3.995 -24.821  1.00  0.00    -0.504 OA
ATOM     19  H   UNL     1      15.061  -4.792 -24.786  1.00  0.00     0.293 HD
ENDBRANCH  15  18
BRANCH  17  20
ATOM     20  O   UNL     1      14.369  -4.164 -22.044  1.00  0.00    -0.504 OA
ATOM     21  H   UNL     1      14.391  -4.060 -21.036  1.00  0.00     0.293 HD
ENDBRANCH  17  20
ENDBRANCH   1  12
BRANCH   2  22
ATOM     22  O   UNL     1      10.560  -4.322 -19.935  1.00  0.00    -0.502 OA
ATOM     23  H   UNL     1      11.480  -4.296 -20.357  1.00  0.00     0.293 HD
ENDBRANCH   2  22
BRANCH   6  24
ATOM     24  O   UNL     1       5.347  -3.884 -18.927  1.00  0.00    -0.507 OA
ATOM     25  H   UNL     1       5.327  -4.678 -18.304  1.00  0.00     0.293 HD
ENDBRANCH   6  24
BRANCH   8  26
ATOM     26  O   UNL     1       3.603  -3.877 -23.384  1.00  0.00    -0.508 OA
ATOM     27  H   UNL     1       3.286  -3.016 -23.813  1.00  0.00     0.293 HD
ENDBRANCH   8  26
TORSDOF 6
ENDMDL
