MODEL 1
REMARK VINA RESULT:    -4.804      0.000      0.000
REMARK INTER + INTRA:         -13.741
REMARK INTER:                 -10.981
REMARK INTRA:                  -2.760
REMARK UNBOUND:                -2.760
REMARK SMILES CCCCCCCCCCCCCCCCCCCCCCCC(=O)[O-]
REMARK SMILES IDX 13 1 14 2 15 3 16 4 17 5 18 6 19 7 20 8 21 9 22 10 23 11
REMARK SMILES IDX 24 12 25 13 26 14 12 15 11 16 10 17 9 18 8 19 7 20 6 21 5 22
REMARK SMILES IDX 4 23 3 24 2 25 1 26
REMARK H PARENT
REMARK Flexibility Score: inf
ROOT
ATOM      1  C   UNL     1      72.513 -38.330  11.526  1.00  0.00     0.000 C 
ENDROOT
BRANCH   1   2
ATOM      2  C   UNL     1      70.994 -38.222  11.751  1.00  0.00     0.000 C 
BRANCH   2   3
ATOM      3  C   UNL     1      70.244 -37.732  10.494  1.00  0.00     0.000 C 
BRANCH   3   4
ATOM      4  C   UNL     1      69.624 -38.870   9.658  1.00  0.00     0.000 C 
BRANCH   4   5
ATOM      5  C   UNL     1      68.083 -38.882   9.613  1.00  0.00     0.000 C 
BRANCH   5   6
ATOM      6  C   UNL     1      67.419 -37.517   9.877  1.00  0.00     0.000 C 
BRANCH   6   7
ATOM      7  C   UNL     1      65.935 -37.642  10.257  1.00  0.00     0.000 C 
BRANCH   7   8
ATOM      8  C   UNL     1      65.499 -36.608  11.309  1.00  0.00     0.000 C 
BRANCH   8   9
ATOM      9  C   UNL     1      66.540 -36.322  12.412  1.00  0.00     0.000 C 
BRANCH   9  10
ATOM     10  C   UNL     1      66.013 -35.518  13.614  1.00  0.00     0.006 C 
BRANCH  10  11
ATOM     11  C   UNL     1      64.597 -35.933  14.039  1.00  0.00     0.053 C 
BRANCH  11  12
ATOM     12  C   UNL     1      63.696 -34.741  14.105  1.00  0.00     0.041 C 
ATOM     13  O   UNL     1      63.341 -34.156  13.048  1.00  0.00    -0.550 OA
ATOM     14  O   UNL     1      63.222 -34.294  15.332  1.00  0.00    -0.550 OA
ENDBRANCH  11  12
ENDBRANCH  10  11
ENDBRANCH   9  10
ENDBRANCH   8   9
ENDBRANCH   7   8
ENDBRANCH   6   7
ENDBRANCH   5   6
ENDBRANCH   4   5
ENDBRANCH   3   4
ENDBRANCH   2   3
ENDBRANCH   1   2
BRANCH   1  15
ATOM     15  C   UNL     1      73.118 -37.043  10.943  1.00  0.00     0.000 C 
BRANCH  15  16
ATOM     16  C   UNL     1      74.413 -37.303  10.150  1.00  0.00     0.000 C 
BRANCH  16  17
ATOM     17  C   UNL     1      74.356 -36.717   8.727  1.00  0.00     0.000 C 
BRANCH  17  18
ATOM     18  C   UNL     1      72.979 -36.150   8.338  1.00  0.00    -0.000 C 
BRANCH  18  19
ATOM     19  C   UNL     1      72.981 -35.500   6.946  1.00  0.00    -0.000 C 
BRANCH  19  20
ATOM     20  C   UNL     1      72.541 -34.030   7.027  1.00  0.00    -0.000 C 
BRANCH  20  21
ATOM     21  C   UNL     1      71.900 -33.526   5.724  1.00  0.00    -0.000 C 
BRANCH  21  22
ATOM     22  C   UNL     1      70.377 -33.734   5.694  1.00  0.00    -0.000 C 
BRANCH  22  23
ATOM     23  C   UNL     1      69.714 -33.453   7.053  1.00  0.00    -0.000 C 
BRANCH  23  24
ATOM     24  C   UNL     1      68.781 -34.588   7.502  1.00  0.00    -0.000 C 
BRANCH  24  25
ATOM     25  C   UNL     1      69.439 -35.956   7.288  1.00  0.00    -0.003 C 
ATOM     26  C   UNL     1      68.598 -36.833   6.365  1.00  0.00     0.004 C 
ENDBRANCH  24  25
ENDBRANCH  23  24
ENDBRANCH  22  23
ENDBRANCH  21  22
ENDBRANCH  20  21
ENDBRANCH  19  20
ENDBRANCH  18  19
ENDBRANCH  17  18
ENDBRANCH  16  17
ENDBRANCH  15  16
ENDBRANCH   1  15
TORSDOF 22
ENDMDL
MODEL 2
REMARK VINA RESULT:    -4.728      1.282      2.376
REMARK INTER + INTRA:         -13.569
REMARK INTER:                 -10.527
REMARK INTRA:                  -3.042
REMARK UNBOUND:                -2.760
REMARK SMILES CCCCCCCCCCCCCCCCCCCCCCCC(=O)[O-]
REMARK SMILES IDX 13 1 14 2 15 3 16 4 17 5 18 6 19 7 20 8 21 9 22 10 23 11
REMARK SMILES IDX 24 12 25 13 26 14 12 15 11 16 10 17 9 18 8 19 7 20 6 21 5 22
REMARK SMILES IDX 4 23 3 24 2 25 1 26
REMARK H PARENT
REMARK Flexibility Score: inf
ROOT
ATOM      1  C   UNL     1      74.469 -37.160  10.185  1.00  0.00     0.000 C 
ENDROOT
BRANCH   1   2
ATOM      2  C   UNL     1      72.945 -37.223  10.396  1.00  0.00     0.000 C 
BRANCH   2   3
ATOM      3  C   UNL     1      72.554 -38.040  11.646  1.00  0.00     0.000 C 
BRANCH   3   4
ATOM      4  C   UNL     1      71.102 -38.556  11.621  1.00  0.00     0.000 C 
BRANCH   4   5
ATOM      5  C   UNL     1      70.210 -37.943  10.524  1.00  0.00     0.000 C 
BRANCH   5   6
ATOM      6  C   UNL     1      69.533 -38.968   9.595  1.00  0.00     0.000 C 
BRANCH   6   7
ATOM      7  C   UNL     1      68.052 -38.646   9.334  1.00  0.00     0.000 C 
BRANCH   7   8
ATOM      8  C   UNL     1      67.603 -37.330   9.994  1.00  0.00     0.000 C 
BRANCH   8   9
ATOM      9  C   UNL     1      66.140 -37.315  10.486  1.00  0.00     0.000 C 
BRANCH   9  10
ATOM     10  C   UNL     1      65.781 -36.152  11.429  1.00  0.00     0.006 C 
BRANCH  10  11
ATOM     11  C   UNL     1      65.148 -34.961  10.696  1.00  0.00     0.053 C 
BRANCH  11  12
ATOM     12  C   UNL     1      63.847 -34.583  11.332  1.00  0.00     0.041 C 
ATOM     13  O   UNL     1      62.779 -35.144  10.971  1.00  0.00    -0.550 OA
ATOM     14  O   UNL     1      63.818 -33.632  12.345  1.00  0.00    -0.550 OA
ENDBRANCH  11  12
ENDBRANCH  10  11
ENDBRANCH   9  10
ENDBRANCH   8   9
ENDBRANCH   7   8
ENDBRANCH   6   7
ENDBRANCH   5   6
ENDBRANCH   4   5
ENDBRANCH   3   4
ENDBRANCH   2   3
ENDBRANCH   1   2
BRANCH   1  15
ATOM     15  C   UNL     1      74.852 -36.820   8.736  1.00  0.00     0.000 C 
BRANCH  15  16
ATOM     16  C   UNL     1      73.644 -36.364   7.895  1.00  0.00     0.000 C 
BRANCH  16  17
ATOM     17  C   UNL     1      73.981 -36.260   6.396  1.00  0.00     0.000 C 
BRANCH  17  18
ATOM     18  C   UNL     1      72.941 -35.477   5.574  1.00  0.00    -0.000 C 
BRANCH  18  19
ATOM     19  C   UNL     1      73.325 -34.001   5.388  1.00  0.00    -0.000 C 
BRANCH  19  20
ATOM     20  C   UNL     1      72.106 -33.087   5.589  1.00  0.00    -0.000 C 
BRANCH  20  21
ATOM     21  C   UNL     1      71.334 -33.396   6.881  1.00  0.00    -0.000 C 
BRANCH  21  22
ATOM     22  C   UNL     1      69.811 -33.281   6.703  1.00  0.00    -0.000 C 
BRANCH  22  23
ATOM     23  C   UNL     1      69.044 -34.394   7.435  1.00  0.00    -0.000 C 
BRANCH  23  24
ATOM     24  C   UNL     1      69.827 -35.715   7.489  1.00  0.00    -0.000 C 
BRANCH  24  25
ATOM     25  C   UNL     1      69.446 -36.627   6.316  1.00  0.00    -0.003 C 
ATOM     26  C   UNL     1      70.300 -37.891   6.301  1.00  0.00     0.004 C 
ENDBRANCH  24  25
ENDBRANCH  23  24
ENDBRANCH  22  23
ENDBRANCH  21  22
ENDBRANCH  20  21
ENDBRANCH  19  20
ENDBRANCH  18  19
ENDBRANCH  17  18
ENDBRANCH  16  17
ENDBRANCH  15  16
ENDBRANCH   1  15
TORSDOF 22
ENDMDL
MODEL 3
REMARK VINA RESULT:    -4.620      1.288      3.029
REMARK INTER + INTRA:         -13.321
REMARK INTER:                  -9.826
REMARK INTRA:                  -3.495
REMARK UNBOUND:                -2.760
REMARK SMILES CCCCCCCCCCCCCCCCCCCCCCCC(=O)[O-]
REMARK SMILES IDX 13 1 14 2 15 3 16 4 17 5 18 6 19 7 20 8 21 9 22 10 23 11
REMARK SMILES IDX 24 12 25 13 26 14 12 15 11 16 10 17 9 18 8 19 7 20 6 21 5 22
REMARK SMILES IDX 4 23 3 24 2 25 1 26
REMARK H PARENT
REMARK Flexibility Score: inf
ROOT
ATOM      1  C   UNL     1      71.894 -37.539  10.894  1.00  0.00     0.000 C 
ENDROOT
BRANCH   1   2
ATOM      2  C   UNL     1      70.624 -38.259  11.383  1.00  0.00     0.000 C 
BRANCH   2   3
ATOM      3  C   UNL     1      70.701 -39.789  11.192  1.00  0.00     0.000 C 
BRANCH   3   4
ATOM      4  C   UNL     1      69.957 -40.296   9.941  1.00  0.00     0.000 C 
BRANCH   4   5
ATOM      5  C   UNL     1      68.647 -41.058  10.225  1.00  0.00     0.000 C 
BRANCH   5   6
ATOM      6  C   UNL     1      67.367 -40.212  10.094  1.00  0.00     0.000 C 
BRANCH   6   7
ATOM      7  C   UNL     1      67.458 -39.167   8.970  1.00  0.00     0.000 C 
BRANCH   7   8
ATOM      8  C   UNL     1      66.768 -37.840   9.332  1.00  0.00     0.000 C 
BRANCH   8   9
ATOM      9  C   UNL     1      67.088 -37.303  10.742  1.00  0.00     0.000 C 
BRANCH   9  10
ATOM     10  C   UNL     1      65.863 -37.070  11.646  1.00  0.00     0.006 C 
BRANCH  10  11
ATOM     11  C   UNL     1      65.993 -35.815  12.519  1.00  0.00     0.053 C 
BRANCH  11  12
ATOM     12  C   UNL     1      64.853 -35.724  13.485  1.00  0.00     0.041 C 
ATOM     13  O   UNL     1      63.693 -36.059  13.128  1.00  0.00    -0.550 OA
ATOM     14  O   UNL     1      65.078 -35.299  14.789  1.00  0.00    -0.550 OA
ENDBRANCH  11  12
ENDBRANCH  10  11
ENDBRANCH   9  10
ENDBRANCH   8   9
ENDBRANCH   7   8
ENDBRANCH   6   7
ENDBRANCH   5   6
ENDBRANCH   4   5
ENDBRANCH   3   4
ENDBRANCH   2   3
ENDBRANCH   1   2
BRANCH   1  15
ATOM     15  C   UNL     1      71.812 -37.138   9.412  1.00  0.00     0.000 C 
BRANCH  15  16
ATOM     16  C   UNL     1      70.375 -36.806   8.966  1.00  0.00     0.000 C 
BRANCH  16  17
ATOM     17  C   UNL     1      70.108 -37.209   7.504  1.00  0.00     0.000 C 
BRANCH  17  18
ATOM     18  C   UNL     1      69.571 -36.064   6.627  1.00  0.00    -0.000 C 
BRANCH  18  19
ATOM     19  C   UNL     1      68.949 -34.928   7.454  1.00  0.00    -0.000 C 
BRANCH  19  20
ATOM     20  C   UNL     1      69.546 -33.569   7.057  1.00  0.00    -0.000 C 
BRANCH  20  21
ATOM     21  C   UNL     1      70.430 -33.649   5.802  1.00  0.00    -0.000 C 
BRANCH  21  22
ATOM     22  C   UNL     1      71.810 -33.002   6.009  1.00  0.00    -0.000 C 
BRANCH  22  23
ATOM     23  C   UNL     1      72.967 -33.981   5.750  1.00  0.00    -0.000 C 
BRANCH  23  24
ATOM     24  C   UNL     1      73.051 -35.092   6.809  1.00  0.00    -0.000 C 
BRANCH  24  25
ATOM     25  C   UNL     1      73.719 -36.347   6.236  1.00  0.00    -0.003 C 
ATOM     26  C   UNL     1      74.836 -36.842   7.150  1.00  0.00     0.004 C 
ENDBRANCH  24  25
ENDBRANCH  23  24
ENDBRANCH  22  23
ENDBRANCH  21  22
ENDBRANCH  20  21
ENDBRANCH  19  20
ENDBRANCH  18  19
ENDBRANCH  17  18
ENDBRANCH  16  17
ENDBRANCH  15  16
ENDBRANCH   1  15
TORSDOF 22
ENDMDL
MODEL 4
REMARK VINA RESULT:    -4.559      1.682      4.585
REMARK INTER + INTRA:         -13.182
REMARK INTER:                  -9.828
REMARK INTRA:                  -3.354
REMARK UNBOUND:                -2.760
REMARK SMILES CCCCCCCCCCCCCCCCCCCCCCCC(=O)[O-]
REMARK SMILES IDX 13 1 14 2 15 3 16 4 17 5 18 6 19 7 20 8 21 9 22 10 23 11
REMARK SMILES IDX 24 12 25 13 26 14 12 15 11 16 10 17 9 18 8 19 7 20 6 21 5 22
REMARK SMILES IDX 4 23 3 24 2 25 1 26
REMARK H PARENT
REMARK Flexibility Score: inf
ROOT
ATOM      1  C   UNL     1      69.092 -34.141   7.491  1.00  0.00     0.000 C 
ENDROOT
BRANCH   1   2
ATOM      2  C   UNL     1      69.020 -35.673   7.361  1.00  0.00     0.000 C 
BRANCH   2   3
ATOM      3  C   UNL     1      70.011 -36.393   8.299  1.00  0.00     0.000 C 
BRANCH   3   4
ATOM      4  C   UNL     1      70.219 -37.882   7.957  1.00  0.00     0.000 C 
BRANCH   4   5
ATOM      5  C   UNL     1      69.572 -38.345   6.637  1.00  0.00     0.000 C 
BRANCH   5   6
ATOM      6  C   UNL     1      68.329 -39.240   6.806  1.00  0.00     0.000 C 
BRANCH   6   7
ATOM      7  C   UNL     1      68.166 -39.764   8.242  1.00  0.00     0.000 C 
BRANCH   7   8
ATOM      8  C   UNL     1      66.915 -39.203   8.942  1.00  0.00     0.000 C 
BRANCH   8   9
ATOM      9  C   UNL     1      67.201 -38.236  10.109  1.00  0.00     0.000 C 
BRANCH   9  10
ATOM     10  C   UNL     1      65.971 -37.483  10.649  1.00  0.00     0.006 C 
BRANCH  10  11
ATOM     11  C   UNL     1      65.896 -36.030  10.159  1.00  0.00     0.053 C 
BRANCH  11  12
ATOM     12  C   UNL     1      64.819 -35.285  10.883  1.00  0.00     0.041 C 
ATOM     13  O   UNL     1      64.436 -34.160  10.466  1.00  0.00    -0.550 OA
ATOM     14  O   UNL     1      64.217 -35.846  12.003  1.00  0.00    -0.550 OA
ENDBRANCH  11  12
ENDBRANCH  10  11
ENDBRANCH   9  10
ENDBRANCH   8   9
ENDBRANCH   7   8
ENDBRANCH   6   7
ENDBRANCH   5   6
ENDBRANCH   4   5
ENDBRANCH   3   4
ENDBRANCH   2   3
ENDBRANCH   1   2
BRANCH   1  15
ATOM     15  C   UNL     1      69.907 -33.489   6.362  1.00  0.00     0.000 C 
BRANCH  15  16
ATOM     16  C   UNL     1      71.241 -32.900   6.858  1.00  0.00     0.000 C 
BRANCH  16  17
ATOM     17  C   UNL     1      72.237 -33.991   7.293  1.00  0.00     0.000 C 
BRANCH  17  18
ATOM     18  C   UNL     1      72.903 -34.735   6.122  1.00  0.00    -0.000 C 
BRANCH  18  19
ATOM     19  C   UNL     1      73.763 -35.920   6.588  1.00  0.00    -0.000 C 
BRANCH  19  20
ATOM     20  C   UNL     1      73.507 -36.234   8.070  1.00  0.00    -0.000 C 
BRANCH  20  21
ATOM     21  C   UNL     1      74.771 -36.701   8.809  1.00  0.00    -0.000 C 
BRANCH  21  22
ATOM     22  C   UNL     1      74.453 -37.422  10.129  1.00  0.00    -0.000 C 
BRANCH  22  23
ATOM     23  C   UNL     1      73.035 -37.118  10.642  1.00  0.00    -0.000 C 
BRANCH  23  24
ATOM     24  C   UNL     1      72.545 -38.149  11.671  1.00  0.00    -0.000 C 
BRANCH  24  25
ATOM     25  C   UNL     1      71.028 -38.349  11.568  1.00  0.00    -0.003 C 
ATOM     26  C   UNL     1      70.687 -39.778  11.160  1.00  0.00     0.004 C 
ENDBRANCH  24  25
ENDBRANCH  23  24
ENDBRANCH  22  23
ENDBRANCH  21  22
ENDBRANCH  20  21
ENDBRANCH  19  20
ENDBRANCH  18  19
ENDBRANCH  17  18
ENDBRANCH  16  17
ENDBRANCH  15  16
ENDBRANCH   1  15
TORSDOF 22
ENDMDL
MODEL 5
REMARK VINA RESULT:    -4.517      2.850      7.097
REMARK INTER + INTRA:         -13.086
REMARK INTER:                 -10.402
REMARK INTRA:                  -2.684
REMARK UNBOUND:                -2.760
REMARK SMILES CCCCCCCCCCCCCCCCCCCCCCCC(=O)[O-]
REMARK SMILES IDX 13 1 14 2 15 3 16 4 17 5 18 6 19 7 20 8 21 9 22 10 23 11
REMARK SMILES IDX 24 12 25 13 26 14 12 15 11 16 10 17 9 18 8 19 7 20 6 21 5 22
REMARK SMILES IDX 4 23 3 24 2 25 1 26
REMARK H PARENT
REMARK Flexibility Score: inf
ROOT
ATOM      1  C   UNL     1      71.184 -38.090  11.712  1.00  0.00     0.000 C 
ENDROOT
BRANCH   1   2
ATOM      2  C   UNL     1      72.715 -38.250  11.670  1.00  0.00     0.000 C 
BRANCH   2   3
ATOM      3  C   UNL     1      73.412 -37.076  10.951  1.00  0.00     0.000 C 
BRANCH   3   4
ATOM      4  C   UNL     1      74.793 -37.437  10.369  1.00  0.00     0.000 C 
BRANCH   4   5
ATOM      5  C   UNL     1      75.110 -36.805   8.999  1.00  0.00     0.000 C 
BRANCH   5   6
ATOM      6  C   UNL     1      73.877 -36.508   8.125  1.00  0.00     0.000 C 
BRANCH   6   7
ATOM      7  C   UNL     1      74.228 -36.354   6.636  1.00  0.00     0.000 C 
BRANCH   7   8
ATOM      8  C   UNL     1      73.125 -35.642   5.833  1.00  0.00     0.000 C 
BRANCH   8   9
ATOM      9  C   UNL     1      73.537 -34.289   5.218  1.00  0.00     0.000 C 
BRANCH   9  10
ATOM     10  C   UNL     1      72.498 -33.162   5.365  1.00  0.00     0.006 C 
BRANCH  10  11
ATOM     11  C   UNL     1      71.065 -33.686   5.529  1.00  0.00     0.053 C 
BRANCH  11  12
ATOM     12  C   UNL     1      70.486 -33.237   6.834  1.00  0.00     0.041 C 
ATOM     13  O   UNL     1      71.088 -32.379   7.532  1.00  0.00    -0.550 OA
ATOM     14  O   UNL     1      69.266 -33.745   7.265  1.00  0.00    -0.550 OA
ENDBRANCH  11  12
ENDBRANCH  10  11
ENDBRANCH   9  10
ENDBRANCH   8   9
ENDBRANCH   7   8
ENDBRANCH   6   7
ENDBRANCH   5   6
ENDBRANCH   4   5
ENDBRANCH   3   4
ENDBRANCH   2   3
ENDBRANCH   1   2
BRANCH   1  15
ATOM     15  C   UNL     1      70.496 -38.647  10.455  1.00  0.00     0.000 C 
BRANCH  15  16
ATOM     16  C   UNL     1      69.608 -37.602   9.754  1.00  0.00     0.000 C 
BRANCH  16  17
ATOM     17  C   UNL     1      70.331 -36.911   8.582  1.00  0.00     0.000 C 
BRANCH  17  18
ATOM     18  C   UNL     1      69.785 -37.296   7.195  1.00  0.00    -0.000 C 
BRANCH  18  19
ATOM     19  C   UNL     1      68.347 -37.835   7.256  1.00  0.00    -0.000 C 
BRANCH  19  20
ATOM     20  C   UNL     1      67.336 -36.747   6.861  1.00  0.00    -0.000 C 
BRANCH  20  21
ATOM     21  C   UNL     1      66.663 -36.088   8.075  1.00  0.00    -0.000 C 
BRANCH  21  22
ATOM     22  C   UNL     1      66.106 -37.117   9.074  1.00  0.00    -0.000 C 
BRANCH  22  23
ATOM     23  C   UNL     1      66.180 -36.629  10.530  1.00  0.00    -0.000 C 
BRANCH  23  24
ATOM     24  C   UNL     1      65.208 -35.473  10.816  1.00  0.00    -0.000 C 
BRANCH  24  25
ATOM     25  C   UNL     1      65.505 -34.831  12.177  1.00  0.00    -0.003 C 
ATOM     26  C   UNL     1      66.258 -35.796  13.088  1.00  0.00     0.004 C 
ENDBRANCH  24  25
ENDBRANCH  23  24
ENDBRANCH  22  23
ENDBRANCH  21  22
ENDBRANCH  20  21
ENDBRANCH  19  20
ENDBRANCH  18  19
ENDBRANCH  17  18
ENDBRANCH  16  17
ENDBRANCH  15  16
ENDBRANCH   1  15
TORSDOF 22
ENDMDL
MODEL 6
REMARK VINA RESULT:    -4.516      3.164      6.943
REMARK INTER + INTRA:         -13.084
REMARK INTER:                  -9.834
REMARK INTRA:                  -3.250
REMARK UNBOUND:                -2.760
REMARK SMILES CCCCCCCCCCCCCCCCCCCCCCCC(=O)[O-]
REMARK SMILES IDX 13 1 14 2 15 3 16 4 17 5 18 6 19 7 20 8 21 9 22 10 23 11
REMARK SMILES IDX 24 12 25 13 26 14 12 15 11 16 10 17 9 18 8 19 7 20 6 21 5 22
REMARK SMILES IDX 4 23 3 24 2 25 1 26
REMARK H PARENT
REMARK Flexibility Score: inf
ROOT
ATOM      1  C   UNL     1      74.424 -37.234  10.122  1.00  0.00     0.000 C 
ENDROOT
BRANCH   1   2
ATOM      2  C   UNL     1      74.673 -36.790   8.669  1.00  0.00     0.000 C 
BRANCH   2   3
ATOM      3  C   UNL     1      73.390 -36.277   7.980  1.00  0.00     0.000 C 
BRANCH   3   4
ATOM      4  C   UNL     1      73.611 -35.805   6.529  1.00  0.00     0.000 C 
BRANCH   4   5
ATOM      5  C   UNL     1      72.931 -34.470   6.166  1.00  0.00     0.000 C 
BRANCH   5   6
ATOM      6  C   UNL     1      72.173 -33.796   7.326  1.00  0.00     0.000 C 
BRANCH   6   7
ATOM      7  C   UNL     1      71.010 -32.915   6.842  1.00  0.00     0.000 C 
BRANCH   7   8
ATOM      8  C   UNL     1      69.660 -33.655   6.842  1.00  0.00     0.000 C 
BRANCH   8   9
ATOM      9  C   UNL     1      69.706 -35.093   7.399  1.00  0.00     0.000 C 
BRANCH   9  10
ATOM     10  C   UNL     1      69.501 -36.204   6.353  1.00  0.00     0.006 C 
BRANCH  10  11
ATOM     11  C   UNL     1      70.257 -37.496   6.695  1.00  0.00     0.053 C 
BRANCH  11  12
ATOM     12  C   UNL     1      69.541 -38.687   6.141  1.00  0.00     0.041 C 
ATOM     13  O   UNL     1      68.359 -38.577   5.720  1.00  0.00    -0.550 OA
ATOM     14  O   UNL     1      70.189 -39.914   6.063  1.00  0.00    -0.550 OA
ENDBRANCH  11  12
ENDBRANCH  10  11
ENDBRANCH   9  10
ENDBRANCH   8   9
ENDBRANCH   7   8
ENDBRANCH   6   7
ENDBRANCH   5   6
ENDBRANCH   4   5
ENDBRANCH   3   4
ENDBRANCH   2   3
ENDBRANCH   1   2
BRANCH   1  15
ATOM     15  C   UNL     1      72.954 -37.083  10.543  1.00  0.00     0.000 C 
BRANCH  15  16
ATOM     16  C   UNL     1      72.528 -38.130  11.590  1.00  0.00     0.000 C 
BRANCH  16  17
ATOM     17  C   UNL     1      71.096 -38.645  11.354  1.00  0.00     0.000 C 
BRANCH  17  18
ATOM     18  C   UNL     1      70.279 -37.794  10.365  1.00  0.00    -0.000 C 
BRANCH  18  19
ATOM     19  C   UNL     1      68.781 -37.766  10.706  1.00  0.00    -0.000 C 
BRANCH  19  20
ATOM     20  C   UNL     1      67.947 -38.363   9.562  1.00  0.00    -0.000 C 
BRANCH  20  21
ATOM     21  C   UNL     1      67.108 -37.309   8.822  1.00  0.00    -0.000 C 
BRANCH  21  22
ATOM     22  C   UNL     1      65.604 -37.629   8.842  1.00  0.00    -0.000 C 
BRANCH  22  23
ATOM     23  C   UNL     1      65.028 -37.677  10.267  1.00  0.00    -0.000 C 
BRANCH  23  24
ATOM     24  C   UNL     1      65.293 -36.386  11.057  1.00  0.00    -0.000 C 
BRANCH  24  25
ATOM     25  C   UNL     1      65.628 -36.697  12.521  1.00  0.00    -0.003 C 
ATOM     26  C   UNL     1      66.079 -35.443  13.261  1.00  0.00     0.004 C 
ENDBRANCH  24  25
ENDBRANCH  23  24
ENDBRANCH  22  23
ENDBRANCH  21  22
ENDBRANCH  20  21
ENDBRANCH  19  20
ENDBRANCH  18  19
ENDBRANCH  17  18
ENDBRANCH  16  17
ENDBRANCH  15  16
ENDBRANCH   1  15
TORSDOF 22
ENDMDL
MODEL 7
REMARK VINA RESULT:    -4.491      1.542      4.461
REMARK INTER + INTRA:         -13.026
REMARK INTER:                 -10.313
REMARK INTRA:                  -2.713
REMARK UNBOUND:                -2.760
REMARK SMILES CCCCCCCCCCCCCCCCCCCCCCCC(=O)[O-]
REMARK SMILES IDX 13 1 14 2 15 3 16 4 17 5 18 6 19 7 20 8 21 9 22 10 23 11
REMARK SMILES IDX 24 12 25 13 26 14 12 15 11 16 10 17 9 18 8 19 7 20 6 21 5 22
REMARK SMILES IDX 4 23 3 24 2 25 1 26
REMARK H PARENT
REMARK Flexibility Score: inf
ROOT
ATOM      1  C   UNL     1      69.896 -33.353   6.677  1.00  0.00     0.000 C 
ENDROOT
BRANCH   1   2
ATOM      2  C   UNL     1      69.061 -34.384   7.457  1.00  0.00     0.000 C 
BRANCH   2   3
ATOM      3  C   UNL     1      69.141 -35.798   6.843  1.00  0.00     0.000 C 
BRANCH   3   4
ATOM      4  C   UNL     1      69.133 -36.930   7.888  1.00  0.00     0.000 C 
BRANCH   4   5
ATOM      5  C   UNL     1      67.739 -37.494   8.228  1.00  0.00     0.000 C 
BRANCH   5   6
ATOM      6  C   UNL     1      67.429 -37.583   9.735  1.00  0.00     0.000 C 
BRANCH   6   7
ATOM      7  C   UNL     1      65.935 -37.394  10.046  1.00  0.00     0.000 C 
BRANCH   7   8
ATOM      8  C   UNL     1      65.406 -36.015   9.615  1.00  0.00     0.000 C 
BRANCH   8   9
ATOM      9  C   UNL     1      63.994 -35.668  10.132  1.00  0.00     0.000 C 
BRANCH   9  10
ATOM     10  C   UNL     1      63.925 -35.246  11.611  1.00  0.00     0.006 C 
BRANCH  10  11
ATOM     11  C   UNL     1      65.223 -34.595  12.108  1.00  0.00     0.053 C 
BRANCH  11  12
ATOM     12  C   UNL     1      65.799 -35.373  13.250  1.00  0.00     0.041 C 
ATOM     13  O   UNL     1      66.883 -35.997  13.108  1.00  0.00    -0.550 OA
ATOM     14  O   UNL     1      65.153 -35.383  14.480  1.00  0.00    -0.550 OA
ENDBRANCH  11  12
ENDBRANCH  10  11
ENDBRANCH   9  10
ENDBRANCH   8   9
ENDBRANCH   7   8
ENDBRANCH   6   7
ENDBRANCH   5   6
ENDBRANCH   4   5
ENDBRANCH   3   4
ENDBRANCH   2   3
ENDBRANCH   1   2
BRANCH   1  15
ATOM     15  C   UNL     1      71.387 -33.396   7.049  1.00  0.00     0.000 C 
BRANCH  15  16
ATOM     16  C   UNL     1      72.289 -33.720   5.843  1.00  0.00     0.000 C 
BRANCH  16  17
ATOM     17  C   UNL     1      73.221 -34.916   6.114  1.00  0.00     0.000 C 
BRANCH  17  18
ATOM     18  C   UNL     1      72.602 -36.000   7.016  1.00  0.00    -0.000 C 
BRANCH  18  19
ATOM     19  C   UNL     1      73.375 -36.184   8.332  1.00  0.00    -0.000 C 
BRANCH  19  20
ATOM     20  C   UNL     1      72.442 -36.665   9.453  1.00  0.00    -0.000 C 
BRANCH  20  21
ATOM     21  C   UNL     1      73.203 -37.243  10.657  1.00  0.00    -0.000 C 
BRANCH  21  22
ATOM     22  C   UNL     1      72.263 -37.829  11.725  1.00  0.00    -0.000 C 
BRANCH  22  23
ATOM     23  C   UNL     1      70.892 -38.224  11.153  1.00  0.00    -0.000 C 
BRANCH  23  24
ATOM     24  C   UNL     1      70.667 -39.744  11.151  1.00  0.00    -0.000 C 
BRANCH  24  25
ATOM     25  C   UNL     1      69.967 -40.194   9.863  1.00  0.00    -0.003 C 
ATOM     26  C   UNL     1      69.930 -41.715   9.758  1.00  0.00     0.004 C 
ENDBRANCH  24  25
ENDBRANCH  23  24
ENDBRANCH  22  23
ENDBRANCH  21  22
ENDBRANCH  20  21
ENDBRANCH  19  20
ENDBRANCH  18  19
ENDBRANCH  17  18
ENDBRANCH  16  17
ENDBRANCH  15  16
ENDBRANCH   1  15
TORSDOF 22
ENDMDL
MODEL 8
REMARK VINA RESULT:    -4.460      3.101      7.450
REMARK INTER + INTRA:         -12.956
REMARK INTER:                 -10.057
REMARK INTRA:                  -2.900
REMARK UNBOUND:                -2.760
REMARK SMILES CCCCCCCCCCCCCCCCCCCCCCCC(=O)[O-]
REMARK SMILES IDX 13 1 14 2 15 3 16 4 17 5 18 6 19 7 20 8 21 9 22 10 23 11
REMARK SMILES IDX 24 12 25 13 26 14 12 15 11 16 10 17 9 18 8 19 7 20 6 21 5 22
REMARK SMILES IDX 4 23 3 24 2 25 1 26
REMARK H PARENT
REMARK Flexibility Score: inf
ROOT
ATOM      1  C   UNL     1      71.077 -38.608  11.592  1.00  0.00     0.000 C 
ENDROOT
BRANCH   1   2
ATOM      2  C   UNL     1      72.502 -38.038  11.711  1.00  0.00     0.000 C 
BRANCH   2   3
ATOM      3  C   UNL     1      72.883 -37.145  10.512  1.00  0.00     0.000 C 
BRANCH   3   4
ATOM      4  C   UNL     1      74.353 -37.294  10.070  1.00  0.00     0.000 C 
BRANCH   4   5
ATOM      5  C   UNL     1      74.667 -36.760   8.658  1.00  0.00     0.000 C 
BRANCH   5   6
ATOM      6  C   UNL     1      73.459 -36.164   7.910  1.00  0.00     0.000 C 
BRANCH   6   7
ATOM      7  C   UNL     1      73.380 -36.626   6.446  1.00  0.00     0.000 C 
BRANCH   7   8
ATOM      8  C   UNL     1      71.960 -36.523   5.864  1.00  0.00     0.000 C 
BRANCH   8   9
ATOM      9  C   UNL     1      70.827 -36.487   6.911  1.00  0.00     0.000 C 
BRANCH   9  10
ATOM     10  C   UNL     1      69.599 -35.647   6.515  1.00  0.00     0.006 C 
BRANCH  10  11
ATOM     11  C   UNL     1      69.499 -34.328   7.293  1.00  0.00     0.053 C 
BRANCH  11  12
ATOM     12  C   UNL     1      70.337 -33.270   6.647  1.00  0.00     0.041 C 
ATOM     13  O   UNL     1      70.947 -32.425   7.354  1.00  0.00    -0.550 OA
ATOM     14  O   UNL     1      70.470 -33.236   5.264  1.00  0.00    -0.550 OA
ENDBRANCH  11  12
ENDBRANCH  10  11
ENDBRANCH   9  10
ENDBRANCH   8   9
ENDBRANCH   7   8
ENDBRANCH   6   7
ENDBRANCH   5   6
ENDBRANCH   4   5
ENDBRANCH   3   4
ENDBRANCH   2   3
ENDBRANCH   1   2
BRANCH   1  15
ATOM     15  C   UNL     1      70.244 -37.898  10.512  1.00  0.00     0.000 C 
BRANCH  15  16
ATOM     16  C   UNL     1      69.715 -38.868   9.439  1.00  0.00     0.000 C 
BRANCH  16  17
ATOM     17  C   UNL     1      68.391 -38.387   8.816  1.00  0.00     0.000 C 
BRANCH  17  18
ATOM     18  C   UNL     1      67.825 -37.108   9.459  1.00  0.00    -0.000 C 
BRANCH  18  19
ATOM     19  C   UNL     1      66.352 -36.866   9.093  1.00  0.00    -0.000 C 
BRANCH  19  20
ATOM     20  C   UNL     1      65.513 -38.132   9.331  1.00  0.00    -0.000 C 
BRANCH  20  21
ATOM     21  C   UNL     1      65.518 -38.583  10.800  1.00  0.00    -0.000 C 
BRANCH  21  22
ATOM     22  C   UNL     1      64.267 -38.119  11.566  1.00  0.00    -0.000 C 
BRANCH  22  23
ATOM     23  C   UNL     1      64.541 -37.886  13.061  1.00  0.00    -0.000 C 
BRANCH  23  24
ATOM     24  C   UNL     1      64.488 -36.400  13.448  1.00  0.00    -0.000 C 
BRANCH  24  25
ATOM     25  C   UNL     1      65.787 -35.684  13.056  1.00  0.00    -0.003 C 
ATOM     26  C   UNL     1      65.527 -34.610  12.004  1.00  0.00     0.004 C 
ENDBRANCH  24  25
ENDBRANCH  23  24
ENDBRANCH  22  23
ENDBRANCH  21  22
ENDBRANCH  20  21
ENDBRANCH  19  20
ENDBRANCH  18  19
ENDBRANCH  17  18
ENDBRANCH  16  17
ENDBRANCH  15  16
ENDBRANCH   1  15
TORSDOF 22
ENDMDL
MODEL 9
REMARK VINA RESULT:    -4.395      1.408      2.109
REMARK INTER + INTRA:         -12.808
REMARK INTER:                 -10.366
REMARK INTRA:                  -2.442
REMARK UNBOUND:                -2.760
REMARK SMILES CCCCCCCCCCCCCCCCCCCCCCCC(=O)[O-]
REMARK SMILES IDX 13 1 14 2 15 3 16 4 17 5 18 6 19 7 20 8 21 9 22 10 23 11
REMARK SMILES IDX 24 12 25 13 26 14 12 15 11 16 10 17 9 18 8 19 7 20 6 21 5 22
REMARK SMILES IDX 4 23 3 24 2 25 1 26
REMARK H PARENT
REMARK Flexibility Score: inf
ROOT
ATOM      1  C   UNL     1      72.685 -37.319  11.124  1.00  0.00     0.000 C 
ENDROOT
BRANCH   1   2
ATOM      2  C   UNL     1      71.687 -38.418  11.533  1.00  0.00     0.000 C 
BRANCH   2   3
ATOM      3  C   UNL     1      70.226 -38.039  11.209  1.00  0.00     0.000 C 
BRANCH   3   4
ATOM      4  C   UNL     1      69.873 -38.152   9.713  1.00  0.00     0.000 C 
BRANCH   4   5
ATOM      5  C   UNL     1      68.500 -37.572   9.321  1.00  0.00     0.000 C 
BRANCH   5   6
ATOM      6  C   UNL     1      67.369 -38.612   9.205  1.00  0.00     0.000 C 
BRANCH   6   7
ATOM      7  C   UNL     1      66.243 -38.381  10.226  1.00  0.00     0.000 C 
BRANCH   7   8
ATOM      8  C   UNL     1      66.494 -37.157  11.125  1.00  0.00     0.000 C 
BRANCH   8   9
ATOM      9  C   UNL     1      65.479 -36.972  12.272  1.00  0.00     0.000 C 
BRANCH   9  10
ATOM     10  C   UNL     1      65.513 -35.594  12.957  1.00  0.00     0.006 C 
BRANCH  10  11
ATOM     11  C   UNL     1      65.324 -34.431  11.973  1.00  0.00     0.053 C 
BRANCH  11  12
ATOM     12  C   UNL     1      63.944 -34.448  11.396  1.00  0.00     0.041 C 
ATOM     13  O   UNL     1      63.776 -34.616  10.160  1.00  0.00    -0.550 OA
ATOM     14  O   UNL     1      62.840 -34.308  12.229  1.00  0.00    -0.550 OA
ENDBRANCH  11  12
ENDBRANCH  10  11
ENDBRANCH   9  10
ENDBRANCH   8   9
ENDBRANCH   7   8
ENDBRANCH   6   7
ENDBRANCH   5   6
ENDBRANCH   4   5
ENDBRANCH   3   4
ENDBRANCH   2   3
ENDBRANCH   1   2
BRANCH   1  15
ATOM     15  C   UNL     1      74.149 -37.770  11.258  1.00  0.00     0.000 C 
BRANCH  15  16
ATOM     16  C   UNL     1      75.073 -37.097  10.225  1.00  0.00     0.000 C 
BRANCH  16  17
ATOM     17  C   UNL     1      74.338 -36.760   8.914  1.00  0.00     0.000 C 
BRANCH  17  18
ATOM     18  C   UNL     1      75.199 -36.938   7.650  1.00  0.00    -0.000 C 
BRANCH  18  19
ATOM     19  C   UNL     1      74.354 -37.059   6.373  1.00  0.00    -0.000 C 
BRANCH  19  20
ATOM     20  C   UNL     1      73.476 -35.812   6.176  1.00  0.00    -0.000 C 
BRANCH  20  21
ATOM     21  C   UNL     1      72.179 -36.111   5.409  1.00  0.00    -0.000 C 
BRANCH  21  22
ATOM     22  C   UNL     1      71.009 -36.471   6.341  1.00  0.00    -0.000 C 
BRANCH  22  23
ATOM     23  C   UNL     1      70.806 -35.438   7.462  1.00  0.00    -0.000 C 
BRANCH  23  24
ATOM     24  C   UNL     1      69.575 -34.548   7.231  1.00  0.00    -0.000 C 
BRANCH  24  25
ATOM     25  C   UNL     1      69.979 -33.201   6.619  1.00  0.00    -0.003 C 
ATOM     26  C   UNL     1      71.367 -32.777   7.087  1.00  0.00     0.004 C 
ENDBRANCH  24  25
ENDBRANCH  23  24
ENDBRANCH  22  23
ENDBRANCH  21  22
ENDBRANCH  20  21
ENDBRANCH  19  20
ENDBRANCH  18  19
ENDBRANCH  17  18
ENDBRANCH  16  17
ENDBRANCH  15  16
ENDBRANCH   1  15
TORSDOF 22
ENDMDL
