MODEL 1
REMARK VINA RESULT:    -5.667      0.000      0.000
REMARK INTER + INTRA:          -8.261
REMARK INTER:                  -6.992
REMARK INTRA:                  -1.269
REMARK UNBOUND:                -1.269
REMARK SMILES C=C(CCC=C(C)C)[C@H]1CC=C(C)CC1
REMARK SMILES IDX 3 1 2 2 1 3 9 4 13 5 12 6 11 7 14 8 10 9 15 10 4 11 5 12
REMARK SMILES IDX 6 13 7 14 8 15
REMARK H PARENT
REMARK Flexibility Score: inf
ROOT
ATOM      1  C   UNL     1     -50.817 -47.868  21.622  1.00  0.00     0.035 C 
ENDROOT
BRANCH   1   2
ATOM      2  C   UNL     1     -51.739 -48.344  22.720  1.00  0.00    -0.074 C 
ATOM      3  C   UNL     1     -51.226 -49.008  23.772  1.00  0.00     0.008 C 
BRANCH   2   4
ATOM      4  C   UNL     1     -53.235 -48.076  22.623  1.00  0.00     0.018 C 
ATOM      5  C   UNL     1     -57.124 -47.185  20.989  1.00  0.00     0.039 C 
ATOM      6  C   UNL     1     -55.644 -47.334  21.211  1.00  0.00    -0.077 C 
ATOM      7  C   UNL     1     -54.976 -46.421  21.935  1.00  0.00    -0.027 C 
ATOM      8  C   UNL     1     -54.882 -48.517  20.657  1.00  0.00     0.031 C 
ATOM      9  C   UNL     1     -53.507 -46.616  22.194  1.00  0.00     0.035 C 
ATOM     10  C   UNL     1     -53.962 -49.132  21.728  1.00  0.00     0.013 C 
ENDBRANCH   2   4
ENDBRANCH   1   2
BRANCH   1  11
ATOM     11  C   UNL     1     -50.191 -49.058  20.888  1.00  0.00     0.032 C 
BRANCH  11  12
ATOM     12  C   UNL     1     -50.844 -49.262  19.543  1.00  0.00    -0.028 C 
ATOM     13  C   UNL     1     -51.601 -50.333  19.217  1.00  0.00    -0.080 C 
ATOM     14  C   UNL     1     -51.826 -51.478  20.178  1.00  0.00     0.039 C 
ATOM     15  C   UNL     1     -52.223 -50.382  17.845  1.00  0.00     0.039 C 
ENDBRANCH  11  12
ENDBRANCH   1  11
TORSDOF 4
ENDMDL
MODEL 2
REMARK VINA RESULT:    -5.497      1.195      1.699
REMARK INTER + INTRA:          -8.052
REMARK INTER:                  -6.525
REMARK INTRA:                  -1.527
REMARK UNBOUND:                -1.269
REMARK SMILES C=C(CCC=C(C)C)[C@H]1CC=C(C)CC1
REMARK SMILES IDX 3 1 2 2 1 3 9 4 13 5 12 6 11 7 14 8 10 9 15 10 4 11 5 12
REMARK SMILES IDX 6 13 7 14 8 15
REMARK H PARENT
REMARK Flexibility Score: inf
ROOT
ATOM      1  C   UNL     1     -50.921 -46.089  22.519  1.00  0.00     0.035 C 
ENDROOT
BRANCH   1   2
ATOM      2  C   UNL     1     -51.709 -46.967  23.463  1.00  0.00    -0.074 C 
ATOM      3  C   UNL     1     -51.111 -47.453  24.566  1.00  0.00     0.008 C 
BRANCH   2   4
ATOM      4  C   UNL     1     -53.163 -47.298  23.155  1.00  0.00     0.018 C 
ATOM      5  C   UNL     1     -56.739 -48.346  20.987  1.00  0.00     0.039 C 
ATOM      6  C   UNL     1     -55.362 -47.881  21.374  1.00  0.00    -0.077 C 
ATOM      7  C   UNL     1     -55.176 -46.633  21.835  1.00  0.00    -0.027 C 
ATOM      8  C   UNL     1     -54.168 -48.804  21.287  1.00  0.00     0.031 C 
ATOM      9  C   UNL     1     -53.802 -46.204  22.270  1.00  0.00     0.035 C 
ATOM     10  C   UNL     1     -53.324 -48.740  22.573  1.00  0.00     0.013 C 
ENDBRANCH   2   4
ENDBRANCH   1   2
BRANCH   1  11
ATOM     11  C   UNL     1     -49.787 -46.882  21.862  1.00  0.00     0.032 C 
BRANCH  11  12
ATOM     12  C   UNL     1     -50.294 -47.651  20.667  1.00  0.00    -0.028 C 
ATOM     13  C   UNL     1     -50.376 -48.999  20.606  1.00  0.00    -0.080 C 
ATOM     14  C   UNL     1     -49.907 -49.882  21.739  1.00  0.00     0.039 C 
ATOM     15  C   UNL     1     -50.941 -49.629  19.358  1.00  0.00     0.039 C 
ENDBRANCH  11  12
ENDBRANCH   1  11
TORSDOF 4
ENDMDL
MODEL 3
REMARK VINA RESULT:    -5.454     11.051     14.152
REMARK INTER + INTRA:          -7.998
REMARK INTER:                  -6.564
REMARK INTRA:                  -1.434
REMARK UNBOUND:                -1.269
REMARK SMILES C=C(CCC=C(C)C)[C@H]1CC=C(C)CC1
REMARK SMILES IDX 3 1 2 2 1 3 9 4 13 5 12 6 11 7 14 8 10 9 15 10 4 11 5 12
REMARK SMILES IDX 6 13 7 14 8 15
REMARK H PARENT
REMARK Flexibility Score: inf
ROOT
ATOM      1  C   UNL     1     -43.959 -48.544  27.490  1.00  0.00     0.035 C 
ENDROOT
BRANCH   1   2
ATOM      2  C   UNL     1     -42.827 -48.630  26.492  1.00  0.00    -0.074 C 
ATOM      3  C   UNL     1     -43.036 -49.236  25.308  1.00  0.00     0.008 C 
BRANCH   2   4
ATOM      4  C   UNL     1     -41.467 -48.038  26.835  1.00  0.00     0.018 C 
ATOM      5  C   UNL     1     -38.012 -46.789  29.090  1.00  0.00     0.039 C 
ATOM      6  C   UNL     1     -39.388 -47.226  28.669  1.00  0.00    -0.077 C 
ATOM      7  C   UNL     1     -40.268 -46.325  28.202  1.00  0.00    -0.027 C 
ATOM      8  C   UNL     1     -39.803 -48.679  28.730  1.00  0.00     0.031 C 
ATOM      9  C   UNL     1     -41.620 -46.789  27.733  1.00  0.00     0.035 C 
ATOM     10  C   UNL     1     -40.494 -49.111  27.423  1.00  0.00     0.013 C 
ENDBRANCH   2   4
ENDBRANCH   1   2
BRANCH   1  11
ATOM     11  C   UNL     1     -44.097 -49.859  28.264  1.00  0.00     0.032 C 
BRANCH  11  12
ATOM     12  C   UNL     1     -43.415 -49.764  29.606  1.00  0.00    -0.028 C 
ATOM     13  C   UNL     1     -42.499 -50.648  30.062  1.00  0.00    -0.080 C 
ATOM     14  C   UNL     1     -42.104 -51.872  29.267  1.00  0.00     0.039 C 
ATOM     15  C   UNL     1     -41.871 -50.403  31.410  1.00  0.00     0.039 C 
ENDBRANCH  11  12
ENDBRANCH   1  11
TORSDOF 4
ENDMDL
MODEL 4
REMARK VINA RESULT:    -5.390     11.672     14.587
REMARK INTER + INTRA:          -7.919
REMARK INTER:                  -7.149
REMARK INTRA:                  -0.770
REMARK UNBOUND:                -1.269
REMARK SMILES C=C(CCC=C(C)C)[C@H]1CC=C(C)CC1
REMARK SMILES IDX 3 1 2 2 1 3 9 4 13 5 12 6 11 7 14 8 10 9 15 10 4 11 5 12
REMARK SMILES IDX 6 13 7 14 8 15
REMARK H PARENT
REMARK Flexibility Score: inf
ROOT
ATOM      1  C   UNL     1     -43.519 -51.048  30.945  1.00  0.00     0.035 C 
ENDROOT
BRANCH   1   2
ATOM      2  C   UNL     1     -43.431 -50.161  29.726  1.00  0.00    -0.074 C 
ATOM      3  C   UNL     1     -44.378 -50.252  28.774  1.00  0.00     0.008 C 
BRANCH   2   4
ATOM      4  C   UNL     1     -42.274 -49.182  29.582  1.00  0.00     0.018 C 
ATOM      5  C   UNL     1     -38.406 -47.551  28.602  1.00  0.00     0.039 C 
ATOM      6  C   UNL     1     -39.557 -48.469  28.907  1.00  0.00    -0.077 C 
ATOM      7  C   UNL     1     -39.891 -48.730  30.182  1.00  0.00    -0.027 C 
ATOM      8  C   UNL     1     -40.379 -49.092  27.802  1.00  0.00     0.031 C 
ATOM      9  C   UNL     1     -41.080 -49.605  30.468  1.00  0.00     0.035 C 
ATOM     10  C   UNL     1     -41.886 -48.950  28.086  1.00  0.00     0.013 C 
ENDBRANCH   2   4
ENDBRANCH   1   2
BRANCH   1  11
ATOM     11  C   UNL     1     -44.962 -51.511  31.175  1.00  0.00     0.032 C 
BRANCH  11  12
ATOM     12  C   UNL     1     -45.528 -50.896  32.430  1.00  0.00    -0.028 C 
ATOM     13  C   UNL     1     -46.479 -49.936  32.447  1.00  0.00    -0.080 C 
ATOM     14  C   UNL     1     -47.039 -49.340  31.176  1.00  0.00     0.039 C 
ATOM     15  C   UNL     1     -46.979 -49.443  33.781  1.00  0.00     0.039 C 
ENDBRANCH  11  12
ENDBRANCH   1  11
TORSDOF 4
ENDMDL
MODEL 5
REMARK VINA RESULT:    -5.385     12.266     14.052
REMARK INTER + INTRA:          -7.913
REMARK INTER:                  -6.950
REMARK INTRA:                  -0.964
REMARK UNBOUND:                -1.269
REMARK SMILES C=C(CCC=C(C)C)[C@H]1CC=C(C)CC1
REMARK SMILES IDX 3 1 2 2 1 3 9 4 13 5 12 6 11 7 14 8 10 9 15 10 4 11 5 12
REMARK SMILES IDX 6 13 7 14 8 15
REMARK H PARENT
REMARK Flexibility Score: inf
ROOT
ATOM      1  C   UNL     1     -42.517 -49.588  28.125  1.00  0.00     0.035 C 
ENDROOT
BRANCH   1   2
ATOM      2  C   UNL     1     -42.702 -50.514  29.304  1.00  0.00    -0.074 C 
ATOM      3  C   UNL     1     -42.087 -51.711  29.306  1.00  0.00     0.008 C 
BRANCH   2   4
ATOM      4  C   UNL     1     -43.583 -50.090  30.471  1.00  0.00     0.018 C 
ATOM      5  C   UNL     1     -46.604 -50.175  33.545  1.00  0.00     0.039 C 
ATOM      6  C   UNL     1     -45.774 -50.444  32.320  1.00  0.00    -0.077 C 
ATOM      7  C   UNL     1     -45.933 -49.691  31.220  1.00  0.00    -0.027 C 
ATOM      8  C   UNL     1     -44.729 -51.536  32.305  1.00  0.00     0.031 C 
ATOM      9  C   UNL     1     -45.055 -49.939  30.023  1.00  0.00     0.035 C 
ATOM     10  C   UNL     1     -43.403 -51.025  31.710  1.00  0.00     0.013 C 
ENDBRANCH   2   4
ENDBRANCH   1   2
BRANCH   1  11
ATOM     11  C   UNL     1     -41.972 -48.231  28.583  1.00  0.00     0.032 C 
BRANCH  11  12
ATOM     12  C   UNL     1     -40.496 -48.121  28.292  1.00  0.00    -0.028 C 
ATOM     13  C   UNL     1     -39.519 -48.381  29.190  1.00  0.00    -0.080 C 
ATOM     14  C   UNL     1     -39.827 -48.765  30.619  1.00  0.00     0.039 C 
ATOM     15  C   UNL     1     -38.084 -48.266  28.744  1.00  0.00     0.039 C 
ENDBRANCH  11  12
ENDBRANCH   1  11
TORSDOF 4
ENDMDL
MODEL 6
REMARK VINA RESULT:    -5.337     12.036     14.620
REMARK INTER + INTRA:          -7.854
REMARK INTER:                  -7.317
REMARK INTRA:                  -0.537
REMARK UNBOUND:                -1.269
REMARK SMILES C=C(CCC=C(C)C)[C@H]1CC=C(C)CC1
REMARK SMILES IDX 3 1 2 2 1 3 9 4 13 5 12 6 11 7 14 8 10 9 15 10 4 11 5 12
REMARK SMILES IDX 6 13 7 14 8 15
REMARK H PARENT
REMARK Flexibility Score: inf
ROOT
ATOM      1  C   UNL     1     -43.702 -49.644  29.213  1.00  0.00     0.035 C 
ENDROOT
BRANCH   1   2
ATOM      2  C   UNL     1     -43.009 -48.419  28.664  1.00  0.00    -0.074 C 
ATOM      3  C   UNL     1     -43.725 -47.303  28.434  1.00  0.00     0.008 C 
BRANCH   2   4
ATOM      4  C   UNL     1     -41.515 -48.460  28.371  1.00  0.00     0.018 C 
ATOM      5  C   UNL     1     -37.261 -47.883  28.767  1.00  0.00     0.039 C 
ATOM      6  C   UNL     1     -38.756 -47.783  28.897  1.00  0.00    -0.077 C 
ATOM      7  C   UNL     1     -39.465 -47.081  27.998  1.00  0.00    -0.027 C 
ATOM      8  C   UNL     1     -39.496 -48.488  30.011  1.00  0.00     0.031 C 
ATOM      9  C   UNL     1     -40.964 -47.038  28.112  1.00  0.00     0.035 C 
ATOM     10  C   UNL     1     -40.724 -49.242  29.469  1.00  0.00     0.013 C 
ENDBRANCH   2   4
ENDBRANCH   1   2
BRANCH   1  11
ATOM     11  C   UNL     1     -44.205 -49.388  30.637  1.00  0.00     0.032 C 
BRANCH  11  12
ATOM     12  C   UNL     1     -44.628 -50.677  31.296  1.00  0.00    -0.028 C 
ATOM     13  C   UNL     1     -45.891 -50.955  31.690  1.00  0.00    -0.080 C 
ATOM     14  C   UNL     1     -47.013 -49.953  31.547  1.00  0.00     0.039 C 
ATOM     15  C   UNL     1     -46.173 -52.304  32.300  1.00  0.00     0.039 C 
ENDBRANCH  11  12
ENDBRANCH   1  11
TORSDOF 4
ENDMDL
MODEL 7
REMARK VINA RESULT:    -5.325      2.671      4.364
REMARK INTER + INTRA:          -7.839
REMARK INTER:                  -7.074
REMARK INTRA:                  -0.765
REMARK UNBOUND:                -1.269
REMARK SMILES C=C(CCC=C(C)C)[C@H]1CC=C(C)CC1
REMARK SMILES IDX 3 1 2 2 1 3 9 4 13 5 12 6 11 7 14 8 10 9 15 10 4 11 5 12
REMARK SMILES IDX 6 13 7 14 8 15
REMARK H PARENT
REMARK Flexibility Score: inf
ROOT
ATOM      1  C   UNL     1     -49.227 -50.357  19.479  1.00  0.00     0.035 C 
ENDROOT
BRANCH   1   2
ATOM      2  C   UNL     1     -50.644 -50.051  19.052  1.00  0.00    -0.074 C 
ATOM      3  C   UNL     1     -51.149 -50.654  17.961  1.00  0.00     0.008 C 
BRANCH   2   4
ATOM      4  C   UNL     1     -51.479 -49.061  19.852  1.00  0.00     0.018 C 
ATOM      5  C   UNL     1     -53.237 -46.958  23.180  1.00  0.00     0.039 C 
ATOM      6  C   UNL     1     -52.555 -47.970  22.302  1.00  0.00    -0.077 C 
ATOM      7  C   UNL     1     -53.284 -48.823  21.563  1.00  0.00    -0.027 C 
ATOM      8  C   UNL     1     -51.048 -48.036  22.204  1.00  0.00     0.031 C 
ATOM      9  C   UNL     1     -52.586 -49.791  20.649  1.00  0.00     0.035 C 
ATOM     10  C   UNL     1     -50.592 -48.126  20.736  1.00  0.00     0.013 C 
ENDBRANCH   2   4
ENDBRANCH   1   2
BRANCH   1  11
ATOM     11  C   UNL     1     -48.389 -50.819  18.282  1.00  0.00     0.032 C 
BRANCH  11  12
ATOM     12  C   UNL     1     -47.711 -49.646  17.619  1.00  0.00    -0.028 C 
ATOM     13  C   UNL     1     -47.771 -49.378  16.295  1.00  0.00    -0.080 C 
ATOM     14  C   UNL     1     -48.499 -50.283  15.327  1.00  0.00     0.039 C 
ATOM     15  C   UNL     1     -47.074 -48.145  15.779  1.00  0.00     0.039 C 
ENDBRANCH  11  12
ENDBRANCH   1  11
TORSDOF 4
ENDMDL
MODEL 8
REMARK VINA RESULT:    -5.323      2.006      2.826
REMARK INTER + INTRA:          -7.837
REMARK INTER:                  -7.214
REMARK INTRA:                  -0.623
REMARK UNBOUND:                -1.269
REMARK SMILES C=C(CCC=C(C)C)[C@H]1CC=C(C)CC1
REMARK SMILES IDX 3 1 2 2 1 3 9 4 13 5 12 6 11 7 14 8 10 9 15 10 4 11 5 12
REMARK SMILES IDX 6 13 7 14 8 15
REMARK H PARENT
REMARK Flexibility Score: inf
ROOT
ATOM      1  C   UNL     1     -49.445 -49.588  20.699  1.00  0.00     0.035 C 
ENDROOT
BRANCH   1   2
ATOM      2  C   UNL     1     -50.499 -49.240  21.725  1.00  0.00    -0.074 C 
ATOM      3  C   UNL     1     -50.343 -49.650  22.997  1.00  0.00     0.008 C 
BRANCH   2   4
ATOM      4  C   UNL     1     -51.726 -48.440  21.310  1.00  0.00     0.018 C 
ATOM      5  C   UNL     1     -55.559 -46.472  21.465  1.00  0.00     0.039 C 
ATOM      6  C   UNL     1     -54.370 -47.354  21.731  1.00  0.00    -0.077 C 
ATOM      7  C   UNL     1     -54.209 -48.495  21.042  1.00  0.00    -0.027 C 
ATOM      8  C   UNL     1     -53.320 -46.969  22.748  1.00  0.00     0.031 C 
ATOM      9  C   UNL     1     -52.986 -49.336  21.282  1.00  0.00     0.035 C 
ATOM     10  C   UNL     1     -51.902 -47.149  22.174  1.00  0.00     0.013 C 
ENDBRANCH   2   4
ENDBRANCH   1   2
BRANCH   1  11
ATOM     11  C   UNL     1     -49.922 -49.223  19.290  1.00  0.00     0.032 C 
BRANCH  11  12
ATOM     12  C   UNL     1     -49.610 -50.331  18.315  1.00  0.00    -0.028 C 
ATOM     13  C   UNL     1     -48.456 -50.433  17.619  1.00  0.00    -0.080 C 
ATOM     14  C   UNL     1     -47.366 -49.392  17.719  1.00  0.00     0.039 C 
ATOM     15  C   UNL     1     -48.269 -51.620  16.708  1.00  0.00     0.039 C 
ENDBRANCH  11  12
ENDBRANCH   1  11
TORSDOF 4
ENDMDL
MODEL 9
REMARK VINA RESULT:    -5.270      1.965      5.850
REMARK INTER + INTRA:          -7.771
REMARK INTER:                  -7.248
REMARK INTRA:                  -0.523
REMARK UNBOUND:                -1.269
REMARK SMILES C=C(CCC=C(C)C)[C@H]1CC=C(C)CC1
REMARK SMILES IDX 3 1 2 2 1 3 9 4 13 5 12 6 11 7 14 8 10 9 15 10 4 11 5 12
REMARK SMILES IDX 6 13 7 14 8 15
REMARK H PARENT
REMARK Flexibility Score: inf
ROOT
ATOM      1  C   UNL     1     -52.997 -49.276  20.664  1.00  0.00     0.035 C 
ENDROOT
BRANCH   1   2
ATOM      2  C   UNL     1     -51.529 -48.921  20.737  1.00  0.00    -0.074 C 
ATOM      3  C   UNL     1     -50.995 -48.562  21.918  1.00  0.00     0.008 C 
BRANCH   2   4
ATOM      4  C   UNL     1     -50.675 -48.966  19.477  1.00  0.00     0.018 C 
ATOM      5  C   UNL     1     -47.418 -49.814  16.783  1.00  0.00     0.039 C 
ATOM      6  C   UNL     1     -48.274 -49.601  18.001  1.00  0.00    -0.077 C 
ATOM      7  C   UNL     1     -48.465 -48.362  18.483  1.00  0.00    -0.027 C 
ATOM      8  C   UNL     1     -48.961 -50.758  18.691  1.00  0.00     0.031 C 
ATOM      9  C   UNL     1     -49.369 -48.161  19.668  1.00  0.00     0.035 C 
ATOM     10  C   UNL     1     -50.437 -50.430  18.984  1.00  0.00     0.013 C 
ENDBRANCH   2   4
ENDBRANCH   1   2
BRANCH   1  11
ATOM     11  C   UNL     1     -53.759 -48.668  21.846  1.00  0.00     0.032 C 
BRANCH  11  12
ATOM     12  C   UNL     1     -54.417 -47.370  21.448  1.00  0.00    -0.028 C 
ATOM     13  C   UNL     1     -55.722 -47.246  21.118  1.00  0.00    -0.080 C 
ATOM     14  C   UNL     1     -56.652 -48.436  21.067  1.00  0.00     0.039 C 
ATOM     15  C   UNL     1     -56.250 -45.875  20.778  1.00  0.00     0.039 C 
ENDBRANCH  11  12
ENDBRANCH   1  11
TORSDOF 4
ENDMDL
