MODEL 1
REMARK VINA RESULT:    -4.435      0.000      0.000
REMARK INTER + INTRA:          -8.328
REMARK INTER:                  -6.769
REMARK INTRA:                  -1.559
REMARK UNBOUND:                -1.559
REMARK SMILES OC[C@H]1O[C@@](CO)(O[C@@H]2O[C@H](CO)[C@@H](O)[C@H](O)[C@@H]2O)[C@H](O)[C@H]1O
REMARK SMILES IDX 8 1 9 2 11 3 14 4 10 5 16 6 18 7 12 8 13 9 15 11 17 13 19 15
REMARK SMILES IDX 5 17 20 18 4 19 22 20 3 21 6 22 7 23 21 25 23 27 2 29 1 30
REMARK H PARENT 13 10 15 12 17 14 19 16 7 24 21 26 23 28 1 31
REMARK Flexibility Score: inf
ROOT
ATOM      1  O   UNL     1     123.729 115.665 112.897  1.00  0.00    -0.313 OA
ENDROOT
BRANCH   1   2
ATOM      2  C   UNL     1     123.002 115.928 111.701  1.00  0.00     0.285 C 
ATOM      3  C   UNL     1     120.964 115.639 110.602  1.00  0.00     0.178 C 
ATOM      4  C   UNL     1     121.694 115.685 109.222  1.00  0.00     0.177 C 
ATOM      5  O   UNL     1     121.809 115.162 111.642  1.00  0.00    -0.341 OA
ATOM      6  C   UNL     1     123.076 115.003 109.312  1.00  0.00     0.179 C 
ATOM      7  C   UNL     1     123.900 115.598 110.478  1.00  0.00     0.202 C 
BRANCH   3   8
ATOM      8  C   UNL     1     119.727 114.737 110.540  1.00  0.00     0.191 C 
BRANCH   8   9
ATOM      9  O   UNL     1     120.123 113.393 110.563  1.00  0.00    -0.394 OA
ATOM     10  H   UNL     1     120.725 113.294 111.346  1.00  0.00     0.210 HD
ENDBRANCH   8   9
ENDBRANCH   3   8
BRANCH   4  11
ATOM     11  O   UNL     1     121.852 117.025 108.828  1.00  0.00    -0.387 OA
ATOM     12  H   UNL     1     122.080 117.542 109.646  1.00  0.00     0.211 HD
ENDBRANCH   4  11
BRANCH   6  13
ATOM     13  O   UNL     1     122.907 113.620 109.508  1.00  0.00    -0.387 OA
ATOM     14  H   UNL     1     122.396 113.277 108.727  1.00  0.00     0.211 HD
ENDBRANCH   6  13
BRANCH   7  15
ATOM     15  O   UNL     1     124.925 114.706 110.843  1.00  0.00    -0.385 OA
ATOM     16  H   UNL     1     125.553 114.660 110.074  1.00  0.00     0.211 HD
ENDBRANCH   7  15
ENDBRANCH   1   2
BRANCH   1  17
ATOM     17  C   UNL     1     124.083 116.802 113.690  1.00  0.00     0.224 C 
ATOM     18  C   UNL     1     125.634 116.843 113.860  1.00  0.00     0.208 C 
ATOM     19  O   UNL     1     123.697 117.936 112.930  1.00  0.00    -0.337 OA
ATOM     20  C   UNL     1     126.073 117.900 112.874  1.00  0.00     0.180 C 
ATOM     21  C   UNL     1     124.823 118.763 112.752  1.00  0.00     0.179 C 
BRANCH  17  22
ATOM     22  C   UNL     1     123.294 116.887 115.032  1.00  0.00     0.225 C 
BRANCH  22  23
ATOM     23  O   UNL     1     123.229 118.215 115.480  1.00  0.00    -0.391 OA
ATOM     24  H   UNL     1     123.069 118.169 116.458  1.00  0.00     0.210 HD
ENDBRANCH  22  23
ENDBRANCH  17  22
BRANCH  18  25
ATOM     25  O   UNL     1     126.021 117.230 115.156  1.00  0.00    -0.385 OA
ATOM     26  H   UNL     1     125.214 117.604 115.596  1.00  0.00     0.211 HD
ENDBRANCH  18  25
BRANCH  20  27
ATOM     27  O   UNL     1     126.464 117.329 111.645  1.00  0.00    -0.387 OA
ATOM     28  H   UNL     1     125.793 117.580 110.957  1.00  0.00     0.211 HD
ENDBRANCH  20  27
BRANCH  21  29
ATOM     29  C   UNL     1     124.720 119.555 111.437  1.00  0.00     0.191 C 
BRANCH  29  30
ATOM     30  O   UNL     1     123.968 118.862 110.474  1.00  0.00    -0.394 OA
ATOM     31  H   UNL     1     123.860 117.933 110.809  1.00  0.00     0.210 HD
ENDBRANCH  29  30
ENDBRANCH  21  29
ENDBRANCH   1  17
TORSDOF 13
ENDMDL
MODEL 2
REMARK VINA RESULT:    -4.369      7.583     10.225
REMARK INTER + INTRA:          -8.227
REMARK INTER:                  -6.601
REMARK INTRA:                  -1.627
REMARK UNBOUND:                -1.559
REMARK SMILES OC[C@H]1O[C@@](CO)(O[C@@H]2O[C@H](CO)[C@@H](O)[C@H](O)[C@@H]2O)[C@H](O)[C@H]1O
REMARK SMILES IDX 8 1 9 2 11 3 14 4 10 5 16 6 18 7 12 8 13 9 15 11 17 13 19 15
REMARK SMILES IDX 5 17 20 18 4 19 22 20 3 21 6 22 7 23 21 25 23 27 2 29 1 30
REMARK H PARENT 13 10 15 12 17 14 19 16 7 24 21 26 23 28 1 31
REMARK Flexibility Score: inf
ROOT
ATOM      1  O   UNL     1     114.051 118.874 111.347  1.00  0.00    -0.313 OA
ENDROOT
BRANCH   1   2
ATOM      2  C   UNL     1     115.114 119.787 111.094  1.00  0.00     0.285 C 
ATOM      3  C   UNL     1     116.729 121.156 112.075  1.00  0.00     0.178 C 
ATOM      4  C   UNL     1     116.680 122.110 110.838  1.00  0.00     0.177 C 
ATOM      5  O   UNL     1     115.497 120.474 112.276  1.00  0.00    -0.341 OA
ATOM      6  C   UNL     1     115.244 122.216 110.286  1.00  0.00     0.179 C 
ATOM      7  C   UNL     1     114.660 120.808 110.016  1.00  0.00     0.202 C 
BRANCH   3   8
ATOM      8  C   UNL     1     117.059 121.932 113.354  1.00  0.00     0.191 C 
BRANCH   8   9
ATOM      9  O   UNL     1     115.913 122.599 113.809  1.00  0.00    -0.394 OA
ATOM     10  H   UNL     1     116.229 123.289 114.448  1.00  0.00     0.210 HD
ENDBRANCH   8   9
ENDBRANCH   3   8
BRANCH   4  11
ATOM     11  O   UNL     1     117.537 121.613 109.840  1.00  0.00    -0.387 OA
ATOM     12  H   UNL     1     117.055 120.870 109.389  1.00  0.00     0.211 HD
ENDBRANCH   4  11
BRANCH   6  13
ATOM     13  O   UNL     1     114.432 122.896 111.211  1.00  0.00    -0.387 OA
ATOM     14  H   UNL     1     114.602 123.868 111.087  1.00  0.00     0.211 HD
ENDBRANCH   6  13
BRANCH   7  15
ATOM     15  O   UNL     1     113.256 120.876 109.958  1.00  0.00    -0.385 OA
ATOM     16  H   UNL     1     112.928 120.853 110.895  1.00  0.00     0.211 HD
ENDBRANCH   7  15
ENDBRANCH   1   2
BRANCH   1  17
ATOM     17  C   UNL     1     114.283 117.510 110.983  1.00  0.00     0.224 C 
ATOM     18  C   UNL     1     115.819 117.273 110.839  1.00  0.00     0.208 C 
ATOM     19  O   UNL     1     113.823 116.735 112.079  1.00  0.00    -0.337 OA
ATOM     20  C   UNL     1     116.194 116.572 112.124  1.00  0.00     0.180 C 
ATOM     21  C   UNL     1     114.878 115.918 112.528  1.00  0.00     0.179 C 
BRANCH  17  22
ATOM     22  C   UNL     1     113.451 117.052 109.747  1.00  0.00     0.225 C 
BRANCH  22  23
ATOM     23  O   UNL     1     112.522 118.040 109.387  1.00  0.00    -0.391 OA
ATOM     24  H   UNL     1     112.149 117.763 108.510  1.00  0.00     0.210 HD
ENDBRANCH  22  23
ENDBRANCH  17  22
BRANCH  18  25
ATOM     25  O   UNL     1     116.134 116.441 109.750  1.00  0.00    -0.385 OA
ATOM     26  H   UNL     1     115.278 116.051 109.431  1.00  0.00     0.211 HD
ENDBRANCH  18  25
BRANCH  20  27
ATOM     27  O   UNL     1     116.668 117.484 113.090  1.00  0.00    -0.387 OA
ATOM     28  H   UNL     1     116.021 117.506 113.843  1.00  0.00     0.211 HD
ENDBRANCH  20  27
BRANCH  21  29
ATOM     29  C   UNL     1     114.746 115.626 114.032  1.00  0.00     0.191 C 
BRANCH  29  30
ATOM     30  O   UNL     1     114.667 116.809 114.783  1.00  0.00    -0.394 OA
ATOM     31  H   UNL     1     113.704 116.970 114.964  1.00  0.00     0.210 HD
ENDBRANCH  29  30
ENDBRANCH  21  29
ENDBRANCH   1  17
TORSDOF 13
ENDMDL
MODEL 3
REMARK VINA RESULT:    -4.315      7.346      9.846
REMARK INTER + INTRA:          -8.144
REMARK INTER:                  -6.495
REMARK INTRA:                  -1.650
REMARK UNBOUND:                -1.559
REMARK SMILES OC[C@H]1O[C@@](CO)(O[C@@H]2O[C@H](CO)[C@@H](O)[C@H](O)[C@@H]2O)[C@H](O)[C@H]1O
REMARK SMILES IDX 8 1 9 2 11 3 14 4 10 5 16 6 18 7 12 8 13 9 15 11 17 13 19 15
REMARK SMILES IDX 5 17 20 18 4 19 22 20 3 21 6 22 7 23 21 25 23 27 2 29 1 30
REMARK H PARENT 13 10 15 12 17 14 19 16 7 24 21 26 23 28 1 31
REMARK Flexibility Score: inf
ROOT
ATOM      1  O   UNL     1     121.245 125.928 113.057  1.00  0.00    -0.313 OA
ENDROOT
BRANCH   1   2
ATOM      2  C   UNL     1     121.749 124.784 112.375  1.00  0.00     0.285 C 
ATOM      3  C   UNL     1     122.524 122.598 112.628  1.00  0.00     0.178 C 
ATOM      4  C   UNL     1     123.414 122.759 111.355  1.00  0.00     0.177 C 
ATOM      5  O   UNL     1     122.293 123.838 113.284  1.00  0.00    -0.341 OA
ATOM      6  C   UNL     1     123.980 124.192 111.262  1.00  0.00     0.179 C 
ATOM      7  C   UNL     1     122.841 125.233 111.367  1.00  0.00     0.202 C 
BRANCH   3   8
ATOM      8  C   UNL     1     123.172 121.639 113.634  1.00  0.00     0.191 C 
BRANCH   8   9
ATOM      9  O   UNL     1     124.196 122.303 114.322  1.00  0.00    -0.394 OA
ATOM     10  H   UNL     1     124.749 122.754 113.631  1.00  0.00     0.210 HD
ENDBRANCH   8   9
ENDBRANCH   3   8
BRANCH   4  11
ATOM     11  O   UNL     1     122.641 122.479 110.214  1.00  0.00    -0.387 OA
ATOM     12  H   UNL     1     122.975 123.069 109.487  1.00  0.00     0.211 HD
ENDBRANCH   4  11
BRANCH   6  13
ATOM     13  O   UNL     1     124.910 124.399 112.296  1.00  0.00    -0.387 OA
ATOM     14  H   UNL     1     125.600 125.023 111.945  1.00  0.00     0.211 HD
ENDBRANCH   6  13
BRANCH   7  15
ATOM     15  O   UNL     1     123.370 126.485 111.735  1.00  0.00    -0.385 OA
ATOM     16  H   UNL     1     122.632 126.993 112.164  1.00  0.00     0.211 HD
ENDBRANCH   7  15
ENDBRANCH   1   2
BRANCH   1  17
ATOM     17  C   UNL     1     119.834 126.147 112.978  1.00  0.00     0.224 C 
ATOM     18  C   UNL     1     119.569 127.534 112.312  1.00  0.00     0.208 C 
ATOM     19  O   UNL     1     119.337 125.143 112.107  1.00  0.00    -0.337 OA
ATOM     20  C   UNL     1     119.187 127.181 110.893  1.00  0.00     0.180 C 
ATOM     21  C   UNL     1     118.646 125.765 111.050  1.00  0.00     0.179 C 
BRANCH  17  22
ATOM     22  C   UNL     1     119.101 125.945 114.339  1.00  0.00     0.225 C 
BRANCH  22  23
ATOM     23  O   UNL     1     119.596 126.838 115.300  1.00  0.00    -0.391 OA
ATOM     24  H   UNL     1     118.818 127.370 115.610  1.00  0.00     0.210 HD
ENDBRANCH  22  23
ENDBRANCH  17  22
BRANCH  18  25
ATOM     25  O   UNL     1     118.505 128.225 112.919  1.00  0.00    -0.385 OA
ATOM     26  H   UNL     1     118.730 129.192 112.875  1.00  0.00     0.211 HD
ENDBRANCH  18  25
BRANCH  20  27
ATOM     27  O   UNL     1     120.298 127.248 110.028  1.00  0.00    -0.387 OA
ATOM     28  H   UNL     1     120.017 126.922 109.133  1.00  0.00     0.211 HD
ENDBRANCH  20  27
BRANCH  21  29
ATOM     29  C   UNL     1     118.712 124.912 109.772  1.00  0.00     0.191 C 
BRANCH  29  30
ATOM     30  O   UNL     1     119.969 124.304 109.622  1.00  0.00    -0.394 OA
ATOM     31  H   UNL     1     119.802 123.367 109.335  1.00  0.00     0.210 HD
ENDBRANCH  29  30
ENDBRANCH  21  29
ENDBRANCH   1  17
TORSDOF 13
ENDMDL
MODEL 4
REMARK VINA RESULT:    -4.298      1.531      3.432
REMARK INTER + INTRA:          -8.118
REMARK INTER:                  -6.472
REMARK INTRA:                  -1.646
REMARK UNBOUND:                -1.559
REMARK SMILES OC[C@H]1O[C@@](CO)(O[C@@H]2O[C@H](CO)[C@@H](O)[C@H](O)[C@@H]2O)[C@H](O)[C@H]1O
REMARK SMILES IDX 8 1 9 2 11 3 14 4 10 5 16 6 18 7 12 8 13 9 15 11 17 13 19 15
REMARK SMILES IDX 5 17 20 18 4 19 22 20 3 21 6 22 7 23 21 25 23 27 2 29 1 30
REMARK H PARENT 13 10 15 12 17 14 19 16 7 24 21 26 23 28 1 31
REMARK Flexibility Score: inf
ROOT
ATOM      1  O   UNL     1     124.168 115.474 111.434  1.00  0.00    -0.313 OA
ENDROOT
BRANCH   1   2
ATOM      2  C   UNL     1     122.841 115.933 111.200  1.00  0.00     0.285 C 
ATOM      3  C   UNL     1     120.849 116.612 112.209  1.00  0.00     0.178 C 
ATOM      4  C   UNL     1     120.043 116.114 110.968  1.00  0.00     0.177 C 
ATOM      5  O   UNL     1     122.063 115.892 112.387  1.00  0.00    -0.341 OA
ATOM      6  C   UNL     1     120.674 114.833 110.384  1.00  0.00     0.179 C 
ATOM      7  C   UNL     1     122.181 115.048 110.108  1.00  0.00     0.202 C 
BRANCH   3   8
ATOM      8  C   UNL     1     120.022 116.478 113.493  1.00  0.00     0.191 C 
BRANCH   8   9
ATOM      9  O   UNL     1     119.978 115.133 113.885  1.00  0.00    -0.394 OA
ATOM     10  H   UNL     1     119.843 114.606 113.055  1.00  0.00     0.210 HD
ENDBRANCH   8   9
ENDBRANCH   3   8
BRANCH   4  11
ATOM     11  O   UNL     1     120.031 117.124 109.991  1.00  0.00    -0.387 OA
ATOM     12  H   UNL     1     120.549 116.782 109.214  1.00  0.00     0.211 HD
ENDBRANCH   4  11
BRANCH   6  13
ATOM     13  O   UNL     1     120.505 113.769 111.289  1.00  0.00    -0.387 OA
ATOM     14  H   UNL     1     120.041 113.041 110.797  1.00  0.00     0.211 HD
ENDBRANCH   6  13
BRANCH   7  15
ATOM     15  O   UNL     1     122.833 113.804 110.019  1.00  0.00    -0.385 OA
ATOM     16  H   UNL     1     123.769 113.948 110.321  1.00  0.00     0.211 HD
ENDBRANCH   7  15
ENDBRANCH   1   2
BRANCH   1  17
ATOM     17  C   UNL     1     125.223 116.386 111.117  1.00  0.00     0.224 C 
ATOM     18  C   UNL     1     124.630 117.822 110.969  1.00  0.00     0.208 C 
ATOM     19  O   UNL     1     126.086 116.383 112.243  1.00  0.00    -0.337 OA
ATOM     20  C   UNL     1     124.989 118.492 112.275  1.00  0.00     0.180 C 
ATOM     21  C   UNL     1     126.219 117.705 112.712  1.00  0.00     0.179 C 
BRANCH  17  22
ATOM     22  C   UNL     1     126.089 115.928 109.904  1.00  0.00     0.225 C 
BRANCH  22  23
ATOM     23  O   UNL     1     125.643 114.689 109.422  1.00  0.00    -0.391 OA
ATOM     24  H   UNL     1     124.807 114.872 108.918  1.00  0.00     0.210 HD
ENDBRANCH  22  23
ENDBRANCH  17  22
BRANCH  18  25
ATOM     25  O   UNL     1     125.213 118.536 109.907  1.00  0.00    -0.385 OA
ATOM     26  H   UNL     1     125.853 119.179 110.312  1.00  0.00     0.211 HD
ENDBRANCH  18  25
BRANCH  20  27
ATOM     27  O   UNL     1     123.932 118.410 113.205  1.00  0.00    -0.387 OA
ATOM     28  H   UNL     1     123.139 118.866 112.817  1.00  0.00     0.211 HD
ENDBRANCH  20  27
BRANCH  21  29
ATOM     29  C   UNL     1     126.486 117.726 114.226  1.00  0.00     0.191 C 
BRANCH  29  30
ATOM     30  O   UNL     1     125.521 116.989 114.931  1.00  0.00    -0.394 OA
ATOM     31  H   UNL     1     125.857 116.055 114.985  1.00  0.00     0.210 HD
ENDBRANCH  29  30
ENDBRANCH  21  29
ENDBRANCH   1  17
TORSDOF 13
ENDMDL
MODEL 5
REMARK VINA RESULT:    -4.277      1.634      5.460
REMARK INTER + INTRA:          -8.087
REMARK INTER:                  -6.533
REMARK INTRA:                  -1.554
REMARK UNBOUND:                -1.559
REMARK SMILES OC[C@H]1O[C@@](CO)(O[C@@H]2O[C@H](CO)[C@@H](O)[C@H](O)[C@@H]2O)[C@H](O)[C@H]1O
REMARK SMILES IDX 8 1 9 2 11 3 14 4 10 5 16 6 18 7 12 8 13 9 15 11 17 13 19 15
REMARK SMILES IDX 5 17 20 18 4 19 22 20 3 21 6 22 7 23 21 25 23 27 2 29 1 30
REMARK H PARENT 13 10 15 12 17 14 19 16 7 24 21 26 23 28 1 31
REMARK Flexibility Score: inf
ROOT
ATOM      1  O   UNL     1     122.877 115.890 112.183  1.00  0.00    -0.313 OA
ENDROOT
BRANCH   1   2
ATOM      2  C   UNL     1     124.231 116.273 111.967  1.00  0.00     0.285 C 
ATOM      3  C   UNL     1     126.254 116.804 113.003  1.00  0.00     0.178 C 
ATOM      4  C   UNL     1     126.639 117.719 111.797  1.00  0.00     0.177 C 
ATOM      5  O   UNL     1     124.845 116.703 113.173  1.00  0.00    -0.341 OA
ATOM      6  C   UNL     1     125.394 118.437 111.237  1.00  0.00     0.179 C 
ATOM      7  C   UNL     1     124.275 117.417 110.918  1.00  0.00     0.202 C 
BRANCH   3   8
ATOM      8  C   UNL     1     126.856 117.334 114.309  1.00  0.00     0.191 C 
BRANCH   8   9
ATOM      9  O   UNL     1     126.122 118.445 114.747  1.00  0.00    -0.394 OA
ATOM     10  H   UNL     1     125.376 118.558 114.103  1.00  0.00     0.210 HD
ENDBRANCH   8   9
ENDBRANCH   3   8
BRANCH   4  11
ATOM     11  O   UNL     1     127.224 116.931 110.790  1.00  0.00    -0.387 OA
ATOM     12  H   UNL     1     126.811 116.029 110.851  1.00  0.00     0.211 HD
ENDBRANCH   4  11
BRANCH   6  13
ATOM     13  O   UNL     1     124.928 119.374 112.177  1.00  0.00    -0.387 OA
ATOM     14  H   UNL     1     125.239 120.269 111.873  1.00  0.00     0.211 HD
ENDBRANCH   6  13
BRANCH   7  15
ATOM     15  O   UNL     1     123.033 118.075 110.851  1.00  0.00    -0.385 OA
ATOM     16  H   UNL     1     122.731 118.216 111.787  1.00  0.00     0.211 HD
ENDBRANCH   7  15
ENDBRANCH   1   2
BRANCH   1  17
ATOM     17  C   UNL     1     122.503 114.587 111.727  1.00  0.00     0.224 C 
ATOM     18  C   UNL     1     121.522 114.730 110.520  1.00  0.00     0.208 C 
ATOM     19  O   UNL     1     123.698 113.989 111.250  1.00  0.00    -0.337 OA
ATOM     20  C   UNL     1     122.396 114.459 109.317  1.00  0.00     0.180 C 
ATOM     21  C   UNL     1     123.502 113.595 109.912  1.00  0.00     0.179 C 
BRANCH  17  22
ATOM     22  C   UNL     1     121.977 113.663 112.866  1.00  0.00     0.225 C 
BRANCH  22  23
ATOM     23  O   UNL     1     120.683 114.042 113.249  1.00  0.00    -0.391 OA
ATOM     24  H   UNL     1     120.419 113.428 113.983  1.00  0.00     0.210 HD
ENDBRANCH  22  23
ENDBRANCH  17  22
BRANCH  18  25
ATOM     25  O   UNL     1     120.483 113.784 110.559  1.00  0.00    -0.385 OA
ATOM     26  H   UNL     1     119.761 114.127 109.969  1.00  0.00     0.211 HD
ENDBRANCH  18  25
BRANCH  20  27
ATOM     27  O   UNL     1     122.884 115.657 108.754  1.00  0.00    -0.387 OA
ATOM     28  H   UNL     1     122.182 116.031 108.159  1.00  0.00     0.211 HD
ENDBRANCH  20  27
BRANCH  21  29
ATOM     29  C   UNL     1     124.826 113.627 109.130  1.00  0.00     0.191 C 
BRANCH  29  30
ATOM     30  O   UNL     1     125.612 114.733 109.490  1.00  0.00    -0.394 OA
ATOM     31  H   UNL     1     125.019 115.530 109.452  1.00  0.00     0.210 HD
ENDBRANCH  29  30
ENDBRANCH  21  29
ENDBRANCH   1  17
TORSDOF 13
ENDMDL
MODEL 6
REMARK VINA RESULT:    -4.275      6.913      9.913
REMARK INTER + INTRA:          -8.083
REMARK INTER:                  -6.534
REMARK INTRA:                  -1.549
REMARK UNBOUND:                -1.559
REMARK SMILES OC[C@H]1O[C@@](CO)(O[C@@H]2O[C@H](CO)[C@@H](O)[C@H](O)[C@@H]2O)[C@H](O)[C@H]1O
REMARK SMILES IDX 8 1 9 2 11 3 14 4 10 5 16 6 18 7 12 8 13 9 15 11 17 13 19 15
REMARK SMILES IDX 5 17 20 18 4 19 22 20 3 21 6 22 7 23 21 25 23 27 2 29 1 30
REMARK H PARENT 13 10 15 12 17 14 19 16 7 24 21 26 23 28 1 31
REMARK Flexibility Score: inf
ROOT
ATOM      1  O   UNL     1     115.381 117.420 110.678  1.00  0.00    -0.313 OA
ENDROOT
BRANCH   1   2
ATOM      2  C   UNL     1     115.562 117.863 112.019  1.00  0.00     0.285 C 
ATOM      3  C   UNL     1     117.090 118.073 113.771  1.00  0.00     0.178 C 
ATOM      4  C   UNL     1     115.925 117.969 114.807  1.00  0.00     0.177 C 
ATOM      5  O   UNL     1     116.791 117.396 112.556  1.00  0.00    -0.341 OA
ATOM      6  C   UNL     1     114.844 116.984 114.317  1.00  0.00     0.179 C 
ATOM      7  C   UNL     1     114.381 117.353 112.887  1.00  0.00     0.202 C 
BRANCH   3   8
ATOM      8  C   UNL     1     118.386 117.484 114.339  1.00  0.00     0.191 C 
BRANCH   8   9
ATOM      9  O   UNL     1     118.397 116.096 114.142  1.00  0.00    -0.394 OA
ATOM     10  H   UNL     1     117.595 115.886 113.597  1.00  0.00     0.210 HD
ENDBRANCH   8   9
ENDBRANCH   3   8
BRANCH   4  11
ATOM     11  O   UNL     1     115.359 119.243 114.991  1.00  0.00    -0.387 OA
ATOM     12  H   UNL     1     114.407 119.180 114.709  1.00  0.00     0.211 HD
ENDBRANCH   4  11
BRANCH   6  13
ATOM     13  O   UNL     1     115.360 115.676 114.325  1.00  0.00    -0.387 OA
ATOM     14  H   UNL     1     114.611 115.067 114.085  1.00  0.00     0.211 HD
ENDBRANCH   6  13
BRANCH   7  15
ATOM     15  O   UNL     1     113.765 116.242 112.282  1.00  0.00    -0.385 OA
ATOM     16  H   UNL     1     112.822 116.231 112.593  1.00  0.00     0.211 HD
ENDBRANCH   7  15
ENDBRANCH   1   2
BRANCH   1  17
ATOM     17  C   UNL     1     115.347 118.435 109.671  1.00  0.00     0.224 C 
ATOM     18  C   UNL     1     113.955 118.407 108.963  1.00  0.00     0.208 C 
ATOM     19  O   UNL     1     115.460 119.668 110.363  1.00  0.00    -0.337 OA
ATOM     20  C   UNL     1     113.215 119.567 109.587  1.00  0.00     0.180 C 
ATOM     21  C   UNL     1     114.357 120.476 110.027  1.00  0.00     0.179 C 
BRANCH  17  22
ATOM     22  C   UNL     1     116.559 118.372 108.692  1.00  0.00     0.225 C 
BRANCH  22  23
ATOM     23  O   UNL     1     116.721 119.600 108.033  1.00  0.00    -0.391 OA
ATOM     24  H   UNL     1     117.012 119.382 107.109  1.00  0.00     0.210 HD
ENDBRANCH  22  23
ENDBRANCH  17  22
BRANCH  18  25
ATOM     25  O   UNL     1     114.055 118.613 107.576  1.00  0.00    -0.385 OA
ATOM     26  H   UNL     1     114.030 117.716 107.150  1.00  0.00     0.211 HD
ENDBRANCH  18  25
BRANCH  20  27
ATOM     27  O   UNL     1     112.408 119.146 110.664  1.00  0.00    -0.387 OA
ATOM     28  H   UNL     1     111.459 119.314 110.427  1.00  0.00     0.211 HD
ENDBRANCH  20  27
BRANCH  21  29
ATOM     29  C   UNL     1     114.004 121.432 111.179  1.00  0.00     0.191 C 
BRANCH  29  30
ATOM     30  O   UNL     1     114.075 120.788 112.424  1.00  0.00    -0.394 OA
ATOM     31  H   UNL     1     114.862 121.167 112.898  1.00  0.00     0.210 HD
ENDBRANCH  29  30
ENDBRANCH  21  29
ENDBRANCH   1  17
TORSDOF 13
ENDMDL
MODEL 7
REMARK VINA RESULT:    -4.243      8.338      9.824
REMARK INTER + INTRA:          -8.035
REMARK INTER:                  -6.356
REMARK INTRA:                  -1.678
REMARK UNBOUND:                -1.559
REMARK SMILES OC[C@H]1O[C@@](CO)(O[C@@H]2O[C@H](CO)[C@@H](O)[C@H](O)[C@@H]2O)[C@H](O)[C@H]1O
REMARK SMILES IDX 8 1 9 2 11 3 14 4 10 5 16 6 18 7 12 8 13 9 15 11 17 13 19 15
REMARK SMILES IDX 5 17 20 18 4 19 22 20 3 21 6 22 7 23 21 25 23 27 2 29 1 30
REMARK H PARENT 13 10 15 12 17 14 19 16 7 24 21 26 23 28 1 31
REMARK Flexibility Score: inf
ROOT
ATOM      1  O   UNL     1     116.083 120.848 110.407  1.00  0.00    -0.313 OA
ENDROOT
BRANCH   1   2
ATOM      2  C   UNL     1     114.865 120.119 110.297  1.00  0.00     0.285 C 
ATOM      3  C   UNL     1     113.634 118.320 111.131  1.00  0.00     0.178 C 
ATOM      4  C   UNL     1     112.932 118.150 109.746  1.00  0.00     0.177 C 
ATOM      5  O   UNL     1     114.930 118.893 111.010  1.00  0.00    -0.341 OA
ATOM      6  C   UNL     1     113.913 118.455 108.595  1.00  0.00     0.179 C 
ATOM      7  C   UNL     1     114.574 119.839 108.797  1.00  0.00     0.202 C 
BRANCH   3   8
ATOM      8  C   UNL     1     113.772 116.972 111.847  1.00  0.00     0.191 C 
BRANCH   8   9
ATOM      9  O   UNL     1     114.710 116.177 111.175  1.00  0.00    -0.394 OA
ATOM     10  H   UNL     1     114.363 115.248 111.211  1.00  0.00     0.210 HD
ENDBRANCH   8   9
ENDBRANCH   3   8
BRANCH   4  11
ATOM     11  O   UNL     1     111.833 119.023 109.676  1.00  0.00    -0.387 OA
ATOM     12  H   UNL     1     111.176 118.612 109.054  1.00  0.00     0.211 HD
ENDBRANCH   4  11
BRANCH   6  13
ATOM     13  O   UNL     1     114.905 117.459 108.545  1.00  0.00    -0.387 OA
ATOM     14  H   UNL     1     114.509 116.679 108.072  1.00  0.00     0.211 HD
ENDBRANCH   6  13
BRANCH   7  15
ATOM     15  O   UNL     1     115.757 119.919 108.040  1.00  0.00    -0.385 OA
ATOM     16  H   UNL     1     116.431 120.379 108.608  1.00  0.00     0.211 HD
ENDBRANCH   7  15
ENDBRANCH   1   2
BRANCH   1  17
ATOM     17  C   UNL     1     115.986 122.172 110.941  1.00  0.00     0.224 C 
ATOM     18  C   UNL     1     114.625 122.322 111.692  1.00  0.00     0.208 C 
ATOM     19  O   UNL     1     117.027 122.278 111.898  1.00  0.00    -0.337 OA
ATOM     20  C   UNL     1     115.007 122.198 113.148  1.00  0.00     0.180 C 
ATOM     21  C   UNL     1     116.465 122.642 113.137  1.00  0.00     0.179 C 
BRANCH  17  22
ATOM     22  C   UNL     1     116.254 123.284 109.882  1.00  0.00     0.225 C 
BRANCH  22  23
ATOM     23  O   UNL     1     116.709 122.719 108.681  1.00  0.00    -0.391 OA
ATOM     24  H   UNL     1     116.213 123.178 107.954  1.00  0.00     0.210 HD
ENDBRANCH  22  23
ENDBRANCH  17  22
BRANCH  18  25
ATOM     25  O   UNL     1     114.030 123.578 111.475  1.00  0.00    -0.385 OA
ATOM     26  H   UNL     1     114.286 123.862 110.559  1.00  0.00     0.211 HD
ENDBRANCH  18  25
BRANCH  20  27
ATOM     27  O   UNL     1     114.843 120.876 113.613  1.00  0.00    -0.387 OA
ATOM     28  H   UNL     1     113.951 120.552 113.323  1.00  0.00     0.211 HD
ENDBRANCH  20  27
BRANCH  21  29
ATOM     29  C   UNL     1     117.307 122.097 114.304  1.00  0.00     0.191 C 
BRANCH  29  30
ATOM     30  O   UNL     1     117.719 120.776 114.071  1.00  0.00    -0.394 OA
ATOM     31  H   UNL     1     118.043 120.419 114.940  1.00  0.00     0.210 HD
ENDBRANCH  29  30
ENDBRANCH  21  29
ENDBRANCH   1  17
TORSDOF 13
ENDMDL
MODEL 8
REMARK VINA RESULT:    -4.239      7.596     10.445
REMARK INTER + INTRA:          -8.028
REMARK INTER:                  -6.451
REMARK INTRA:                  -1.578
REMARK UNBOUND:                -1.559
REMARK SMILES OC[C@H]1O[C@@](CO)(O[C@@H]2O[C@H](CO)[C@@H](O)[C@H](O)[C@@H]2O)[C@H](O)[C@H]1O
REMARK SMILES IDX 8 1 9 2 11 3 14 4 10 5 16 6 18 7 12 8 13 9 15 11 17 13 19 15
REMARK SMILES IDX 5 17 20 18 4 19 22 20 3 21 6 22 7 23 21 25 23 27 2 29 1 30
REMARK H PARENT 13 10 15 12 17 14 19 16 7 24 21 26 23 28 1 31
REMARK Flexibility Score: inf
ROOT
ATOM      1  O   UNL     1     115.147 118.894 111.620  1.00  0.00    -0.313 OA
ENDROOT
BRANCH   1   2
ATOM      2  C   UNL     1     115.482 120.209 111.187  1.00  0.00     0.285 C 
ATOM      3  C   UNL     1     116.732 122.119 111.672  1.00  0.00     0.178 C 
ATOM      4  C   UNL     1     115.680 123.003 110.930  1.00  0.00     0.177 C 
ATOM      5  O   UNL     1     116.157 120.932 112.205  1.00  0.00    -0.341 OA
ATOM      6  C   UNL     1     114.254 122.458 111.152  1.00  0.00     0.179 C 
ATOM      7  C   UNL     1     114.183 120.957 110.783  1.00  0.00     0.202 C 
BRANCH   3   8
ATOM      8  C   UNL     1     117.387 122.891 112.823  1.00  0.00     0.191 C 
BRANCH   8   9
ATOM      9  O   UNL     1     116.530 122.896 113.932  1.00  0.00    -0.394 OA
ATOM     10  H   UNL     1     116.150 121.981 113.995  1.00  0.00     0.210 HD
ENDBRANCH   8   9
ENDBRANCH   3   8
BRANCH   4  11
ATOM     11  O   UNL     1     115.975 123.015 109.556  1.00  0.00    -0.387 OA
ATOM     12  H   UNL     1     116.964 123.078 109.473  1.00  0.00     0.211 HD
ENDBRANCH   4  11
BRANCH   6  13
ATOM     13  O   UNL     1     113.886 122.633 112.498  1.00  0.00    -0.387 OA
ATOM     14  H   UNL     1     114.280 123.496 112.797  1.00  0.00     0.211 HD
ENDBRANCH   6  13
BRANCH   7  15
ATOM     15  O   UNL     1     113.061 120.367 111.394  1.00  0.00    -0.385 OA
ATOM     16  H   UNL     1     112.297 120.491 110.772  1.00  0.00     0.211 HD
ENDBRANCH   7  15
ENDBRANCH   1   2
BRANCH   1  17
ATOM     17  C   UNL     1     115.472 117.827 110.724  1.00  0.00     0.224 C 
ATOM     18  C   UNL     1     114.243 116.872 110.600  1.00  0.00     0.208 C 
ATOM     19  O   UNL     1     115.682 118.436 109.460  1.00  0.00    -0.337 OA
ATOM     20  C   UNL     1     113.626 117.257 109.275  1.00  0.00     0.180 C 
ATOM     21  C   UNL     1     114.818 117.838 108.523  1.00  0.00     0.179 C 
BRANCH  17  22
ATOM     22  C   UNL     1     116.805 117.103 111.086  1.00  0.00     0.225 C 
BRANCH  22  23
ATOM     23  O   UNL     1     116.749 116.594 112.391  1.00  0.00    -0.391 OA
ATOM     24  H   UNL     1     115.955 117.011 112.817  1.00  0.00     0.210 HD
ENDBRANCH  22  23
ENDBRANCH  17  22
BRANCH  18  25
ATOM     25  O   UNL     1     114.618 115.518 110.559  1.00  0.00    -0.385 OA
ATOM     26  H   UNL     1     114.231 115.138 109.727  1.00  0.00     0.211 HD
ENDBRANCH  18  25
BRANCH  20  27
ATOM     27  O   UNL     1     112.581 118.189 109.444  1.00  0.00    -0.387 OA
ATOM     28  H   UNL     1     111.957 118.102 108.676  1.00  0.00     0.211 HD
ENDBRANCH  20  27
BRANCH  21  29
ATOM     29  C   UNL     1     114.446 118.829 107.407  1.00  0.00     0.191 C 
BRANCH  29  30
ATOM     30  O   UNL     1     115.212 120.003 107.483  1.00  0.00    -0.394 OA
ATOM     31  H   UNL     1     114.638 120.693 107.909  1.00  0.00     0.210 HD
ENDBRANCH  29  30
ENDBRANCH  21  29
ENDBRANCH   1  17
TORSDOF 13
ENDMDL
MODEL 9
REMARK VINA RESULT:    -4.213      2.027      3.492
REMARK INTER + INTRA:          -7.989
REMARK INTER:                  -6.371
REMARK INTRA:                  -1.618
REMARK UNBOUND:                -1.559
REMARK SMILES OC[C@H]1O[C@@](CO)(O[C@@H]2O[C@H](CO)[C@@H](O)[C@H](O)[C@@H]2O)[C@H](O)[C@H]1O
REMARK SMILES IDX 8 1 9 2 11 3 14 4 10 5 16 6 18 7 12 8 13 9 15 11 17 13 19 15
REMARK SMILES IDX 5 17 20 18 4 19 22 20 3 21 6 22 7 23 21 25 23 27 2 29 1 30
REMARK H PARENT 13 10 15 12 17 14 19 16 7 24 21 26 23 28 1 31
REMARK Flexibility Score: inf
ROOT
ATOM      1  O   UNL     1     124.042 116.080 111.860  1.00  0.00    -0.313 OA
ENDROOT
BRANCH   1   2
ATOM      2  C   UNL     1     122.650 115.957 111.584  1.00  0.00     0.285 C 
ATOM      3  C   UNL     1     120.500 116.409 112.371  1.00  0.00     0.178 C 
ATOM      4  C   UNL     1     119.950 115.168 111.599  1.00  0.00     0.177 C 
ATOM      5  O   UNL     1     121.867 116.256 112.731  1.00  0.00    -0.341 OA
ATOM      6  C   UNL     1     120.976 114.016 111.614  1.00  0.00     0.179 C 
ATOM      7  C   UNL     1     122.353 114.509 111.109  1.00  0.00     0.202 C 
BRANCH   3   8
ATOM      8  C   UNL     1     119.695 116.663 113.650  1.00  0.00     0.191 C 
BRANCH   8   9
ATOM      9  O   UNL     1     119.639 115.488 114.411  1.00  0.00    -0.394 OA
ATOM     10  H   UNL     1     120.078 115.696 115.277  1.00  0.00     0.210 HD
ENDBRANCH   8   9
ENDBRANCH   3   8
BRANCH   4  11
ATOM     11  O   UNL     1     119.670 115.537 110.272  1.00  0.00    -0.387 OA
ATOM     12  H   UNL     1     118.768 115.954 110.271  1.00  0.00     0.211 HD
ENDBRANCH   4  11
BRANCH   6  13
ATOM     13  O   UNL     1     121.103 113.514 112.922  1.00  0.00    -0.387 OA
ATOM     14  H   UNL     1     120.272 113.006 113.120  1.00  0.00     0.211 HD
ENDBRANCH   6  13
BRANCH   7  15
ATOM     15  O   UNL     1     123.363 113.629 111.539  1.00  0.00    -0.385 OA
ATOM     16  H   UNL     1     123.081 113.279 112.425  1.00  0.00     0.211 HD
ENDBRANCH   7  15
ENDBRANCH   1   2
BRANCH   1  17
ATOM     17  C   UNL     1     124.790 116.934 110.990  1.00  0.00     0.224 C 
ATOM     18  C   UNL     1     125.861 116.084 110.236  1.00  0.00     0.208 C 
ATOM     19  O   UNL     1     123.861 117.416 110.032  1.00  0.00    -0.337 OA
ATOM     20  C   UNL     1     125.258 115.888 108.865  1.00  0.00     0.180 C 
ATOM     21  C   UNL     1     124.333 117.093 108.745  1.00  0.00     0.179 C 
BRANCH  17  22
ATOM     22  C   UNL     1     125.367 118.192 111.708  1.00  0.00     0.225 C 
BRANCH  22  23
ATOM     23  O   UNL     1     126.319 117.816 112.666  1.00  0.00    -0.391 OA
ATOM     24  H   UNL     1     126.735 116.979 112.331  1.00  0.00     0.210 HD
ENDBRANCH  22  23
ENDBRANCH  17  22
BRANCH  18  25
ATOM     25  O   UNL     1     127.088 116.758 110.110  1.00  0.00    -0.385 OA
ATOM     26  H   UNL     1     127.558 116.354 109.334  1.00  0.00     0.211 HD
ENDBRANCH  18  25
BRANCH  20  27
ATOM     27  O   UNL     1     124.569 114.660 108.775  1.00  0.00    -0.387 OA
ATOM     28  H   UNL     1     123.629 114.809 109.058  1.00  0.00     0.211 HD
ENDBRANCH  20  27
BRANCH  21  29
ATOM     29  C   UNL     1     123.164 116.905 107.762  1.00  0.00     0.191 C 
BRANCH  29  30
ATOM     30  O   UNL     1     122.065 116.288 108.379  1.00  0.00    -0.394 OA
ATOM     31  H   UNL     1     121.256 116.581 107.883  1.00  0.00     0.210 HD
ENDBRANCH  29  30
ENDBRANCH  21  29
ENDBRANCH   1  17
TORSDOF 13
ENDMDL
