MODEL 1
REMARK VINA RESULT:    -5.279      0.000      0.000
REMARK INTER + INTRA:          -6.798
REMARK INTER:                  -6.513
REMARK INTRA:                  -0.285
REMARK UNBOUND:                -0.285
REMARK SMILES C=CCc1ccc(OC)c(OC)c1
REMARK SMILES IDX 7 1 10 2 13 3 4 4 5 5 6 6 8 7 9 8 11 9 12 10 3 11 2 12 1 13
REMARK H PARENT
REMARK Flexibility Score: inf
ROOT
ATOM      1  C   UNL     1      22.850  29.580 -17.067  1.00  0.00     0.160 A 
ATOM      2  C   UNL     1      21.777  29.237 -17.905  1.00  0.00     0.160 A 
ATOM      3  C   UNL     1      20.673  28.544 -17.373  1.00  0.00     0.054 A 
ATOM      4  C   UNL     1      20.638  28.188 -16.017  1.00  0.00    -0.040 A 
ATOM      5  C   UNL     1      21.709  28.543 -15.185  1.00  0.00     0.008 A 
ATOM      6  C   UNL     1      22.808  29.230 -15.705  1.00  0.00     0.051 A 
ENDROOT
BRANCH   1   7
ATOM      7  O   UNL     1      23.938  30.271 -17.626  1.00  0.00    -0.493 OA
ATOM      8  C   UNL     1      25.132  29.650 -18.094  1.00  0.00     0.278 C 
ENDBRANCH   1   7
BRANCH   2   9
ATOM      9  O   UNL     1      21.846  29.604 -19.258  1.00  0.00    -0.493 OA
ATOM     10  C   UNL     1      22.109  28.701 -20.327  1.00  0.00     0.278 C 
ENDBRANCH   2   9
BRANCH   4  11
ATOM     11  C   UNL     1      19.440  27.472 -15.451  1.00  0.00     0.062 C 
BRANCH  11  12
ATOM     12  C   UNL     1      18.395  28.456 -15.005  1.00  0.00    -0.030 C 
ATOM     13  C   UNL     1      17.562  28.186 -13.995  1.00  0.00     0.004 C 
ENDBRANCH  11  12
ENDBRANCH   4  11
TORSDOF 4
ENDMDL
MODEL 2
REMARK VINA RESULT:    -5.120      1.338      2.882
REMARK INTER + INTRA:          -6.603
REMARK INTER:                  -6.281
REMARK INTRA:                  -0.322
REMARK UNBOUND:                -0.285
REMARK SMILES C=CCc1ccc(OC)c(OC)c1
REMARK SMILES IDX 7 1 10 2 13 3 4 4 5 5 6 6 8 7 9 8 11 9 12 10 3 11 2 12 1 13
REMARK H PARENT
REMARK Flexibility Score: inf
ROOT
ATOM      1  C   UNL     1      21.771  29.224 -18.007  1.00  0.00     0.160 A 
ATOM      2  C   UNL     1      22.906  29.694 -17.328  1.00  0.00     0.160 A 
ATOM      3  C   UNL     1      23.010  29.508 -15.936  1.00  0.00     0.054 A 
ATOM      4  C   UNL     1      21.988  28.866 -15.222  1.00  0.00    -0.040 A 
ATOM      5  C   UNL     1      20.862  28.391 -15.909  1.00  0.00     0.008 A 
ATOM      6  C   UNL     1      20.752  28.570 -17.289  1.00  0.00     0.051 A 
ENDROOT
BRANCH   1   7
ATOM      7  O   UNL     1      21.694  29.423 -19.395  1.00  0.00    -0.493 OA
ATOM      8  C   UNL     1      21.989  28.427 -20.370  1.00  0.00     0.278 C 
ENDBRANCH   1   7
BRANCH   2   9
ATOM      9  O   UNL     1      23.908  30.336 -18.072  1.00  0.00    -0.493 OA
ATOM     10  C   UNL     1      25.150  29.741 -18.435  1.00  0.00     0.278 C 
ENDBRANCH   2   9
BRANCH   4  11
ATOM     11  C   UNL     1      22.122  28.647 -13.738  1.00  0.00     0.062 C 
BRANCH  11  12
ATOM     12  C   UNL     1      20.832  28.963 -13.034  1.00  0.00    -0.030 C 
ATOM     13  C   UNL     1      20.790  29.782 -11.979  1.00  0.00     0.004 C 
ENDBRANCH  11  12
ENDBRANCH   4  11
TORSDOF 4
ENDMDL
MODEL 3
REMARK VINA RESULT:    -5.036      2.673      3.644
REMARK INTER + INTRA:          -6.499
REMARK INTER:                  -6.191
REMARK INTRA:                  -0.308
REMARK UNBOUND:                -0.285
REMARK SMILES C=CCc1ccc(OC)c(OC)c1
REMARK SMILES IDX 7 1 10 2 13 3 4 4 5 5 6 6 8 7 9 8 11 9 12 10 3 11 2 12 1 13
REMARK H PARENT
REMARK Flexibility Score: inf
ROOT
ATOM      1  C   UNL     1      22.015  29.210 -13.234  1.00  0.00     0.160 A 
ATOM      2  C   UNL     1      21.853  28.622 -14.498  1.00  0.00     0.160 A 
ATOM      3  C   UNL     1      20.575  28.197 -14.910  1.00  0.00     0.054 A 
ATOM      4  C   UNL     1      19.465  28.347 -14.065  1.00  0.00    -0.040 A 
ATOM      5  C   UNL     1      19.634  28.944 -12.807  1.00  0.00     0.008 A 
ATOM      6  C   UNL     1      20.897  29.369 -12.392  1.00  0.00     0.051 A 
ENDROOT
BRANCH   1   7
ATOM      7  O   UNL     1      23.301  29.624 -12.851  1.00  0.00    -0.493 OA
ATOM      8  C   UNL     1      23.711  30.984 -12.744  1.00  0.00     0.278 C 
ENDBRANCH   1   7
BRANCH   2   9
ATOM      9  O   UNL     1      22.985  28.482 -15.317  1.00  0.00    -0.493 OA
ATOM     10  C   UNL     1      23.325  27.294 -16.025  1.00  0.00     0.278 C 
ENDBRANCH   2   9
BRANCH   4  11
ATOM     11  C   UNL     1      18.098  27.915 -14.525  1.00  0.00     0.062 C 
BRANCH  11  12
ATOM     12  C   UNL     1      17.256  27.481 -13.358  1.00  0.00    -0.030 C 
ATOM     13  C   UNL     1      16.937  26.198 -13.161  1.00  0.00     0.004 C 
ENDBRANCH  11  12
ENDBRANCH   4  11
TORSDOF 4
ENDMDL
MODEL 4
REMARK VINA RESULT:    -5.023      2.260      3.868
REMARK INTER + INTRA:          -6.482
REMARK INTER:                  -6.166
REMARK INTRA:                  -0.316
REMARK UNBOUND:                -0.285
REMARK SMILES C=CCc1ccc(OC)c(OC)c1
REMARK SMILES IDX 7 1 10 2 13 3 4 4 5 5 6 6 8 7 9 8 11 9 12 10 3 11 2 12 1 13
REMARK H PARENT
REMARK Flexibility Score: inf
ROOT
ATOM      1  C   UNL     1      21.758  27.859 -15.296  1.00  0.00     0.160 A 
ATOM      2  C   UNL     1      21.447  28.534 -14.106  1.00  0.00     0.160 A 
ATOM      3  C   UNL     1      20.102  28.668 -13.712  1.00  0.00     0.054 A 
ATOM      4  C   UNL     1      19.070  28.140 -14.502  1.00  0.00    -0.040 A 
ATOM      5  C   UNL     1      19.390  27.458 -15.685  1.00  0.00     0.008 A 
ATOM      6  C   UNL     1      20.721  27.321 -16.082  1.00  0.00     0.051 A 
ENDROOT
BRANCH   1   7
ATOM      7  O   UNL     1      23.108  27.742 -15.664  1.00  0.00    -0.493 OA
ATOM      8  C   UNL     1      23.617  28.025 -16.964  1.00  0.00     0.278 C 
ENDBRANCH   1   7
BRANCH   2   9
ATOM      9  O   UNL     1      22.503  29.055 -13.341  1.00  0.00    -0.493 OA
ATOM     10  C   UNL     1      23.007  28.459 -12.150  1.00  0.00     0.278 C 
ENDBRANCH   2   9
BRANCH   4  11
ATOM     11  C   UNL     1      17.636  28.263 -14.058  1.00  0.00     0.062 C 
BRANCH  11  12
ATOM     12  C   UNL     1      17.319  27.247 -12.996  1.00  0.00    -0.030 C 
ATOM     13  C   UNL     1      16.875  26.025 -13.303  1.00  0.00     0.004 C 
ENDBRANCH  11  12
ENDBRANCH   4  11
TORSDOF 4
ENDMDL
MODEL 5
REMARK VINA RESULT:    -4.965      3.982      5.929
REMARK INTER + INTRA:          -6.411
REMARK INTER:                  -6.120
REMARK INTRA:                  -0.291
REMARK UNBOUND:                -0.285
REMARK SMILES C=CCc1ccc(OC)c(OC)c1
REMARK SMILES IDX 7 1 10 2 13 3 4 4 5 5 6 6 8 7 9 8 11 9 12 10 3 11 2 12 1 13
REMARK H PARENT
REMARK Flexibility Score: inf
ROOT
ATOM      1  C   UNL     1      21.687  28.751 -22.662  1.00  0.00     0.160 A 
ATOM      2  C   UNL     1      22.300  27.749 -21.894  1.00  0.00     0.160 A 
ATOM      3  C   UNL     1      22.614  28.000 -20.544  1.00  0.00     0.054 A 
ATOM      4  C   UNL     1      22.328  29.245 -19.964  1.00  0.00    -0.040 A 
ATOM      5  C   UNL     1      21.706  30.237 -20.735  1.00  0.00     0.008 A 
ATOM      6  C   UNL     1      21.391  29.995 -22.073  1.00  0.00     0.051 A 
ENDROOT
BRANCH   1   7
ATOM      7  O   UNL     1      21.385  28.471 -24.005  1.00  0.00    -0.493 OA
ATOM      8  C   UNL     1      21.768  29.292 -25.104  1.00  0.00     0.278 C 
ENDBRANCH   1   7
BRANCH   2   9
ATOM      9  O   UNL     1      22.578  26.517 -22.506  1.00  0.00    -0.493 OA
ATOM     10  C   UNL     1      21.713  25.385 -22.471  1.00  0.00     0.278 C 
ENDBRANCH   2   9
BRANCH   4  11
ATOM     11  C   UNL     1      22.642  29.495 -18.512  1.00  0.00     0.062 C 
BRANCH  11  12
ATOM     12  C   UNL     1      23.906  30.295 -18.371  1.00  0.00    -0.030 C 
ATOM     13  C   UNL     1      25.109  29.713 -18.377  1.00  0.00     0.004 C 
ENDBRANCH  11  12
ENDBRANCH   4  11
TORSDOF 4
ENDMDL
MODEL 6
REMARK VINA RESULT:    -4.940      3.295      4.674
REMARK INTER + INTRA:          -6.380
REMARK INTER:                  -6.116
REMARK INTRA:                  -0.265
REMARK UNBOUND:                -0.285
REMARK SMILES C=CCc1ccc(OC)c(OC)c1
REMARK SMILES IDX 7 1 10 2 13 3 4 4 5 5 6 6 8 7 9 8 11 9 12 10 3 11 2 12 1 13
REMARK H PARENT
REMARK Flexibility Score: inf
ROOT
ATOM      1  C   UNL     1      20.534  28.156 -15.177  1.00  0.00     0.160 A 
ATOM      2  C   UNL     1      19.379  28.131 -14.380  1.00  0.00     0.160 A 
ATOM      3  C   UNL     1      19.456  28.519 -13.029  1.00  0.00     0.054 A 
ATOM      4  C   UNL     1      20.679  28.922 -12.470  1.00  0.00    -0.040 A 
ATOM      5  C   UNL     1      21.826  28.953 -13.275  1.00  0.00     0.008 A 
ATOM      6  C   UNL     1      21.757  28.571 -14.616  1.00  0.00     0.051 A 
ENDROOT
BRANCH   1   7
ATOM      7  O   UNL     1      20.426  27.764 -16.521  1.00  0.00    -0.493 OA
ATOM      8  C   UNL     1      20.910  28.524 -17.624  1.00  0.00     0.278 C 
ENDBRANCH   1   7
BRANCH   2   9
ATOM      9  O   UNL     1      18.173  27.718 -14.969  1.00  0.00    -0.493 OA
ATOM     10  C   UNL     1      17.523  26.481 -14.694  1.00  0.00     0.278 C 
ENDBRANCH   2   9
BRANCH   4  11
ATOM     11  C   UNL     1      20.746  29.362 -11.031  1.00  0.00     0.062 C 
BRANCH  11  12
ATOM     12  C   UNL     1      19.786  28.570 -10.187  1.00  0.00    -0.030 C 
ATOM     13  C   UNL     1      20.171  27.984  -9.049  1.00  0.00     0.004 C 
ENDBRANCH  11  12
ENDBRANCH   4  11
TORSDOF 4
ENDMDL
MODEL 7
REMARK VINA RESULT:    -4.894     12.547     14.191
REMARK INTER + INTRA:          -6.324
REMARK INTER:                  -6.082
REMARK INTRA:                  -0.241
REMARK UNBOUND:                -0.285
REMARK SMILES C=CCc1ccc(OC)c(OC)c1
REMARK SMILES IDX 7 1 10 2 13 3 4 4 5 5 6 6 8 7 9 8 11 9 12 10 3 11 2 12 1 13
REMARK H PARENT
REMARK Flexibility Score: inf
ROOT
ATOM      1  C   UNL     1      34.135  31.890 -14.404  1.00  0.00     0.160 A 
ATOM      2  C   UNL     1      35.256  32.145 -13.599  1.00  0.00     0.160 A 
ATOM      3  C   UNL     1      35.354  31.542 -12.330  1.00  0.00     0.054 A 
ATOM      4  C   UNL     1      34.337  30.697 -11.861  1.00  0.00    -0.040 A 
ATOM      5  C   UNL     1      33.225  30.440 -12.675  1.00  0.00     0.008 A 
ATOM      6  C   UNL     1      33.122  31.033 -13.934  1.00  0.00     0.051 A 
ENDROOT
BRANCH   1   7
ATOM      7  O   UNL     1      34.065  32.505 -15.665  1.00  0.00    -0.493 OA
ATOM      8  C   UNL     1      33.565  31.877 -16.841  1.00  0.00     0.278 C 
ENDBRANCH   1   7
BRANCH   2   9
ATOM      9  O   UNL     1      36.253  32.999 -14.097  1.00  0.00    -0.493 OA
ATOM     10  C   UNL     1      37.016  33.899 -13.299  1.00  0.00     0.278 C 
ENDBRANCH   2   9
BRANCH   4  11
ATOM     11  C   UNL     1      34.464  30.035 -10.514  1.00  0.00     0.062 C 
BRANCH  11  12
ATOM     12  C   UNL     1      33.465  30.603  -9.545  1.00  0.00    -0.030 C 
ATOM     13  C   UNL     1      33.750  30.749  -8.248  1.00  0.00     0.004 C 
ENDBRANCH  11  12
ENDBRANCH   4  11
TORSDOF 4
ENDMDL
MODEL 8
REMARK VINA RESULT:    -4.870      1.897      4.722
REMARK INTER + INTRA:          -6.293
REMARK INTER:                  -6.026
REMARK INTRA:                  -0.267
REMARK UNBOUND:                -0.285
REMARK SMILES C=CCc1ccc(OC)c(OC)c1
REMARK SMILES IDX 7 1 10 2 13 3 4 4 5 5 6 6 8 7 9 8 11 9 12 10 3 11 2 12 1 13
REMARK H PARENT
REMARK Flexibility Score: inf
ROOT
ATOM      1  C   UNL     1      22.647  29.084 -16.167  1.00  0.00     0.160 A 
ATOM      2  C   UNL     1      21.585  28.475 -16.853  1.00  0.00     0.160 A 
ATOM      3  C   UNL     1      21.304  28.856 -18.179  1.00  0.00     0.054 A 
ATOM      4  C   UNL     1      22.071  29.843 -18.817  1.00  0.00    -0.040 A 
ATOM      5  C   UNL     1      23.137  30.438 -18.128  1.00  0.00     0.008 A 
ATOM      6  C   UNL     1      23.422  30.066 -16.813  1.00  0.00     0.051 A 
ENDROOT
BRANCH   1   7
ATOM      7  O   UNL     1      22.903  28.684 -14.844  1.00  0.00    -0.493 OA
ATOM      8  C   UNL     1      22.791  29.537 -13.709  1.00  0.00     0.278 C 
ENDBRANCH   1   7
BRANCH   2   9
ATOM      9  O   UNL     1      20.835  27.496 -16.184  1.00  0.00    -0.493 OA
ATOM     10  C   UNL     1      19.611  27.745 -15.500  1.00  0.00     0.278 C 
ENDBRANCH   2   9
BRANCH   4  11
ATOM     11  C   UNL     1      21.782  30.222 -20.246  1.00  0.00     0.062 C 
BRANCH  11  12
ATOM     12  C   UNL     1      21.784  29.007 -21.130  1.00  0.00    -0.030 C 
ATOM     13  C   UNL     1      21.737  29.108 -22.462  1.00  0.00     0.004 C 
ENDBRANCH  11  12
ENDBRANCH   4  11
TORSDOF 4
ENDMDL
MODEL 9
REMARK VINA RESULT:    -4.867     13.816     15.005
REMARK INTER + INTRA:          -6.290
REMARK INTER:                  -5.972
REMARK INTRA:                  -0.318
REMARK UNBOUND:                -0.285
REMARK SMILES C=CCc1ccc(OC)c(OC)c1
REMARK SMILES IDX 7 1 10 2 13 3 4 4 5 5 6 6 8 7 9 8 11 9 12 10 3 11 2 12 1 13
REMARK H PARENT
REMARK Flexibility Score: inf
ROOT
ATOM      1  C   UNL     1      30.975  38.339 -22.232  1.00  0.00     0.160 A 
ATOM      2  C   UNL     1      31.309  38.857 -23.493  1.00  0.00     0.160 A 
ATOM      3  C   UNL     1      30.285  39.250 -24.377  1.00  0.00     0.054 A 
ATOM      4  C   UNL     1      28.936  39.120 -24.011  1.00  0.00    -0.040 A 
ATOM      5  C   UNL     1      28.613  38.610 -22.746  1.00  0.00     0.008 A 
ATOM      6  C   UNL     1      29.622  38.220 -21.864  1.00  0.00     0.051 A 
ENDROOT
BRANCH   1   7
ATOM      7  O   UNL     1      32.018  37.955 -21.372  1.00  0.00    -0.493 OA
ATOM      8  C   UNL     1      32.303  36.610 -21.002  1.00  0.00     0.278 C 
ENDBRANCH   1   7
BRANCH   2   9
ATOM      9  O   UNL     1      32.667  38.969 -23.829  1.00  0.00    -0.493 OA
ATOM     10  C   UNL     1      33.221  38.591 -25.085  1.00  0.00     0.278 C 
ENDBRANCH   2   9
BRANCH   4  11
ATOM     11  C   UNL     1      27.850  39.569 -24.952  1.00  0.00     0.062 C 
BRANCH  11  12
ATOM     12  C   UNL     1      27.147  38.386 -25.558  1.00  0.00    -0.030 C 
ATOM     13  C   UNL     1      27.619  37.772 -26.647  1.00  0.00     0.004 C 
ENDBRANCH  11  12
ENDBRANCH   4  11
TORSDOF 4
ENDMDL
