MODEL 1
REMARK VINA RESULT:    -4.582      0.000      0.000
REMARK INTER + INTRA:          -9.560
REMARK INTER:                  -8.332
REMARK INTRA:                  -1.228
REMARK UNBOUND:                -1.228
REMARK SMILES CCCCCC=CCC=CCCCCCCCC(=O)[O-]
REMARK SMILES IDX 11 1 12 2 13 3 14 4 15 5 16 6 17 7 18 8 19 9 20 10 10 11
REMARK SMILES IDX 9 12 8 13 7 14 6 15 5 16 4 17 3 18 2 19 1 20
REMARK H PARENT
REMARK Flexibility Score: inf
ROOT
ATOM      1  C   UNL     1      -1.811  14.630 -18.513  1.00  0.00     0.027 C 
ENDROOT
BRANCH   1   2
ATOM      2  C   UNL     1      -1.751  13.224 -19.129  1.00  0.00     0.004 C 
BRANCH   2   3
ATOM      3  C   UNL     1      -3.099  12.474 -19.137  1.00  0.00     0.000 C 
BRANCH   3   4
ATOM      4  C   UNL     1      -3.052  11.043 -18.571  1.00  0.00     0.000 C 
BRANCH   4   5
ATOM      5  C   UNL     1      -3.488  10.963 -17.101  1.00  0.00     0.000 C 
BRANCH   5   6
ATOM      6  C   UNL     1      -4.417  12.132 -16.740  1.00  0.00     0.006 C 
BRANCH   6   7
ATOM      7  C   UNL     1      -4.299  12.532 -15.264  1.00  0.00     0.053 C 
BRANCH   7   8
ATOM      8  C   UNL     1      -2.871  12.628 -14.824  1.00  0.00     0.041 C 
ATOM      9  O   UNL     1      -2.391  11.765 -14.042  1.00  0.00    -0.550 OA
ATOM     10  O   UNL     1      -2.063  13.657 -15.296  1.00  0.00    -0.550 OA
ENDBRANCH   7   8
ENDBRANCH   6   7
ENDBRANCH   5   6
ENDBRANCH   4   5
ENDBRANCH   3   4
ENDBRANCH   2   3
ENDBRANCH   1   2
BRANCH   1  11
ATOM     11  C   UNL     1      -0.437  15.156 -18.194  1.00  0.00    -0.031 C 
ATOM     12  C   UNL     1       0.562  15.111 -19.090  1.00  0.00    -0.027 C 
BRANCH  12  13
ATOM     13  C   UNL     1       1.932  15.644 -18.774  1.00  0.00     0.054 C 
BRANCH  13  14
ATOM     14  C   UNL     1       2.020  17.100 -19.130  1.00  0.00    -0.027 C 
ATOM     15  C   UNL     1       1.014  17.728 -19.762  1.00  0.00    -0.031 C 
BRANCH  15  16
ATOM     16  C   UNL     1       1.101  19.183 -20.127  1.00  0.00     0.027 C 
BRANCH  16  17
ATOM     17  C   UNL     1      -0.211  19.913 -19.812  1.00  0.00     0.004 C 
BRANCH  17  18
ATOM     18  C   UNL     1      -1.086  19.087 -18.862  1.00  0.00     0.000 C 
BRANCH  18  19
ATOM     19  C   UNL     1      -0.880  19.522 -17.406  1.00  0.00    -0.003 C 
ATOM     20  C   UNL     1      -2.156  20.123 -16.824  1.00  0.00     0.004 C 
ENDBRANCH  18  19
ENDBRANCH  17  18
ENDBRANCH  16  17
ENDBRANCH  15  16
ENDBRANCH  13  14
ENDBRANCH  12  13
ENDBRANCH   1  11
TORSDOF 14
ENDMDL
MODEL 2
REMARK VINA RESULT:    -4.325      2.629      4.016
REMARK INTER + INTRA:          -9.093
REMARK INTER:                  -7.424
REMARK INTRA:                  -1.669
REMARK UNBOUND:                -1.228
REMARK SMILES CCCCCC=CCC=CCCCCCCCC(=O)[O-]
REMARK SMILES IDX 11 1 12 2 13 3 14 4 15 5 16 6 17 7 18 8 19 9 20 10 10 11
REMARK SMILES IDX 9 12 8 13 7 14 6 15 5 16 4 17 3 18 2 19 1 20
REMARK H PARENT
REMARK Flexibility Score: inf
ROOT
ATOM      1  C   UNL     1      -2.808  13.130 -14.956  1.00  0.00     0.027 C 
ENDROOT
BRANCH   1   2
ATOM      2  C   UNL     1      -3.904  12.062 -14.828  1.00  0.00     0.004 C 
BRANCH   2   3
ATOM      3  C   UNL     1      -3.575  10.724 -15.520  1.00  0.00     0.000 C 
BRANCH   3   4
ATOM      4  C   UNL     1      -4.130  10.575 -16.949  1.00  0.00     0.000 C 
BRANCH   4   5
ATOM      5  C   UNL     1      -3.030  10.398 -18.005  1.00  0.00     0.000 C 
BRANCH   5   6
ATOM      6  C   UNL     1      -3.198  11.412 -19.147  1.00  0.00     0.006 C 
BRANCH   6   7
ATOM      7  C   UNL     1      -4.668  11.784 -19.381  1.00  0.00     0.053 C 
BRANCH   7   8
ATOM      8  C   UNL     1      -5.255  11.038 -20.540  1.00  0.00     0.041 C 
ATOM      9  O   UNL     1      -6.503  10.991 -20.694  1.00  0.00    -0.550 OA
ATOM     10  O   UNL     1      -4.420  10.415 -21.462  1.00  0.00    -0.550 OA
ENDBRANCH   7   8
ENDBRANCH   6   7
ENDBRANCH   5   6
ENDBRANCH   4   5
ENDBRANCH   3   4
ENDBRANCH   2   3
ENDBRANCH   1   2
BRANCH   1  11
ATOM     11  C   UNL     1      -2.782  13.737 -16.333  1.00  0.00    -0.031 C 
ATOM     12  C   UNL     1      -1.629  14.038 -16.951  1.00  0.00    -0.027 C 
BRANCH  12  13
ATOM     13  C   UNL     1      -1.605  14.638 -18.330  1.00  0.00     0.054 C 
BRANCH  13  14
ATOM     14  C   UNL     1      -0.613  15.764 -18.392  1.00  0.00    -0.027 C 
ATOM     15  C   UNL     1       0.671  15.547 -18.721  1.00  0.00    -0.031 C 
BRANCH  15  16
ATOM     16  C   UNL     1       1.669  16.671 -18.776  1.00  0.00     0.027 C 
BRANCH  16  17
ATOM     17  C   UNL     1       1.119  17.860 -19.574  1.00  0.00     0.004 C 
BRANCH  17  18
ATOM     18  C   UNL     1       1.468  19.189 -18.893  1.00  0.00     0.000 C 
BRANCH  18  19
ATOM     19  C   UNL     1       0.324  19.660 -17.987  1.00  0.00    -0.003 C 
ATOM     20  C   UNL     1      -1.035  19.341 -18.605  1.00  0.00     0.004 C 
ENDBRANCH  18  19
ENDBRANCH  17  18
ENDBRANCH  16  17
ENDBRANCH  15  16
ENDBRANCH  13  14
ENDBRANCH  12  13
ENDBRANCH   1  11
TORSDOF 14
ENDMDL
MODEL 3
REMARK VINA RESULT:    -4.322      2.554      7.884
REMARK INTER + INTRA:          -9.088
REMARK INTER:                  -7.949
REMARK INTRA:                  -1.139
REMARK UNBOUND:                -1.228
REMARK SMILES CCCCCC=CCC=CCCCCCCCC(=O)[O-]
REMARK SMILES IDX 11 1 12 2 13 3 14 4 15 5 16 6 17 7 18 8 19 9 20 10 10 11
REMARK SMILES IDX 9 12 8 13 7 14 6 15 5 16 4 17 3 18 2 19 1 20
REMARK H PARENT
REMARK Flexibility Score: inf
ROOT
ATOM      1  C   UNL     1      -0.649  15.774 -18.389  1.00  0.00     0.027 C 
ENDROOT
BRANCH   1   2
ATOM      2  C   UNL     1       0.803  15.475 -18.794  1.00  0.00     0.004 C 
BRANCH   2   3
ATOM      3  C   UNL     1       1.681  16.728 -18.991  1.00  0.00     0.000 C 
BRANCH   3   4
ATOM      4  C   UNL     1       1.385  17.537 -20.268  1.00  0.00     0.000 C 
BRANCH   4   5
ATOM      5  C   UNL     1       1.609  19.045 -20.088  1.00  0.00     0.000 C 
BRANCH   5   6
ATOM      6  C   UNL     1       0.918  19.555 -18.815  1.00  0.00     0.006 C 
BRANCH   6   7
ATOM      7  C   UNL     1      -0.611  19.561 -18.946  1.00  0.00     0.053 C 
BRANCH   7   8
ATOM      8  C   UNL     1      -1.283  19.784 -17.627  1.00  0.00     0.041 C 
ATOM      9  O   UNL     1      -0.599  20.054 -16.606  1.00  0.00    -0.550 OA
ATOM     10  O   UNL     1      -2.669  19.717 -17.531  1.00  0.00    -0.550 OA
ENDBRANCH   7   8
ENDBRANCH   6   7
ENDBRANCH   5   6
ENDBRANCH   4   5
ENDBRANCH   3   4
ENDBRANCH   2   3
ENDBRANCH   1   2
BRANCH   1  11
ATOM     11  C   UNL     1      -1.424  14.511 -18.128  1.00  0.00    -0.031 C 
ATOM     12  C   UNL     1      -1.919  13.766 -19.129  1.00  0.00    -0.027 C 
BRANCH  12  13
ATOM     13  C   UNL     1      -2.687  12.500 -18.867  1.00  0.00     0.054 C 
BRANCH  13  14
ATOM     14  C   UNL     1      -3.071  12.414 -17.418  1.00  0.00    -0.027 C 
ATOM     15  C   UNL     1      -4.349  12.538 -17.024  1.00  0.00    -0.031 C 
BRANCH  15  16
ATOM     16  C   UNL     1      -4.737  12.460 -15.574  1.00  0.00     0.027 C 
BRANCH  16  17
ATOM     17  C   UNL     1      -3.515  12.639 -14.664  1.00  0.00     0.004 C 
BRANCH  17  18
ATOM     18  C   UNL     1      -3.000  11.286 -14.158  1.00  0.00     0.000 C 
BRANCH  18  19
ATOM     19  C   UNL     1      -4.100  10.220 -14.224  1.00  0.00    -0.003 C 
ATOM     20  C   UNL     1      -3.805   9.065 -13.272  1.00  0.00     0.004 C 
ENDBRANCH  18  19
ENDBRANCH  17  18
ENDBRANCH  16  17
ENDBRANCH  15  16
ENDBRANCH  13  14
ENDBRANCH  12  13
ENDBRANCH   1  11
TORSDOF 14
ENDMDL
MODEL 4
REMARK VINA RESULT:    -4.090      2.875      8.037
REMARK INTER + INTRA:          -8.665
REMARK INTER:                  -7.660
REMARK INTRA:                  -1.004
REMARK UNBOUND:                -1.228
REMARK SMILES CCCCCC=CCC=CCCCCCCCC(=O)[O-]
REMARK SMILES IDX 11 1 12 2 13 3 14 4 15 5 16 6 17 7 18 8 19 9 20 10 10 11
REMARK SMILES IDX 9 12 8 13 7 14 6 15 5 16 4 17 3 18 2 19 1 20
REMARK H PARENT
REMARK Flexibility Score: inf
ROOT
ATOM      1  C   UNL     1      -0.409  15.823 -18.382  1.00  0.00     0.027 C 
ENDROOT
BRANCH   1   2
ATOM      2  C   UNL     1       1.001  15.325 -18.733  1.00  0.00     0.004 C 
BRANCH   2   3
ATOM      3  C   UNL     1       1.834  16.312 -19.577  1.00  0.00     0.000 C 
BRANCH   3   4
ATOM      4  C   UNL     1       1.818  17.770 -19.079  1.00  0.00     0.000 C 
BRANCH   4   5
ATOM      5  C   UNL     1       1.419  18.773 -20.171  1.00  0.00     0.000 C 
BRANCH   5   6
ATOM      6  C   UNL     1       0.767  20.020 -19.558  1.00  0.00     0.006 C 
BRANCH   6   7
ATOM      7  C   UNL     1      -0.732  19.822 -19.294  1.00  0.00     0.053 C 
BRANCH   7   8
ATOM      8  C   UNL     1      -1.055  19.891 -17.833  1.00  0.00     0.041 C 
ATOM      9  O   UNL     1      -2.237  19.717 -17.438  1.00  0.00    -0.550 OA
ATOM     10  O   UNL     1      -0.044  20.125 -16.906  1.00  0.00    -0.550 OA
ENDBRANCH   7   8
ENDBRANCH   6   7
ENDBRANCH   5   6
ENDBRANCH   4   5
ENDBRANCH   3   4
ENDBRANCH   2   3
ENDBRANCH   1   2
BRANCH   1  11
ATOM     11  C   UNL     1      -1.352  14.680 -18.119  1.00  0.00    -0.031 C 
ATOM     12  C   UNL     1      -1.871  14.458 -16.901  1.00  0.00    -0.027 C 
BRANCH  12  13
ATOM     13  C   UNL     1      -2.819  13.320 -16.642  1.00  0.00     0.054 C 
BRANCH  13  14
ATOM     14  C   UNL     1      -2.981  12.483 -17.878  1.00  0.00    -0.027 C 
ATOM     15  C   UNL     1      -3.362  11.198 -17.808  1.00  0.00    -0.031 C 
BRANCH  15  16
ATOM     16  C   UNL     1      -3.517  10.355 -19.043  1.00  0.00     0.027 C 
BRANCH  16  17
ATOM     17  C   UNL     1      -4.229  11.132 -20.158  1.00  0.00     0.004 C 
BRANCH  17  18
ATOM     18  C   UNL     1      -5.742  11.184 -19.914  1.00  0.00     0.000 C 
BRANCH  18  19
ATOM     19  C   UNL     1      -6.515  10.703 -21.148  1.00  0.00    -0.003 C 
ATOM     20  C   UNL     1      -7.957  10.354 -20.793  1.00  0.00     0.004 C 
ENDBRANCH  18  19
ENDBRANCH  17  18
ENDBRANCH  16  17
ENDBRANCH  15  16
ENDBRANCH  13  14
ENDBRANCH  12  13
ENDBRANCH   1  11
TORSDOF 14
ENDMDL
MODEL 5
REMARK VINA RESULT:    -3.984      2.368      3.144
REMARK INTER + INTRA:          -8.472
REMARK INTER:                  -7.455
REMARK INTRA:                  -1.017
REMARK UNBOUND:                -1.228
REMARK SMILES CCCCCC=CCC=CCCCCCCCC(=O)[O-]
REMARK SMILES IDX 11 1 12 2 13 3 14 4 15 5 16 6 17 7 18 8 19 9 20 10 10 11
REMARK SMILES IDX 9 12 8 13 7 14 6 15 5 16 4 17 3 18 2 19 1 20
REMARK H PARENT
REMARK Flexibility Score: inf
ROOT
ATOM      1  C   UNL     1      -2.442  14.320 -17.483  1.00  0.00     0.027 C 
ENDROOT
BRANCH   1   2
ATOM      2  C   UNL     1      -2.225  13.635 -16.125  1.00  0.00     0.004 C 
BRANCH   2   3
ATOM      3  C   UNL     1      -3.471  12.919 -15.566  1.00  0.00     0.000 C 
BRANCH   3   4
ATOM      4  C   UNL     1      -4.138  11.921 -16.530  1.00  0.00     0.000 C 
BRANCH   4   5
ATOM      5  C   UNL     1      -3.263  10.693 -16.823  1.00  0.00     0.000 C 
BRANCH   5   6
ATOM      6  C   UNL     1      -3.199  10.413 -18.332  1.00  0.00     0.006 C 
BRANCH   6   7
ATOM      7  C   UNL     1      -3.751  11.578 -19.163  1.00  0.00     0.053 C 
BRANCH   7   8
ATOM      8  C   UNL     1      -4.687  11.107 -20.233  1.00  0.00     0.041 C 
ATOM      9  O   UNL     1      -4.265  10.371 -21.163  1.00  0.00    -0.550 OA
ATOM     10  O   UNL     1      -6.031  11.462 -20.189  1.00  0.00    -0.550 OA
ENDBRANCH   7   8
ENDBRANCH   6   7
ENDBRANCH   5   6
ENDBRANCH   4   5
ENDBRANCH   3   4
ENDBRANCH   2   3
ENDBRANCH   1   2
BRANCH   1  11
ATOM     11  C   UNL     1      -1.147  14.503 -18.227  1.00  0.00    -0.031 C 
ATOM     12  C   UNL     1      -0.318  15.525 -17.962  1.00  0.00    -0.027 C 
BRANCH  12  13
ATOM     13  C   UNL     1       0.980  15.702 -18.701  1.00  0.00     0.054 C 
BRANCH  13  14
ATOM     14  C   UNL     1       1.247  17.160 -18.944  1.00  0.00    -0.027 C 
ATOM     15  C   UNL     1       0.795  17.779 -20.046  1.00  0.00    -0.031 C 
BRANCH  15  16
ATOM     16  C   UNL     1       1.067  19.237 -20.297  1.00  0.00     0.027 C 
BRANCH  16  17
ATOM     17  C   UNL     1       0.091  20.125 -19.515  1.00  0.00     0.004 C 
BRANCH  17  18
ATOM     18  C   UNL     1      -0.981  19.281 -18.815  1.00  0.00     0.000 C 
BRANCH  18  19
ATOM     19  C   UNL     1      -1.583  20.034 -17.622  1.00  0.00    -0.003 C 
ATOM     20  C   UNL     1      -0.631  20.027 -16.430  1.00  0.00     0.004 C 
ENDBRANCH  18  19
ENDBRANCH  17  18
ENDBRANCH  16  17
ENDBRANCH  15  16
ENDBRANCH  13  14
ENDBRANCH  12  13
ENDBRANCH   1  11
TORSDOF 14
ENDMDL
MODEL 6
REMARK VINA RESULT:    -3.908      1.735      2.840
REMARK INTER + INTRA:          -8.333
REMARK INTER:                  -7.502
REMARK INTRA:                  -0.831
REMARK UNBOUND:                -1.228
REMARK SMILES CCCCCC=CCC=CCCCCCCCC(=O)[O-]
REMARK SMILES IDX 11 1 12 2 13 3 14 4 15 5 16 6 17 7 18 8 19 9 20 10 10 11
REMARK SMILES IDX 9 12 8 13 7 14 6 15 5 16 4 17 3 18 2 19 1 20
REMARK H PARENT
REMARK Flexibility Score: inf
ROOT
ATOM      1  C   UNL     1      -3.605  12.516 -19.524  1.00  0.00     0.027 C 
ENDROOT
BRANCH   1   2
ATOM      2  C   UNL     1      -3.855  11.024 -19.261  1.00  0.00     0.004 C 
BRANCH   2   3
ATOM      3  C   UNL     1      -2.915  10.394 -18.212  1.00  0.00     0.000 C 
BRANCH   3   4
ATOM      4  C   UNL     1      -3.476  10.346 -16.779  1.00  0.00     0.000 C 
BRANCH   4   5
ATOM      5  C   UNL     1      -3.790  11.737 -16.209  1.00  0.00     0.000 C 
BRANCH   5   6
ATOM      6  C   UNL     1      -4.146  11.651 -14.718  1.00  0.00     0.006 C 
BRANCH   6   7
ATOM      7  C   UNL     1      -3.212  10.706 -13.951  1.00  0.00     0.053 C 
BRANCH   7   8
ATOM      8  C   UNL     1      -3.931   9.487 -13.460  1.00  0.00     0.041 C 
ATOM      9  O   UNL     1      -5.189   9.437 -13.499  1.00  0.00    -0.550 OA
ATOM     10  O   UNL     1      -3.211   8.398 -12.981  1.00  0.00    -0.550 OA
ENDBRANCH   7   8
ENDBRANCH   6   7
ENDBRANCH   5   6
ENDBRANCH   4   5
ENDBRANCH   3   4
ENDBRANCH   2   3
ENDBRANCH   1   2
BRANCH   1  11
ATOM     11  C   UNL     1      -2.323  12.984 -18.888  1.00  0.00    -0.031 C 
ATOM     12  C   UNL     1      -2.159  14.253 -18.482  1.00  0.00    -0.027 C 
BRANCH  12  13
ATOM     13  C   UNL     1      -0.881  14.718 -17.840  1.00  0.00     0.054 C 
BRANCH  13  14
ATOM     14  C   UNL     1      -0.226  15.772 -18.685  1.00  0.00    -0.027 C 
ATOM     15  C   UNL     1       1.111  15.866 -18.774  1.00  0.00    -0.031 C 
BRANCH  15  16
ATOM     16  C   UNL     1       1.770  16.925 -19.613  1.00  0.00     0.027 C 
BRANCH  16  17
ATOM     17  C   UNL     1       1.475  18.328 -19.067  1.00  0.00     0.004 C 
BRANCH  17  18
ATOM     18  C   UNL     1       0.528  19.094 -19.997  1.00  0.00     0.000 C 
BRANCH  18  19
ATOM     19  C   UNL     1      -0.394  20.025 -19.200  1.00  0.00    -0.003 C 
ATOM     20  C   UNL     1      -1.345  19.229 -18.312  1.00  0.00     0.004 C 
ENDBRANCH  18  19
ENDBRANCH  17  18
ENDBRANCH  16  17
ENDBRANCH  15  16
ENDBRANCH  13  14
ENDBRANCH  12  13
ENDBRANCH   1  11
TORSDOF 14
ENDMDL
MODEL 7
REMARK VINA RESULT:    -3.837      2.705      7.795
REMARK INTER + INTRA:          -8.204
REMARK INTER:                  -8.282
REMARK INTRA:                   0.078
REMARK UNBOUND:                -1.228
REMARK SMILES CCCCCC=CCC=CCCCCCCCC(=O)[O-]
REMARK SMILES IDX 11 1 12 2 13 3 14 4 15 5 16 6 17 7 18 8 19 9 20 10 10 11
REMARK SMILES IDX 9 12 8 13 7 14 6 15 5 16 4 17 3 18 2 19 1 20
REMARK H PARENT
REMARK Flexibility Score: inf
ROOT
ATOM      1  C   UNL     1      -1.848  14.517 -16.719  1.00  0.00     0.027 C 
ENDROOT
BRANCH   1   2
ATOM      2  C   UNL     1      -1.299  14.624 -18.149  1.00  0.00     0.004 C 
BRANCH   2   3
ATOM      3  C   UNL     1      -0.467  15.895 -18.419  1.00  0.00     0.000 C 
BRANCH   3   4
ATOM      4  C   UNL     1       1.010  15.644 -18.776  1.00  0.00     0.000 C 
BRANCH   4   5
ATOM      5  C   UNL     1       1.640  16.796 -19.572  1.00  0.00     0.000 C 
BRANCH   5   6
ATOM      6  C   UNL     1       0.600  17.885 -19.876  1.00  0.00     0.006 C 
BRANCH   6   7
ATOM      7  C   UNL     1       0.978  19.237 -19.257  1.00  0.00     0.053 C 
BRANCH   7   8
ATOM      8  C   UNL     1       0.081  19.597 -18.113  1.00  0.00     0.041 C 
ATOM      9  O   UNL     1       0.566  20.073 -17.054  1.00  0.00    -0.550 OA
ATOM     10  O   UNL     1      -1.295  19.428 -18.227  1.00  0.00    -0.550 OA
ENDBRANCH   7   8
ENDBRANCH   6   7
ENDBRANCH   5   6
ENDBRANCH   4   5
ENDBRANCH   3   4
ENDBRANCH   2   3
ENDBRANCH   1   2
BRANCH   1  11
ATOM     11  C   UNL     1      -2.771  13.338 -16.566  1.00  0.00    -0.031 C 
ATOM     12  C   UNL     1      -3.133  12.876 -15.359  1.00  0.00    -0.027 C 
BRANCH  12  13
ATOM     13  C   UNL     1      -4.062  11.703 -15.207  1.00  0.00     0.054 C 
BRANCH  13  14
ATOM     14  C   UNL     1      -3.873  10.738 -16.342  1.00  0.00    -0.027 C 
ATOM     15  C   UNL     1      -2.966  10.963 -17.308  1.00  0.00    -0.031 C 
BRANCH  15  16
ATOM     16  C   UNL     1      -2.779  10.003 -18.450  1.00  0.00     0.027 C 
BRANCH  16  17
ATOM     17  C   UNL     1      -3.649  10.396 -19.651  1.00  0.00     0.004 C 
BRANCH  17  18
ATOM     18  C   UNL     1      -4.179  11.827 -19.503  1.00  0.00     0.000 C 
BRANCH  18  19
ATOM     19  C   UNL     1      -5.672  11.899 -19.842  1.00  0.00    -0.003 C 
ATOM     20  C   UNL     1      -6.066  10.805 -20.832  1.00  0.00     0.004 C 
ENDBRANCH  18  19
ENDBRANCH  17  18
ENDBRANCH  16  17
ENDBRANCH  15  16
ENDBRANCH  13  14
ENDBRANCH  12  13
ENDBRANCH   1  11
TORSDOF 14
ENDMDL
MODEL 8
REMARK VINA RESULT:    -3.830      0.842      2.178
REMARK INTER + INTRA:          -8.191
REMARK INTER:                  -7.255
REMARK INTRA:                  -0.936
REMARK UNBOUND:                -1.228
REMARK SMILES CCCCCC=CCC=CCCCCCCCC(=O)[O-]
REMARK SMILES IDX 11 1 12 2 13 3 14 4 15 5 16 6 17 7 18 8 19 9 20 10 10 11
REMARK SMILES IDX 9 12 8 13 7 14 6 15 5 16 4 17 3 18 2 19 1 20
REMARK H PARENT
REMARK Flexibility Score: inf
ROOT
ATOM      1  C   UNL     1      -3.418  12.331 -19.548  1.00  0.00     0.027 C 
ENDROOT
BRANCH   1   2
ATOM      2  C   UNL     1      -3.659  10.861 -19.175  1.00  0.00     0.004 C 
BRANCH   2   3
ATOM      3  C   UNL     1      -3.039  10.435 -17.829  1.00  0.00     0.000 C 
BRANCH   3   4
ATOM      4  C   UNL     1      -3.975  10.554 -16.612  1.00  0.00     0.000 C 
BRANCH   4   5
ATOM      5  C   UNL     1      -5.136  11.532 -16.842  1.00  0.00     0.000 C 
BRANCH   5   6
ATOM      6  C   UNL     1      -4.890  12.858 -16.106  1.00  0.00     0.006 C 
BRANCH   6   7
ATOM      7  C   UNL     1      -4.378  12.642 -14.676  1.00  0.00     0.053 C 
BRANCH   7   8
ATOM      8  C   UNL     1      -2.882  12.659 -14.611  1.00  0.00     0.041 C 
ATOM      9  O   UNL     1      -2.236  13.592 -15.157  1.00  0.00    -0.550 OA
ATOM     10  O   UNL     1      -2.203  11.657 -13.926  1.00  0.00    -0.550 OA
ENDBRANCH   7   8
ENDBRANCH   6   7
ENDBRANCH   5   6
ENDBRANCH   4   5
ENDBRANCH   3   4
ENDBRANCH   2   3
ENDBRANCH   1   2
BRANCH   1  11
ATOM     11  C   UNL     1      -2.392  12.970 -18.652  1.00  0.00    -0.031 C 
ATOM     12  C   UNL     1      -1.927  14.209 -18.880  1.00  0.00    -0.027 C 
BRANCH  12  13
ATOM     13  C   UNL     1      -0.908  14.849 -17.979  1.00  0.00     0.054 C 
BRANCH  13  14
ATOM     14  C   UNL     1      -0.299  16.047 -18.650  1.00  0.00    -0.027 C 
ATOM     15  C   UNL     1       1.032  16.184 -18.764  1.00  0.00    -0.031 C 
BRANCH  15  16
ATOM     16  C   UNL     1       1.646  17.385 -19.428  1.00  0.00     0.027 C 
BRANCH  16  17
ATOM     17  C   UNL     1       0.565  18.335 -19.960  1.00  0.00     0.004 C 
BRANCH  17  18
ATOM     18  C   UNL     1       0.765  19.756 -19.418  1.00  0.00     0.000 C 
BRANCH  18  19
ATOM     19  C   UNL     1       0.125  19.911 -18.033  1.00  0.00    -0.003 C 
ATOM     20  C   UNL     1      -1.346  19.510 -18.058  1.00  0.00     0.004 C 
ENDBRANCH  18  19
ENDBRANCH  17  18
ENDBRANCH  16  17
ENDBRANCH  15  16
ENDBRANCH  13  14
ENDBRANCH  12  13
ENDBRANCH   1  11
TORSDOF 14
ENDMDL
MODEL 9
REMARK VINA RESULT:    -3.513      2.546      7.602
REMARK INTER + INTRA:          -7.616
REMARK INTER:                  -6.249
REMARK INTRA:                  -1.367
REMARK UNBOUND:                -1.228
REMARK SMILES CCCCCC=CCC=CCCCCCCCC(=O)[O-]
REMARK SMILES IDX 11 1 12 2 13 3 14 4 15 5 16 6 17 7 18 8 19 9 20 10 10 11
REMARK SMILES IDX 9 12 8 13 7 14 6 15 5 16 4 17 3 18 2 19 1 20
REMARK H PARENT
REMARK Flexibility Score: inf
ROOT
ATOM      1  C   UNL     1       0.826  16.247 -18.023  1.00  0.00     0.027 C 
ENDROOT
BRANCH   1   2
ATOM      2  C   UNL     1       2.125  16.604 -18.761  1.00  0.00     0.004 C 
BRANCH   2   3
ATOM      3  C   UNL     1       2.012  16.577 -20.299  1.00  0.00     0.000 C 
BRANCH   3   4
ATOM      4  C   UNL     1       1.476  17.873 -20.936  1.00  0.00     0.000 C 
BRANCH   4   5
ATOM      5  C   UNL     1       1.892  19.136 -20.168  1.00  0.00     0.000 C 
BRANCH   5   6
ATOM      6  C   UNL     1       0.699  20.088 -19.991  1.00  0.00     0.006 C 
BRANCH   6   7
ATOM      7  C   UNL     1      -0.450  19.440 -19.207  1.00  0.00     0.053 C 
BRANCH   7   8
ATOM      8  C   UNL     1      -0.380  19.762 -17.746  1.00  0.00     0.041 C 
ATOM      9  O   UNL     1      -1.430  19.779 -17.052  1.00  0.00    -0.550 OA
ATOM     10  O   UNL     1       0.848  20.021 -17.147  1.00  0.00    -0.550 OA
ENDBRANCH   7   8
ENDBRANCH   6   7
ENDBRANCH   5   6
ENDBRANCH   4   5
ENDBRANCH   3   4
ENDBRANCH   2   3
ENDBRANCH   1   2
BRANCH   1  11
ATOM     11  C   UNL     1      -0.032  15.311 -18.831  1.00  0.00    -0.031 C 
ATOM     12  C   UNL     1      -1.198  14.838 -18.361  1.00  0.00    -0.027 C 
BRANCH  12  13
ATOM     13  C   UNL     1      -2.059  13.910 -19.173  1.00  0.00     0.054 C 
BRANCH  13  14
ATOM     14  C   UNL     1      -2.527  12.761 -18.327  1.00  0.00    -0.027 C 
ATOM     15  C   UNL     1      -2.927  11.604 -18.880  1.00  0.00    -0.031 C 
BRANCH  15  16
ATOM     16  C   UNL     1      -3.404  10.454 -18.037  1.00  0.00     0.027 C 
BRANCH  16  17
ATOM     17  C   UNL     1      -3.268  10.769 -16.542  1.00  0.00     0.004 C 
BRANCH  17  18
ATOM     18  C   UNL     1      -4.579  11.328 -15.976  1.00  0.00     0.000 C 
BRANCH  18  19
ATOM     19  C   UNL     1      -4.336  12.635 -15.212  1.00  0.00    -0.003 C 
ATOM     20  C   UNL     1      -2.906  12.708 -14.686  1.00  0.00     0.004 C 
ENDBRANCH  18  19
ENDBRANCH  17  18
ENDBRANCH  16  17
ENDBRANCH  15  16
ENDBRANCH  13  14
ENDBRANCH  12  13
ENDBRANCH   1  11
TORSDOF 14
ENDMDL
