MODEL 1
REMARK VINA RESULT:    -2.545      0.000      0.000
REMARK INTER + INTRA:          -2.968
REMARK INTER:                  -2.917
REMARK INTRA:                  -0.051
REMARK UNBOUND:                -0.051
REMARK SMILES CC(C)[C@@H]([NH3+])C(=O)[O-]
REMARK SMILES IDX 4 1 5 2 6 6 7 7 8 8 2 9 1 10 3 11
REMARK H PARENT 5 3 5 4 5 5
REMARK Flexibility Score: inf
ROOT
ATOM      1  C   UNL     1       1.665  -0.223  -6.915  1.00  0.00     0.230 C 
ENDROOT
BRANCH   1   2
ATOM      2  N   UNL     1       3.093  -0.357  -6.595  1.00  0.00    -0.350 N 
ATOM      3  H   UNL     1       3.670   0.157  -7.301  1.00  0.00     0.345 HD
ATOM      4  H   UNL     1       3.297   0.071  -5.663  1.00  0.00     0.345 HD
ATOM      5  H   UNL     1       3.380  -1.363  -6.589  1.00  0.00     0.345 HD
ENDBRANCH   1   2
BRANCH   1   6
ATOM      6  C   UNL     1       1.086   0.931  -6.131  1.00  0.00     0.099 C 
ATOM      7  O   UNL     1      -0.063   1.367  -6.402  1.00  0.00    -0.544 OA
ATOM      8  O   UNL     1       1.820   1.519  -5.108  1.00  0.00    -0.544 OA
ENDBRANCH   1   6
BRANCH   1   9
ATOM      9  C   UNL     1       1.428  -0.023  -8.442  1.00  0.00     0.047 C 
ATOM     10  C   UNL     1       2.750   0.162  -9.208  1.00  0.00     0.014 C 
ATOM     11  C   UNL     1       0.660  -1.212  -9.047  1.00  0.00     0.014 C 
ENDBRANCH   1   9
TORSDOF 3
ENDMDL
MODEL 2
REMARK VINA RESULT:    -1.980      2.517      3.489
REMARK INTER + INTRA:          -2.321
REMARK INTER:                  -2.270
REMARK INTRA:                  -0.051
REMARK UNBOUND:                -0.051
REMARK SMILES CC(C)[C@@H]([NH3+])C(=O)[O-]
REMARK SMILES IDX 4 1 5 2 6 6 7 7 8 8 2 9 1 10 3 11
REMARK H PARENT 5 3 5 4 5 5
REMARK Flexibility Score: inf
ROOT
ATOM      1  C   UNL     1       1.741   0.082  -8.490  1.00  0.00     0.230 C 
ENDROOT
BRANCH   1   2
ATOM      2  N   UNL     1       3.195   0.139  -8.701  1.00  0.00    -0.350 N 
ATOM      3  H   UNL     1       3.434   0.924  -9.351  1.00  0.00     0.345 HD
ATOM      4  H   UNL     1       3.685   0.331  -7.797  1.00  0.00     0.345 HD
ATOM      5  H   UNL     1       3.547  -0.758  -9.107  1.00  0.00     0.345 HD
ENDBRANCH   1   2
BRANCH   1   6
ATOM      6  C   UNL     1       1.168  -1.060  -9.294  1.00  0.00     0.099 C 
ATOM      7  O   UNL     1      -0.012  -1.449  -9.088  1.00  0.00    -0.544 OA
ATOM      8  O   UNL     1       1.938  -1.689 -10.264  1.00  0.00    -0.544 OA
ENDBRANCH   1   6
BRANCH   1   9
ATOM      9  C   UNL     1       1.380  -0.071  -6.981  1.00  0.00     0.047 C 
ATOM     10  C   UNL     1       2.633  -0.238  -6.105  1.00  0.00     0.014 C 
ATOM     11  C   UNL     1       0.571   1.137  -6.476  1.00  0.00     0.014 C 
ENDBRANCH   1   9
TORSDOF 3
ENDMDL
MODEL 3
REMARK VINA RESULT:    -1.117      1.634      2.240
REMARK INTER + INTRA:          -1.331
REMARK INTER:                  -1.278
REMARK INTRA:                  -0.053
REMARK UNBOUND:                -0.051
REMARK SMILES CC(C)[C@@H]([NH3+])C(=O)[O-]
REMARK SMILES IDX 4 1 5 2 6 6 7 7 8 8 2 9 1 10 3 11
REMARK H PARENT 5 3 5 4 5 5
REMARK Flexibility Score: inf
ROOT
ATOM      1  C   UNL     1       1.433   0.642  -7.237  1.00  0.00     0.230 C 
ENDROOT
BRANCH   1   2
ATOM      2  N   UNL     1       0.020   0.733  -6.845  1.00  0.00    -0.350 N 
ATOM      3  H   UNL     1      -0.596   0.474  -7.652  1.00  0.00     0.345 HD
ATOM      4  H   UNL     1      -0.186   0.059  -6.074  1.00  0.00     0.345 HD
ATOM      5  H   UNL     1      -0.218   1.704  -6.534  1.00  0.00     0.345 HD
ENDBRANCH   1   2
BRANCH   1   6
ATOM      6  C   UNL     1       2.275   0.398  -6.008  1.00  0.00     0.099 C 
ATOM      7  O   UNL     1       2.054   1.044  -4.951  1.00  0.00    -0.544 OA
ATOM      8  O   UNL     1       3.300  -0.540  -6.037  1.00  0.00    -0.544 OA
ENDBRANCH   1   6
BRANCH   1   9
ATOM      9  C   UNL     1       1.671  -0.475  -8.298  1.00  0.00     0.047 C 
ATOM     10  C   UNL     1       0.347  -1.025  -8.857  1.00  0.00     0.014 C 
ATOM     11  C   UNL     1       2.534   0.038  -9.464  1.00  0.00     0.014 C 
ENDBRANCH   1   9
TORSDOF 3
ENDMDL
MODEL 4
REMARK VINA RESULT:    -0.920      2.914      3.815
REMARK INTER + INTRA:          -1.105
REMARK INTER:                  -1.045
REMARK INTRA:                  -0.061
REMARK UNBOUND:                -0.051
REMARK SMILES CC(C)[C@@H]([NH3+])C(=O)[O-]
REMARK SMILES IDX 4 1 5 2 6 6 7 7 8 8 2 9 1 10 3 11
REMARK H PARENT 5 3 5 4 5 5
REMARK Flexibility Score: inf
ROOT
ATOM      1  C   UNL     1       1.543  -0.755  -8.243  1.00  0.00     0.230 C 
ENDROOT
BRANCH   1   2
ATOM      2  N   UNL     1       0.179  -1.032  -8.716  1.00  0.00    -0.350 N 
ATOM      3  H   UNL     1      -0.480  -0.299  -8.364  1.00  0.00     0.345 HD
ATOM      4  H   UNL     1       0.145  -0.998  -9.760  1.00  0.00     0.345 HD
ATOM      5  H   UNL     1      -0.145  -1.970  -8.384  1.00  0.00     0.345 HD
ENDBRANCH   1   2
BRANCH   1   6
ATOM      6  C   UNL     1       2.422  -0.423  -9.425  1.00  0.00     0.099 C 
ATOM      7  O   UNL     1       3.192   0.571  -9.382  1.00  0.00    -0.544 OA
ATOM      8  O   UNL     1       2.383  -1.212 -10.569  1.00  0.00    -0.544 OA
ENDBRANCH   1   6
BRANCH   1   9
ATOM      9  C   UNL     1       1.571   0.400  -7.196  1.00  0.00     0.047 C 
ATOM     10  C   UNL     1       0.154   0.846  -6.798  1.00  0.00     0.014 C 
ATOM     11  C   UNL     1       2.341  -0.015  -5.929  1.00  0.00     0.014 C 
ENDBRANCH   1   9
TORSDOF 3
ENDMDL
MODEL 5
REMARK VINA RESULT:    -0.590      1.807      2.251
REMARK INTER + INTRA:          -0.727
REMARK INTER:                  -0.707
REMARK INTRA:                  -0.020
REMARK UNBOUND:                -0.051
REMARK SMILES CC(C)[C@@H]([NH3+])C(=O)[O-]
REMARK SMILES IDX 4 1 5 2 6 6 7 7 8 8 2 9 1 10 3 11
REMARK H PARENT 5 3 5 4 5 5
REMARK Flexibility Score: inf
ROOT
ATOM      1  C   UNL     1       0.996  -0.177  -8.530  1.00  0.00     0.230 C 
ENDROOT
BRANCH   1   2
ATOM      2  N   UNL     1      -0.018  -1.237  -8.626  1.00  0.00    -0.350 N 
ATOM      3  H   UNL     1       0.289  -1.968  -9.309  1.00  0.00     0.345 HD
ATOM      4  H   UNL     1      -0.134  -1.711  -7.702  1.00  0.00     0.345 HD
ATOM      5  H   UNL     1      -0.937  -0.845  -8.936  1.00  0.00     0.345 HD
ENDBRANCH   1   2
BRANCH   1   6
ATOM      6  C   UNL     1       1.154   0.230  -7.085  1.00  0.00     0.099 C 
ATOM      7  O   UNL     1       0.370   1.074  -6.575  1.00  0.00    -0.544 OA
ATOM      8  O   UNL     1       2.167  -0.321  -6.309  1.00  0.00    -0.544 OA
ENDBRANCH   1   6
BRANCH   1   9
ATOM      9  C   UNL     1       2.363  -0.626  -9.128  1.00  0.00     0.047 C 
ATOM     10  C   UNL     1       2.186  -1.409 -10.441  1.00  0.00     0.014 C 
ATOM     11  C   UNL     1       3.283   0.582  -9.385  1.00  0.00     0.014 C 
ENDBRANCH   1   9
TORSDOF 3
ENDMDL
MODEL 6
REMARK VINA RESULT:    -0.550      2.515      3.398
REMARK INTER + INTRA:          -0.681
REMARK INTER:                  -0.677
REMARK INTRA:                  -0.004
REMARK UNBOUND:                -0.051
REMARK SMILES CC(C)[C@@H]([NH3+])C(=O)[O-]
REMARK SMILES IDX 4 1 5 2 6 6 7 7 8 8 2 9 1 10 3 11
REMARK H PARENT 5 3 5 4 5 5
REMARK Flexibility Score: inf
ROOT
ATOM      1  C   UNL     1       0.961   0.065  -6.956  1.00  0.00     0.230 C 
ENDROOT
BRANCH   1   2
ATOM      2  N   UNL     1      -0.120   1.058  -6.882  1.00  0.00    -0.350 N 
ATOM      3  H   UNL     1      -0.316   1.450  -7.833  1.00  0.00     0.345 HD
ATOM      4  H   UNL     1      -1.003   0.608  -6.548  1.00  0.00     0.345 HD
ATOM      5  H   UNL     1       0.138   1.842  -6.238  1.00  0.00     0.345 HD
ENDBRANCH   1   2
BRANCH   1   6
ATOM      6  C   UNL     1       1.185  -0.319  -8.399  1.00  0.00     0.099 C 
ATOM      7  O   UNL     1       0.468  -1.203  -8.937  1.00  0.00    -0.544 OA
ATOM      8  O   UNL     1       2.185   0.299  -9.140  1.00  0.00    -0.544 OA
ENDBRANCH   1   6
BRANCH   1   9
ATOM      9  C   UNL     1       2.280   0.595  -6.316  1.00  0.00     0.047 C 
ATOM     10  C   UNL     1       2.021   1.316  -4.982  1.00  0.00     0.014 C 
ATOM     11  C   UNL     1       3.284  -0.548  -6.081  1.00  0.00     0.014 C 
ENDBRANCH   1   9
TORSDOF 3
ENDMDL
MODEL 7
REMARK VINA RESULT:    -0.308      4.691      6.269
REMARK INTER + INTRA:          -0.404
REMARK INTER:                  -0.344
REMARK INTRA:                  -0.060
REMARK UNBOUND:                -0.051
REMARK SMILES CC(C)[C@@H]([NH3+])C(=O)[O-]
REMARK SMILES IDX 4 1 5 2 6 6 7 7 8 8 2 9 1 10 3 11
REMARK H PARENT 5 3 5 4 5 5
REMARK Flexibility Score: inf
ROOT
ATOM      1  C   UNL     1      -1.677   3.912  -5.087  1.00  0.00     0.230 C 
ENDROOT
BRANCH   1   2
ATOM      2  N   UNL     1      -1.527   4.940  -6.127  1.00  0.00    -0.350 N 
ATOM      3  H   UNL     1      -0.561   4.907  -6.530  1.00  0.00     0.345 HD
ATOM      4  H   UNL     1      -2.192   4.761  -6.912  1.00  0.00     0.345 HD
ATOM      5  H   UNL     1      -1.698   5.895  -5.733  1.00  0.00     0.345 HD
ENDBRANCH   1   2
BRANCH   1   6
ATOM      6  C   UNL     1      -0.744   2.763  -5.386  1.00  0.00     0.099 C 
ATOM      7  O   UNL     1       0.382   2.700  -4.825  1.00  0.00    -0.544 OA
ATOM      8  O   UNL     1      -1.120   1.771  -6.283  1.00  0.00    -0.544 OA
ENDBRANCH   1   6
BRANCH   1   9
ATOM      9  C   UNL     1      -1.408   4.484  -3.662  1.00  0.00     0.047 C 
ATOM     10  C   UNL     1      -1.593   6.010  -3.613  1.00  0.00     0.014 C 
ATOM     11  C   UNL     1      -2.331   3.832  -2.617  1.00  0.00     0.014 C 
ENDBRANCH   1   9
TORSDOF 3
ENDMDL
