MODEL 1
REMARK VINA RESULT:    -7.955      0.000      0.000
REMARK INTER + INTRA:          -9.422
REMARK INTER:                  -9.350
REMARK INTRA:                  -0.072
REMARK UNBOUND:                -0.072
REMARK SMILES O=c1c(O)c(-c2ccc(O)c(O)c2)oc2cc(O)ccc12
REMARK SMILES IDX 5 1 3 2 2 3 1 4 21 5 15 6 14 7 16 8 17 9 19 10 20 11 6 12
REMARK SMILES IDX 7 13 8 14 9 15 13 16 11 17 10 18 12 20 4 22 18 24
REMARK H PARENT 10 19 12 21 4 23 18 25
REMARK Flexibility Score: inf
ROOT
ATOM      1  C   UNL     1      16.382  22.581  40.949  1.00  0.00     0.180 A 
ATOM      2  C   UNL     1      16.007  23.625  40.079  1.00  0.00     0.208 A 
ATOM      3  C   UNL     1      14.928  24.450  40.436  1.00  0.00     0.235 A 
ATOM      4  O   UNL     1      14.579  25.396  39.680  1.00  0.00    -0.285 OA
ATOM      5  C   UNL     1      14.240  24.203  41.635  1.00  0.00     0.069 A 
ATOM      6  C   UNL     1      14.663  23.124  42.441  1.00  0.00     0.142 A 
ATOM      7  O   UNL     1      15.695  22.373  42.070  1.00  0.00    -0.452 OA
ATOM      8  C   UNL     1      13.997  22.840  43.637  1.00  0.00     0.094 A 
ATOM      9  C   UNL     1      12.912  23.624  44.044  1.00  0.00     0.119 A 
ATOM     10  C   UNL     1      12.490  24.698  43.248  1.00  0.00     0.047 A 
ATOM     11  C   UNL     1      13.148  24.989  42.049  1.00  0.00     0.020 A 
ENDROOT
BRANCH   1  12
ATOM     12  C   UNL     1      17.521  21.682  40.652  1.00  0.00     0.025 A 
ATOM     13  C   UNL     1      17.331  20.292  40.698  1.00  0.00     0.016 A 
ATOM     14  C   UNL     1      18.396  19.424  40.441  1.00  0.00     0.051 A 
ATOM     15  C   UNL     1      19.667  19.929  40.150  1.00  0.00     0.157 A 
ATOM     16  C   UNL     1      18.804  22.189  40.380  1.00  0.00     0.062 A 
ATOM     17  C   UNL     1      19.875  21.319  40.124  1.00  0.00     0.158 A 
BRANCH  15  18
ATOM     18  O   UNL     1      20.709  19.039  39.896  1.00  0.00    -0.504 OA
ATOM     19  H   UNL     1      21.162  18.516  40.635  1.00  0.00     0.293 HD
ENDBRANCH  15  18
BRANCH  17  20
ATOM     20  O   UNL     1      21.141  21.830  39.848  1.00  0.00    -0.504 OA
ATOM     21  H   UNL     1      21.981  21.385  40.200  1.00  0.00     0.293 HD
ENDBRANCH  17  20
ENDBRANCH   1  12
BRANCH   2  22
ATOM     22  O   UNL     1      16.679  23.815  38.868  1.00  0.00    -0.502 OA
ATOM     23  H   UNL     1      17.615  24.200  38.823  1.00  0.00     0.293 HD
ENDBRANCH   2  22
BRANCH   9  24
ATOM     24  O   UNL     1      12.261  23.328  45.239  1.00  0.00    -0.508 OA
ATOM     25  H   UNL     1      11.484  22.678  45.271  1.00  0.00     0.293 HD
ENDBRANCH   9  24
TORSDOF 5
ENDMDL
MODEL 2
REMARK VINA RESULT:    -7.913      0.987      1.630
REMARK INTER + INTRA:          -9.372
REMARK INTER:                  -9.143
REMARK INTRA:                  -0.229
REMARK UNBOUND:                -0.072
REMARK SMILES O=c1c(O)c(-c2ccc(O)c(O)c2)oc2cc(O)ccc12
REMARK SMILES IDX 5 1 3 2 2 3 1 4 21 5 15 6 14 7 16 8 17 9 19 10 20 11 6 12
REMARK SMILES IDX 7 13 8 14 9 15 13 16 11 17 10 18 12 20 4 22 18 24
REMARK H PARENT 10 19 12 21 4 23 18 25
REMARK Flexibility Score: inf
ROOT
ATOM      1  C   UNL     1      16.035  22.745  41.154  1.00  0.00     0.180 A 
ATOM      2  C   UNL     1      15.493  23.845  40.458  1.00  0.00     0.208 A 
ATOM      3  C   UNL     1      14.427  24.553  41.036  1.00  0.00     0.235 A 
ATOM      4  O   UNL     1      13.930  25.546  40.438  1.00  0.00    -0.285 OA
ATOM      5  C   UNL     1      13.917  24.139  42.277  1.00  0.00     0.069 A 
ATOM      6  C   UNL     1      14.501  23.014  42.899  1.00  0.00     0.142 A 
ATOM      7  O   UNL     1      15.514  22.377  42.322  1.00  0.00    -0.452 OA
ATOM      8  C   UNL     1      14.014  22.565  44.131  1.00  0.00     0.094 A 
ATOM      9  C   UNL     1      12.951  23.227  44.754  1.00  0.00     0.119 A 
ATOM     10  C   UNL     1      12.371  24.346  44.141  1.00  0.00     0.047 A 
ATOM     11  C   UNL     1      12.848  24.802  42.909  1.00  0.00     0.020 A 
ENDROOT
BRANCH   1  12
ATOM     12  C   UNL     1      17.172  21.961  40.620  1.00  0.00     0.025 A 
ATOM     13  C   UNL     1      18.453  22.534  40.590  1.00  0.00     0.016 A 
ATOM     14  C   UNL     1      19.536  21.820  40.071  1.00  0.00     0.051 A 
ATOM     15  C   UNL     1      19.355  20.530  39.564  1.00  0.00     0.157 A 
ATOM     16  C   UNL     1      16.987  20.671  40.089  1.00  0.00     0.062 A 
ATOM     17  C   UNL     1      18.074  19.952  39.568  1.00  0.00     0.158 A 
BRANCH  15  18
ATOM     18  O   UNL     1      20.455  19.840  39.056  1.00  0.00    -0.504 OA
ATOM     19  H   UNL     1      20.969  19.166  39.609  1.00  0.00     0.293 HD
ENDBRANCH  15  18
BRANCH  17  20
ATOM     20  O   UNL     1      17.884  18.673  39.050  1.00  0.00    -0.504 OA
ATOM     21  H   UNL     1      17.616  18.525  38.084  1.00  0.00     0.293 HD
ENDBRANCH  17  20
ENDBRANCH   1  12
BRANCH   2  22
ATOM     22  O   UNL     1      15.989  24.203  39.201  1.00  0.00    -0.502 OA
ATOM     23  H   UNL     1      15.808  25.108  38.786  1.00  0.00     0.293 HD
ENDBRANCH   2  22
BRANCH   9  24
ATOM     24  O   UNL     1      12.480  22.766  45.982  1.00  0.00    -0.508 OA
ATOM     25  H   UNL     1      11.743  22.073  46.038  1.00  0.00     0.293 HD
ENDBRANCH   9  24
TORSDOF 5
ENDMDL
MODEL 3
REMARK VINA RESULT:    -7.848      2.036      7.584
REMARK INTER + INTRA:          -9.296
REMARK INTER:                  -9.733
REMARK INTRA:                   0.437
REMARK UNBOUND:                -0.072
REMARK SMILES O=c1c(O)c(-c2ccc(O)c(O)c2)oc2cc(O)ccc12
REMARK SMILES IDX 5 1 3 2 2 3 1 4 21 5 15 6 14 7 16 8 17 9 19 10 20 11 6 12
REMARK SMILES IDX 7 13 8 14 9 15 13 16 11 17 10 18 12 20 4 22 18 24
REMARK H PARENT 10 19 12 21 4 23 18 25
REMARK Flexibility Score: inf
ROOT
ATOM      1  C   UNL     1      18.010  21.972  39.925  1.00  0.00     0.180 A 
ATOM      2  C   UNL     1      17.963  20.779  40.674  1.00  0.00     0.208 A 
ATOM      3  C   UNL     1      19.033  19.876  40.577  1.00  0.00     0.235 A 
ATOM      4  O   UNL     1      19.019  18.806  41.245  1.00  0.00    -0.285 OA
ATOM      5  C   UNL     1      20.109  20.171  39.725  1.00  0.00     0.069 A 
ATOM      6  C   UNL     1      20.071  21.376  38.991  1.00  0.00     0.142 A 
ATOM      7  O   UNL     1      19.043  22.208  39.118  1.00  0.00    -0.452 OA
ATOM      8  C   UNL     1      21.120  21.701  38.124  1.00  0.00     0.094 A 
ATOM      9  C   UNL     1      22.211  20.838  37.982  1.00  0.00     0.119 A 
ATOM     10  C   UNL     1      22.254  19.642  38.711  1.00  0.00     0.047 A 
ATOM     11  C   UNL     1      21.210  19.307  39.579  1.00  0.00     0.020 A 
ENDROOT
BRANCH   1  12
ATOM     12  C   UNL     1      16.931  22.984  39.988  1.00  0.00     0.025 A 
ATOM     13  C   UNL     1      16.950  24.070  39.099  1.00  0.00     0.016 A 
ATOM     14  C   UNL     1      15.952  25.047  39.154  1.00  0.00     0.051 A 
ATOM     15  C   UNL     1      14.931  24.963  40.105  1.00  0.00     0.157 A 
ATOM     16  C   UNL     1      15.915  22.911  40.958  1.00  0.00     0.062 A 
ATOM     17  C   UNL     1      14.913  23.893  41.016  1.00  0.00     0.158 A 
BRANCH  15  18
ATOM     18  O   UNL     1      13.948  25.951  40.134  1.00  0.00    -0.504 OA
ATOM     19  H   UNL     1      12.961  25.730  40.084  1.00  0.00     0.293 HD
ENDBRANCH  15  18
BRANCH  17  20
ATOM     20  O   UNL     1      13.906  23.810  41.976  1.00  0.00    -0.504 OA
ATOM     21  H   UNL     1      13.910  23.090  42.688  1.00  0.00     0.293 HD
ENDBRANCH  17  20
ENDBRANCH   1  12
BRANCH   2  22
ATOM     22  O   UNL     1      16.855  20.490  41.476  1.00  0.00    -0.502 OA
ATOM     23  H   UNL     1      15.972  20.180  41.087  1.00  0.00     0.293 HD
ENDBRANCH   2  22
BRANCH   9  24
ATOM     24  O   UNL     1      23.247  21.178  37.115  1.00  0.00    -0.508 OA
ATOM     25  H   UNL     1      24.213  20.971  37.338  1.00  0.00     0.293 HD
ENDBRANCH   9  24
TORSDOF 5
ENDMDL
MODEL 4
REMARK VINA RESULT:    -7.427      2.115      2.872
REMARK INTER + INTRA:          -8.801
REMARK INTER:                  -9.275
REMARK INTRA:                   0.474
REMARK UNBOUND:                -0.072
REMARK SMILES O=c1c(O)c(-c2ccc(O)c(O)c2)oc2cc(O)ccc12
REMARK SMILES IDX 5 1 3 2 2 3 1 4 21 5 15 6 14 7 16 8 17 9 19 10 20 11 6 12
REMARK SMILES IDX 7 13 8 14 9 15 13 16 11 17 10 18 12 20 4 22 18 24
REMARK H PARENT 10 19 12 21 4 23 18 25
REMARK Flexibility Score: inf
ROOT
ATOM      1  C   UNL     1      18.504  22.827  39.277  1.00  0.00     0.180 A 
ATOM      2  C   UNL     1      18.519  23.993  38.484  1.00  0.00     0.208 A 
ATOM      3  C   UNL     1      17.456  24.903  38.599  1.00  0.00     0.235 A 
ATOM      4  O   UNL     1      17.450  25.958  37.908  1.00  0.00    -0.285 OA
ATOM      5  C   UNL     1      16.400  24.622  39.480  1.00  0.00     0.069 A 
ATOM      6  C   UNL     1      16.448  23.422  40.222  1.00  0.00     0.142 A 
ATOM      7  O   UNL     1      17.477  22.591  40.090  1.00  0.00    -0.452 OA
ATOM      8  C   UNL     1      15.410  23.102  41.103  1.00  0.00     0.094 A 
ATOM      9  C   UNL     1      14.322  23.967  41.257  1.00  0.00     0.119 A 
ATOM     10  C   UNL     1      14.272  25.161  40.524  1.00  0.00     0.047 A 
ATOM     11  C   UNL     1      15.303  25.490  39.639  1.00  0.00     0.020 A 
ENDROOT
BRANCH   1  12
ATOM     12  C   UNL     1      19.597  21.829  39.227  1.00  0.00     0.025 A 
ATOM     13  C   UNL     1      19.570  20.733  40.104  1.00  0.00     0.016 A 
ATOM     14  C   UNL     1      20.601  19.790  40.089  1.00  0.00     0.051 A 
ATOM     15  C   UNL     1      21.679  19.934  39.210  1.00  0.00     0.157 A 
ATOM     16  C   UNL     1      20.692  21.984  38.359  1.00  0.00     0.062 A 
ATOM     17  C   UNL     1      21.729  21.039  38.343  1.00  0.00     0.158 A 
BRANCH  15  18
ATOM     18  O   UNL     1      22.691  18.975  39.216  1.00  0.00    -0.504 OA
ATOM     19  H   UNL     1      22.536  18.027  38.898  1.00  0.00     0.293 HD
ENDBRANCH  15  18
BRANCH  17  20
ATOM     20  O   UNL     1      22.807  21.196  37.475  1.00  0.00    -0.504 OA
ATOM     21  H   UNL     1      23.765  21.153  37.805  1.00  0.00     0.293 HD
ENDBRANCH  17  20
ENDBRANCH   1  12
BRANCH   2  22
ATOM     22  O   UNL     1      19.559  24.221  37.579  1.00  0.00    -0.502 OA
ATOM     23  H   UNL     1      20.517  24.355  37.878  1.00  0.00     0.293 HD
ENDBRANCH   2  22
BRANCH   9  24
ATOM     24  O   UNL     1      13.298  23.633  42.140  1.00  0.00    -0.508 OA
ATOM     25  H   UNL     1      13.126  22.672  42.411  1.00  0.00     0.293 HD
ENDBRANCH   9  24
TORSDOF 5
ENDMDL
MODEL 5
REMARK VINA RESULT:    -7.333      1.323      6.708
REMARK INTER + INTRA:          -8.691
REMARK INTER:                  -9.240
REMARK INTRA:                   0.549
REMARK UNBOUND:                -0.072
REMARK SMILES O=c1c(O)c(-c2ccc(O)c(O)c2)oc2cc(O)ccc12
REMARK SMILES IDX 5 1 3 2 2 3 1 4 21 5 15 6 14 7 16 8 17 9 19 10 20 11 6 12
REMARK SMILES IDX 7 13 8 14 9 15 13 16 11 17 10 18 12 20 4 22 18 24
REMARK H PARENT 10 19 12 21 4 23 18 25
REMARK Flexibility Score: inf
ROOT
ATOM      1  C   UNL     1      14.631  23.752  41.758  1.00  0.00     0.180 A 
ATOM      2  C   UNL     1      14.733  24.688  40.710  1.00  0.00     0.208 A 
ATOM      3  C   UNL     1      15.674  24.465  39.692  1.00  0.00     0.235 A 
ATOM      4  O   UNL     1      15.779  25.283  38.737  1.00  0.00    -0.285 OA
ATOM      5  C   UNL     1      16.501  23.332  39.754  1.00  0.00     0.069 A 
ATOM      6  C   UNL     1      16.352  22.453  40.849  1.00  0.00     0.142 A 
ATOM      7  O   UNL     1      15.443  22.697  41.787  1.00  0.00    -0.452 OA
ATOM      8  C   UNL     1      17.164  21.319  40.951  1.00  0.00     0.094 A 
ATOM      9  C   UNL     1      18.123  21.046  39.970  1.00  0.00     0.119 A 
ATOM     10  C   UNL     1      18.271  21.914  38.880  1.00  0.00     0.047 A 
ATOM     11  C   UNL     1      17.467  23.052  38.769  1.00  0.00     0.020 A 
ENDROOT
BRANCH   1  12
ATOM     12  C   UNL     1      13.651  23.906  42.857  1.00  0.00     0.025 A 
ATOM     13  C   UNL     1      12.784  25.010  42.858  1.00  0.00     0.016 A 
ATOM     14  C   UNL     1      11.864  25.187  43.896  1.00  0.00     0.051 A 
ATOM     15  C   UNL     1      11.806  24.274  44.953  1.00  0.00     0.157 A 
ATOM     16  C   UNL     1      13.606  23.000  43.932  1.00  0.00     0.062 A 
ATOM     17  C   UNL     1      12.684  23.177  44.975  1.00  0.00     0.158 A 
BRANCH  15  18
ATOM     18  O   UNL     1      10.877  24.474  45.972  1.00  0.00    -0.504 OA
ATOM     19  H   UNL     1      11.082  24.254  46.939  1.00  0.00     0.293 HD
ENDBRANCH  15  18
BRANCH  17  20
ATOM     20  O   UNL     1      12.642  22.271  46.033  1.00  0.00    -0.504 OA
ATOM     21  H   UNL     1      12.022  22.406  46.824  1.00  0.00     0.293 HD
ENDBRANCH  17  20
ENDBRANCH   1  12
BRANCH   2  22
ATOM     22  O   UNL     1      13.932  25.833  40.701  1.00  0.00    -0.502 OA
ATOM     23  H   UNL     1      13.673  26.319  41.552  1.00  0.00     0.293 HD
ENDBRANCH   2  22
BRANCH   9  24
ATOM     24  O   UNL     1      18.922  19.911  40.088  1.00  0.00    -0.508 OA
ATOM     25  H   UNL     1      19.331  19.642  40.975  1.00  0.00     0.293 HD
ENDBRANCH   9  24
TORSDOF 5
ENDMDL
MODEL 6
REMARK VINA RESULT:    -6.756      1.560      6.684
REMARK INTER + INTRA:          -8.012
REMARK INTER:                  -8.458
REMARK INTRA:                   0.445
REMARK UNBOUND:                -0.072
REMARK SMILES O=c1c(O)c(-c2ccc(O)c(O)c2)oc2cc(O)ccc12
REMARK SMILES IDX 5 1 3 2 2 3 1 4 21 5 15 6 14 7 16 8 17 9 19 10 20 11 6 12
REMARK SMILES IDX 7 13 8 14 9 15 13 16 11 17 10 18 12 20 4 22 18 24
REMARK H PARENT 10 19 12 21 4 23 18 25
REMARK Flexibility Score: inf
ROOT
ATOM      1  C   UNL     1      16.887  23.109  40.339  1.00  0.00     0.180 A 
ATOM      2  C   UNL     1      17.332  24.026  39.365  1.00  0.00     0.208 A 
ATOM      3  C   UNL     1      18.507  23.740  38.652  1.00  0.00     0.235 A 
ATOM      4  O   UNL     1      18.921  24.539  37.769  1.00  0.00    -0.285 OA
ATOM      5  C   UNL     1      19.218  22.563  38.938  1.00  0.00     0.069 A 
ATOM      6  C   UNL     1      18.719  21.707  39.944  1.00  0.00     0.142 A 
ATOM      7  O   UNL     1      17.598  22.011  40.590  1.00  0.00    -0.452 OA
ATOM      8  C   UNL     1      19.404  20.531  40.265  1.00  0.00     0.094 A 
ATOM      9  C   UNL     1      20.582  20.194  39.592  1.00  0.00     0.119 A 
ATOM     10  C   UNL     1      21.080  21.040  38.591  1.00  0.00     0.047 A 
ATOM     11  C   UNL     1      20.404  22.219  38.264  1.00  0.00     0.020 A 
ENDROOT
BRANCH   1  12
ATOM     12  C   UNL     1      15.648  23.330  41.118  1.00  0.00     0.025 A 
ATOM     13  C   UNL     1      14.693  24.247  40.651  1.00  0.00     0.016 A 
ATOM     14  C   UNL     1      13.526  24.486  41.381  1.00  0.00     0.051 A 
ATOM     15  C   UNL     1      13.301  23.826  42.592  1.00  0.00     0.157 A 
ATOM     16  C   UNL     1      15.430  22.682  42.347  1.00  0.00     0.062 A 
ATOM     17  C   UNL     1      14.259  22.922  43.082  1.00  0.00     0.158 A 
BRANCH  15  18
ATOM     18  O   UNL     1      12.125  24.083  43.297  1.00  0.00    -0.504 OA
ATOM     19  H   UNL     1      12.119  24.621  44.154  1.00  0.00     0.293 HD
ENDBRANCH  15  18
BRANCH  17  20
ATOM     20  O   UNL     1      14.048  22.271  44.296  1.00  0.00    -0.504 OA
ATOM     21  H   UNL     1      14.734  21.635  44.684  1.00  0.00     0.293 HD
ENDBRANCH  17  20
ENDBRANCH   1  12
BRANCH   2  22
ATOM     22  O   UNL     1      16.631  25.213  39.137  1.00  0.00    -0.502 OA
ATOM     23  H   UNL     1      15.893  25.532  39.753  1.00  0.00     0.293 HD
ENDBRANCH   2  22
BRANCH   9  24
ATOM     24  O   UNL     1      21.251  19.018  39.924  1.00  0.00    -0.508 OA
ATOM     25  H   UNL     1      22.074  18.716  39.416  1.00  0.00     0.293 HD
ENDBRANCH   9  24
TORSDOF 5
ENDMDL
MODEL 7
REMARK VINA RESULT:    -6.179      1.769      7.007
REMARK INTER + INTRA:          -7.334
REMARK INTER:                  -7.068
REMARK INTRA:                  -0.267
REMARK UNBOUND:                -0.072
REMARK SMILES O=c1c(O)c(-c2ccc(O)c(O)c2)oc2cc(O)ccc12
REMARK SMILES IDX 5 1 3 2 2 3 1 4 21 5 15 6 14 7 16 8 17 9 19 10 20 11 6 12
REMARK SMILES IDX 7 13 8 14 9 15 13 16 11 17 10 18 12 20 4 22 18 24
REMARK H PARENT 10 19 12 21 4 23 18 25
REMARK Flexibility Score: inf
ROOT
ATOM      1  C   UNL     1      16.915  22.202  40.665  1.00  0.00     0.180 A 
ATOM      2  C   UNL     1      16.947  20.880  40.178  1.00  0.00     0.208 A 
ATOM      3  C   UNL     1      18.123  20.411  39.569  1.00  0.00     0.235 A 
ATOM      4  O   UNL     1      18.180  19.229  39.134  1.00  0.00    -0.285 OA
ATOM      5  C   UNL     1      19.224  21.273  39.442  1.00  0.00     0.069 A 
ATOM      6  C   UNL     1      19.104  22.590  39.935  1.00  0.00     0.142 A 
ATOM      7  O   UNL     1      17.976  22.991  40.512  1.00  0.00    -0.452 OA
ATOM      8  C   UNL     1      20.176  23.481  39.818  1.00  0.00     0.094 A 
ATOM      9  C   UNL     1      21.371  23.073  39.217  1.00  0.00     0.119 A 
ATOM     10  C   UNL     1      21.495  21.765  38.729  1.00  0.00     0.047 A 
ATOM     11  C   UNL     1      20.429  20.867  38.839  1.00  0.00     0.020 A 
ENDROOT
BRANCH   1  12
ATOM     12  C   UNL     1      15.720  22.764  41.336  1.00  0.00     0.025 A 
ATOM     13  C   UNL     1      14.945  23.727  40.672  1.00  0.00     0.016 A 
ATOM     14  C   UNL     1      13.825  24.285  41.295  1.00  0.00     0.051 A 
ATOM     15  C   UNL     1      13.472  23.901  42.592  1.00  0.00     0.157 A 
ATOM     16  C   UNL     1      15.376  22.394  42.649  1.00  0.00     0.062 A 
ATOM     17  C   UNL     1      14.253  22.954  43.276  1.00  0.00     0.158 A 
BRANCH  15  18
ATOM     18  O   UNL     1      12.348  24.473  43.186  1.00  0.00    -0.504 OA
ATOM     19  H   UNL     1      11.586  23.912  43.547  1.00  0.00     0.293 HD
ENDBRANCH  15  18
BRANCH  17  20
ATOM     20  O   UNL     1      13.915  22.578  44.574  1.00  0.00    -0.504 OA
ATOM     21  H   UNL     1      13.964  23.233  45.347  1.00  0.00     0.293 HD
ENDBRANCH  17  20
ENDBRANCH   1  12
BRANCH   2  22
ATOM     22  O   UNL     1      15.818  20.062  40.274  1.00  0.00    -0.502 OA
ATOM     23  H   UNL     1      15.680  19.418  41.043  1.00  0.00     0.293 HD
ENDBRANCH   2  22
BRANCH   9  24
ATOM     24  O   UNL     1      22.428  23.974  39.110  1.00  0.00    -0.508 OA
ATOM     25  H   UNL     1      22.309  24.879  38.671  1.00  0.00     0.293 HD
ENDBRANCH   9  24
TORSDOF 5
ENDMDL
MODEL 8
REMARK VINA RESULT:    -6.022     15.982     18.410
REMARK INTER + INTRA:          -7.150
REMARK INTER:                  -6.827
REMARK INTRA:                  -0.323
REMARK UNBOUND:                -0.072
REMARK SMILES O=c1c(O)c(-c2ccc(O)c(O)c2)oc2cc(O)ccc12
REMARK SMILES IDX 5 1 3 2 2 3 1 4 21 5 15 6 14 7 16 8 17 9 19 10 20 11 6 12
REMARK SMILES IDX 7 13 8 14 9 15 13 16 11 17 10 18 12 20 4 22 18 24
REMARK H PARENT 10 19 12 21 4 23 18 25
REMARK Flexibility Score: inf
ROOT
ATOM      1  C   UNL     1      29.931  11.634  38.226  1.00  0.00     0.180 A 
ATOM      2  C   UNL     1      30.340  10.299  38.031  1.00  0.00     0.208 A 
ATOM      3  C   UNL     1      30.737   9.543  39.146  1.00  0.00     0.235 A 
ATOM      4  O   UNL     1      31.099   8.344  39.000  1.00  0.00    -0.285 OA
ATOM      5  C   UNL     1      30.735  10.138  40.418  1.00  0.00     0.069 A 
ATOM      6  C   UNL     1      30.332  11.486  40.526  1.00  0.00     0.142 A 
ATOM      7  O   UNL     1      29.956  12.164  39.447  1.00  0.00    -0.452 OA
ATOM      8  C   UNL     1      30.327  12.117  41.775  1.00  0.00     0.094 A 
ATOM      9  C   UNL     1      30.715  11.417  42.921  1.00  0.00     0.119 A 
ATOM     10  C   UNL     1      31.113  10.077  42.818  1.00  0.00     0.047 A 
ATOM     11  C   UNL     1      31.125   9.438  41.575  1.00  0.00     0.020 A 
ENDROOT
BRANCH   1  12
ATOM     12  C   UNL     1      29.480  12.489  37.104  1.00  0.00     0.025 A 
ATOM     13  C   UNL     1      30.399  13.344  36.476  1.00  0.00     0.016 A 
ATOM     14  C   UNL     1      29.991  14.175  35.429  1.00  0.00     0.051 A 
ATOM     15  C   UNL     1      28.659  14.175  35.004  1.00  0.00     0.157 A 
ATOM     16  C   UNL     1      28.136  12.506  36.690  1.00  0.00     0.062 A 
ATOM     17  C   UNL     1      27.724  13.340  35.639  1.00  0.00     0.158 A 
BRANCH  15  18
ATOM     18  O   UNL     1      28.283  15.013  33.955  1.00  0.00    -0.504 OA
ATOM     19  H   UNL     1      27.475  14.819  33.375  1.00  0.00     0.293 HD
ENDBRANCH  15  18
BRANCH  17  20
ATOM     20  O   UNL     1      26.393  13.346  35.230  1.00  0.00    -0.504 OA
ATOM     21  H   UNL     1      25.636  13.178  35.882  1.00  0.00     0.293 HD
ENDBRANCH  17  20
ENDBRANCH   1  12
BRANCH   2  22
ATOM     22  O   UNL     1      30.379   9.750  36.747  1.00  0.00    -0.502 OA
ATOM     23  H   UNL     1      29.690   9.977  36.040  1.00  0.00     0.293 HD
ENDBRANCH   2  22
BRANCH   9  24
ATOM     24  O   UNL     1      30.703  12.060  44.157  1.00  0.00    -0.508 OA
ATOM     25  H   UNL     1      30.141  12.889  44.316  1.00  0.00     0.293 HD
ENDBRANCH   9  24
TORSDOF 5
ENDMDL
MODEL 9
REMARK VINA RESULT:    -5.760     15.193     18.371
REMARK INTER + INTRA:          -6.842
REMARK INTER:                  -6.748
REMARK INTRA:                  -0.094
REMARK UNBOUND:                -0.072
REMARK SMILES O=c1c(O)c(-c2ccc(O)c(O)c2)oc2cc(O)ccc12
REMARK SMILES IDX 5 1 3 2 2 3 1 4 21 5 15 6 14 7 16 8 17 9 19 10 20 11 6 12
REMARK SMILES IDX 7 13 8 14 9 15 13 16 11 17 10 18 12 20 4 22 18 24
REMARK H PARENT 10 19 12 21 4 23 18 25
REMARK Flexibility Score: inf
ROOT
ATOM      1  C   UNL     1      28.804  11.553  37.649  1.00  0.00     0.180 A 
ATOM      2  C   UNL     1      29.587  12.226  38.609  1.00  0.00     0.208 A 
ATOM      3  C   UNL     1      30.380  11.470  39.487  1.00  0.00     0.235 A 
ATOM      4  O   UNL     1      31.097  12.048  40.347  1.00  0.00    -0.285 OA
ATOM      5  C   UNL     1      30.358  10.069  39.402  1.00  0.00     0.069 A 
ATOM      6  C   UNL     1      29.529   9.469  38.428  1.00  0.00     0.142 A 
ATOM      7  O   UNL     1      28.800  10.222  37.611  1.00  0.00    -0.452 OA
ATOM      8  C   UNL     1      29.472   8.076  38.319  1.00  0.00     0.094 A 
ATOM      9  C   UNL     1      30.236   7.270  39.169  1.00  0.00     0.119 A 
ATOM     10  C   UNL     1      31.062   7.861  40.135  1.00  0.00     0.047 A 
ATOM     11  C   UNL     1      31.125   9.252  40.254  1.00  0.00     0.020 A 
ENDROOT
BRANCH   1  12
ATOM     12  C   UNL     1      27.957  12.280  36.676  1.00  0.00     0.025 A 
ATOM     13  C   UNL     1      26.593  11.961  36.574  1.00  0.00     0.016 A 
ATOM     14  C   UNL     1      25.780  12.620  35.649  1.00  0.00     0.051 A 
ATOM     15  C   UNL     1      26.316  13.595  34.803  1.00  0.00     0.157 A 
ATOM     16  C   UNL     1      28.500  13.246  35.810  1.00  0.00     0.062 A 
ATOM     17  C   UNL     1      27.684  13.908  34.879  1.00  0.00     0.158 A 
BRANCH  15  18
ATOM     18  O   UNL     1      25.479  14.237  33.892  1.00  0.00    -0.504 OA
ATOM     19  H   UNL     1      25.304  13.864  32.967  1.00  0.00     0.293 HD
ENDBRANCH  15  18
BRANCH  17  20
ATOM     20  O   UNL     1      28.228  14.868  34.029  1.00  0.00    -0.504 OA
ATOM     21  H   UNL     1      29.156  15.248  34.182  1.00  0.00     0.293 HD
ENDBRANCH  17  20
ENDBRANCH   1  12
BRANCH   2  22
ATOM     22  O   UNL     1      29.550  13.620  38.702  1.00  0.00    -0.502 OA
ATOM     23  H   UNL     1      30.022  14.220  38.036  1.00  0.00     0.293 HD
ENDBRANCH   2  22
BRANCH   9  24
ATOM     24  O   UNL     1      30.168   5.884  39.046  1.00  0.00    -0.508 OA
ATOM     25  H   UNL     1      30.074   5.285  39.858  1.00  0.00     0.293 HD
ENDBRANCH   9  24
TORSDOF 5
ENDMDL
