MODEL 1
REMARK VINA RESULT:    -3.870      0.000      0.000
REMARK INTER + INTRA:          -4.558
REMARK INTER:                  -4.549
REMARK INTRA:                  -0.008
REMARK UNBOUND:                -0.008
REMARK SMILES O=C([O-])CCC(=O)[O-]
REMARK SMILES IDX 4 1 2 2 1 3 3 4 5 5 6 6 7 7 8 8
REMARK H PARENT
REMARK Flexibility Score: inf
ROOT
ATOM      1  C   UNL     1     -34.125  49.250 -15.082  1.00  0.00     0.059 C 
ENDROOT
BRANCH   1   2
ATOM      2  C   UNL     1     -33.280  50.244 -14.347  1.00  0.00     0.042 C 
ATOM      3  O   UNL     1     -33.772  51.339 -13.969  1.00  0.00    -0.550 OA
ATOM      4  O   UNL     1     -31.936  49.978 -14.114  1.00  0.00    -0.550 OA
ENDBRANCH   1   2
BRANCH   1   5
ATOM      5  C   UNL     1     -33.595  48.996 -16.497  1.00  0.00     0.059 C 
BRANCH   5   6
ATOM      6  C   UNL     1     -32.551  47.922 -16.512  1.00  0.00     0.042 C 
ATOM      7  O   UNL     1     -31.610  47.966 -17.348  1.00  0.00    -0.550 OA
ATOM      8  O   UNL     1     -32.640  46.852 -15.631  1.00  0.00    -0.550 OA
ENDBRANCH   5   6
ENDBRANCH   1   5
TORSDOF 3
ENDMDL
MODEL 2
REMARK VINA RESULT:    -3.867      0.038      3.636
REMARK INTER + INTRA:          -4.553
REMARK INTER:                  -4.555
REMARK INTRA:                   0.001
REMARK UNBOUND:                -0.008
REMARK SMILES O=C([O-])CCC(=O)[O-]
REMARK SMILES IDX 4 1 2 2 1 3 3 4 5 5 6 6 7 7 8 8
REMARK H PARENT
REMARK Flexibility Score: inf
ROOT
ATOM      1  C   UNL     1     -33.571  48.985 -16.513  1.00  0.00     0.059 C 
ENDROOT
BRANCH   1   2
ATOM      2  C   UNL     1     -32.527  47.911 -16.520  1.00  0.00     0.042 C 
ATOM      3  O   UNL     1     -31.605  47.928 -17.378  1.00  0.00    -0.550 OA
ATOM      4  O   UNL     1     -32.595  46.868 -15.605  1.00  0.00    -0.550 OA
ENDBRANCH   1   2
BRANCH   1   5
ATOM      5  C   UNL     1     -34.108  49.241 -15.101  1.00  0.00     0.059 C 
BRANCH   5   6
ATOM      6  C   UNL     1     -33.257  50.224 -14.357  1.00  0.00     0.042 C 
ATOM      7  O   UNL     1     -33.746  51.317 -13.966  1.00  0.00    -0.550 OA
ATOM      8  O   UNL     1     -31.913  49.952 -14.131  1.00  0.00    -0.550 OA
ENDBRANCH   5   6
ENDBRANCH   1   5
TORSDOF 3
ENDMDL
MODEL 3
REMARK VINA RESULT:    -3.844      0.089      1.149
REMARK INTER + INTRA:          -4.527
REMARK INTER:                  -4.515
REMARK INTRA:                  -0.012
REMARK UNBOUND:                -0.008
REMARK SMILES O=C([O-])CCC(=O)[O-]
REMARK SMILES IDX 4 1 2 2 1 3 3 4 5 5 6 6 7 7 8 8
REMARK H PARENT
REMARK Flexibility Score: inf
ROOT
ATOM      1  C   UNL     1     -34.111  49.211 -14.979  1.00  0.00     0.059 C 
ENDROOT
BRANCH   1   2
ATOM      2  C   UNL     1     -33.245  50.247 -14.331  1.00  0.00     0.042 C 
ATOM      3  O   UNL     1     -33.724  51.369 -14.019  1.00  0.00    -0.550 OA
ATOM      4  O   UNL     1     -31.898  49.989 -14.110  1.00  0.00    -0.550 OA
ENDBRANCH   1   2
BRANCH   1   5
ATOM      5  C   UNL     1     -33.668  48.924 -16.417  1.00  0.00     0.059 C 
BRANCH   5   6
ATOM      6  C   UNL     1     -32.580  47.895 -16.465  1.00  0.00     0.042 C 
ATOM      7  O   UNL     1     -32.565  46.949 -15.633  1.00  0.00    -0.550 OA
ATOM      8  O   UNL     1     -31.559  48.004 -17.401  1.00  0.00    -0.550 OA
ENDBRANCH   5   6
ENDBRANCH   1   5
TORSDOF 3
ENDMDL
MODEL 4
REMARK VINA RESULT:    -3.080     15.934     16.592
REMARK INTER + INTRA:          -3.628
REMARK INTER:                  -3.466
REMARK INTRA:                  -0.162
REMARK UNBOUND:                -0.008
REMARK SMILES O=C([O-])CCC(=O)[O-]
REMARK SMILES IDX 4 1 2 2 1 3 3 4 5 5 6 6 7 7 8 8
REMARK H PARENT
REMARK Flexibility Score: inf
ROOT
ATOM      1  C   UNL     1     -33.817  37.710  -3.028  1.00  0.00     0.059 C 
ENDROOT
BRANCH   1   2
ATOM      2  C   UNL     1     -33.628  39.124  -3.481  1.00  0.00     0.042 C 
ATOM      3  O   UNL     1     -33.820  40.078  -2.681  1.00  0.00    -0.550 OA
ATOM      4  O   UNL     1     -33.280  39.393  -4.799  1.00  0.00    -0.550 OA
ENDBRANCH   1   2
BRANCH   1   5
ATOM      5  C   UNL     1     -32.705  36.795  -3.553  1.00  0.00     0.059 C 
BRANCH   5   6
ATOM      6  C   UNL     1     -31.395  37.076  -2.881  1.00  0.00     0.042 C 
ATOM      7  O   UNL     1     -31.213  36.737  -1.682  1.00  0.00    -0.550 OA
ATOM      8  O   UNL     1     -30.391  37.749  -3.566  1.00  0.00    -0.550 OA
ENDBRANCH   5   6
ENDBRANCH   1   5
TORSDOF 3
ENDMDL
MODEL 5
REMARK VINA RESULT:    -3.079     15.884     16.701
REMARK INTER + INTRA:          -3.628
REMARK INTER:                  -3.464
REMARK INTRA:                  -0.164
REMARK UNBOUND:                -0.008
REMARK SMILES O=C([O-])CCC(=O)[O-]
REMARK SMILES IDX 4 1 2 2 1 3 3 4 5 5 6 6 7 7 8 8
REMARK H PARENT
REMARK Flexibility Score: inf
ROOT
ATOM      1  C   UNL     1     -32.678  36.805  -3.619  1.00  0.00     0.059 C 
ENDROOT
BRANCH   1   2
ATOM      2  C   UNL     1     -31.381  37.116  -2.937  1.00  0.00     0.042 C 
ATOM      3  O   UNL     1     -31.203  36.790  -1.734  1.00  0.00    -0.550 OA
ATOM      4  O   UNL     1     -30.383  37.802  -3.618  1.00  0.00    -0.550 OA
ENDBRANCH   1   2
BRANCH   1   5
ATOM      5  C   UNL     1     -33.811  37.704  -3.114  1.00  0.00     0.059 C 
BRANCH   5   6
ATOM      6  C   UNL     1     -33.606  39.132  -3.518  1.00  0.00     0.042 C 
ATOM      7  O   UNL     1     -33.768  40.058  -2.678  1.00  0.00    -0.550 OA
ATOM      8  O   UNL     1     -33.277  39.444  -4.831  1.00  0.00    -0.550 OA
ENDBRANCH   5   6
ENDBRANCH   1   5
TORSDOF 3
ENDMDL
MODEL 6
REMARK VINA RESULT:    -2.836     16.307     17.006
REMARK INTER + INTRA:          -3.342
REMARK INTER:                  -3.233
REMARK INTRA:                  -0.108
REMARK UNBOUND:                -0.008
REMARK SMILES O=C([O-])CCC(=O)[O-]
REMARK SMILES IDX 4 1 2 2 1 3 3 4 5 5 6 6 7 7 8 8
REMARK H PARENT
REMARK Flexibility Score: inf
ROOT
ATOM      1  C   UNL     1     -20.839  55.124  -3.840  1.00  0.00     0.059 C 
ENDROOT
BRANCH   1   2
ATOM      2  C   UNL     1     -21.693  53.964  -3.430  1.00  0.00     0.042 C 
ATOM      3  O   UNL     1     -22.854  53.834  -3.900  1.00  0.00    -0.550 OA
ATOM      4  O   UNL     1     -21.223  53.048  -2.497  1.00  0.00    -0.550 OA
ENDBRANCH   1   2
BRANCH   1   5
ATOM      5  C   UNL     1     -19.697  54.686  -4.762  1.00  0.00     0.059 C 
BRANCH   5   6
ATOM      6  C   UNL     1     -20.204  54.256  -6.105  1.00  0.00     0.042 C 
ATOM      7  O   UNL     1     -19.626  53.330  -6.734  1.00  0.00    -0.550 OA
ATOM      8  O   UNL     1     -21.289  54.905  -6.680  1.00  0.00    -0.550 OA
ENDBRANCH   5   6
ENDBRANCH   1   5
TORSDOF 3
ENDMDL
MODEL 7
REMARK VINA RESULT:    -2.831     16.340     17.233
REMARK INTER + INTRA:          -3.336
REMARK INTER:                  -3.238
REMARK INTRA:                  -0.098
REMARK UNBOUND:                -0.008
REMARK SMILES O=C([O-])CCC(=O)[O-]
REMARK SMILES IDX 4 1 2 2 1 3 3 4 5 5 6 6 7 7 8 8
REMARK H PARENT
REMARK Flexibility Score: inf
ROOT
ATOM      1  C   UNL     1     -19.653  54.643  -4.750  1.00  0.00     0.059 C 
ENDROOT
BRANCH   1   2
ATOM      2  C   UNL     1     -20.173  54.248  -6.097  1.00  0.00     0.042 C 
ATOM      3  O   UNL     1     -19.606  53.336  -6.754  1.00  0.00    -0.550 OA
ATOM      4  O   UNL     1     -21.261  54.916  -6.646  1.00  0.00    -0.550 OA
ENDBRANCH   1   2
BRANCH   1   5
ATOM      5  C   UNL     1     -20.779  55.121  -3.827  1.00  0.00     0.059 C 
BRANCH   5   6
ATOM      6  C   UNL     1     -21.673  53.992  -3.415  1.00  0.00     0.042 C 
ATOM      7  O   UNL     1     -22.841  53.906  -3.881  1.00  0.00    -0.550 OA
ATOM      8  O   UNL     1     -21.233  53.058  -2.486  1.00  0.00    -0.550 OA
ENDBRANCH   5   6
ENDBRANCH   1   5
TORSDOF 3
ENDMDL
