MODEL 1
REMARK VINA RESULT:     7.576      0.000      0.000
REMARK INTER + INTRA:          11.947
REMARK INTER:                  12.448
REMARK INTRA:                  -0.501
REMARK UNBOUND:                -0.501
REMARK SMILES CCCCCCCCCCCCCC
REMARK SMILES IDX 7 1 6 2 5 3 4 4 3 5 2 6 1 7 8 8 9 9 10 10 11 11 12 12 13 13
REMARK SMILES IDX 14 14
REMARK H PARENT
REMARK Flexibility Score: inf
ROOT
ATOM      1  C   UNL     1      12.482  11.587  29.848  1.00  0.00    -0.000 C 
ENDROOT
BRANCH   1   2
ATOM      2  C   UNL     1      11.008  11.309  29.527  1.00  0.00    -0.000 C 
BRANCH   2   3
ATOM      3  C   UNL     1      10.121  11.557  30.757  1.00  0.00    -0.000 C 
BRANCH   3   4
ATOM      4  C   UNL     1       9.913  10.292  31.605  1.00  0.00    -0.000 C 
BRANCH   4   5
ATOM      5  C   UNL     1       8.457   9.796  31.578  1.00  0.00    -0.000 C 
BRANCH   5   6
ATOM      6  C   UNL     1       8.214   8.633  32.554  1.00  0.00    -0.003 C 
ATOM      7  C   UNL     1       6.823   8.017  32.407  1.00  0.00     0.004 C 
ENDBRANCH   5   6
ENDBRANCH   4   5
ENDBRANCH   3   4
ENDBRANCH   2   3
ENDBRANCH   1   2
BRANCH   1   8
ATOM      8  C   UNL     1      12.770  13.095  29.846  1.00  0.00    -0.000 C 
BRANCH   8   9
ATOM      9  C   UNL     1      13.866  13.489  28.842  1.00  0.00    -0.000 C 
BRANCH   9  10
ATOM     10  C   UNL     1      13.385  14.536  27.823  1.00  0.00    -0.000 C 
BRANCH  10  11
ATOM     11  C   UNL     1      12.075  14.132  27.121  1.00  0.00    -0.000 C 
BRANCH  11  12
ATOM     12  C   UNL     1      11.977  14.537  25.638  1.00  0.00    -0.000 C 
BRANCH  12  13
ATOM     13  C   UNL     1      10.532  14.565  25.119  1.00  0.00    -0.003 C 
ATOM     14  C   UNL     1      10.307  15.750  24.185  1.00  0.00     0.004 C 
ENDBRANCH  12  13
ENDBRANCH  11  12
ENDBRANCH  10  11
ENDBRANCH   9  10
ENDBRANCH   8   9
ENDBRANCH   1   8
TORSDOF 11
ENDMDL
MODEL 2
REMARK VINA RESULT:     7.678      0.268      7.544
REMARK INTER + INTRA:          12.115
REMARK INTER:                  12.568
REMARK INTRA:                  -0.453
REMARK UNBOUND:                -0.501
REMARK SMILES CCCCCCCCCCCCCC
REMARK SMILES IDX 7 1 6 2 5 3 4 4 3 5 2 6 1 7 8 8 9 9 10 10 11 11 12 12 13 13
REMARK SMILES IDX 14 14
REMARK H PARENT
REMARK Flexibility Score: inf
ROOT
ATOM      1  C   UNL     1      12.444  13.325  29.762  1.00  0.00    -0.000 C 
ENDROOT
BRANCH   1   2
ATOM      2  C   UNL     1      13.784  13.707  29.122  1.00  0.00    -0.000 C 
BRANCH   2   3
ATOM      3  C   UNL     1      13.569  14.432  27.784  1.00  0.00    -0.000 C 
BRANCH   3   4
ATOM      4  C   UNL     1      12.197  14.133  27.160  1.00  0.00    -0.000 C 
BRANCH   4   5
ATOM      5  C   UNL     1      12.092  14.618  25.703  1.00  0.00    -0.000 C 
BRANCH   5   6
ATOM      6  C   UNL     1      10.651  14.580  25.173  1.00  0.00    -0.003 C 
ATOM      7  C   UNL     1      10.325  15.759  24.257  1.00  0.00     0.004 C 
ENDBRANCH   5   6
ENDBRANCH   4   5
ENDBRANCH   3   4
ENDBRANCH   2   3
ENDBRANCH   1   2
BRANCH   1   8
ATOM      8  C   UNL     1      12.404  11.828  30.102  1.00  0.00    -0.000 C 
BRANCH   8   9
ATOM      9  C   UNL     1      11.072  11.166  29.713  1.00  0.00    -0.000 C 
BRANCH   9  10
ATOM     10  C   UNL     1       9.976  11.378  30.772  1.00  0.00    -0.000 C 
BRANCH  10  11
ATOM     11  C   UNL     1       9.723  10.125  31.632  1.00  0.00    -0.000 C 
BRANCH  11  12
ATOM     12  C   UNL     1       8.290   9.565  31.564  1.00  0.00    -0.000 C 
BRANCH  12  13
ATOM     13  C   UNL     1       7.937   8.676  32.766  1.00  0.00    -0.003 C 
ATOM     14  C   UNL     1       6.793   7.724  32.427  1.00  0.00     0.004 C 
ENDBRANCH  12  13
ENDBRANCH  11  12
ENDBRANCH  10  11
ENDBRANCH   9  10
ENDBRANCH   8   9
ENDBRANCH   1   8
TORSDOF 11
ENDMDL
MODEL 3
REMARK VINA RESULT:     7.755      0.437      1.434
REMARK INTER + INTRA:          12.241
REMARK INTER:                  12.696
REMARK INTRA:                  -0.455
REMARK UNBOUND:                -0.501
REMARK SMILES CCCCCCCCCCCCCC
REMARK SMILES IDX 7 1 6 2 5 3 4 4 3 5 2 6 1 7 8 8 9 9 10 10 11 11 12 12 13 13
REMARK SMILES IDX 14 14
REMARK H PARENT
REMARK Flexibility Score: inf
ROOT
ATOM      1  C   UNL     1      11.207  11.128  29.661  1.00  0.00    -0.000 C 
ENDROOT
BRANCH   1   2
ATOM      2  C   UNL     1      10.159  11.506  30.715  1.00  0.00    -0.000 C 
BRANCH   2   3
ATOM      3  C   UNL     1       9.902  10.338  31.680  1.00  0.00    -0.000 C 
BRANCH   3   4
ATOM      4  C   UNL     1       8.493   9.742  31.529  1.00  0.00    -0.000 C 
BRANCH   4   5
ATOM      5  C   UNL     1       8.233   8.585  32.509  1.00  0.00    -0.000 C 
BRANCH   5   6
ATOM      6  C   UNL     1       6.744   8.217  32.602  1.00  0.00    -0.003 C 
ATOM      7  C   UNL     1       6.263   7.389  31.411  1.00  0.00     0.004 C 
ENDBRANCH   5   6
ENDBRANCH   4   5
ENDBRANCH   3   4
ENDBRANCH   2   3
ENDBRANCH   1   2
BRANCH   1   8
ATOM      8  C   UNL     1      12.556  11.798  29.962  1.00  0.00    -0.000 C 
BRANCH   8   9
ATOM      9  C   UNL     1      12.551  13.305  29.658  1.00  0.00    -0.000 C 
BRANCH   9  10
ATOM     10  C   UNL     1      13.756  13.740  28.806  1.00  0.00    -0.000 C 
BRANCH  10  11
ATOM     11  C   UNL     1      13.350  14.576  27.578  1.00  0.00    -0.000 C 
BRANCH  11  12
ATOM     12  C   UNL     1      12.027  14.157  26.910  1.00  0.00    -0.000 C 
BRANCH  12  13
ATOM     13  C   UNL     1      11.856  14.743  25.500  1.00  0.00    -0.003 C 
ATOM     14  C   UNL     1      10.410  14.623  25.027  1.00  0.00     0.004 C 
ENDBRANCH  12  13
ENDBRANCH  11  12
ENDBRANCH  10  11
ENDBRANCH   9  10
ENDBRANCH   8   9
ENDBRANCH   1   8
TORSDOF 11
ENDMDL
MODEL 4
REMARK VINA RESULT:     7.905      0.522      7.567
REMARK INTER + INTRA:          12.488
REMARK INTER:                  12.937
REMARK INTRA:                  -0.450
REMARK UNBOUND:                -0.501
REMARK SMILES CCCCCCCCCCCCCC
REMARK SMILES IDX 7 1 6 2 5 3 4 4 3 5 2 6 1 7 8 8 9 9 10 10 11 11 12 12 13 13
REMARK SMILES IDX 14 14
REMARK H PARENT
REMARK Flexibility Score: inf
ROOT
ATOM      1  C   UNL     1      12.530  11.828  29.859  1.00  0.00    -0.000 C 
ENDROOT
BRANCH   1   2
ATOM      2  C   UNL     1      12.349  13.350  29.822  1.00  0.00    -0.000 C 
BRANCH   2   3
ATOM      3  C   UNL     1      13.620  14.043  29.308  1.00  0.00    -0.000 C 
BRANCH   3   4
ATOM      4  C   UNL     1      13.519  14.449  27.829  1.00  0.00    -0.000 C 
BRANCH   4   5
ATOM      5  C   UNL     1      12.143  14.126  27.220  1.00  0.00    -0.000 C 
BRANCH   5   6
ATOM      6  C   UNL     1      12.046  14.529  25.741  1.00  0.00    -0.003 C 
ATOM      7  C   UNL     1      10.606  14.557  25.228  1.00  0.00     0.004 C 
ENDBRANCH   5   6
ENDBRANCH   4   5
ENDBRANCH   3   4
ENDBRANCH   2   3
ENDBRANCH   1   2
BRANCH   1   8
ATOM      8  C   UNL     1      11.202  11.109  29.579  1.00  0.00    -0.000 C 
BRANCH   8   9
ATOM      9  C   UNL     1      10.128  11.412  30.637  1.00  0.00    -0.000 C 
BRANCH   9  10
ATOM     10  C   UNL     1       9.916  10.243  31.614  1.00  0.00    -0.000 C 
BRANCH  10  11
ATOM     11  C   UNL     1       8.442   9.810  31.719  1.00  0.00    -0.000 C 
BRANCH  11  12
ATOM     12  C   UNL     1       8.191   8.546  32.564  1.00  0.00    -0.000 C 
BRANCH  12  13
ATOM     13  C   UNL     1       6.703   8.178  32.663  1.00  0.00    -0.003 C 
ATOM     14  C   UNL     1       6.240   7.427  31.418  1.00  0.00     0.004 C 
ENDBRANCH  12  13
ENDBRANCH  11  12
ENDBRANCH  10  11
ENDBRANCH   9  10
ENDBRANCH   8   9
ENDBRANCH   1   8
TORSDOF 11
ENDMDL
MODEL 5
REMARK VINA RESULT:     8.248      2.574      7.692
REMARK INTER + INTRA:          13.052
REMARK INTER:                  13.453
REMARK INTRA:                  -0.401
REMARK UNBOUND:                -0.501
REMARK SMILES CCCCCCCCCCCCCC
REMARK SMILES IDX 7 1 6 2 5 3 4 4 3 5 2 6 1 7 8 8 9 9 10 10 11 11 12 12 13 13
REMARK SMILES IDX 14 14
REMARK H PARENT
REMARK Flexibility Score: inf
ROOT
ATOM      1  C   UNL     1      12.518  11.810  29.977  1.00  0.00    -0.000 C 
ENDROOT
BRANCH   1   2
ATOM      2  C   UNL     1      12.358  13.333  29.885  1.00  0.00    -0.000 C 
BRANCH   2   3
ATOM      3  C   UNL     1      13.597  13.980  29.246  1.00  0.00    -0.000 C 
BRANCH   3   4
ATOM      4  C   UNL     1      13.889  15.382  29.802  1.00  0.00    -0.000 C 
BRANCH   4   5
ATOM      5  C   UNL     1      13.344  15.578  31.227  1.00  0.00    -0.000 C 
BRANCH   5   6
ATOM      6  C   UNL     1      13.719  16.946  31.818  1.00  0.00    -0.003 C 
ATOM      7  C   UNL     1      13.436  17.042  33.317  1.00  0.00     0.004 C 
ENDBRANCH   5   6
ENDBRANCH   4   5
ENDBRANCH   3   4
ENDBRANCH   2   3
ENDBRANCH   1   2
BRANCH   1   8
ATOM      8  C   UNL     1      11.218  11.096  29.580  1.00  0.00    -0.000 C 
BRANCH   8   9
ATOM      9  C   UNL     1      10.057  11.399  30.542  1.00  0.00    -0.000 C 
BRANCH   9  10
ATOM     10  C   UNL     1       9.923  10.348  31.657  1.00  0.00    -0.000 C 
BRANCH  10  11
ATOM     11  C   UNL     1       8.462   9.941  31.926  1.00  0.00    -0.000 C 
BRANCH  11  12
ATOM     12  C   UNL     1       8.264   8.485  32.387  1.00  0.00    -0.000 C 
BRANCH  12  13
ATOM     13  C   UNL     1       6.790   8.132  32.635  1.00  0.00    -0.003 C 
ATOM     14  C   UNL     1       6.198   7.379  31.446  1.00  0.00     0.004 C 
ENDBRANCH  12  13
ENDBRANCH  11  12
ENDBRANCH  10  11
ENDBRANCH   9  10
ENDBRANCH   8   9
ENDBRANCH   1   8
TORSDOF 11
ENDMDL
MODEL 6
REMARK VINA RESULT:     8.260      2.531      4.012
REMARK INTER + INTRA:          13.072
REMARK INTER:                  13.487
REMARK INTRA:                  -0.415
REMARK UNBOUND:                -0.501
REMARK SMILES CCCCCCCCCCCCCC
REMARK SMILES IDX 7 1 6 2 5 3 4 4 3 5 2 6 1 7 8 8 9 9 10 10 11 11 12 12 13 13
REMARK SMILES IDX 14 14
REMARK H PARENT
REMARK Flexibility Score: inf
ROOT
ATOM      1  C   UNL     1      10.875  11.092  29.686  1.00  0.00    -0.000 C 
ENDROOT
BRANCH   1   2
ATOM      2  C   UNL     1      10.067  11.504  30.922  1.00  0.00    -0.000 C 
BRANCH   2   3
ATOM      3  C   UNL     1       9.845  10.308  31.860  1.00  0.00    -0.000 C 
BRANCH   3   4
ATOM      4  C   UNL     1       8.362   9.925  31.993  1.00  0.00    -0.000 C 
BRANCH   4   5
ATOM      5  C   UNL     1       8.166   8.455  32.405  1.00  0.00    -0.000 C 
BRANCH   5   6
ATOM      6  C   UNL     1       6.687   8.096  32.618  1.00  0.00    -0.003 C 
ATOM      7  C   UNL     1       6.093   7.314  31.447  1.00  0.00     0.004 C 
ENDBRANCH   5   6
ENDBRANCH   4   5
ENDBRANCH   3   4
ENDBRANCH   2   3
ENDBRANCH   1   2
BRANCH   1   8
ATOM      8  C   UNL     1      12.322  11.597  29.781  1.00  0.00    -0.000 C 
BRANCH   8   9
ATOM      9  C   UNL     1      12.407  13.094  30.124  1.00  0.00    -0.000 C 
BRANCH   9  10
ATOM     10  C   UNL     1      13.402  13.850  29.229  1.00  0.00    -0.000 C 
BRANCH  10  11
ATOM     11  C   UNL     1      13.819  15.213  29.813  1.00  0.00    -0.000 C 
BRANCH  11  12
ATOM     12  C   UNL     1      13.365  15.469  31.262  1.00  0.00    -0.000 C 
BRANCH  12  13
ATOM     13  C   UNL     1      13.629  16.909  31.726  1.00  0.00    -0.003 C 
ATOM     14  C   UNL     1      13.455  17.040  33.236  1.00  0.00     0.004 C 
ENDBRANCH  12  13
ENDBRANCH  11  12
ENDBRANCH  10  11
ENDBRANCH   9  10
ENDBRANCH   8   9
ENDBRANCH   1   8
TORSDOF 11
ENDMDL
