MODEL 1
REMARK VINA RESULT:    -2.430      0.000      0.000
REMARK INTER + INTRA:          -3.279
REMARK INTER:                  -2.999
REMARK INTRA:                  -0.281
REMARK UNBOUND:                -0.281
REMARK SMILES CCCCCC(C)=O
REMARK SMILES IDX 4 1 3 2 2 3 1 4 5 5 6 6 8 7 7 8
REMARK H PARENT
REMARK Flexibility Score: inf
ROOT
ATOM      1  C   UNL     1     144.254 140.329 143.981  1.00  0.00     0.008 C 
ENDROOT
BRANCH   1   2
ATOM      2  C   UNL     1     145.544 141.146 143.785  1.00  0.00     0.000 C 
BRANCH   2   3
ATOM      3  C   UNL     1     145.413 142.210 142.687  1.00  0.00    -0.003 C 
ATOM      4  C   UNL     1     146.157 141.790 141.423  1.00  0.00     0.004 C 
ENDBRANCH   2   3
ENDBRANCH   1   2
BRANCH   1   5
ATOM      5  C   UNL     1     144.450 138.807 143.895  1.00  0.00     0.075 C 
BRANCH   5   6
ATOM      6  C   UNL     1     143.653 138.190 142.777  1.00  0.00     0.129 C 
ATOM      7  O   UNL     1     142.949 137.217 143.001  1.00  0.00    -0.300 OA
ATOM      8  C   UNL     1     143.735 138.730 141.381  1.00  0.00     0.087 C 
ENDBRANCH   5   6
ENDBRANCH   1   5
TORSDOF 4
ENDMDL
MODEL 2
REMARK VINA RESULT:    -2.419      5.528      6.370
REMARK INTER + INTRA:          -3.265
REMARK INTER:                  -3.012
REMARK INTRA:                  -0.253
REMARK UNBOUND:                -0.281
REMARK SMILES CCCCCC(C)=O
REMARK SMILES IDX 4 1 3 2 2 3 1 4 5 5 6 6 8 7 7 8
REMARK H PARENT
REMARK Flexibility Score: inf
ROOT
ATOM      1  C   UNL     1     141.494 144.112 144.003  1.00  0.00     0.008 C 
ENDROOT
BRANCH   1   2
ATOM      2  C   UNL     1     143.012 144.320 143.851  1.00  0.00     0.000 C 
BRANCH   2   3
ATOM      3  C   UNL     1     143.624 143.448 142.746  1.00  0.00    -0.003 C 
ATOM      4  C   UNL     1     142.882 143.633 141.426  1.00  0.00     0.004 C 
ENDBRANCH   2   3
ENDBRANCH   1   2
BRANCH   1   5
ATOM      5  C   UNL     1     140.665 145.401 143.885  1.00  0.00     0.075 C 
BRANCH   5   6
ATOM      6  C   UNL     1     139.651 145.327 142.774  1.00  0.00     0.129 C 
ATOM      7  O   UNL     1     138.705 144.559 142.869  1.00  0.00    -0.300 OA
ATOM      8  C   UNL     1     139.800 146.158 141.535  1.00  0.00     0.087 C 
ENDBRANCH   5   6
ENDBRANCH   1   5
TORSDOF 4
ENDMDL
MODEL 3
REMARK VINA RESULT:    -2.385      5.171      6.056
REMARK INTER + INTRA:          -3.224
REMARK INTER:                  -2.937
REMARK INTRA:                  -0.287
REMARK UNBOUND:                -0.281
REMARK SMILES CCCCCC(C)=O
REMARK SMILES IDX 4 1 3 2 2 3 1 4 5 5 6 6 8 7 7 8
REMARK H PARENT
REMARK Flexibility Score: inf
ROOT
ATOM      1  C   UNL     1     141.291 144.124 144.101  1.00  0.00     0.008 C 
ENDROOT
BRANCH   1   2
ATOM      2  C   UNL     1     140.479 145.431 144.064  1.00  0.00     0.000 C 
BRANCH   2   3
ATOM      3  C   UNL     1     139.927 145.748 142.667  1.00  0.00    -0.003 C 
ATOM      4  C   UNL     1     138.920 144.691 142.221  1.00  0.00     0.004 C 
ENDBRANCH   2   3
ENDBRANCH   1   2
BRANCH   1   5
ATOM      5  C   UNL     1     142.812 144.322 143.992  1.00  0.00     0.075 C 
BRANCH   5   6
ATOM      6  C   UNL     1     143.401 143.580 142.821  1.00  0.00     0.129 C 
ATOM      7  O   UNL     1     144.388 142.879 142.985  1.00  0.00    -0.300 OA
ATOM      8  C   UNL     1     142.816 143.715 141.448  1.00  0.00     0.087 C 
ENDBRANCH   5   6
ENDBRANCH   1   5
TORSDOF 4
ENDMDL
MODEL 4
REMARK VINA RESULT:    -2.380      4.734      5.747
REMARK INTER + INTRA:          -3.217
REMARK INTER:                  -2.951
REMARK INTRA:                  -0.266
REMARK UNBOUND:                -0.281
REMARK SMILES CCCCCC(C)=O
REMARK SMILES IDX 4 1 3 2 2 3 1 4 5 5 6 6 8 7 7 8
REMARK H PARENT
REMARK Flexibility Score: inf
ROOT
ATOM      1  C   UNL     1     140.208 137.611 144.052  1.00  0.00     0.008 C 
ENDROOT
BRANCH   1   2
ATOM      2  C   UNL     1     138.705 137.291 143.960  1.00  0.00     0.000 C 
BRANCH   2   3
ATOM      3  C   UNL     1     137.987 138.112 142.879  1.00  0.00    -0.003 C 
ATOM      4  C   UNL     1     138.697 137.988 141.534  1.00  0.00     0.004 C 
ENDBRANCH   2   3
ENDBRANCH   1   2
BRANCH   1   5
ATOM      5  C   UNL     1     141.121 136.375 144.016  1.00  0.00     0.075 C 
BRANCH   5   6
ATOM      6  C   UNL     1     142.059 136.391 142.838  1.00  0.00     0.129 C 
ATOM      7  O   UNL     1     143.044 137.113 142.860  1.00  0.00    -0.300 OA
ATOM      8  C   UNL     1     141.785 135.560 141.621  1.00  0.00     0.087 C 
ENDBRANCH   5   6
ENDBRANCH   1   5
TORSDOF 4
ENDMDL
MODEL 5
REMARK VINA RESULT:    -2.361      1.474      2.166
REMARK INTER + INTRA:          -3.194
REMARK INTER:                  -3.087
REMARK INTRA:                  -0.107
REMARK UNBOUND:                -0.281
REMARK SMILES CCCCCC(C)=O
REMARK SMILES IDX 4 1 3 2 2 3 1 4 5 5 6 6 8 7 7 8
REMARK H PARENT
REMARK Flexibility Score: inf
ROOT
ATOM      1  C   UNL     1     144.137 138.382 143.669  1.00  0.00     0.008 C 
ENDROOT
BRANCH   1   2
ATOM      2  C   UNL     1     143.970 139.877 143.993  1.00  0.00     0.000 C 
BRANCH   2   3
ATOM      3  C   UNL     1     145.311 140.613 144.119  1.00  0.00    -0.003 C 
ATOM      4  C   UNL     1     145.507 141.600 142.971  1.00  0.00     0.004 C 
ENDBRANCH   2   3
ENDBRANCH   1   2
BRANCH   1   5
ATOM      5  C   UNL     1     143.298 137.895 142.476  1.00  0.00     0.075 C 
BRANCH   5   6
ATOM      6  C   UNL     1     142.480 136.677 142.813  1.00  0.00     0.129 C 
ATOM      7  O   UNL     1     142.184 136.450 143.976  1.00  0.00    -0.300 OA
ATOM      8  C   UNL     1     142.051 135.715 141.746  1.00  0.00     0.087 C 
ENDBRANCH   5   6
ENDBRANCH   1   5
TORSDOF 4
ENDMDL
MODEL 6
REMARK VINA RESULT:    -2.354      7.426      8.537
REMARK INTER + INTRA:          -3.186
REMARK INTER:                  -3.089
REMARK INTRA:                  -0.096
REMARK UNBOUND:                -0.281
REMARK SMILES CCCCCC(C)=O
REMARK SMILES IDX 4 1 3 2 2 3 1 4 5 5 6 6 8 7 7 8
REMARK H PARENT
REMARK Flexibility Score: inf
ROOT
ATOM      1  C   UNL     1     137.590 143.250 143.663  1.00  0.00     0.008 C 
ENDROOT
BRANCH   1   2
ATOM      2  C   UNL     1     137.752 141.732 143.863  1.00  0.00     0.000 C 
BRANCH   2   3
ATOM      3  C   UNL     1     136.411 141.014 144.072  1.00  0.00    -0.003 C 
ATOM      4  C   UNL     1     136.172 139.970 142.985  1.00  0.00     0.004 C 
ENDBRANCH   2   3
ENDBRANCH   1   2
BRANCH   1   5
ATOM      5  C   UNL     1     138.370 143.817 142.465  1.00  0.00     0.075 C 
BRANCH   5   6
ATOM      6  C   UNL     1     139.172 145.037 142.832  1.00  0.00     0.129 C 
ATOM      7  O   UNL     1     139.432 145.259 144.005  1.00  0.00    -0.300 OA
ATOM      8  C   UNL     1     139.630 146.005 141.783  1.00  0.00     0.087 C 
ENDBRANCH   5   6
ENDBRANCH   1   5
TORSDOF 4
ENDMDL
MODEL 7
REMARK VINA RESULT:    -2.342      7.468      8.443
REMARK INTER + INTRA:          -3.170
REMARK INTER:                  -2.906
REMARK INTRA:                  -0.265
REMARK UNBOUND:                -0.281
REMARK SMILES CCCCCC(C)=O
REMARK SMILES IDX 4 1 3 2 2 3 1 4 5 5 6 6 8 7 7 8
REMARK H PARENT
REMARK Flexibility Score: inf
ROOT
ATOM      1  C   UNL     1     137.426 141.163 143.888  1.00  0.00     0.008 C 
ENDROOT
BRANCH   1   2
ATOM      2  C   UNL     1     136.076 140.429 143.785  1.00  0.00     0.000 C 
BRANCH   2   3
ATOM      3  C   UNL     1     135.970 139.553 142.529  1.00  0.00    -0.003 C 
ATOM      4  C   UNL     1     137.231 138.717 142.335  1.00  0.00     0.004 C 
ENDBRANCH   2   3
ENDBRANCH   1   2
BRANCH   1   5
ATOM      5  C   UNL     1     137.308 142.694 143.968  1.00  0.00     0.075 C 
BRANCH   5   6
ATOM      6  C   UNL     1     137.992 143.380 142.815  1.00  0.00     0.129 C 
ATOM      7  O   UNL     1     138.623 144.408 143.012  1.00  0.00    -0.300 OA
ATOM      8  C   UNL     1     137.886 142.841 141.421  1.00  0.00     0.087 C 
ENDBRANCH   5   6
ENDBRANCH   1   5
TORSDOF 4
ENDMDL
MODEL 8
REMARK VINA RESULT:    -2.332      4.853      6.868
REMARK INTER + INTRA:          -3.158
REMARK INTER:                  -3.024
REMARK INTRA:                  -0.134
REMARK UNBOUND:                -0.281
REMARK SMILES CCCCCC(C)=O
REMARK SMILES IDX 4 1 3 2 2 3 1 4 5 5 6 6 8 7 7 8
REMARK H PARENT
REMARK Flexibility Score: inf
ROOT
ATOM      1  C   UNL     1     141.290 136.263 140.542  1.00  0.00     0.008 C 
ENDROOT
BRANCH   1   2
ATOM      2  C   UNL     1     140.851 135.352 139.382  1.00  0.00     0.000 C 
BRANCH   2   3
ATOM      3  C   UNL     1     141.328 133.902 139.550  1.00  0.00    -0.003 C 
ATOM      4  C   UNL     1     140.282 132.917 139.036  1.00  0.00     0.004 C 
ENDBRANCH   2   3
ENDBRANCH   1   2
BRANCH   1   5
ATOM      5  C   UNL     1     141.992 135.525 141.694  1.00  0.00     0.075 C 
BRANCH   5   6
ATOM      6  C   UNL     1     141.947 136.304 142.982  1.00  0.00     0.129 C 
ATOM      7  O   UNL     1     142.743 137.212 143.167  1.00  0.00    -0.300 OA
ATOM      8  C   UNL     1     140.962 135.961 144.058  1.00  0.00     0.087 C 
ENDBRANCH   5   6
ENDBRANCH   1   5
TORSDOF 4
ENDMDL
MODEL 9
REMARK VINA RESULT:    -2.300      8.572      9.764
REMARK INTER + INTRA:          -3.119
REMARK INTER:                  -3.010
REMARK INTRA:                  -0.109
REMARK UNBOUND:                -0.281
REMARK SMILES CCCCCC(C)=O
REMARK SMILES IDX 4 1 3 2 2 3 1 4 5 5 6 6 8 7 7 8
REMARK H PARENT
REMARK Flexibility Score: inf
ROOT
ATOM      1  C   UNL     1     135.971 139.986 141.045  1.00  0.00     0.008 C 
ENDROOT
BRANCH   1   2
ATOM      2  C   UNL     1     134.541 139.878 140.485  1.00  0.00     0.000 C 
BRANCH   2   3
ATOM      3  C   UNL     1     134.343 140.693 139.199  1.00  0.00    -0.003 C 
ATOM      4  C   UNL     1     132.872 141.043 138.992  1.00  0.00     0.004 C 
ENDBRANCH   2   3
ENDBRANCH   1   2
BRANCH   1   5
ATOM      5  C   UNL     1     136.235 139.108 142.279  1.00  0.00     0.075 C 
BRANCH   5   6
ATOM      6  C   UNL     1     136.681 139.915 143.469  1.00  0.00     0.129 C 
ATOM      7  O   UNL     1     137.802 139.749 143.926  1.00  0.00    -0.300 OA
ATOM      8  C   UNL     1     135.760 140.898 144.125  1.00  0.00     0.087 C 
ENDBRANCH   5   6
ENDBRANCH   1   5
TORSDOF 4
ENDMDL
