MODEL 1
REMARK VINA RESULT:    -4.200      0.000      0.000
REMARK INTER + INTRA:          -5.140
REMARK INTER:                  -5.059
REMARK INTRA:                  -0.080
REMARK UNBOUND:                -0.080
REMARK SMILES CC[C@@H](C)[C@H]([NH3+])C(=O)[O-]
REMARK SMILES IDX 3 1 4 2 5 3 6 4 7 8 8 9 9 10 2 11 1 12
REMARK H PARENT 6 5 6 6 6 7
REMARK Flexibility Score: inf
ROOT
ATOM      1  C   UNL     1       4.230  44.524  10.937  1.00  0.00     0.050 C 
ATOM      2  C   UNL     1       4.200  44.277  12.455  1.00  0.00     0.014 C 
ENDROOT
BRANCH   1   3
ATOM      3  C   UNL     1       3.406  43.486  10.101  1.00  0.00     0.230 C 
BRANCH   3   4
ATOM      4  N   UNL     1       3.932  43.277   8.742  1.00  0.00    -0.350 N 
ATOM      5  H   UNL     1       4.860  42.802   8.768  1.00  0.00     0.345 HD
ATOM      6  H   UNL     1       3.274  42.665   8.206  1.00  0.00     0.345 HD
ATOM      7  H   UNL     1       4.029  44.183   8.227  1.00  0.00     0.345 HD
ENDBRANCH   3   4
BRANCH   3   8
ATOM      8  C   UNL     1       1.955  43.898  10.027  1.00  0.00     0.099 C 
ATOM      9  O   UNL     1       1.455  44.257   8.928  1.00  0.00    -0.544 OA
ATOM     10  O   UNL     1       1.153  43.858  11.161  1.00  0.00    -0.544 OA
ENDBRANCH   3   8
ENDBRANCH   1   3
BRANCH   1  11
ATOM     11  C   UNL     1       3.905  45.999  10.583  1.00  0.00     0.006 C 
ATOM     12  C   UNL     1       4.958  46.715   9.737  1.00  0.00     0.004 C 
ENDBRANCH   1  11
TORSDOF 4
ENDMDL
MODEL 2
REMARK VINA RESULT:    -4.160      2.013      3.094
REMARK INTER + INTRA:          -5.092
REMARK INTER:                  -5.073
REMARK INTRA:                  -0.019
REMARK UNBOUND:                -0.080
REMARK SMILES CC[C@@H](C)[C@H]([NH3+])C(=O)[O-]
REMARK SMILES IDX 3 1 4 2 5 3 6 4 7 8 8 9 9 10 2 11 1 12
REMARK H PARENT 6 5 6 6 6 7
REMARK Flexibility Score: inf
ROOT
ATOM      1  C   UNL     1       2.954  43.980  11.570  1.00  0.00     0.050 C 
ATOM      2  C   UNL     1       4.137  44.259  12.514  1.00  0.00     0.014 C 
ENDROOT
BRANCH   1   3
ATOM      3  C   UNL     1       3.338  43.947  10.052  1.00  0.00     0.230 C 
BRANCH   3   4
ATOM      4  N   UNL     1       4.612  43.259   9.784  1.00  0.00    -0.350 N 
ATOM      5  H   UNL     1       5.117  43.046  10.671  1.00  0.00     0.345 HD
ATOM      6  H   UNL     1       4.420  42.352   9.299  1.00  0.00     0.345 HD
ATOM      7  H   UNL     1       5.233  43.834   9.168  1.00  0.00     0.345 HD
ENDBRANCH   3   4
BRANCH   3   8
ATOM      8  C   UNL     1       3.386  45.346   9.487  1.00  0.00     0.099 C 
ATOM      9  O   UNL     1       2.322  45.998   9.322  1.00  0.00    -0.544 OA
ATOM     10  O   UNL     1       4.604  45.937   9.171  1.00  0.00    -0.544 OA
ENDBRANCH   3   8
ENDBRANCH   1   3
BRANCH   1  11
ATOM     11  C   UNL     1       2.128  42.749  12.025  1.00  0.00     0.006 C 
ATOM     12  C   UNL     1       2.897  41.428  12.076  1.00  0.00     0.004 C 
ENDBRANCH   1  11
TORSDOF 4
ENDMDL
MODEL 3
REMARK VINA RESULT:    -4.154      2.966      4.005
REMARK INTER + INTRA:          -5.085
REMARK INTER:                  -4.997
REMARK INTRA:                  -0.088
REMARK UNBOUND:                -0.080
REMARK SMILES CC[C@@H](C)[C@H]([NH3+])C(=O)[O-]
REMARK SMILES IDX 3 1 4 2 5 3 6 4 7 8 8 9 9 10 2 11 1 12
REMARK H PARENT 6 5 6 6 6 7
REMARK Flexibility Score: inf
ROOT
ATOM      1  C   UNL     1       4.536  47.013   9.523  1.00  0.00     0.050 C 
ATOM      2  C   UNL     1       6.004  47.477   9.560  1.00  0.00     0.014 C 
ENDROOT
BRANCH   1   3
ATOM      3  C   UNL     1       3.759  47.446   8.234  1.00  0.00     0.230 C 
BRANCH   3   4
ATOM      4  N   UNL     1       4.308  48.653   7.595  1.00  0.00    -0.350 N 
ATOM      5  H   UNL     1       3.545  49.270   7.240  1.00  0.00     0.345 HD
ATOM      6  H   UNL     1       4.858  49.198   8.300  1.00  0.00     0.345 HD
ATOM      7  H   UNL     1       4.944  48.408   6.802  1.00  0.00     0.345 HD
ENDBRANCH   3   4
BRANCH   3   8
ATOM      8  C   UNL     1       2.296  47.654   8.543  1.00  0.00     0.099 C 
ATOM      9  O   UNL     1       1.922  47.861   9.728  1.00  0.00    -0.544 OA
ATOM     10  O   UNL     1       1.352  47.647   7.522  1.00  0.00    -0.544 OA
ENDBRANCH   3   8
ENDBRANCH   1   3
BRANCH   1  11
ATOM     11  C   UNL     1       4.397  45.504   9.850  1.00  0.00     0.006 C 
ATOM     12  C   UNL     1       4.082  45.178  11.310  1.00  0.00     0.004 C 
ENDBRANCH   1  11
TORSDOF 4
ENDMDL
MODEL 4
REMARK VINA RESULT:    -4.135      3.062      4.131
REMARK INTER + INTRA:          -5.062
REMARK INTER:                  -4.945
REMARK INTRA:                  -0.117
REMARK UNBOUND:                -0.080
REMARK SMILES CC[C@@H](C)[C@H]([NH3+])C(=O)[O-]
REMARK SMILES IDX 3 1 4 2 5 3 6 4 7 8 8 9 9 10 2 11 1 12
REMARK H PARENT 6 5 6 6 6 7
REMARK Flexibility Score: inf
ROOT
ATOM      1  C   UNL     1       4.531  45.129  10.668  1.00  0.00     0.050 C 
ATOM      2  C   UNL     1       3.922  44.318   9.511  1.00  0.00     0.014 C 
ENDROOT
BRANCH   1   3
ATOM      3  C   UNL     1       4.328  46.677  10.544  1.00  0.00     0.230 C 
BRANCH   3   4
ATOM      4  N   UNL     1       2.933  47.067  10.285  1.00  0.00    -0.350 N 
ATOM      5  H   UNL     1       2.382  46.264   9.912  1.00  0.00     0.345 HD
ATOM      6  H   UNL     1       2.487  47.372  11.181  1.00  0.00     0.345 HD
ATOM      7  H   UNL     1       2.879  47.862   9.606  1.00  0.00     0.345 HD
ENDBRANCH   3   4
BRANCH   3   8
ATOM      8  C   UNL     1       5.223  47.244   9.469  1.00  0.00     0.099 C 
ATOM      9  O   UNL     1       6.475  47.210   9.604  1.00  0.00    -0.544 OA
ATOM     10  O   UNL     1       4.678  47.784   8.310  1.00  0.00    -0.544 OA
ENDBRANCH   3   8
ENDBRANCH   1   3
BRANCH   1  11
ATOM     11  C   UNL     1       4.121  44.562  12.052  1.00  0.00     0.006 C 
ATOM     12  C   UNL     1       2.758  43.870  12.097  1.00  0.00     0.004 C 
ENDBRANCH   1  11
TORSDOF 4
ENDMDL
MODEL 5
REMARK VINA RESULT:    -4.113      1.931      2.680
REMARK INTER + INTRA:          -5.035
REMARK INTER:                  -4.960
REMARK INTRA:                  -0.076
REMARK UNBOUND:                -0.080
REMARK SMILES CC[C@@H](C)[C@H]([NH3+])C(=O)[O-]
REMARK SMILES IDX 3 1 4 2 5 3 6 4 7 8 8 9 9 10 2 11 1 12
REMARK H PARENT 6 5 6 6 6 7
REMARK Flexibility Score: inf
ROOT
ATOM      1  C   UNL     1       4.356  46.346   9.160  1.00  0.00     0.050 C 
ATOM      2  C   UNL     1       5.526  47.218   9.649  1.00  0.00     0.014 C 
ENDROOT
BRANCH   1   3
ATOM      3  C   UNL     1       3.919  45.232  10.171  1.00  0.00     0.230 C 
BRANCH   3   4
ATOM      4  N   UNL     1       5.018  44.749  11.023  1.00  0.00    -0.350 N 
ATOM      5  H   UNL     1       5.447  43.885  10.628  1.00  0.00     0.345 HD
ATOM      6  H   UNL     1       5.763  45.482  11.075  1.00  0.00     0.345 HD
ATOM      7  H   UNL     1       4.686  44.550  11.996  1.00  0.00     0.345 HD
ENDBRANCH   3   4
BRANCH   3   8
ATOM      8  C   UNL     1       3.292  44.069   9.441  1.00  0.00     0.099 C 
ATOM      9  O   UNL     1       4.014  43.265   8.794  1.00  0.00    -0.544 OA
ATOM     10  O   UNL     1       1.919  43.859   9.497  1.00  0.00    -0.544 OA
ENDBRANCH   3   8
ENDBRANCH   1   3
BRANCH   1  11
ATOM     11  C   UNL     1       3.174  47.203   8.637  1.00  0.00     0.006 C 
ATOM     12  C   UNL     1       3.519  48.170   7.504  1.00  0.00     0.004 C 
ENDBRANCH   1  11
TORSDOF 4
ENDMDL
MODEL 6
REMARK VINA RESULT:    -4.107      2.157      3.553
REMARK INTER + INTRA:          -5.028
REMARK INTER:                  -5.038
REMARK INTRA:                   0.010
REMARK UNBOUND:                -0.080
REMARK SMILES CC[C@@H](C)[C@H]([NH3+])C(=O)[O-]
REMARK SMILES IDX 3 1 4 2 5 3 6 4 7 8 8 9 9 10 2 11 1 12
REMARK H PARENT 6 5 6 6 6 7
REMARK Flexibility Score: inf
ROOT
ATOM      1  C   UNL     1       2.169  43.673   9.813  1.00  0.00     0.050 C 
ATOM      2  C   UNL     1       1.190  44.284   8.795  1.00  0.00     0.014 C 
ENDROOT
BRANCH   1   3
ATOM      3  C   UNL     1       3.680  43.892   9.462  1.00  0.00     0.230 C 
BRANCH   3   4
ATOM      4  N   UNL     1       4.584  42.958  10.152  1.00  0.00    -0.350 N 
ATOM      5  H   UNL     1       4.095  42.067  10.386  1.00  0.00     0.345 HD
ATOM      6  H   UNL     1       5.388  42.727   9.524  1.00  0.00     0.345 HD
ATOM      7  H   UNL     1       4.966  43.378  11.031  1.00  0.00     0.345 HD
ENDBRANCH   3   4
BRANCH   3   8
ATOM      8  C   UNL     1       4.093  45.313   9.758  1.00  0.00     0.099 C 
ATOM      9  O   UNL     1       4.632  45.598  10.861  1.00  0.00    -0.544 OA
ATOM     10  O   UNL     1       3.908  46.313   8.811  1.00  0.00    -0.544 OA
ENDBRANCH   3   8
ENDBRANCH   1   3
BRANCH   1  11
ATOM     11  C   UNL     1       1.811  44.067  11.270  1.00  0.00     0.006 C 
ATOM     12  C   UNL     1       1.654  42.899  12.243  1.00  0.00     0.004 C 
ENDBRANCH   1  11
TORSDOF 4
ENDMDL
MODEL 7
REMARK VINA RESULT:    -4.092      1.665      2.298
REMARK INTER + INTRA:          -5.009
REMARK INTER:                  -4.940
REMARK INTRA:                  -0.070
REMARK UNBOUND:                -0.080
REMARK SMILES CC[C@@H](C)[C@H]([NH3+])C(=O)[O-]
REMARK SMILES IDX 3 1 4 2 5 3 6 4 7 8 8 9 9 10 2 11 1 12
REMARK H PARENT 6 5 6 6 6 7
REMARK Flexibility Score: inf
ROOT
ATOM      1  C   UNL     1       3.003  44.794  10.813  1.00  0.00     0.050 C 
ATOM      2  C   UNL     1       2.329  44.640   9.438  1.00  0.00     0.014 C 
ENDROOT
BRANCH   1   3
ATOM      3  C   UNL     1       3.747  43.508  11.312  1.00  0.00     0.230 C 
BRANCH   3   4
ATOM      4  N   UNL     1       4.605  42.893  10.286  1.00  0.00    -0.350 N 
ATOM      5  H   UNL     1       5.241  42.181  10.707  1.00  0.00     0.345 HD
ATOM      6  H   UNL     1       4.005  42.407   9.580  1.00  0.00     0.345 HD
ATOM      7  H   UNL     1       5.180  43.612   9.789  1.00  0.00     0.345 HD
ENDBRANCH   3   4
BRANCH   3   8
ATOM      8  C   UNL     1       2.758  42.490  11.826  1.00  0.00     0.099 C 
ATOM      9  O   UNL     1       3.067  41.269  11.859  1.00  0.00    -0.544 OA
ATOM     10  O   UNL     1       1.512  42.891  12.294  1.00  0.00    -0.544 OA
ENDBRANCH   3   8
ENDBRANCH   1   3
BRANCH   1  11
ATOM     11  C   UNL     1       3.868  46.078  10.894  1.00  0.00     0.006 C 
ATOM     12  C   UNL     1       4.651  46.419   9.626  1.00  0.00     0.004 C 
ENDBRANCH   1  11
TORSDOF 4
ENDMDL
MODEL 8
REMARK VINA RESULT:    -4.015      1.769      2.327
REMARK INTER + INTRA:          -4.917
REMARK INTER:                  -4.820
REMARK INTRA:                  -0.097
REMARK UNBOUND:                -0.080
REMARK SMILES CC[C@@H](C)[C@H]([NH3+])C(=O)[O-]
REMARK SMILES IDX 3 1 4 2 5 3 6 4 7 8 8 9 9 10 2 11 1 12
REMARK H PARENT 6 5 6 6 6 7
REMARK Flexibility Score: inf
ROOT
ATOM      1  C   UNL     1       3.361  45.426   9.899  1.00  0.00     0.050 C 
ATOM      2  C   UNL     1       1.874  45.338   9.510  1.00  0.00     0.014 C 
ENDROOT
BRANCH   1   3
ATOM      3  C   UNL     1       4.095  44.044   9.946  1.00  0.00     0.230 C 
BRANCH   3   4
ATOM      4  N   UNL     1       3.826  43.196   8.773  1.00  0.00    -0.350 N 
ATOM      5  H   UNL     1       3.018  43.562   8.223  1.00  0.00     0.345 HD
ATOM      6  H   UNL     1       4.664  43.194   8.147  1.00  0.00     0.345 HD
ATOM      7  H   UNL     1       3.626  42.208   9.055  1.00  0.00     0.345 HD
ENDBRANCH   3   4
BRANCH   3   8
ATOM      8  C   UNL     1       3.737  43.296  11.207  1.00  0.00     0.099 C 
ATOM      9  O   UNL     1       3.219  42.150  11.138  1.00  0.00    -0.544 OA
ATOM     10  O   UNL     1       4.000  43.851  12.454  1.00  0.00    -0.544 OA
ENDBRANCH   3   8
ENDBRANCH   1   3
BRANCH   1  11
ATOM     11  C   UNL     1       4.115  46.498   9.069  1.00  0.00     0.006 C 
ATOM     12  C   UNL     1       5.437  46.977   9.668  1.00  0.00     0.004 C 
ENDBRANCH   1  11
TORSDOF 4
ENDMDL
MODEL 9
REMARK VINA RESULT:    -3.996      3.135      3.642
REMARK INTER + INTRA:          -4.894
REMARK INTER:                  -4.783
REMARK INTRA:                  -0.111
REMARK UNBOUND:                -0.080
REMARK SMILES CC[C@@H](C)[C@H]([NH3+])C(=O)[O-]
REMARK SMILES IDX 3 1 4 2 5 3 6 4 7 8 8 9 9 10 2 11 1 12
REMARK H PARENT 6 5 6 6 6 7
REMARK Flexibility Score: inf
ROOT
ATOM      1  C   UNL     1       3.781  43.248  11.217  1.00  0.00     0.050 C 
ATOM      2  C   UNL     1       4.117  44.373  12.212  1.00  0.00     0.014 C 
ENDROOT
BRANCH   1   3
ATOM      3  C   UNL     1       2.597  42.326  11.665  1.00  0.00     0.230 C 
BRANCH   3   4
ATOM      4  N   UNL     1       1.602  43.015  12.502  1.00  0.00    -0.350 N 
ATOM      5  H   UNL     1       0.659  42.581  12.398  1.00  0.00     0.345 HD
ATOM      6  H   UNL     1       1.881  42.936  13.508  1.00  0.00     0.345 HD
ATOM      7  H   UNL     1       1.537  44.031  12.259  1.00  0.00     0.345 HD
ENDBRANCH   3   4
BRANCH   3   8
ATOM      8  C   UNL     1       3.118  41.109  12.391  1.00  0.00     0.099 C 
ATOM      9  O   UNL     1       2.314  40.270  12.878  1.00  0.00    -0.544 OA
ATOM     10  O   UNL     1       4.486  40.889  12.505  1.00  0.00    -0.544 OA
ENDBRANCH   3   8
ENDBRANCH   1   3
BRANCH   1  11
ATOM     11  C   UNL     1       3.634  43.781   9.768  1.00  0.00     0.006 C 
ATOM     12  C   UNL     1       2.431  43.244   8.993  1.00  0.00     0.004 C 
ENDBRANCH   1  11
TORSDOF 4
ENDMDL
