MODEL 1
REMARK VINA RESULT:    -2.961      0.000      0.000
REMARK INTER + INTRA:          -3.412
REMARK INTER:                  -3.221
REMARK INTRA:                  -0.190
REMARK UNBOUND:                -0.190
REMARK SMILES C=C(C)[C@H]1CC[C@H](C)C[C@H]1O
REMARK SMILES IDX 8 1 7 2 6 3 5 4 4 5 10 6 9 7 11 8 2 10 1 11 3 12
REMARK H PARENT 11 9
REMARK Flexibility Score: inf
ROOT
ATOM      1  C   UNL     1     -32.775  35.656 -12.125  1.00  0.00     0.008 C 
ATOM      2  C   UNL     1     -34.130  35.186 -11.586  1.00  0.00    -0.012 C 
ATOM      3  C   UNL     1     -35.256  36.118 -12.072  1.00  0.00     0.004 C 
ATOM      4  C   UNL     1     -36.624  35.644 -11.562  1.00  0.00     0.011 C 
ATOM      5  C   UNL     1     -36.894  34.189 -12.001  1.00  0.00     0.043 C 
ATOM      6  C   UNL     1     -35.776  33.237 -11.513  1.00  0.00     0.121 C 
ATOM      7  C   UNL     1     -34.404  33.729 -12.015  1.00  0.00     0.035 C 
ENDROOT
BRANCH   6   8
ATOM      8  O   UNL     1     -35.772  33.155 -10.110  1.00  0.00    -0.392 OA
ATOM      9  H   UNL     1     -36.377  33.868  -9.779  1.00  0.00     0.210 HD
ENDBRANCH   6   8
BRANCH   5  10
ATOM     10  C   UNL     1     -38.278  33.705 -11.578  1.00  0.00    -0.075 C 
ATOM     11  C   UNL     1     -38.771  32.563 -12.087  1.00  0.00     0.008 C 
ATOM     12  C   UNL     1     -39.106  34.444 -10.554  1.00  0.00     0.039 C 
ENDBRANCH   5  10
TORSDOF 2
ENDMDL
MODEL 2
REMARK VINA RESULT:    -2.645      1.347      2.224
REMARK INTER + INTRA:          -3.068
REMARK INTER:                  -2.910
REMARK INTRA:                  -0.157
REMARK UNBOUND:                -0.190
REMARK SMILES C=C(C)[C@H]1CC[C@H](C)C[C@H]1O
REMARK SMILES IDX 8 1 7 2 6 3 5 4 4 5 10 6 9 7 11 8 2 10 1 11 3 12
REMARK H PARENT 11 9
REMARK Flexibility Score: inf
ROOT
ATOM      1  C   UNL     1     -32.656  35.951 -12.077  1.00  0.00     0.008 C 
ATOM      2  C   UNL     1     -34.111  35.470 -12.125  1.00  0.00    -0.012 C 
ATOM      3  C   UNL     1     -34.170  33.930 -12.103  1.00  0.00     0.004 C 
ATOM      4  C   UNL     1     -35.623  33.434 -12.123  1.00  0.00     0.011 C 
ATOM      5  C   UNL     1     -36.417  34.027 -10.941  1.00  0.00     0.043 C 
ATOM      6  C   UNL     1     -36.375  35.573 -10.953  1.00  0.00     0.121 C 
ATOM      7  C   UNL     1     -34.914  36.064 -10.949  1.00  0.00     0.035 C 
ENDROOT
BRANCH   6   8
ATOM      8  O   UNL     1     -37.047  36.079 -12.079  1.00  0.00    -0.392 OA
ATOM      9  H   UNL     1     -36.841  35.469 -12.834  1.00  0.00     0.210 HD
ENDBRANCH   6   8
BRANCH   5  10
ATOM     10  C   UNL     1     -37.847  33.497 -10.882  1.00  0.00    -0.075 C 
ATOM     11  C   UNL     1     -38.691  33.955  -9.942  1.00  0.00     0.008 C 
ATOM     12  C   UNL     1     -38.375  32.502 -11.888  1.00  0.00     0.039 C 
ENDBRANCH   5  10
TORSDOF 2
ENDMDL
