MODEL 1
REMARK VINA RESULT:    -2.375      0.000      0.000
REMARK INTER + INTRA:          -2.375
REMARK INTER:                  -2.375
REMARK INTRA:                   0.000
REMARK UNBOUND:                 0.000
REMARK SMILES CC(=O)[O-]
REMARK SMILES IDX 1 1 2 2 3 3 4 4
REMARK H PARENT
REMARK Flexibility Score: inf
ROOT
ATOM      1  C   UNL     1       6.558  -6.499 -31.403  1.00  0.00     0.063 C 
ATOM      2  C   UNL     1       7.486  -5.629 -32.180  1.00  0.00     0.038 C 
ATOM      3  O   UNL     1       8.602  -6.072 -32.557  1.00  0.00    -0.550 OA
ATOM      4  O   UNL     1       7.143  -4.309 -32.444  1.00  0.00    -0.550 OA
ENDROOT
TORSDOF 0
ENDMDL
MODEL 2
REMARK VINA RESULT:    -2.226     11.496     11.546
REMARK INTER + INTRA:          -2.226
REMARK INTER:                  -2.226
REMARK INTRA:                   0.000
REMARK UNBOUND:                 0.000
REMARK SMILES CC(=O)[O-]
REMARK SMILES IDX 1 1 2 2 3 3 4 4
REMARK H PARENT
REMARK Flexibility Score: inf
ROOT
ATOM      1  C   UNL     1      14.744  -5.608 -23.593  1.00  0.00     0.063 C 
ATOM      2  C   UNL     1      13.874  -4.769 -22.720  1.00  0.00     0.038 C 
ATOM      3  O   UNL     1      12.981  -5.307 -22.015  1.00  0.00    -0.550 OA
ATOM      4  O   UNL     1      14.011  -3.387 -22.722  1.00  0.00    -0.550 OA
ENDROOT
TORSDOF 0
ENDMDL
MODEL 3
REMARK VINA RESULT:    -2.207     11.553     11.608
REMARK INTER + INTRA:          -2.207
REMARK INTER:                  -2.207
REMARK INTRA:                   0.000
REMARK UNBOUND:                 0.000
REMARK SMILES CC(=O)[O-]
REMARK SMILES IDX 1 1 2 2 3 3 4 4
REMARK H PARENT
REMARK Flexibility Score: inf
ROOT
ATOM      1  C   UNL     1      14.865  -5.643 -23.540  1.00  0.00     0.063 C 
ATOM      2  C   UNL     1      13.936  -4.773 -22.764  1.00  0.00     0.038 C 
ATOM      3  O   UNL     1      14.065  -3.522 -22.798  1.00  0.00    -0.550 OA
ATOM      4  O   UNL     1      12.958  -5.343 -21.959  1.00  0.00    -0.550 OA
ENDROOT
TORSDOF 0
ENDMDL
MODEL 4
REMARK VINA RESULT:    -2.173      1.419      2.175
REMARK INTER + INTRA:          -2.173
REMARK INTER:                  -2.173
REMARK INTRA:                   0.000
REMARK UNBOUND:                 0.000
REMARK SMILES CC(=O)[O-]
REMARK SMILES IDX 1 1 2 2 3 3 4 4
REMARK H PARENT
REMARK Flexibility Score: inf
ROOT
ATOM      1  C   UNL     1       8.436  -5.783 -33.557  1.00  0.00     0.063 C 
ATOM      2  C   UNL     1       7.603  -5.137 -32.503  1.00  0.00     0.038 C 
ATOM      3  O   UNL     1       7.286  -3.923 -32.605  1.00  0.00    -0.550 OA
ATOM      4  O   UNL     1       7.219  -5.857 -31.380  1.00  0.00    -0.550 OA
ENDROOT
TORSDOF 0
ENDMDL
MODEL 5
REMARK VINA RESULT:    -2.127     11.554     11.749
REMARK INTER + INTRA:          -2.127
REMARK INTER:                  -2.127
REMARK INTRA:                   0.000
REMARK UNBOUND:                 0.000
REMARK SMILES CC(=O)[O-]
REMARK SMILES IDX 1 1 2 2 3 3 4 4
REMARK H PARENT
REMARK Flexibility Score: inf
ROOT
ATOM      1  C   UNL     1      16.295  -6.153 -22.490  1.00  0.00     0.063 C 
ATOM      2  C   UNL     1      15.236  -5.915 -23.512  1.00  0.00     0.038 C 
ATOM      3  O   UNL     1      15.135  -6.680 -24.506  1.00  0.00    -0.550 OA
ATOM      4  O   UNL     1      14.393  -4.818 -23.397  1.00  0.00    -0.550 OA
ENDROOT
TORSDOF 0
ENDMDL
MODEL 6
REMARK VINA RESULT:    -2.122     11.560     11.864
REMARK INTER + INTRA:          -2.122
REMARK INTER:                  -2.122
REMARK INTRA:                   0.000
REMARK UNBOUND:                 0.000
REMARK SMILES CC(=O)[O-]
REMARK SMILES IDX 1 1 2 2 3 3 4 4
REMARK H PARENT
REMARK Flexibility Score: inf
ROOT
ATOM      1  C   UNL     1      14.369  -4.981 -23.192  1.00  0.00     0.063 C 
ATOM      2  C   UNL     1      15.389  -6.016 -23.525  1.00  0.00     0.038 C 
ATOM      3  O   UNL     1      15.169  -6.847 -24.444  1.00  0.00    -0.550 OA
ATOM      4  O   UNL     1      16.562  -6.099 -22.786  1.00  0.00    -0.550 OA
ENDROOT
TORSDOF 0
ENDMDL
MODEL 7
REMARK VINA RESULT:    -2.118     12.696     13.132
REMARK INTER + INTRA:          -2.118
REMARK INTER:                  -2.118
REMARK INTRA:                   0.000
REMARK UNBOUND:                 0.000
REMARK SMILES CC(=O)[O-]
REMARK SMILES IDX 1 1 2 2 3 3 4 4
REMARK H PARENT
REMARK Flexibility Score: inf
ROOT
ATOM      1  C   UNL     1       4.541 -11.938 -20.652  1.00  0.00     0.063 C 
ATOM      2  C   UNL     1       3.470 -12.159 -21.664  1.00  0.00     0.038 C 
ATOM      3  O   UNL     1       2.263 -11.973 -21.359  1.00  0.00    -0.550 OA
ATOM      4  O   UNL     1       3.796 -12.624 -22.932  1.00  0.00    -0.550 OA
ENDROOT
TORSDOF 0
ENDMDL
MODEL 8
REMARK VINA RESULT:    -2.087     12.692     13.134
REMARK INTER + INTRA:          -2.087
REMARK INTER:                  -2.087
REMARK INTRA:                   0.000
REMARK UNBOUND:                 0.000
REMARK SMILES CC(=O)[O-]
REMARK SMILES IDX 1 1 2 2 3 3 4 4
REMARK H PARENT
REMARK Flexibility Score: inf
ROOT
ATOM      1  C   UNL     1       2.470 -12.133 -21.229  1.00  0.00     0.063 C 
ATOM      2  C   UNL     1       3.952 -12.155 -21.390  1.00  0.00     0.038 C 
ATOM      3  O   UNL     1       4.693 -11.686 -20.487  1.00  0.00    -0.550 OA
ATOM      4  O   UNL     1       4.518 -12.643 -22.561  1.00  0.00    -0.550 OA
ENDROOT
TORSDOF 0
ENDMDL
MODEL 9
REMARK VINA RESULT:    -2.025     12.236     12.674
REMARK INTER + INTRA:          -2.025
REMARK INTER:                  -2.025
REMARK INTRA:                   0.000
REMARK UNBOUND:                 0.000
REMARK SMILES CC(=O)[O-]
REMARK SMILES IDX 1 1 2 2 3 3 4 4
REMARK H PARENT
REMARK Flexibility Score: inf
ROOT
ATOM      1  C   UNL     1      19.976 -10.898 -33.345  1.00  0.00     0.063 C 
ATOM      2  C   UNL     1      18.534 -11.260 -33.448  1.00  0.00     0.038 C 
ATOM      3  O   UNL     1      17.989 -11.946 -32.544  1.00  0.00    -0.550 OA
ATOM      4  O   UNL     1      17.802 -10.888 -34.567  1.00  0.00    -0.550 OA
ENDROOT
TORSDOF 0
ENDMDL
