MODEL 1
REMARK VINA RESULT:    -2.692      0.000      0.000
REMARK INTER + INTRA:          -2.692
REMARK INTER:                  -2.692
REMARK INTRA:                   0.000
REMARK UNBOUND:                 0.000
REMARK SMILES CC(=O)[O-]
REMARK SMILES IDX 1 1 2 2 3 3 4 4
REMARK H PARENT
REMARK Flexibility Score: inf
ROOT
ATOM      1  C   UNL     1       1.949   8.597  19.586  1.00  0.00     0.063 C 
ATOM      2  C   UNL     1       2.912   9.341  18.726  1.00  0.00     0.038 C 
ATOM      3  O   UNL     1       3.605  10.272  19.214  1.00  0.00    -0.550 OA
ATOM      4  O   UNL     1       3.087   8.974  17.398  1.00  0.00    -0.550 OA
ENDROOT
TORSDOF 0
ENDMDL
MODEL 2
REMARK VINA RESULT:    -2.547      5.379      5.865
REMARK INTER + INTRA:          -2.547
REMARK INTER:                  -2.547
REMARK INTRA:                   0.000
REMARK UNBOUND:                 0.000
REMARK SMILES CC(=O)[O-]
REMARK SMILES IDX 1 1 2 2 3 3 4 4
REMARK H PARENT
REMARK Flexibility Score: inf
ROOT
ATOM      1  C   UNL     1       2.649   4.529  19.819  1.00  0.00     0.063 C 
ATOM      2  C   UNL     1       3.063   3.570  18.755  1.00  0.00     0.038 C 
ATOM      3  O   UNL     1       3.502   2.432  19.067  1.00  0.00    -0.550 OA
ATOM      4  O   UNL     1       2.914   3.909  17.416  1.00  0.00    -0.550 OA
ENDROOT
TORSDOF 0
ENDMDL
MODEL 3
REMARK VINA RESULT:    -2.539      5.343      5.884
REMARK INTER + INTRA:          -2.539
REMARK INTER:                  -2.539
REMARK INTRA:                   0.000
REMARK UNBOUND:                 0.000
REMARK SMILES CC(=O)[O-]
REMARK SMILES IDX 1 1 2 2 3 3 4 4
REMARK H PARENT
REMARK Flexibility Score: inf
ROOT
ATOM      1  C   UNL     1       2.624   4.674  19.696  1.00  0.00     0.063 C 
ATOM      2  C   UNL     1       3.032   3.645  18.696  1.00  0.00     0.038 C 
ATOM      3  O   UNL     1       2.963   3.899  17.465  1.00  0.00    -0.550 OA
ATOM      4  O   UNL     1       3.539   2.424  19.122  1.00  0.00    -0.550 OA
ENDROOT
TORSDOF 0
ENDMDL
MODEL 4
REMARK VINA RESULT:    -2.527      1.791      2.076
REMARK INTER + INTRA:          -2.527
REMARK INTER:                  -2.527
REMARK INTRA:                   0.000
REMARK UNBOUND:                 0.000
REMARK SMILES CC(=O)[O-]
REMARK SMILES IDX 1 1 2 2 3 3 4 4
REMARK H PARENT
REMARK Flexibility Score: inf
ROOT
ATOM      1  C   UNL     1       3.345   8.717  17.392  1.00  0.00     0.063 C 
ATOM      2  C   UNL     1       2.393   9.042  18.493  1.00  0.00     0.038 C 
ATOM      3  O   UNL     1       1.748  10.123  18.472  1.00  0.00    -0.550 OA
ATOM      4  O   UNL     1       2.175   8.129  19.516  1.00  0.00    -0.550 OA
ENDROOT
TORSDOF 0
ENDMDL
MODEL 5
REMARK VINA RESULT:    -2.507      5.428      5.898
REMARK INTER + INTRA:          -2.507
REMARK INTER:                  -2.507
REMARK INTRA:                   0.000
REMARK UNBOUND:                 0.000
REMARK SMILES CC(=O)[O-]
REMARK SMILES IDX 1 1 2 2 3 3 4 4
REMARK H PARENT
REMARK Flexibility Score: inf
ROOT
ATOM      1  C   UNL     1       2.412   5.271  19.293  1.00  0.00     0.063 C 
ATOM      2  C   UNL     1       2.429   3.805  19.564  1.00  0.00     0.038 C 
ATOM      3  O   UNL     1       3.350   3.086  19.096  1.00  0.00    -0.550 OA
ATOM      4  O   UNL     1       1.458   3.237  20.380  1.00  0.00    -0.550 OA
ENDROOT
TORSDOF 0
ENDMDL
MODEL 6
REMARK VINA RESULT:    -2.463      5.542      5.971
REMARK INTER + INTRA:          -2.463
REMARK INTER:                  -2.463
REMARK INTRA:                   0.000
REMARK UNBOUND:                 0.000
REMARK SMILES CC(=O)[O-]
REMARK SMILES IDX 1 1 2 2 3 3 4 4
REMARK H PARENT
REMARK Flexibility Score: inf
ROOT
ATOM      1  C   UNL     1       3.284   2.856  18.909  1.00  0.00     0.063 C 
ATOM      2  C   UNL     1       2.406   3.769  19.695  1.00  0.00     0.038 C 
ATOM      3  O   UNL     1       1.416   3.309  20.322  1.00  0.00    -0.550 OA
ATOM      4  O   UNL     1       2.709   5.122  19.782  1.00  0.00    -0.550 OA
ENDROOT
TORSDOF 0
ENDMDL
MODEL 7
REMARK VINA RESULT:    -2.427      4.292      4.865
REMARK INTER + INTRA:          -2.427
REMARK INTER:                  -2.427
REMARK INTRA:                   0.000
REMARK UNBOUND:                 0.000
REMARK SMILES CC(=O)[O-]
REMARK SMILES IDX 1 1 2 2 3 3 4 4
REMARK H PARENT
REMARK Flexibility Score: inf
ROOT
ATOM      1  C   UNL     1       3.015   3.497  19.240  1.00  0.00     0.063 C 
ATOM      2  C   UNL     1       2.662   4.819  18.648  1.00  0.00     0.038 C 
ATOM      3  O   UNL     1       2.642   4.967  17.398  1.00  0.00    -0.550 OA
ATOM      4  O   UNL     1       2.302   5.877  19.474  1.00  0.00    -0.550 OA
ENDROOT
TORSDOF 0
ENDMDL
MODEL 8
REMARK VINA RESULT:    -2.322     14.030     14.614
REMARK INTER + INTRA:          -2.322
REMARK INTER:                  -2.322
REMARK INTRA:                   0.000
REMARK UNBOUND:                 0.000
REMARK SMILES CC(=O)[O-]
REMARK SMILES IDX 1 1 2 2 3 3 4 4
REMARK H PARENT
REMARK Flexibility Score: inf
ROOT
ATOM      1  C   UNL     1      -2.953   4.130  30.853  1.00  0.00     0.063 C 
ATOM      2  C   UNL     1      -1.649   3.494  31.196  1.00  0.00     0.038 C 
ATOM      3  O   UNL     1      -0.814   3.237  30.289  1.00  0.00    -0.550 OA
ATOM      4  O   UNL     1      -1.329   3.234  32.522  1.00  0.00    -0.550 OA
ENDROOT
TORSDOF 0
ENDMDL
MODEL 9
REMARK VINA RESULT:    -2.234      4.905      5.389
REMARK INTER + INTRA:          -2.234
REMARK INTER:                  -2.234
REMARK INTRA:                   0.000
REMARK UNBOUND:                 0.000
REMARK SMILES CC(=O)[O-]
REMARK SMILES IDX 1 1 2 2 3 3 4 4
REMARK H PARENT
REMARK Flexibility Score: inf
ROOT
ATOM      1  C   UNL     1       4.872   7.973  15.595  1.00  0.00     0.063 C 
ATOM      2  C   UNL     1       5.596   8.207  14.312  1.00  0.00     0.038 C 
ATOM      3  O   UNL     1       5.207   9.107  13.522  1.00  0.00    -0.550 OA
ATOM      4  O   UNL     1       6.733   7.469  14.011  1.00  0.00    -0.550 OA
ENDROOT
TORSDOF 0
ENDMDL
