MODEL 1
REMARK VINA RESULT:    -3.437      0.000      0.000
REMARK INTER + INTRA:          -3.889
REMARK INTER:                  -3.839
REMARK INTRA:                  -0.050
REMARK UNBOUND:                -0.050
REMARK SMILES CCCC(=O)[O-]
REMARK SMILES IDX 3 1 4 2 5 3 6 4 2 5 1 6
REMARK H PARENT
REMARK Flexibility Score: inf
ROOT
ATOM      1  C   UNL     1      25.541  -3.595  61.227  1.00  0.00     0.052 C 
ENDROOT
BRANCH   1   2
ATOM      2  C   UNL     1      24.719  -3.664  59.979  1.00  0.00     0.041 C 
ATOM      3  O   UNL     1      23.550  -4.131  60.014  1.00  0.00    -0.550 OA
ATOM      4  O   UNL     1      25.261  -3.256  58.766  1.00  0.00    -0.550 OA
ENDBRANCH   1   2
BRANCH   1   5
ATOM      5  C   UNL     1      25.124  -2.391  62.076  1.00  0.00     0.003 C 
ATOM      6  C   UNL     1      25.831  -1.120  61.611  1.00  0.00     0.004 C 
ENDBRANCH   1   5
TORSDOF 2
ENDMDL
MODEL 2
REMARK VINA RESULT:    -3.414      6.466      7.456
REMARK INTER + INTRA:          -3.863
REMARK INTER:                  -3.803
REMARK INTRA:                  -0.060
REMARK UNBOUND:                -0.050
REMARK SMILES CCCC(=O)[O-]
REMARK SMILES IDX 3 1 4 2 5 3 6 4 2 5 1 6
REMARK H PARENT
REMARK Flexibility Score: inf
ROOT
ATOM      1  C   UNL     1      25.532   3.709  63.072  1.00  0.00     0.052 C 
ENDROOT
BRANCH   1   2
ATOM      2  C   UNL     1      24.700   3.662  64.314  1.00  0.00     0.041 C 
ATOM      3  O   UNL     1      23.497   4.033  64.286  1.00  0.00    -0.550 OA
ATOM      4  O   UNL     1      25.267   3.255  65.516  1.00  0.00    -0.550 OA
ENDBRANCH   1   2
BRANCH   1   5
ATOM      5  C   UNL     1      25.100   2.610  62.097  1.00  0.00     0.003 C 
ATOM      6  C   UNL     1      25.637   1.248  62.531  1.00  0.00     0.004 C 
ENDBRANCH   1   5
TORSDOF 2
ENDMDL
MODEL 3
REMARK VINA RESULT:    -3.390      2.371      3.310
REMARK INTER + INTRA:          -3.836
REMARK INTER:                  -3.790
REMARK INTRA:                  -0.046
REMARK UNBOUND:                -0.050
REMARK SMILES CCCC(=O)[O-]
REMARK SMILES IDX 3 1 4 2 5 3 6 4 2 5 1 6
REMARK H PARENT
REMARK Flexibility Score: inf
ROOT
ATOM      1  C   UNL     1      26.168  -2.177  59.909  1.00  0.00     0.052 C 
ENDROOT
BRANCH   1   2
ATOM      2  C   UNL     1      25.815  -1.829  61.321  1.00  0.00     0.041 C 
ATOM      3  O   UNL     1      25.896  -0.638  61.720  1.00  0.00    -0.550 OA
ATOM      4  O   UNL     1      25.442  -2.829  62.211  1.00  0.00    -0.550 OA
ENDBRANCH   1   2
BRANCH   1   5
ATOM      5  C   UNL     1      25.401  -3.423  59.458  1.00  0.00     0.003 C 
ATOM      6  C   UNL     1      24.058  -3.048  58.838  1.00  0.00     0.004 C 
ENDBRANCH   1   5
TORSDOF 2
ENDMDL
MODEL 4
REMARK VINA RESULT:    -3.381      5.321      6.304
REMARK INTER + INTRA:          -3.826
REMARK INTER:                  -3.780
REMARK INTRA:                  -0.046
REMARK UNBOUND:                -0.050
REMARK SMILES CCCC(=O)[O-]
REMARK SMILES IDX 3 1 4 2 5 3 6 4 2 5 1 6
REMARK H PARENT
REMARK Flexibility Score: inf
ROOT
ATOM      1  C   UNL     1      26.187   2.110  64.316  1.00  0.00     0.052 C 
ENDROOT
BRANCH   1   2
ATOM      2  C   UNL     1      25.768   1.767  62.922  1.00  0.00     0.041 C 
ATOM      3  O   UNL     1      25.790   0.571  62.530  1.00  0.00    -0.550 OA
ATOM      4  O   UNL     1      25.399   2.774  62.039  1.00  0.00    -0.550 OA
ENDBRANCH   1   2
BRANCH   1   5
ATOM      5  C   UNL     1      25.495   3.395  64.781  1.00  0.00     0.003 C 
ATOM      6  C   UNL     1      24.154   3.089  65.444  1.00  0.00     0.004 C 
ENDBRANCH   1   5
TORSDOF 2
ENDMDL
MODEL 5
REMARK VINA RESULT:    -3.359      1.049      1.580
REMARK INTER + INTRA:          -3.802
REMARK INTER:                  -3.789
REMARK INTRA:                  -0.013
REMARK UNBOUND:                -0.050
REMARK SMILES CCCC(=O)[O-]
REMARK SMILES IDX 3 1 4 2 5 3 6 4 2 5 1 6
REMARK H PARENT
REMARK Flexibility Score: inf
ROOT
ATOM      1  C   UNL     1      26.051  -2.144  60.143  1.00  0.00     0.052 C 
ENDROOT
BRANCH   1   2
ATOM      2  C   UNL     1      25.121  -3.141  59.529  1.00  0.00     0.041 C 
ATOM      3  O   UNL     1      24.851  -3.085  58.300  1.00  0.00    -0.550 OA
ATOM      4  O   UNL     1      24.511  -4.105  60.323  1.00  0.00    -0.550 OA
ENDBRANCH   1   2
BRANCH   1   5
ATOM      5  C   UNL     1      25.698  -1.920  61.616  1.00  0.00     0.003 C 
ATOM      6  C   UNL     1      25.673  -0.432  61.956  1.00  0.00     0.004 C 
ENDBRANCH   1   5
TORSDOF 2
ENDMDL
MODEL 6
REMARK VINA RESULT:    -3.340      6.412      6.999
REMARK INTER + INTRA:          -3.780
REMARK INTER:                  -3.742
REMARK INTRA:                  -0.038
REMARK UNBOUND:                -0.050
REMARK SMILES CCCC(=O)[O-]
REMARK SMILES IDX 3 1 4 2 5 3 6 4 2 5 1 6
REMARK H PARENT
REMARK Flexibility Score: inf
ROOT
ATOM      1  C   UNL     1      25.819   1.715  63.170  1.00  0.00     0.052 C 
ENDROOT
BRANCH   1   2
ATOM      2  C   UNL     1      26.243   2.189  64.524  1.00  0.00     0.041 C 
ATOM      3  O   UNL     1      27.387   1.904  64.966  1.00  0.00    -0.550 OA
ATOM      4  O   UNL     1      25.356   2.904  65.320  1.00  0.00    -0.550 OA
ENDBRANCH   1   2
BRANCH   1   5
ATOM      5  C   UNL     1      25.430   2.903  62.285  1.00  0.00     0.003 C 
ATOM      6  C   UNL     1      23.933   2.899  61.986  1.00  0.00     0.004 C 
ENDBRANCH   1   5
TORSDOF 2
ENDMDL
MODEL 7
REMARK VINA RESULT:    -3.313      1.531      2.444
REMARK INTER + INTRA:          -3.751
REMARK INTER:                  -3.713
REMARK INTRA:                  -0.038
REMARK UNBOUND:                -0.050
REMARK SMILES CCCC(=O)[O-]
REMARK SMILES IDX 3 1 4 2 5 3 6 4 2 5 1 6
REMARK H PARENT
REMARK Flexibility Score: inf
ROOT
ATOM      1  C   UNL     1      25.786  -1.814  61.141  1.00  0.00     0.052 C 
ENDROOT
BRANCH   1   2
ATOM      2  C   UNL     1      26.237  -2.262  59.787  1.00  0.00     0.041 C 
ATOM      3  O   UNL     1      27.360  -1.905  59.342  1.00  0.00    -0.550 OA
ATOM      4  O   UNL     1      25.397  -3.034  58.994  1.00  0.00    -0.550 OA
ENDBRANCH   1   2
BRANCH   1   5
ATOM      5  C   UNL     1      25.447  -3.022  62.019  1.00  0.00     0.003 C 
ATOM      6  C   UNL     1      23.965  -3.039  62.383  1.00  0.00     0.004 C 
ENDBRANCH   1   5
TORSDOF 2
ENDMDL
MODEL 8
REMARK VINA RESULT:    -3.286      6.361      7.221
REMARK INTER + INTRA:          -3.720
REMARK INTER:                  -3.680
REMARK INTRA:                  -0.040
REMARK UNBOUND:                -0.050
REMARK SMILES CCCC(=O)[O-]
REMARK SMILES IDX 3 1 4 2 5 3 6 4 2 5 1 6
REMARK H PARENT
REMARK Flexibility Score: inf
ROOT
ATOM      1  C   UNL     1      23.382   2.918  62.167  1.00  0.00     0.052 C 
ENDROOT
BRANCH   1   2
ATOM      2  C   UNL     1      23.038   3.531  63.487  1.00  0.00     0.041 C 
ATOM      3  O   UNL     1      21.856   3.493  63.916  1.00  0.00    -0.550 OA
ATOM      4  O   UNL     1      24.016   4.190  64.223  1.00  0.00    -0.550 OA
ENDBRANCH   1   2
BRANCH   1   5
ATOM      5  C   UNL     1      24.901   2.848  61.988  1.00  0.00     0.003 C 
ATOM      6  C   UNL     1      25.439   1.475  62.381  1.00  0.00     0.004 C 
ENDBRANCH   1   5
TORSDOF 2
ENDMDL
MODEL 9
REMARK VINA RESULT:    -3.265      5.610      6.268
REMARK INTER + INTRA:          -3.697
REMARK INTER:                  -3.661
REMARK INTRA:                  -0.036
REMARK UNBOUND:                -0.050
REMARK SMILES CCCC(=O)[O-]
REMARK SMILES IDX 3 1 4 2 5 3 6 4 2 5 1 6
REMARK H PARENT
REMARK Flexibility Score: inf
ROOT
ATOM      1  C   UNL     1      25.451   2.941  62.253  1.00  0.00     0.052 C 
ENDROOT
BRANCH   1   2
ATOM      2  C   UNL     1      24.005   2.880  61.876  1.00  0.00     0.041 C 
ATOM      3  O   UNL     1      23.530   3.697  61.045  1.00  0.00    -0.550 OA
ATOM      4  O   UNL     1      23.167   1.949  62.481  1.00  0.00    -0.550 OA
ENDBRANCH   1   2
BRANCH   1   5
ATOM      5  C   UNL     1      25.838   1.718  63.089  1.00  0.00     0.003 C 
ATOM      6  C   UNL     1      26.334   2.132  64.472  1.00  0.00     0.004 C 
ENDBRANCH   1   5
TORSDOF 2
ENDMDL
