MODEL 1
REMARK VINA RESULT:    -3.391      0.000      0.000
REMARK INTER + INTRA:          -8.449
REMARK INTER:                  -6.167
REMARK INTRA:                  -2.282
REMARK UNBOUND:                -2.282
REMARK SMILES CCCCCCCCCCCCCC[C@H](C)C(=O)[O-]
REMARK SMILES IDX 9 1 10 2 11 3 12 4 13 5 14 6 15 7 16 8 17 9 18 10 19 11 8 12
REMARK SMILES IDX 7 13 6 14 5 15 4 16 3 17 2 18 1 19
REMARK H PARENT
REMARK Flexibility Score: inf
ROOT
ATOM      1  C   UNL     1      89.387  29.980  25.948  1.00  0.00     0.000 C 
ENDROOT
BRANCH   1   2
ATOM      2  C   UNL     1      89.958  28.758  26.695  1.00  0.00     0.000 C 
BRANCH   2   3
ATOM      3  C   UNL     1      89.670  28.727  28.209  1.00  0.00     0.000 C 
BRANCH   3   4
ATOM      4  C   UNL     1      88.964  29.980  28.766  1.00  0.00     0.000 C 
BRANCH   4   5
ATOM      5  C   UNL     1      87.519  29.753  29.243  1.00  0.00     0.001 C 
BRANCH   5   6
ATOM      6  C   UNL     1      86.557  30.865  28.790  1.00  0.00     0.009 C 
BRANCH   6   7
ATOM      7  C   UNL     1      85.438  30.326  27.875  1.00  0.00     0.032 C 
ATOM      8  C   UNL     1      85.041  31.374  26.831  1.00  0.00     0.014 C 
BRANCH   7   9
ATOM      9  C   UNL     1      84.228  29.912  28.672  1.00  0.00     0.044 C 
ATOM     10  O   UNL     1      83.236  30.680  28.777  1.00  0.00    -0.550 OA
ATOM     11  O   UNL     1      84.203  28.671  29.297  1.00  0.00    -0.550 OA
ENDBRANCH   7   9
ENDBRANCH   6   7
ENDBRANCH   5   6
ENDBRANCH   4   5
ENDBRANCH   3   4
ENDBRANCH   2   3
ENDBRANCH   1   2
BRANCH   1  12
ATOM     12  C   UNL     1      88.033  29.740  25.255  1.00  0.00     0.000 C 
BRANCH  12  13
ATOM     13  C   UNL     1      87.796  28.259  24.911  1.00  0.00    -0.000 C 
BRANCH  13  14
ATOM     14  C   UNL     1      86.483  27.716  25.499  1.00  0.00    -0.000 C 
BRANCH  14  15
ATOM     15  C   UNL     1      86.675  27.097  26.894  1.00  0.00    -0.000 C 
BRANCH  15  16
ATOM     16  C   UNL     1      85.574  26.083  27.255  1.00  0.00    -0.000 C 
BRANCH  16  17
ATOM     17  C   UNL     1      85.960  25.051  28.336  1.00  0.00    -0.000 C 
BRANCH  17  18
ATOM     18  C   UNL     1      85.864  23.581  27.896  1.00  0.00    -0.003 C 
ATOM     19  C   UNL     1      85.715  23.420  26.383  1.00  0.00     0.004 C 
ENDBRANCH  17  18
ENDBRANCH  16  17
ENDBRANCH  15  16
ENDBRANCH  14  15
ENDBRANCH  13  14
ENDBRANCH  12  13
ENDBRANCH   1  12
TORSDOF 14
ENDMDL
MODEL 2
REMARK VINA RESULT:    -3.374      1.934      3.518
REMARK INTER + INTRA:          -8.418
REMARK INTER:                  -5.910
REMARK INTRA:                  -2.508
REMARK UNBOUND:                -2.282
REMARK SMILES CCCCCCCCCCCCCC[C@H](C)C(=O)[O-]
REMARK SMILES IDX 9 1 10 2 11 3 12 4 13 5 14 6 15 7 16 8 17 9 18 10 19 11 8 12
REMARK SMILES IDX 7 13 6 14 5 15 4 16 3 17 2 18 1 19
REMARK H PARENT
REMARK Flexibility Score: inf
ROOT
ATOM      1  C   UNL     1      87.302  29.348  25.311  1.00  0.00     0.000 C 
ENDROOT
BRANCH   1   2
ATOM      2  C   UNL     1      87.368  30.879  25.483  1.00  0.00     0.000 C 
BRANCH   2   3
ATOM      3  C   UNL     1      86.554  31.437  26.667  1.00  0.00     0.000 C 
BRANCH   3   4
ATOM      4  C   UNL     1      85.187  30.759  26.897  1.00  0.00     0.000 C 
BRANCH   4   5
ATOM      5  C   UNL     1      84.350  31.359  28.041  1.00  0.00     0.001 C 
BRANCH   5   6
ATOM      6  C   UNL     1      84.797  30.869  29.430  1.00  0.00     0.009 C 
BRANCH   6   7
ATOM      7  C   UNL     1      84.382  31.845  30.550  1.00  0.00     0.032 C 
ATOM      8  C   UNL     1      85.600  32.609  31.081  1.00  0.00     0.014 C 
BRANCH   7   9
ATOM      9  C   UNL     1      83.695  31.125  31.680  1.00  0.00     0.044 C 
ATOM     10  O   UNL     1      83.755  31.572  32.856  1.00  0.00    -0.550 OA
ATOM     11  O   UNL     1      82.987  29.956  31.427  1.00  0.00    -0.550 OA
ENDBRANCH   7   9
ENDBRANCH   6   7
ENDBRANCH   5   6
ENDBRANCH   4   5
ENDBRANCH   3   4
ENDBRANCH   2   3
ENDBRANCH   1   2
BRANCH   1  12
ATOM     12  C   UNL     1      88.668  28.637  25.323  1.00  0.00     0.000 C 
BRANCH  12  13
ATOM     13  C   UNL     1      89.696  29.338  26.228  1.00  0.00    -0.000 C 
BRANCH  13  14
ATOM     14  C   UNL     1      89.686  28.796  27.667  1.00  0.00    -0.000 C 
BRANCH  14  15
ATOM     15  C   UNL     1      89.056  29.783  28.665  1.00  0.00    -0.000 C 
BRANCH  15  16
ATOM     16  C   UNL     1      87.824  29.203  29.383  1.00  0.00    -0.000 C 
BRANCH  16  17
ATOM     17  C   UNL     1      87.499  27.733  29.046  1.00  0.00    -0.000 C 
BRANCH  17  18
ATOM     18  C   UNL     1      86.173  27.515  28.297  1.00  0.00    -0.003 C 
ATOM     19  C   UNL     1      86.242  26.374  27.283  1.00  0.00     0.004 C 
ENDBRANCH  17  18
ENDBRANCH  16  17
ENDBRANCH  15  16
ENDBRANCH  14  15
ENDBRANCH  13  14
ENDBRANCH  12  13
ENDBRANCH   1  12
TORSDOF 14
ENDMDL
MODEL 3
REMARK VINA RESULT:    -3.300      1.745      2.268
REMARK INTER + INTRA:          -8.283
REMARK INTER:                  -6.098
REMARK INTRA:                  -2.184
REMARK UNBOUND:                -2.282
REMARK SMILES CCCCCCCCCCCCCC[C@H](C)C(=O)[O-]
REMARK SMILES IDX 9 1 10 2 11 3 12 4 13 5 14 6 15 7 16 8 17 9 18 10 19 11 8 12
REMARK SMILES IDX 7 13 6 14 5 15 4 16 3 17 2 18 1 19
REMARK H PARENT
REMARK Flexibility Score: inf
ROOT
ATOM      1  C   UNL     1      87.981  28.209  25.796  1.00  0.00     0.000 C 
ENDROOT
BRANCH   1   2
ATOM      2  C   UNL     1      89.024  29.149  26.435  1.00  0.00     0.000 C 
BRANCH   2   3
ATOM      3  C   UNL     1      89.477  28.751  27.854  1.00  0.00     0.000 C 
BRANCH   3   4
ATOM      4  C   UNL     1      89.167  29.786  28.954  1.00  0.00     0.000 C 
BRANCH   4   5
ATOM      5  C   UNL     1      87.984  30.722  28.649  1.00  0.00     0.001 C 
BRANCH   5   6
ATOM      6  C   UNL     1      86.723  30.377  29.461  1.00  0.00     0.009 C 
BRANCH   6   7
ATOM      7  C   UNL     1      85.467  31.082  28.910  1.00  0.00     0.032 C 
ATOM      8  C   UNL     1      85.689  31.527  27.461  1.00  0.00     0.014 C 
BRANCH   7   9
ATOM      9  C   UNL     1      85.085  32.267  29.758  1.00  0.00     0.044 C 
ATOM     10  O   UNL     1      84.145  33.030  29.409  1.00  0.00    -0.550 OA
ATOM     11  O   UNL     1      85.772  32.523  30.938  1.00  0.00    -0.550 OA
ENDBRANCH   7   9
ENDBRANCH   6   7
ENDBRANCH   5   6
ENDBRANCH   4   5
ENDBRANCH   3   4
ENDBRANCH   2   3
ENDBRANCH   1   2
BRANCH   1  12
ATOM     12  C   UNL     1      86.670  28.063  26.590  1.00  0.00     0.000 C 
BRANCH  12  13
ATOM     13  C   UNL     1      86.550  26.699  27.292  1.00  0.00    -0.000 C 
BRANCH  13  14
ATOM     14  C   UNL     1      86.181  26.828  28.779  1.00  0.00    -0.000 C 
BRANCH  14  15
ATOM     15  C   UNL     1      84.679  27.078  28.994  1.00  0.00    -0.000 C 
BRANCH  15  16
ATOM     16  C   UNL     1      83.810  25.863  28.621  1.00  0.00    -0.000 C 
BRANCH  16  17
ATOM     17  C   UNL     1      83.954  24.642  29.554  1.00  0.00    -0.000 C 
BRANCH  17  18
ATOM     18  C   UNL     1      84.265  23.314  28.844  1.00  0.00    -0.003 C 
ATOM     19  C   UNL     1      84.770  23.506  27.415  1.00  0.00     0.004 C 
ENDBRANCH  17  18
ENDBRANCH  16  17
ENDBRANCH  15  16
ENDBRANCH  14  15
ENDBRANCH  13  14
ENDBRANCH  12  13
ENDBRANCH   1  12
TORSDOF 14
ENDMDL
MODEL 4
REMARK VINA RESULT:    -3.272      2.059      4.676
REMARK INTER + INTRA:          -8.231
REMARK INTER:                  -5.601
REMARK INTRA:                  -2.630
REMARK UNBOUND:                -2.282
REMARK SMILES CCCCCCCCCCCCCC[C@H](C)C(=O)[O-]
REMARK SMILES IDX 9 1 10 2 11 3 12 4 13 5 14 6 15 7 16 8 17 9 18 10 19 11 8 12
REMARK SMILES IDX 7 13 6 14 5 15 4 16 3 17 2 18 1 19
REMARK H PARENT
REMARK Flexibility Score: inf
ROOT
ATOM      1  C   UNL     1      88.540  28.501  24.840  1.00  0.00     0.000 C 
ENDROOT
BRANCH   1   2
ATOM      2  C   UNL     1      87.337  29.306  25.372  1.00  0.00     0.000 C 
BRANCH   2   3
ATOM      3  C   UNL     1      86.337  28.497  26.222  1.00  0.00     0.000 C 
BRANCH   3   4
ATOM      4  C   UNL     1      86.618  26.983  26.296  1.00  0.00     0.000 C 
BRANCH   4   5
ATOM      5  C   UNL     1      86.245  26.319  27.633  1.00  0.00     0.001 C 
BRANCH   5   6
ATOM      6  C   UNL     1      85.560  27.289  28.613  1.00  0.00     0.009 C 
BRANCH   6   7
ATOM      7  C   UNL     1      84.035  27.069  28.674  1.00  0.00     0.032 C 
ATOM      8  C   UNL     1      83.448  27.703  29.940  1.00  0.00     0.014 C 
BRANCH   7   9
ATOM      9  C   UNL     1      83.687  25.605  28.624  1.00  0.00     0.044 C 
ATOM     10  O   UNL     1      83.102  25.119  27.620  1.00  0.00    -0.550 OA
ATOM     11  O   UNL     1      84.014  24.780  29.693  1.00  0.00    -0.550 OA
ENDBRANCH   7   9
ENDBRANCH   6   7
ENDBRANCH   5   6
ENDBRANCH   4   5
ENDBRANCH   3   4
ENDBRANCH   2   3
ENDBRANCH   1   2
BRANCH   1  12
ATOM     12  C   UNL     1      89.849  28.698  25.628  1.00  0.00     0.000 C 
BRANCH  12  13
ATOM     13  C   UNL     1      89.661  29.564  26.886  1.00  0.00    -0.000 C 
BRANCH  13  14
ATOM     14  C   UNL     1      89.676  28.737  28.182  1.00  0.00    -0.000 C 
BRANCH  14  15
ATOM     15  C   UNL     1      88.556  29.144  29.154  1.00  0.00    -0.000 C 
BRANCH  15  16
ATOM     16  C   UNL     1      87.987  30.544  28.859  1.00  0.00    -0.000 C 
BRANCH  16  17
ATOM     17  C   UNL     1      86.525  30.766  29.301  1.00  0.00    -0.000 C 
BRANCH  17  18
ATOM     18  C   UNL     1      85.630  31.463  28.263  1.00  0.00    -0.003 C 
ATOM     19  C   UNL     1      84.202  30.921  28.247  1.00  0.00     0.004 C 
ENDBRANCH  17  18
ENDBRANCH  16  17
ENDBRANCH  15  16
ENDBRANCH  14  15
ENDBRANCH  13  14
ENDBRANCH  12  13
ENDBRANCH   1  12
TORSDOF 14
ENDMDL
MODEL 5
REMARK VINA RESULT:    -3.269      2.132      5.645
REMARK INTER + INTRA:          -8.226
REMARK INTER:                  -6.322
REMARK INTRA:                  -1.904
REMARK UNBOUND:                -2.282
REMARK SMILES CCCCCCCCCCCCCC[C@H](C)C(=O)[O-]
REMARK SMILES IDX 9 1 10 2 11 3 12 4 13 5 14 6 15 7 16 8 17 9 18 10 19 11 8 12
REMARK SMILES IDX 7 13 6 14 5 15 4 16 3 17 2 18 1 19
REMARK H PARENT
REMARK Flexibility Score: inf
ROOT
ATOM      1  C   UNL     1      85.380  30.910  27.278  1.00  0.00     0.000 C 
ENDROOT
BRANCH   1   2
ATOM      2  C   UNL     1      84.407  29.716  27.209  1.00  0.00     0.000 C 
BRANCH   2   3
ATOM      3  C   UNL     1      85.078  28.329  27.195  1.00  0.00     0.000 C 
BRANCH   3   4
ATOM      4  C   UNL     1      85.128  27.613  28.561  1.00  0.00     0.000 C 
BRANCH   4   5
ATOM      5  C   UNL     1      86.242  26.561  28.701  1.00  0.00     0.001 C 
BRANCH   5   6
ATOM      6  C   UNL     1      86.087  25.390  27.713  1.00  0.00     0.009 C 
BRANCH   6   7
ATOM      7  C   UNL     1      85.627  24.096  28.415  1.00  0.00     0.032 C 
ATOM      8  C   UNL     1      85.886  22.877  27.524  1.00  0.00     0.014 C 
BRANCH   7   9
ATOM      9  C   UNL     1      84.169  24.161  28.786  1.00  0.00     0.044 C 
ATOM     10  O   UNL     1      83.310  24.543  27.948  1.00  0.00    -0.550 OA
ATOM     11  O   UNL     1      83.763  23.795  30.064  1.00  0.00    -0.550 OA
ENDBRANCH   7   9
ENDBRANCH   6   7
ENDBRANCH   5   6
ENDBRANCH   4   5
ENDBRANCH   3   4
ENDBRANCH   2   3
ENDBRANCH   1   2
BRANCH   1  12
ATOM     12  C   UNL     1      85.581  31.500  28.686  1.00  0.00     0.000 C 
BRANCH  12  13
ATOM     13  C   UNL     1      86.726  30.821  29.456  1.00  0.00    -0.000 C 
BRANCH  13  14
ATOM     14  C   UNL     1      87.993  30.645  28.602  1.00  0.00    -0.000 C 
BRANCH  14  15
ATOM     15  C   UNL     1      88.822  29.420  29.024  1.00  0.00    -0.000 C 
BRANCH  15  16
ATOM     16  C   UNL     1      89.176  28.501  27.841  1.00  0.00    -0.000 C 
BRANCH  16  17
ATOM     17  C   UNL     1      89.005  29.133  26.444  1.00  0.00    -0.000 C 
BRANCH  17  18
ATOM     18  C   UNL     1      90.227  29.006  25.518  1.00  0.00    -0.003 C 
ATOM     19  C   UNL     1      90.528  30.293  24.750  1.00  0.00     0.004 C 
ENDBRANCH  17  18
ENDBRANCH  16  17
ENDBRANCH  15  16
ENDBRANCH  14  15
ENDBRANCH  13  14
ENDBRANCH  12  13
ENDBRANCH   1  12
TORSDOF 14
ENDMDL
MODEL 6
REMARK VINA RESULT:    -3.242      2.067      4.750
REMARK INTER + INTRA:          -8.178
REMARK INTER:                  -5.812
REMARK INTRA:                  -2.366
REMARK UNBOUND:                -2.282
REMARK SMILES CCCCCCCCCCCCCC[C@H](C)C(=O)[O-]
REMARK SMILES IDX 9 1 10 2 11 3 12 4 13 5 14 6 15 7 16 8 17 9 18 10 19 11 8 12
REMARK SMILES IDX 7 13 6 14 5 15 4 16 3 17 2 18 1 19
REMARK H PARENT
REMARK Flexibility Score: inf
ROOT
ATOM      1  C   UNL     1      89.414  28.657  26.014  1.00  0.00     0.000 C 
ENDROOT
BRANCH   1   2
ATOM      2  C   UNL     1      89.602  29.525  27.275  1.00  0.00     0.000 C 
BRANCH   2   3
ATOM      3  C   UNL     1      89.175  28.857  28.596  1.00  0.00     0.000 C 
BRANCH   3   4
ATOM      4  C   UNL     1      87.815  29.324  29.155  1.00  0.00     0.000 C 
BRANCH   4   5
ATOM      5  C   UNL     1      86.634  28.385  28.856  1.00  0.00     0.001 C 
BRANCH   5   6
ATOM      6  C   UNL     1      86.941  26.912  29.184  1.00  0.00     0.009 C 
BRANCH   6   7
ATOM      7  C   UNL     1      86.359  25.949  28.129  1.00  0.00     0.032 C 
ATOM      8  C   UNL     1      85.995  26.708  26.848  1.00  0.00     0.014 C 
BRANCH   7   9
ATOM      9  C   UNL     1      85.151  25.221  28.656  1.00  0.00     0.044 C 
ATOM     10  O   UNL     1      84.137  25.860  29.046  1.00  0.00    -0.550 OA
ATOM     11  O   UNL     1      85.150  23.833  28.712  1.00  0.00    -0.550 OA
ENDBRANCH   7   9
ENDBRANCH   6   7
ENDBRANCH   5   6
ENDBRANCH   4   5
ENDBRANCH   3   4
ENDBRANCH   2   3
ENDBRANCH   1   2
BRANCH   1  12
ATOM     12  C   UNL     1      90.263  29.084  24.803  1.00  0.00     0.000 C 
BRANCH  12  13
ATOM     13  C   UNL     1      90.808  30.517  24.934  1.00  0.00    -0.000 C 
BRANCH  13  14
ATOM     14  C   UNL     1      90.211  31.477  23.892  1.00  0.00    -0.000 C 
BRANCH  14  15
ATOM     15  C   UNL     1      88.924  30.927  23.254  1.00  0.00    -0.000 C 
BRANCH  15  16
ATOM     16  C   UNL     1      87.647  31.444  23.941  1.00  0.00    -0.000 C 
BRANCH  16  17
ATOM     17  C   UNL     1      86.598  30.364  24.277  1.00  0.00    -0.000 C 
BRANCH  17  18
ATOM     18  C   UNL     1      86.122  30.350  25.739  1.00  0.00    -0.003 C 
ATOM     19  C   UNL     1      86.561  31.588  26.520  1.00  0.00     0.004 C 
ENDBRANCH  17  18
ENDBRANCH  16  17
ENDBRANCH  15  16
ENDBRANCH  14  15
ENDBRANCH  13  14
ENDBRANCH  12  13
ENDBRANCH   1  12
TORSDOF 14
ENDMDL
MODEL 7
REMARK VINA RESULT:    -3.177      2.155      5.240
REMARK INTER + INTRA:          -8.058
REMARK INTER:                  -5.678
REMARK INTRA:                  -2.381
REMARK UNBOUND:                -2.282
REMARK SMILES CCCCCCCCCCCCCC[C@H](C)C(=O)[O-]
REMARK SMILES IDX 9 1 10 2 11 3 12 4 13 5 14 6 15 7 16 8 17 9 18 10 19 11 8 12
REMARK SMILES IDX 7 13 6 14 5 15 4 16 3 17 2 18 1 19
REMARK H PARENT
REMARK Flexibility Score: inf
ROOT
ATOM      1  C   UNL     1      86.158  30.825  25.953  1.00  0.00     0.000 C 
ENDROOT
BRANCH   1   2
ATOM      2  C   UNL     1      86.412  29.566  25.099  1.00  0.00     0.000 C 
BRANCH   2   3
ATOM      3  C   UNL     1      86.418  28.239  25.882  1.00  0.00     0.000 C 
BRANCH   3   4
ATOM      4  C   UNL     1      86.218  26.973  25.024  1.00  0.00     0.000 C 
BRANCH   4   5
ATOM      5  C   UNL     1      85.733  25.735  25.798  1.00  0.00     0.001 C 
BRANCH   5   6
ATOM      6  C   UNL     1      86.046  25.809  27.303  1.00  0.00     0.009 C 
BRANCH   6   7
ATOM      7  C   UNL     1      84.765  25.911  28.157  1.00  0.00     0.032 C 
ATOM      8  C   UNL     1      84.839  27.117  29.100  1.00  0.00     0.014 C 
BRANCH   7   9
ATOM      9  C   UNL     1      84.532  24.653  28.951  1.00  0.00     0.044 C 
ATOM     10  O   UNL     1      85.183  23.605  28.697  1.00  0.00    -0.550 OA
ATOM     11  O   UNL     1      83.592  24.645  29.974  1.00  0.00    -0.550 OA
ENDBRANCH   7   9
ENDBRANCH   6   7
ENDBRANCH   5   6
ENDBRANCH   4   5
ENDBRANCH   3   4
ENDBRANCH   2   3
ENDBRANCH   1   2
BRANCH   1  12
ATOM     12  C   UNL     1      85.990  30.562  27.460  1.00  0.00     0.000 C 
BRANCH  12  13
ATOM     13  C   UNL     1      87.298  30.758  28.247  1.00  0.00    -0.000 C 
BRANCH  13  14
ATOM     14  C   UNL     1      87.621  29.569  29.167  1.00  0.00    -0.000 C 
BRANCH  14  15
ATOM     15  C   UNL     1      88.808  28.735  28.657  1.00  0.00    -0.000 C 
BRANCH  15  16
ATOM     16  C   UNL     1      89.563  29.414  27.499  1.00  0.00    -0.000 C 
BRANCH  16  17
ATOM     17  C   UNL     1      90.041  28.465  26.380  1.00  0.00    -0.000 C 
BRANCH  17  18
ATOM     18  C   UNL     1      90.071  29.083  24.972  1.00  0.00    -0.003 C 
ATOM     19  C   UNL     1      90.406  30.574  24.982  1.00  0.00     0.004 C 
ENDBRANCH  17  18
ENDBRANCH  16  17
ENDBRANCH  15  16
ENDBRANCH  14  15
ENDBRANCH  13  14
ENDBRANCH  12  13
ENDBRANCH   1  12
TORSDOF 14
ENDMDL
MODEL 8
REMARK VINA RESULT:    -3.166      2.671      6.034
REMARK INTER + INTRA:          -8.039
REMARK INTER:                  -5.937
REMARK INTRA:                  -2.102
REMARK UNBOUND:                -2.282
REMARK SMILES CCCCCCCCCCCCCC[C@H](C)C(=O)[O-]
REMARK SMILES IDX 9 1 10 2 11 3 12 4 13 5 14 6 15 7 16 8 17 9 18 10 19 11 8 12
REMARK SMILES IDX 7 13 6 14 5 15 4 16 3 17 2 18 1 19
REMARK H PARENT
REMARK Flexibility Score: inf
ROOT
ATOM      1  C   UNL     1      84.518  26.844  26.082  1.00  0.00     0.000 C 
ENDROOT
BRANCH   1   2
ATOM      2  C   UNL     1      84.434  25.413  25.513  1.00  0.00     0.000 C 
BRANCH   2   3
ATOM      3  C   UNL     1      85.749  24.611  25.570  1.00  0.00     0.000 C 
BRANCH   3   4
ATOM      4  C   UNL     1      85.762  23.446  26.581  1.00  0.00     0.000 C 
BRANCH   4   5
ATOM      5  C   UNL     1      85.620  23.865  28.055  1.00  0.00     0.001 C 
BRANCH   5   6
ATOM      6  C   UNL     1      84.423  23.197  28.755  1.00  0.00     0.009 C 
BRANCH   6   7
ATOM      7  C   UNL     1      83.360  24.225  29.193  1.00  0.00     0.032 C 
ATOM      8  C   UNL     1      83.999  25.600  29.417  1.00  0.00     0.014 C 
BRANCH   7   9
ATOM      9  C   UNL     1      82.647  23.780  30.442  1.00  0.00     0.044 C 
ATOM     10  O   UNL     1      83.277  23.634  31.523  1.00  0.00    -0.550 OA
ATOM     11  O   UNL     1      81.281  23.528  30.406  1.00  0.00    -0.550 OA
ENDBRANCH   7   9
ENDBRANCH   6   7
ENDBRANCH   5   6
ENDBRANCH   4   5
ENDBRANCH   3   4
ENDBRANCH   2   3
ENDBRANCH   1   2
BRANCH   1  12
ATOM     12  C   UNL     1      85.945  27.408  26.206  1.00  0.00     0.000 C 
BRANCH  12  13
ATOM     13  C   UNL     1      86.144  28.249  27.479  1.00  0.00    -0.000 C 
BRANCH  13  14
ATOM     14  C   UNL     1      87.129  27.604  28.468  1.00  0.00    -0.000 C 
BRANCH  14  15
ATOM     15  C   UNL     1      87.895  28.647  29.300  1.00  0.00    -0.000 C 
BRANCH  15  16
ATOM     16  C   UNL     1      88.946  29.414  28.477  1.00  0.00    -0.000 C 
BRANCH  16  17
ATOM     17  C   UNL     1      89.855  28.537  27.590  1.00  0.00    -0.000 C 
BRANCH  17  18
ATOM     18  C   UNL     1      89.936  28.968  26.116  1.00  0.00    -0.003 C 
ATOM     19  C   UNL     1      88.914  30.044  25.752  1.00  0.00     0.004 C 
ENDBRANCH  17  18
ENDBRANCH  16  17
ENDBRANCH  15  16
ENDBRANCH  14  15
ENDBRANCH  13  14
ENDBRANCH  12  13
ENDBRANCH   1  12
TORSDOF 14
ENDMDL
MODEL 9
REMARK VINA RESULT:    -3.133      1.841      4.433
REMARK INTER + INTRA:          -7.979
REMARK INTER:                  -5.345
REMARK INTRA:                  -2.633
REMARK UNBOUND:                -2.282
REMARK SMILES CCCCCCCCCCCCCC[C@H](C)C(=O)[O-]
REMARK SMILES IDX 9 1 10 2 11 3 12 4 13 5 14 6 15 7 16 8 17 9 18 10 19 11 8 12
REMARK SMILES IDX 7 13 6 14 5 15 4 16 3 17 2 18 1 19
REMARK H PARENT
REMARK Flexibility Score: inf
ROOT
ATOM      1  C   UNL     1      85.634  27.570  27.041  1.00  0.00     0.000 C 
ENDROOT
BRANCH   1   2
ATOM      2  C   UNL     1      86.118  28.123  25.685  1.00  0.00     0.000 C 
BRANCH   2   3
ATOM      3  C   UNL     1      85.561  29.510  25.311  1.00  0.00     0.000 C 
BRANCH   3   4
ATOM      4  C   UNL     1      86.127  30.686  26.134  1.00  0.00     0.000 C 
BRANCH   4   5
ATOM      5  C   UNL     1      85.167  31.257  27.193  1.00  0.00     0.001 C 
BRANCH   5   6
ATOM      6  C   UNL     1      85.844  31.479  28.557  1.00  0.00     0.009 C 
BRANCH   6   7
ATOM      7  C   UNL     1      84.905  31.142  29.733  1.00  0.00     0.032 C 
ATOM      8  C   UNL     1      84.024  29.935  29.392  1.00  0.00     0.014 C 
BRANCH   7   9
ATOM      9  C   UNL     1      84.041  32.319  30.103  1.00  0.00     0.044 C 
ATOM     10  O   UNL     1      84.560  33.433  30.380  1.00  0.00    -0.550 OA
ATOM     11  O   UNL     1      82.659  32.179  30.138  1.00  0.00    -0.550 OA
ENDBRANCH   7   9
ENDBRANCH   6   7
ENDBRANCH   5   6
ENDBRANCH   4   5
ENDBRANCH   3   4
ENDBRANCH   2   3
ENDBRANCH   1   2
BRANCH   1  12
ATOM     12  C   UNL     1      86.630  26.637  27.752  1.00  0.00     0.000 C 
BRANCH  12  13
ATOM     13  C   UNL     1      86.987  27.118  29.170  1.00  0.00    -0.000 C 
BRANCH  13  14
ATOM     14  C   UNL     1      87.577  28.538  29.184  1.00  0.00    -0.000 C 
BRANCH  14  15
ATOM     15  C   UNL     1      88.955  28.611  28.505  1.00  0.00    -0.000 C 
BRANCH  15  16
ATOM     16  C   UNL     1      89.228  29.976  27.848  1.00  0.00    -0.000 C 
BRANCH  16  17
ATOM     17  C   UNL     1      89.788  29.915  26.412  1.00  0.00    -0.000 C 
BRANCH  17  18
ATOM     18  C   UNL     1      89.806  28.513  25.780  1.00  0.00    -0.003 C 
ATOM     19  C   UNL     1      90.898  28.349  24.723  1.00  0.00     0.004 C 
ENDBRANCH  17  18
ENDBRANCH  16  17
ENDBRANCH  15  16
ENDBRANCH  14  15
ENDBRANCH  13  14
ENDBRANCH  12  13
ENDBRANCH   1  12
TORSDOF 14
ENDMDL
