MODEL 1
REMARK VINA RESULT:    -6.817      0.000      0.000
REMARK INTER + INTRA:          -8.308
REMARK INTER:                  -8.013
REMARK INTRA:                  -0.295
REMARK UNBOUND:                -0.295
REMARK SMILES O=c1cc(-c2ccc(O)c(O)c2)oc2cc(O)cc(O)c12
REMARK SMILES IDX 4 1 3 2 2 3 1 4 21 5 19 6 18 7 16 8 15 9 14 10 13 11 5 12
REMARK SMILES IDX 6 13 7 14 8 15 12 16 10 17 9 18 11 20 20 22 17 24
REMARK H PARENT 9 19 11 21 20 23 17 25
REMARK Flexibility Score: inf
ROOT
ATOM      1  C   UNL     1      20.603 204.541  14.533  1.00  0.00     0.138 A 
ATOM      2  C   UNL     1      21.798 205.160  14.924  1.00  0.00     0.100 A 
ATOM      3  C   UNL     1      22.091 206.446  14.469  1.00  0.00     0.197 A 
ATOM      4  O   UNL     1      23.141 206.999  14.886  1.00  0.00    -0.289 OA
ATOM      5  C   UNL     1      21.195 207.102  13.591  1.00  0.00     0.107 A 
ATOM      6  C   UNL     1      21.409 208.397  13.031  1.00  0.00     0.134 A 
ATOM      7  C   UNL     1      20.398 208.994  12.267  1.00  0.00     0.093 A 
ATOM      8  C   UNL     1      19.207 208.318  11.995  1.00  0.00     0.123 A 
ATOM      9  C   UNL     1      19.011 207.032  12.492  1.00  0.00     0.094 A 
ATOM     10  C   UNL     1      19.985 206.423  13.286  1.00  0.00     0.146 A 
ATOM     11  O   UNL     1      19.754 205.201  13.752  1.00  0.00    -0.456 OA
ENDROOT
BRANCH   1  12
ATOM     12  C   UNL     1      20.242 203.174  14.987  1.00  0.00     0.021 A 
ATOM     13  C   UNL     1      20.467 202.753  16.312  1.00  0.00     0.016 A 
ATOM     14  C   UNL     1      20.126 201.456  16.710  1.00  0.00     0.051 A 
ATOM     15  C   UNL     1      19.566 200.558  15.792  1.00  0.00     0.157 A 
ATOM     16  C   UNL     1      19.692 202.262  14.069  1.00  0.00     0.062 A 
ATOM     17  C   UNL     1      19.350 200.964  14.465  1.00  0.00     0.158 A 
BRANCH  15  18
ATOM     18  O   UNL     1      19.227 199.267  16.193  1.00  0.00    -0.504 OA
ATOM     19  H   UNL     1      19.934 198.557  16.347  1.00  0.00     0.293 HD
ENDBRANCH  15  18
BRANCH  17  20
ATOM     20  O   UNL     1      18.797 200.093  13.527  1.00  0.00    -0.504 OA
ATOM     21  H   UNL     1      17.811 200.107  13.295  1.00  0.00     0.293 HD
ENDBRANCH  17  20
ENDBRANCH   1  12
BRANCH   6  22
ATOM     22  O   UNL     1      22.595 209.124  13.172  1.00  0.00    -0.507 OA
ATOM     23  H   UNL     1      23.250 209.309  12.427  1.00  0.00     0.293 HD
ENDBRANCH   6  22
BRANCH   8  24
ATOM     24  O   UNL     1      18.212 208.915  11.222  1.00  0.00    -0.508 OA
ATOM     25  H   UNL     1      18.372 209.787  10.732  1.00  0.00     0.293 HD
ENDBRANCH   8  24
TORSDOF 5
ENDMDL
MODEL 2
REMARK VINA RESULT:    -6.397      1.164      2.675
REMARK INTER + INTRA:          -7.814
REMARK INTER:                  -7.538
REMARK INTRA:                  -0.276
REMARK UNBOUND:                -0.295
REMARK SMILES O=c1cc(-c2ccc(O)c(O)c2)oc2cc(O)cc(O)c12
REMARK SMILES IDX 4 1 3 2 2 3 1 4 21 5 19 6 18 7 16 8 15 9 14 10 13 11 5 12
REMARK SMILES IDX 6 13 7 14 8 15 12 16 10 17 9 18 11 20 20 22 17 24
REMARK H PARENT 9 19 11 21 20 23 17 25
REMARK Flexibility Score: inf
ROOT
ATOM      1  C   UNL     1      20.178 204.395  14.346  1.00  0.00     0.138 A 
ATOM      2  C   UNL     1      19.227 204.979  13.498  1.00  0.00     0.100 A 
ATOM      3  C   UNL     1      19.445 206.264  12.999  1.00  0.00     0.197 A 
ATOM      4  O   UNL     1      18.604 206.738  12.191  1.00  0.00    -0.289 OA
ATOM      5  C   UNL     1      20.606 206.979  13.379  1.00  0.00     0.107 A 
ATOM      6  C   UNL     1      20.911 208.310  12.965  1.00  0.00     0.134 A 
ATOM      7  C   UNL     1      22.146 208.873  13.310  1.00  0.00     0.093 A 
ATOM      8  C   UNL     1      23.060 208.176  14.103  1.00  0.00     0.123 A 
ATOM      9  C   UNL     1      22.748 206.897  14.556  1.00  0.00     0.094 A 
ATOM     10  C   UNL     1      21.539 206.294  14.201  1.00  0.00     0.146 A 
ATOM     11  O   UNL     1      21.286 205.067  14.643  1.00  0.00    -0.456 OA
ENDROOT
BRANCH   1  12
ATOM     12  C   UNL     1      19.997 203.032  14.906  1.00  0.00     0.021 A 
ATOM     13  C   UNL     1      20.297 202.740  16.251  1.00  0.00     0.016 A 
ATOM     14  C   UNL     1      20.126 201.444  16.748  1.00  0.00     0.051 A 
ATOM     15  C   UNL     1      19.664 200.420  15.913  1.00  0.00     0.157 A 
ATOM     16  C   UNL     1      19.545 201.995  14.071  1.00  0.00     0.062 A 
ATOM     17  C   UNL     1      19.374 200.698  14.567  1.00  0.00     0.158 A 
BRANCH  15  18
ATOM     18  O   UNL     1      19.494 199.130  16.414  1.00  0.00    -0.504 OA
ATOM     19  H   UNL     1      19.187 198.967  17.366  1.00  0.00     0.293 HD
ENDBRANCH  15  18
BRANCH  17  20
ATOM     20  O   UNL     1      18.915 199.699  13.709  1.00  0.00    -0.504 OA
ATOM     21  H   UNL     1      18.113 199.122  13.935  1.00  0.00     0.293 HD
ENDBRANCH  17  20
ENDBRANCH   1  12
BRANCH   6  22
ATOM     22  O   UNL     1      20.035 209.125  12.242  1.00  0.00    -0.507 OA
ATOM     23  H   UNL     1      19.038 209.176  12.392  1.00  0.00     0.293 HD
ENDBRANCH   6  22
BRANCH   8  24
ATOM     24  O   UNL     1      24.281 208.750  14.453  1.00  0.00    -0.508 OA
ATOM     25  H   UNL     1      24.905 208.306  15.115  1.00  0.00     0.293 HD
ENDBRANCH   8  24
TORSDOF 5
ENDMDL
MODEL 3
REMARK VINA RESULT:    -6.384      2.372      3.056
REMARK INTER + INTRA:          -7.799
REMARK INTER:                  -7.521
REMARK INTRA:                  -0.278
REMARK UNBOUND:                -0.295
REMARK SMILES O=c1cc(-c2ccc(O)c(O)c2)oc2cc(O)cc(O)c12
REMARK SMILES IDX 4 1 3 2 2 3 1 4 21 5 19 6 18 7 16 8 15 9 14 10 13 11 5 12
REMARK SMILES IDX 6 13 7 14 8 15 12 16 10 17 9 18 11 20 20 22 17 24
REMARK H PARENT 9 19 11 21 20 23 17 25
REMARK Flexibility Score: inf
ROOT
ATOM      1  C   UNL     1      21.141 204.336  15.210  1.00  0.00     0.138 A 
ATOM      2  C   UNL     1      21.899 204.806  14.129  1.00  0.00     0.100 A 
ATOM      3  C   UNL     1      22.407 206.106  14.157  1.00  0.00     0.197 A 
ATOM      4  O   UNL     1      23.136 206.478  13.200  1.00  0.00    -0.289 OA
ATOM      5  C   UNL     1      22.126 206.948  15.259  1.00  0.00     0.107 A 
ATOM      6  C   UNL     1      22.557 208.303  15.376  1.00  0.00     0.134 A 
ATOM      7  C   UNL     1      22.318 209.003  16.565  1.00  0.00     0.093 A 
ATOM      8  C   UNL     1      21.611 208.415  17.617  1.00  0.00     0.123 A 
ATOM      9  C   UNL     1      21.141 207.111  17.491  1.00  0.00     0.094 A 
ATOM     10  C   UNL     1      21.392 206.375  16.331  1.00  0.00     0.146 A 
ATOM     11  O   UNL     1      20.938 205.129  16.257  1.00  0.00    -0.456 OA
ENDROOT
BRANCH   1  12
ATOM     12  C   UNL     1      20.576 202.962  15.233  1.00  0.00     0.021 A 
ATOM     13  C   UNL     1      20.622 202.164  16.392  1.00  0.00     0.016 A 
ATOM     14  C   UNL     1      20.091 200.871  16.383  1.00  0.00     0.051 A 
ATOM     15  C   UNL     1      19.515 200.351  15.217  1.00  0.00     0.157 A 
ATOM     16  C   UNL     1      20.008 202.428  14.063  1.00  0.00     0.062 A 
ATOM     17  C   UNL     1      19.475 201.134  14.052  1.00  0.00     0.158 A 
BRANCH  15  18
ATOM     18  O   UNL     1      18.985 199.061  15.212  1.00  0.00    -0.504 OA
ATOM     19  H   UNL     1      18.149 198.834  14.686  1.00  0.00     0.293 HD
ENDBRANCH  15  18
BRANCH  17  20
ATOM     20  O   UNL     1      18.911 200.644  12.874  1.00  0.00    -0.504 OA
ATOM     21  H   UNL     1      19.266 199.815  12.412  1.00  0.00     0.293 HD
ENDBRANCH  17  20
ENDBRANCH   1  12
BRANCH   6  22
ATOM     22  O   UNL     1      23.196 209.012  14.353  1.00  0.00    -0.507 OA
ATOM     23  H   UNL     1      23.370 208.655  13.426  1.00  0.00     0.293 HD
ENDBRANCH   6  22
BRANCH   8  24
ATOM     24  O   UNL     1      21.366 209.125  18.791  1.00  0.00    -0.508 OA
ATOM     25  H   UNL     1      21.169 208.652  19.665  1.00  0.00     0.293 HD
ENDBRANCH   8  24
TORSDOF 5
ENDMDL
MODEL 4
REMARK VINA RESULT:    -6.038      2.382      2.725
REMARK INTER + INTRA:          -7.392
REMARK INTER:                  -7.109
REMARK INTRA:                  -0.283
REMARK UNBOUND:                -0.295
REMARK SMILES O=c1cc(-c2ccc(O)c(O)c2)oc2cc(O)cc(O)c12
REMARK SMILES IDX 4 1 3 2 2 3 1 4 21 5 19 6 18 7 16 8 15 9 14 10 13 11 5 12
REMARK SMILES IDX 6 13 7 14 8 15 12 16 10 17 9 18 11 20 20 22 17 24
REMARK H PARENT 9 19 11 21 20 23 17 25
REMARK Flexibility Score: inf
ROOT
ATOM      1  C   UNL     1      20.715 204.219  15.491  1.00  0.00     0.138 A 
ATOM      2  C   UNL     1      20.219 205.031  16.520  1.00  0.00     0.100 A 
ATOM      3  C   UNL     1      20.629 206.363  16.606  1.00  0.00     0.197 A 
ATOM      4  O   UNL     1      20.119 207.084  17.502  1.00  0.00    -0.289 OA
ATOM      5  C   UNL     1      21.566 206.871  15.675  1.00  0.00     0.107 A 
ATOM      6  C   UNL     1      22.086 208.200  15.691  1.00  0.00     0.134 A 
ATOM      7  C   UNL     1      22.921 208.627  14.650  1.00  0.00     0.093 A 
ATOM      8  C   UNL     1      23.300 207.755  13.627  1.00  0.00     0.123 A 
ATOM      9  C   UNL     1      22.839 206.440  13.632  1.00  0.00     0.094 A 
ATOM     10  C   UNL     1      21.979 205.994  14.638  1.00  0.00     0.146 A 
ATOM     11  O   UNL     1      21.552 204.737  14.598  1.00  0.00    -0.456 OA
ENDROOT
BRANCH   1  12
ATOM     12  C   UNL     1      20.313 202.796  15.353  1.00  0.00     0.021 A 
ATOM     13  C   UNL     1      20.498 201.871  16.399  1.00  0.00     0.016 A 
ATOM     14  C   UNL     1      20.119 200.535  16.237  1.00  0.00     0.051 A 
ATOM     15  C   UNL     1      19.559 200.099  15.030  1.00  0.00     0.157 A 
ATOM     16  C   UNL     1      19.763 202.347  14.139  1.00  0.00     0.062 A 
ATOM     17  C   UNL     1      19.383 201.010  13.976  1.00  0.00     0.158 A 
BRANCH  15  18
ATOM     18  O   UNL     1      19.182 198.766  14.873  1.00  0.00    -0.504 OA
ATOM     19  H   UNL     1      19.537 198.200  14.110  1.00  0.00     0.293 HD
ENDBRANCH  15  18
BRANCH  17  20
ATOM     20  O   UNL     1      18.831 200.606  12.760  1.00  0.00    -0.504 OA
ATOM     21  H   UNL     1      19.148 200.982  11.874  1.00  0.00     0.293 HD
ENDBRANCH  17  20
ENDBRANCH   1  12
BRANCH   6  22
ATOM     22  O   UNL     1      21.839 209.125  16.710  1.00  0.00    -0.507 OA
ATOM     23  H   UNL     1      20.971 209.624  16.838  1.00  0.00     0.293 HD
ENDBRANCH   6  22
BRANCH   8  24
ATOM     24  O   UNL     1      24.141 208.184  12.602  1.00  0.00    -0.508 OA
ATOM     25  H   UNL     1      24.532 207.536  11.930  1.00  0.00     0.293 HD
ENDBRANCH   8  24
TORSDOF 5
ENDMDL
MODEL 5
REMARK VINA RESULT:    -5.585      2.453      3.298
REMARK INTER + INTRA:          -6.860
REMARK INTER:                  -6.596
REMARK INTRA:                  -0.264
REMARK UNBOUND:                -0.295
REMARK SMILES O=c1cc(-c2ccc(O)c(O)c2)oc2cc(O)cc(O)c12
REMARK SMILES IDX 4 1 3 2 2 3 1 4 21 5 19 6 18 7 16 8 15 9 14 10 13 11 5 12
REMARK SMILES IDX 6 13 7 14 8 15 12 16 10 17 9 18 11 20 20 22 17 24
REMARK H PARENT 9 19 11 21 20 23 17 25
REMARK Flexibility Score: inf
ROOT
ATOM      1  C   UNL     1      20.729 204.628  15.231  1.00  0.00     0.138 A 
ATOM      2  C   UNL     1      20.209 205.277  16.359  1.00  0.00     0.100 A 
ATOM      3  C   UNL     1      20.700 206.533  16.720  1.00  0.00     0.197 A 
ATOM      4  O   UNL     1      20.170 207.118  17.701  1.00  0.00    -0.289 OA
ATOM      5  C   UNL     1      21.741 207.124  15.966  1.00  0.00     0.107 A 
ATOM      6  C   UNL     1      22.347 208.381  16.265  1.00  0.00     0.134 A 
ATOM      7  C   UNL     1      23.289 208.920  15.380  1.00  0.00     0.093 A 
ATOM      8  C   UNL     1      23.688 208.221  14.239  1.00  0.00     0.123 A 
ATOM      9  C   UNL     1      23.141 206.970  13.966  1.00  0.00     0.094 A 
ATOM     10  C   UNL     1      22.175 206.420  14.812  1.00  0.00     0.146 A 
ATOM     11  O   UNL     1      21.668 205.230  14.509  1.00  0.00    -0.456 OA
ENDROOT
BRANCH   1  12
ATOM     12  C   UNL     1      20.243 203.292  14.802  1.00  0.00     0.021 A 
ATOM     13  C   UNL     1      19.430 203.132  13.664  1.00  0.00     0.016 A 
ATOM     14  C   UNL     1      18.979 201.863  13.289  1.00  0.00     0.051 A 
ATOM     15  C   UNL     1      19.324 200.737  14.046  1.00  0.00     0.157 A 
ATOM     16  C   UNL     1      20.574 202.157  15.564  1.00  0.00     0.062 A 
ATOM     17  C   UNL     1      20.124 200.886  15.190  1.00  0.00     0.158 A 
BRANCH  15  18
ATOM     18  O   UNL     1      18.873 199.473  13.667  1.00  0.00    -0.504 OA
ATOM     19  H   UNL     1      18.481 198.826  14.343  1.00  0.00     0.293 HD
ENDBRANCH  15  18
BRANCH  17  20
ATOM     20  O   UNL     1      20.482 199.785  15.967  1.00  0.00    -0.504 OA
ATOM     21  H   UNL     1      19.914 199.465  16.742  1.00  0.00     0.293 HD
ENDBRANCH  17  20
ENDBRANCH   1  12
BRANCH   6  22
ATOM     22  O   UNL     1      22.083 209.122  17.421  1.00  0.00    -0.507 OA
ATOM     23  H   UNL     1      22.738 209.744  17.870  1.00  0.00     0.293 HD
ENDBRANCH   6  22
BRANCH   8  24
ATOM     24  O   UNL     1      24.637 208.760  13.371  1.00  0.00    -0.508 OA
ATOM     25  H   UNL     1      24.377 209.409  12.638  1.00  0.00     0.293 HD
ENDBRANCH   8  24
TORSDOF 5
ENDMDL
MODEL 6
REMARK VINA RESULT:    -5.299      1.793      6.618
REMARK INTER + INTRA:          -6.524
REMARK INTER:                  -6.207
REMARK INTRA:                  -0.317
REMARK UNBOUND:                -0.295
REMARK SMILES O=c1cc(-c2ccc(O)c(O)c2)oc2cc(O)cc(O)c12
REMARK SMILES IDX 4 1 3 2 2 3 1 4 21 5 19 6 18 7 16 8 15 9 14 10 13 11 5 12
REMARK SMILES IDX 6 13 7 14 8 15 12 16 10 17 9 18 11 20 20 22 17 24
REMARK H PARENT 9 19 11 21 20 23 17 25
REMARK Flexibility Score: inf
ROOT
ATOM      1  C   UNL     1      19.725 205.181  13.922  1.00  0.00     0.138 A 
ATOM      2  C   UNL     1      20.559 205.574  14.978  1.00  0.00     0.100 A 
ATOM      3  C   UNL     1      20.975 204.630  15.918  1.00  0.00     0.197 A 
ATOM      4  O   UNL     1      21.773 205.000  16.818  1.00  0.00    -0.289 OA
ATOM      5  C   UNL     1      20.526 203.292  15.816  1.00  0.00     0.107 A 
ATOM      6  C   UNL     1      20.852 202.254  16.739  1.00  0.00     0.134 A 
ATOM      7  C   UNL     1      20.444 200.941  16.473  1.00  0.00     0.093 A 
ATOM      8  C   UNL     1      19.672 200.640  15.348  1.00  0.00     0.123 A 
ATOM      9  C   UNL     1      19.304 201.656  14.470  1.00  0.00     0.094 A 
ATOM     10  C   UNL     1      19.723 202.970  14.690  1.00  0.00     0.146 A 
ATOM     11  O   UNL     1      19.362 203.907  13.820  1.00  0.00    -0.456 OA
ENDROOT
BRANCH   1  12
ATOM     12  C   UNL     1      19.252 206.144  12.895  1.00  0.00     0.021 A 
ATOM     13  C   UNL     1      19.765 207.454  12.819  1.00  0.00     0.016 A 
ATOM     14  C   UNL     1      19.294 208.342  11.848  1.00  0.00     0.051 A 
ATOM     15  C   UNL     1      18.301 207.944  10.945  1.00  0.00     0.157 A 
ATOM     16  C   UNL     1      18.246 205.756  11.993  1.00  0.00     0.062 A 
ATOM     17  C   UNL     1      17.774 206.644  11.020  1.00  0.00     0.158 A 
BRANCH  15  18
ATOM     18  O   UNL     1      17.835 208.833   9.977  1.00  0.00    -0.504 OA
ATOM     19  H   UNL     1      16.875 208.806   9.652  1.00  0.00     0.293 HD
ENDBRANCH  15  18
BRANCH  17  20
ATOM     20  O   UNL     1      16.782 206.217  10.138  1.00  0.00    -0.504 OA
ATOM     21  H   UNL     1      16.961 206.087   9.149  1.00  0.00     0.293 HD
ENDBRANCH  17  20
ENDBRANCH   1  12
BRANCH   6  22
ATOM     22  O   UNL     1      21.545 202.461  17.936  1.00  0.00    -0.507 OA
ATOM     23  H   UNL     1      22.542 202.600  18.008  1.00  0.00     0.293 HD
ENDBRANCH   6  22
BRANCH   8  24
ATOM     24  O   UNL     1      19.259 199.332  15.099  1.00  0.00    -0.508 OA
ATOM     25  H   UNL     1      18.587 199.118  14.373  1.00  0.00     0.293 HD
ENDBRANCH   8  24
TORSDOF 5
ENDMDL
MODEL 7
REMARK VINA RESULT:    -4.986      2.601      7.080
REMARK INTER + INTRA:          -6.156
REMARK INTER:                  -5.893
REMARK INTRA:                  -0.263
REMARK UNBOUND:                -0.295
REMARK SMILES O=c1cc(-c2ccc(O)c(O)c2)oc2cc(O)cc(O)c12
REMARK SMILES IDX 4 1 3 2 2 3 1 4 21 5 19 6 18 7 16 8 15 9 14 10 13 11 5 12
REMARK SMILES IDX 6 13 7 14 8 15 12 16 10 17 9 18 11 20 20 22 17 24
REMARK H PARENT 9 19 11 21 20 23 17 25
REMARK Flexibility Score: inf
ROOT
ATOM      1  C   UNL     1      20.158 204.316  15.272  1.00  0.00     0.138 A 
ATOM      2  C   UNL     1      19.577 204.335  13.996  1.00  0.00     0.100 A 
ATOM      3  C   UNL     1      19.218 203.133  13.384  1.00  0.00     0.197 A 
ATOM      4  O   UNL     1      18.642 203.185  12.266  1.00  0.00    -0.289 OA
ATOM      5  C   UNL     1      19.472 201.906  14.042  1.00  0.00     0.107 A 
ATOM      6  C   UNL     1      19.186 200.618  13.496  1.00  0.00     0.134 A 
ATOM      7  C   UNL     1      19.374 199.477  14.287  1.00  0.00     0.093 A 
ATOM      8  C   UNL     1      19.894 199.574  15.580  1.00  0.00     0.123 A 
ATOM      9  C   UNL     1      20.226 200.822  16.101  1.00  0.00     0.094 A 
ATOM     10  C   UNL     1      20.018 201.981  15.350  1.00  0.00     0.146 A 
ATOM     11  O   UNL     1      20.336 203.153  15.890  1.00  0.00    -0.456 OA
ENDROOT
BRANCH   1  12
ATOM     12  C   UNL     1      20.559 205.565  15.969  1.00  0.00     0.021 A 
ATOM     13  C   UNL     1      19.705 206.207  16.885  1.00  0.00     0.016 A 
ATOM     14  C   UNL     1      20.105 207.387  17.519  1.00  0.00     0.051 A 
ATOM     15  C   UNL     1      21.358 207.949  17.244  1.00  0.00     0.157 A 
ATOM     16  C   UNL     1      21.810 206.143  15.688  1.00  0.00     0.062 A 
ATOM     17  C   UNL     1      22.213 207.323  16.322  1.00  0.00     0.158 A 
BRANCH  15  18
ATOM     18  O   UNL     1      21.754 209.125  17.879  1.00  0.00    -0.504 OA
ATOM     19  H   UNL     1      22.031 209.133  18.854  1.00  0.00     0.293 HD
ENDBRANCH  15  18
BRANCH  17  20
ATOM     20  O   UNL     1      23.465 207.859  16.023  1.00  0.00    -0.504 OA
ATOM     21  H   UNL     1      23.572 208.708  15.480  1.00  0.00     0.293 HD
ENDBRANCH  17  20
ENDBRANCH   1  12
BRANCH   6  22
ATOM     22  O   UNL     1      18.744 200.404  12.187  1.00  0.00    -0.507 OA
ATOM     23  H   UNL     1      17.950 200.860  11.765  1.00  0.00     0.293 HD
ENDBRANCH   6  22
BRANCH   8  24
ATOM     24  O   UNL     1      20.090 198.431  16.353  1.00  0.00    -0.508 OA
ATOM     25  H   UNL     1      19.368 198.076  16.968  1.00  0.00     0.293 HD
ENDBRANCH   8  24
TORSDOF 5
ENDMDL
