MODEL 1
REMARK VINA RESULT:    -3.569      0.000      0.000
REMARK INTER + INTRA:          -5.042
REMARK INTER:                  -4.821
REMARK INTRA:                  -0.220
REMARK UNBOUND:                -0.220
REMARK SMILES CCCCCCCC(=O)[O-]
REMARK SMILES IDX 5 1 6 2 7 3 8 4 9 5 10 6 4 7 3 8 2 9 1 10
REMARK H PARENT
REMARK Flexibility Score: inf
ROOT
ATOM      1  C   UNL     1      56.778  28.427  50.980  1.00  0.00     0.000 C 
ENDROOT
BRANCH   1   2
ATOM      2  C   UNL     1      57.990  29.363  50.853  1.00  0.00     0.006 C 
BRANCH   2   3
ATOM      3  C   UNL     1      58.735  29.188  49.524  1.00  0.00     0.053 C 
BRANCH   3   4
ATOM      4  C   UNL     1      59.788  28.131  49.651  1.00  0.00     0.041 C 
ATOM      5  O   UNL     1      60.995  28.457  49.807  1.00  0.00    -0.550 OA
ATOM      6  O   UNL     1      59.432  26.789  49.648  1.00  0.00    -0.550 OA
ENDBRANCH   3   4
ENDBRANCH   2   3
ENDBRANCH   1   2
BRANCH   1   7
ATOM      7  C   UNL     1      55.440  29.162  50.802  1.00  0.00     0.000 C 
BRANCH   7   8
ATOM      8  C   UNL     1      54.323  28.181  50.419  1.00  0.00    -0.000 C 
BRANCH   8   9
ATOM      9  C   UNL     1      54.834  26.741  50.249  1.00  0.00    -0.003 C 
ATOM     10  C   UNL     1      53.803  25.820  49.596  1.00  0.00     0.004 C 
ENDBRANCH   8   9
ENDBRANCH   7   8
ENDBRANCH   1   7
TORSDOF 6
ENDMDL
MODEL 2
REMARK VINA RESULT:    -3.386      0.994      1.519
REMARK INTER + INTRA:          -4.794
REMARK INTER:                  -4.548
REMARK INTRA:                  -0.246
REMARK UNBOUND:                -0.220
REMARK SMILES CCCCCCCC(=O)[O-]
REMARK SMILES IDX 5 1 6 2 7 3 8 4 9 5 10 6 4 7 3 8 2 9 1 10
REMARK H PARENT
REMARK Flexibility Score: inf
ROOT
ATOM      1  C   UNL     1      57.796  29.564  50.705  1.00  0.00     0.000 C 
ENDROOT
BRANCH   1   2
ATOM      2  C   UNL     1      58.804  29.451  49.550  1.00  0.00     0.006 C 
BRANCH   2   3
ATOM      3  C   UNL     1      59.542  28.106  49.539  1.00  0.00     0.053 C 
BRANCH   3   4
ATOM      4  C   UNL     1      60.972  28.292  49.940  1.00  0.00     0.041 C 
ATOM      5  O   UNL     1      61.394  29.432  50.268  1.00  0.00    -0.550 OA
ATOM      6  O   UNL     1      61.825  27.198  49.999  1.00  0.00    -0.550 OA
ENDBRANCH   3   4
ENDBRANCH   2   3
ENDBRANCH   1   2
BRANCH   1   7
ATOM      7  C   UNL     1      56.773  28.418  50.712  1.00  0.00     0.000 C 
BRANCH   7   8
ATOM      8  C   UNL     1      55.338  28.966  50.693  1.00  0.00    -0.000 C 
BRANCH   8   9
ATOM      9  C   UNL     1      54.291  27.869  50.439  1.00  0.00    -0.003 C 
ATOM     10  C   UNL     1      54.919  26.519  50.096  1.00  0.00     0.004 C 
ENDBRANCH   8   9
ENDBRANCH   7   8
ENDBRANCH   1   7
TORSDOF 6
ENDMDL
MODEL 3
REMARK VINA RESULT:    -3.328      3.246      5.040
REMARK INTER + INTRA:          -4.716
REMARK INTER:                  -4.387
REMARK INTRA:                  -0.330
REMARK UNBOUND:                -0.220
REMARK SMILES CCCCCCCC(=O)[O-]
REMARK SMILES IDX 5 1 6 2 7 3 8 4 9 5 10 6 4 7 3 8 2 9 1 10
REMARK H PARENT
REMARK Flexibility Score: inf
ROOT
ATOM      1  C   UNL     1      55.676  29.157  50.950  1.00  0.00     0.000 C 
ENDROOT
BRANCH   1   2
ATOM      2  C   UNL     1      54.498  28.294  50.472  1.00  0.00     0.006 C 
BRANCH   2   3
ATOM      3  C   UNL     1      54.909  26.848  50.167  1.00  0.00     0.053 C 
BRANCH   3   4
ATOM      4  C   UNL     1      53.984  25.888  50.847  1.00  0.00     0.041 C 
ATOM      5  O   UNL     1      53.782  25.975  52.088  1.00  0.00    -0.550 OA
ATOM      6  O   UNL     1      53.307  24.929  50.105  1.00  0.00    -0.550 OA
ENDBRANCH   3   4
ENDBRANCH   2   3
ENDBRANCH   1   2
BRANCH   1   7
ATOM      7  C   UNL     1      57.032  28.455  50.778  1.00  0.00     0.000 C 
BRANCH   7   8
ATOM      8  C   UNL     1      58.069  29.409  50.167  1.00  0.00    -0.000 C 
BRANCH   8   9
ATOM      9  C   UNL     1      59.266  28.665  49.552  1.00  0.00    -0.003 C 
ATOM     10  C   UNL     1      59.214  27.157  49.796  1.00  0.00     0.004 C 
ENDBRANCH   8   9
ENDBRANCH   7   8
ENDBRANCH   1   7
TORSDOF 6
ENDMDL
MODEL 4
REMARK VINA RESULT:    -3.327      0.997      1.197
REMARK INTER + INTRA:          -4.714
REMARK INTER:                  -4.483
REMARK INTRA:                  -0.231
REMARK UNBOUND:                -0.220
REMARK SMILES CCCCCCCC(=O)[O-]
REMARK SMILES IDX 5 1 6 2 7 3 8 4 9 5 10 6 4 7 3 8 2 9 1 10
REMARK H PARENT
REMARK Flexibility Score: inf
ROOT
ATOM      1  C   UNL     1      56.078  29.226  50.938  1.00  0.00     0.000 C 
ENDROOT
BRANCH   1   2
ATOM      2  C   UNL     1      57.549  29.081  50.516  1.00  0.00     0.006 C 
BRANCH   2   3
ATOM      3  C   UNL     1      58.099  27.671  50.766  1.00  0.00     0.053 C 
BRANCH   3   4
ATOM      4  C   UNL     1      59.318  27.431  49.932  1.00  0.00     0.041 C 
ATOM      5  O   UNL     1      59.813  28.368  49.250  1.00  0.00    -0.550 OA
ATOM      6  O   UNL     1      59.938  26.189  49.946  1.00  0.00    -0.550 OA
ENDBRANCH   3   4
ENDBRANCH   2   3
ENDBRANCH   1   2
BRANCH   1   7
ATOM      7  C   UNL     1      55.266  27.943  50.705  1.00  0.00     0.000 C 
BRANCH   7   8
ATOM      8  C   UNL     1      53.819  28.274  50.309  1.00  0.00    -0.000 C 
BRANCH   8   9
ATOM      9  C   UNL     1      52.993  27.018  49.989  1.00  0.00    -0.003 C 
ATOM     10  C   UNL     1      53.861  25.814  49.625  1.00  0.00     0.004 C 
ENDBRANCH   8   9
ENDBRANCH   7   8
ENDBRANCH   1   7
TORSDOF 6
ENDMDL
MODEL 5
REMARK VINA RESULT:    -3.303      3.295      5.152
REMARK INTER + INTRA:          -4.682
REMARK INTER:                  -4.261
REMARK INTRA:                  -0.421
REMARK UNBOUND:                -0.220
REMARK SMILES CCCCCCCC(=O)[O-]
REMARK SMILES IDX 5 1 6 2 7 3 8 4 9 5 10 6 4 7 3 8 2 9 1 10
REMARK H PARENT
REMARK Flexibility Score: inf
ROOT
ATOM      1  C   UNL     1      57.062  26.390  51.202  1.00  0.00     0.000 C 
ENDROOT
BRANCH   1   2
ATOM      2  C   UNL     1      55.813  26.856  50.437  1.00  0.00     0.006 C 
BRANCH   2   3
ATOM      3  C   UNL     1      55.458  28.321  50.723  1.00  0.00     0.053 C 
BRANCH   3   4
ATOM      4  C   UNL     1      54.028  28.589  50.372  1.00  0.00     0.041 C 
ATOM      5  O   UNL     1      53.584  29.769  50.384  1.00  0.00    -0.550 OA
ATOM      6  O   UNL     1      53.198  27.546  49.984  1.00  0.00    -0.550 OA
ENDBRANCH   3   4
ENDBRANCH   2   3
ENDBRANCH   1   2
BRANCH   1   7
ATOM      7  C   UNL     1      58.300  26.272  50.299  1.00  0.00     0.000 C 
BRANCH   7   8
ATOM      8  C   UNL     1      59.329  27.361  50.635  1.00  0.00    -0.000 C 
BRANCH   8   9
ATOM      9  C   UNL     1      59.543  28.349  49.477  1.00  0.00    -0.003 C 
ATOM     10  C   UNL     1      58.721  29.628  49.631  1.00  0.00     0.004 C 
ENDBRANCH   8   9
ENDBRANCH   7   8
ENDBRANCH   1   7
TORSDOF 6
ENDMDL
MODEL 6
REMARK VINA RESULT:    -3.252      1.441      2.534
REMARK INTER + INTRA:          -4.613
REMARK INTER:                  -4.300
REMARK INTRA:                  -0.313
REMARK UNBOUND:                -0.220
REMARK SMILES CCCCCCCC(=O)[O-]
REMARK SMILES IDX 5 1 6 2 7 3 8 4 9 5 10 6 4 7 3 8 2 9 1 10
REMARK H PARENT
REMARK Flexibility Score: inf
ROOT
ATOM      1  C   UNL     1      55.652  26.399  51.057  1.00  0.00     0.000 C 
ENDROOT
BRANCH   1   2
ATOM      2  C   UNL     1      57.081  26.728  50.597  1.00  0.00     0.006 C 
BRANCH   2   3
ATOM      3  C   UNL     1      57.412  28.221  50.721  1.00  0.00     0.053 C 
BRANCH   3   4
ATOM      4  C   UNL     1      58.592  28.566  49.867  1.00  0.00     0.041 C 
ATOM      5  O   UNL     1      59.442  27.683  49.576  1.00  0.00    -0.550 OA
ATOM      6  O   UNL     1      58.727  29.848  49.352  1.00  0.00    -0.550 OA
ENDBRANCH   3   4
ENDBRANCH   2   3
ENDBRANCH   1   2
BRANCH   1   7
ATOM      7  C   UNL     1      54.666  26.274  49.885  1.00  0.00     0.000 C 
BRANCH   7   8
ATOM      8  C   UNL     1      53.429  27.155  50.113  1.00  0.00    -0.000 C 
BRANCH   8   9
ATOM      9  C   UNL     1      53.767  28.473  50.828  1.00  0.00    -0.003 C 
ATOM     10  C   UNL     1      52.875  29.632  50.387  1.00  0.00     0.004 C 
ENDBRANCH   8   9
ENDBRANCH   7   8
ENDBRANCH   1   7
TORSDOF 6
ENDMDL
MODEL 7
REMARK VINA RESULT:    -3.078     12.506     14.189
REMARK INTER + INTRA:          -4.378
REMARK INTER:                  -4.164
REMARK INTRA:                  -0.214
REMARK UNBOUND:                -0.220
REMARK SMILES CCCCCCCC(=O)[O-]
REMARK SMILES IDX 5 1 6 2 7 3 8 4 9 5 10 6 4 7 3 8 2 9 1 10
REMARK H PARENT
REMARK Flexibility Score: inf
ROOT
ATOM      1  C   UNL     1      63.698  34.085  60.788  1.00  0.00     0.000 C 
ENDROOT
BRANCH   1   2
ATOM      2  C   UNL     1      63.560  32.774  59.999  1.00  0.00     0.006 C 
BRANCH   2   3
ATOM      3  C   UNL     1      63.736  31.532  60.882  1.00  0.00     0.053 C 
BRANCH   3   4
ATOM      4  C   UNL     1      64.114  30.347  60.048  1.00  0.00     0.041 C 
ATOM      5  O   UNL     1      63.351  29.346  59.992  1.00  0.00    -0.550 OA
ATOM      6  O   UNL     1      65.280  30.369  59.295  1.00  0.00    -0.550 OA
ENDBRANCH   3   4
ENDBRANCH   2   3
ENDBRANCH   1   2
BRANCH   1   7
ATOM      7  C   UNL     1      62.502  35.028  60.583  1.00  0.00     0.000 C 
BRANCH   7   8
ATOM      8  C   UNL     1      62.373  36.013  61.754  1.00  0.00    -0.000 C 
BRANCH   8   9
ATOM      9  C   UNL     1      63.606  36.001  62.673  1.00  0.00    -0.003 C 
ATOM     10  C   UNL     1      63.370  36.738  63.990  1.00  0.00     0.004 C 
ENDBRANCH   8   9
ENDBRANCH   7   8
ENDBRANCH   1   7
TORSDOF 6
ENDMDL
MODEL 8
REMARK VINA RESULT:    -3.064      1.053      1.862
REMARK INTER + INTRA:          -4.360
REMARK INTER:                  -3.950
REMARK INTRA:                  -0.409
REMARK UNBOUND:                -0.220
REMARK SMILES CCCCCCCC(=O)[O-]
REMARK SMILES IDX 5 1 6 2 7 3 8 4 9 5 10 6 4 7 3 8 2 9 1 10
REMARK H PARENT
REMARK Flexibility Score: inf
ROOT
ATOM      1  C   UNL     1      57.583  28.081  51.346  1.00  0.00     0.000 C 
ENDROOT
BRANCH   1   2
ATOM      2  C   UNL     1      57.810  29.294  50.430  1.00  0.00     0.006 C 
BRANCH   2   3
ATOM      3  C   UNL     1      58.914  29.051  49.392  1.00  0.00     0.053 C 
BRANCH   3   4
ATOM      4  C   UNL     1      60.223  28.798  50.072  1.00  0.00     0.041 C 
ATOM      5  O   UNL     1      60.846  27.723  49.863  1.00  0.00    -0.550 OA
ATOM      6  O   UNL     1      60.780  29.768  50.895  1.00  0.00    -0.550 OA
ENDBRANCH   3   4
ENDBRANCH   2   3
ENDBRANCH   1   2
BRANCH   1   7
ATOM      7  C   UNL     1      57.166  26.822  50.570  1.00  0.00     0.000 C 
BRANCH   7   8
ATOM      8  C   UNL     1      55.809  26.298  51.063  1.00  0.00    -0.000 C 
BRANCH   8   9
ATOM      9  C   UNL     1      54.667  26.597  50.078  1.00  0.00    -0.003 C 
ATOM     10  C   UNL     1      53.997  27.945  50.341  1.00  0.00     0.004 C 
ENDBRANCH   8   9
ENDBRANCH   7   8
ENDBRANCH   1   7
TORSDOF 6
ENDMDL
