MODEL 1
REMARK VINA RESULT:    -3.141      0.000      0.000
REMARK INTER + INTRA:          -4.068
REMARK INTER:                  -3.967
REMARK INTRA:                  -0.100
REMARK UNBOUND:                -0.100
REMARK SMILES CCCCCCO
REMARK SMILES IDX 4 1 3 2 2 3 1 4 5 5 6 6 7 7
REMARK H PARENT 7 8
REMARK Flexibility Score: inf
ROOT
ATOM      1  C   UNL     1       9.819   7.955  42.893  1.00  0.00     0.002 C 
ENDROOT
BRANCH   1   2
ATOM      2  C   UNL     1       8.831   7.936  44.069  1.00  0.00    -0.000 C 
BRANCH   2   3
ATOM      3  C   UNL     1       8.380   6.504  44.383  1.00  0.00    -0.003 C 
ATOM      4  C   UNL     1       6.952   6.481  44.919  1.00  0.00     0.004 C 
ENDBRANCH   2   3
ENDBRANCH   1   2
BRANCH   1   5
ATOM      5  C   UNL     1       9.773   6.664  42.058  1.00  0.00     0.028 C 
BRANCH   5   6
ATOM      6  C   UNL     1      10.951   6.517  41.090  1.00  0.00     0.156 C 
BRANCH   6   7
ATOM      7  O   UNL     1      12.005   5.832  41.707  1.00  0.00    -0.396 OA
ATOM      8  H   UNL     1      11.851   4.869  41.525  1.00  0.00     0.210 HD
ENDBRANCH   6   7
ENDBRANCH   5   6
ENDBRANCH   1   5
TORSDOF 5
ENDMDL
MODEL 2
REMARK VINA RESULT:    -2.976      1.063      1.594
REMARK INTER + INTRA:          -3.859
REMARK INTER:                  -3.754
REMARK INTRA:                  -0.105
REMARK UNBOUND:                -0.100
REMARK SMILES CCCCCCO
REMARK SMILES IDX 4 1 3 2 2 3 1 4 5 5 6 6 7 7
REMARK H PARENT 7 8
REMARK Flexibility Score: inf
ROOT
ATOM      1  C   UNL     1       8.689   6.190  43.076  1.00  0.00     0.002 C 
ENDROOT
BRANCH   1   2
ATOM      2  C   UNL     1       8.098   6.671  44.411  1.00  0.00    -0.000 C 
BRANCH   2   3
ATOM      3  C   UNL     1       8.738   7.993  44.848  1.00  0.00    -0.003 C 
ATOM      4  C   UNL     1       7.675   9.025  45.215  1.00  0.00     0.004 C 
ENDBRANCH   2   3
ENDBRANCH   1   2
BRANCH   1   5
ATOM      5  C   UNL     1       9.645   7.218  42.446  1.00  0.00     0.028 C 
BRANCH   5   6
ATOM      6  C   UNL     1      10.344   6.711  41.180  1.00  0.00     0.156 C 
BRANCH   6   7
ATOM      7  O   UNL     1      11.290   5.732  41.507  1.00  0.00    -0.396 OA
ATOM      8  H   UNL     1      12.059   5.878  40.896  1.00  0.00     0.210 HD
ENDBRANCH   6   7
ENDBRANCH   5   6
ENDBRANCH   1   5
TORSDOF 5
ENDMDL
MODEL 3
REMARK VINA RESULT:    -2.915      3.192      4.740
REMARK INTER + INTRA:          -3.782
REMARK INTER:                  -3.702
REMARK INTRA:                  -0.080
REMARK UNBOUND:                -0.100
REMARK SMILES CCCCCCO
REMARK SMILES IDX 4 1 3 2 2 3 1 4 5 5 6 6 7 7
REMARK H PARENT 7 8
REMARK Flexibility Score: inf
ROOT
ATOM      1  C   UNL     1       7.831   6.390  44.614  1.00  0.00     0.002 C 
ENDROOT
BRANCH   1   2
ATOM      2  C   UNL     1       8.549   7.742  44.747  1.00  0.00    -0.000 C 
BRANCH   2   3
ATOM      3  C   UNL     1       9.367   8.054  43.488  1.00  0.00    -0.003 C 
ATOM      4  C   UNL     1       9.398   6.858  42.541  1.00  0.00     0.004 C 
ENDBRANCH   2   3
ENDBRANCH   1   2
BRANCH   1   5
ATOM      5  C   UNL     1       6.437   6.392  45.266  1.00  0.00     0.028 C 
BRANCH   5   6
ATOM      6  C   UNL     1       5.631   5.118  44.996  1.00  0.00     0.156 C 
BRANCH   6   7
ATOM      7  O   UNL     1       5.501   4.367  46.170  1.00  0.00    -0.396 OA
ATOM      8  H   UNL     1       5.369   3.426  45.882  1.00  0.00     0.210 HD
ENDBRANCH   6   7
ENDBRANCH   5   6
ENDBRANCH   1   5
TORSDOF 5
ENDMDL
MODEL 4
REMARK VINA RESULT:    -2.743     11.283     12.358
REMARK INTER + INTRA:          -3.565
REMARK INTER:                  -3.460
REMARK INTRA:                  -0.105
REMARK UNBOUND:                -0.100
REMARK SMILES CCCCCCO
REMARK SMILES IDX 4 1 3 2 2 3 1 4 5 5 6 6 7 7
REMARK H PARENT 7 8
REMARK Flexibility Score: inf
ROOT
ATOM      1  C   UNL     1       8.910  -1.256  35.173  1.00  0.00     0.002 C 
ENDROOT
BRANCH   1   2
ATOM      2  C   UNL     1       9.850  -0.893  34.012  1.00  0.00    -0.000 C 
BRANCH   2   3
ATOM      3  C   UNL     1       9.119  -0.980  32.668  1.00  0.00    -0.003 C 
ATOM      4  C   UNL     1       9.524   0.165  31.744  1.00  0.00     0.004 C 
ENDBRANCH   2   3
ENDBRANCH   1   2
BRANCH   1   5
ATOM      5  C   UNL     1       7.452  -1.443  34.719  1.00  0.00     0.028 C 
BRANCH   5   6
ATOM      6  C   UNL     1       6.434  -1.319  35.857  1.00  0.00     0.156 C 
BRANCH   6   7
ATOM      7  O   UNL     1       6.329   0.015  36.271  1.00  0.00    -0.396 OA
ATOM      8  H   UNL     1       6.008  -0.013  37.210  1.00  0.00     0.210 HD
ENDBRANCH   6   7
ENDBRANCH   5   6
ENDBRANCH   1   5
TORSDOF 5
ENDMDL
MODEL 5
REMARK VINA RESULT:    -2.732     12.082     13.265
REMARK INTER + INTRA:          -3.551
REMARK INTER:                  -3.368
REMARK INTRA:                  -0.183
REMARK UNBOUND:                -0.100
REMARK SMILES CCCCCCO
REMARK SMILES IDX 4 1 3 2 2 3 1 4 5 5 6 6 7 7
REMARK H PARENT 7 8
REMARK Flexibility Score: inf
ROOT
ATOM      1  C   UNL     1       9.393   0.075  31.668  1.00  0.00     0.002 C 
ENDROOT
BRANCH   1   2
ATOM      2  C   UNL     1      10.421   0.094  30.527  1.00  0.00    -0.000 C 
BRANCH   2   3
ATOM      3  C   UNL     1      11.036   1.489  30.367  1.00  0.00    -0.003 C 
ATOM      4  C   UNL     1      10.658   2.396  31.535  1.00  0.00     0.004 C 
ENDBRANCH   2   3
ENDBRANCH   1   2
BRANCH   1   5
ATOM      5  C   UNL     1       9.472  -1.206  32.517  1.00  0.00     0.028 C 
BRANCH   5   6
ATOM      6  C   UNL     1       9.931  -0.960  33.957  1.00  0.00     0.156 C 
BRANCH   6   7
ATOM      7  O   UNL     1      11.107  -0.198  33.970  1.00  0.00    -0.396 OA
ATOM      8  H   UNL     1      11.835  -0.812  33.690  1.00  0.00     0.210 HD
ENDBRANCH   6   7
ENDBRANCH   5   6
ENDBRANCH   1   5
TORSDOF 5
ENDMDL
MODEL 6
REMARK VINA RESULT:    -2.722     11.272     12.086
REMARK INTER + INTRA:          -3.538
REMARK INTER:                  -3.467
REMARK INTRA:                  -0.072
REMARK UNBOUND:                -0.100
REMARK SMILES CCCCCCO
REMARK SMILES IDX 4 1 3 2 2 3 1 4 5 5 6 6 7 7
REMARK H PARENT 7 8
REMARK Flexibility Score: inf
ROOT
ATOM      1  C   UNL     1       1.536  -0.980  38.770  1.00  0.00     0.002 C 
ENDROOT
BRANCH   1   2
ATOM      2  C   UNL     1       0.003  -1.065  38.823  1.00  0.00    -0.000 C 
BRANCH   2   3
ATOM      3  C   UNL     1      -0.481  -2.472  38.452  1.00  0.00    -0.003 C 
ATOM      4  C   UNL     1       0.622  -3.269  37.762  1.00  0.00     0.004 C 
ENDBRANCH   2   3
ENDBRANCH   1   2
BRANCH   1   5
ATOM      5  C   UNL     1       2.074   0.362  39.298  1.00  0.00     0.028 C 
BRANCH   5   6
ATOM      6  C   UNL     1       3.603   0.421  39.377  1.00  0.00     0.156 C 
BRANCH   6   7
ATOM      7  O   UNL     1       4.073   1.607  38.797  1.00  0.00    -0.396 OA
ATOM      8  H   UNL     1       4.238   2.233  39.550  1.00  0.00     0.210 HD
ENDBRANCH   6   7
ENDBRANCH   5   6
ENDBRANCH   1   5
TORSDOF 5
ENDMDL
MODEL 7
REMARK VINA RESULT:    -2.695     11.681     12.426
REMARK INTER + INTRA:          -3.504
REMARK INTER:                  -3.401
REMARK INTRA:                  -0.103
REMARK UNBOUND:                -0.100
REMARK SMILES CCCCCCO
REMARK SMILES IDX 4 1 3 2 2 3 1 4 5 5 6 6 7 7
REMARK H PARENT 7 8
REMARK Flexibility Score: inf
ROOT
ATOM      1  C   UNL     1       9.850  -0.964  33.945  1.00  0.00     0.002 C 
ENDROOT
BRANCH   1   2
ATOM      2  C   UNL     1       8.919  -1.068  35.163  1.00  0.00    -0.000 C 
BRANCH   2   3
ATOM      3  C   UNL     1       7.521  -1.539  34.745  1.00  0.00    -0.003 C 
ATOM      4  C   UNL     1       6.447  -0.953  35.658  1.00  0.00     0.004 C 
ENDBRANCH   2   3
ENDBRANCH   1   2
BRANCH   1   5
ATOM      5  C   UNL     1       9.089  -1.034  32.609  1.00  0.00     0.028 C 
BRANCH   5   6
ATOM      6  C   UNL     1       9.618  -0.063  31.549  1.00  0.00     0.156 C 
BRANCH   6   7
ATOM      7  O   UNL     1       9.938  -0.753  30.373  1.00  0.00    -0.396 OA
ATOM      8  H   UNL     1      10.520  -0.145  29.848  1.00  0.00     0.210 HD
ENDBRANCH   6   7
ENDBRANCH   5   6
ENDBRANCH   1   5
TORSDOF 5
ENDMDL
MODEL 8
REMARK VINA RESULT:    -2.645     12.781     13.848
REMARK INTER + INTRA:          -3.442
REMARK INTER:                  -3.373
REMARK INTRA:                  -0.069
REMARK UNBOUND:                -0.100
REMARK SMILES CCCCCCO
REMARK SMILES IDX 4 1 3 2 2 3 1 4 5 5 6 6 7 7
REMARK H PARENT 7 8
REMARK Flexibility Score: inf
ROOT
ATOM      1  C   UNL     1       9.651  -0.923  33.010  1.00  0.00     0.002 C 
ENDROOT
BRANCH   1   2
ATOM      2  C   UNL     1       9.182  -0.287  31.692  1.00  0.00    -0.000 C 
BRANCH   2   3
ATOM      3  C   UNL     1      10.305  -0.301  30.648  1.00  0.00    -0.003 C 
ATOM      4  C   UNL     1      10.921   1.086  30.483  1.00  0.00     0.004 C 
ENDBRANCH   2   3
ENDBRANCH   1   2
BRANCH   1   5
ATOM      5  C   UNL     1       8.480  -1.342  33.916  1.00  0.00     0.028 C 
BRANCH   5   6
ATOM      6  C   UNL     1       8.394  -2.853  34.149  1.00  0.00     0.156 C 
BRANCH   6   7
ATOM      7  O   UNL     1       8.325  -3.531  32.925  1.00  0.00    -0.396 OA
ATOM      8  H   UNL     1       9.183  -3.347  32.461  1.00  0.00     0.210 HD
ENDBRANCH   6   7
ENDBRANCH   5   6
ENDBRANCH   1   5
TORSDOF 5
ENDMDL
MODEL 9
REMARK VINA RESULT:    -2.598     11.947     12.647
REMARK INTER + INTRA:          -3.381
REMARK INTER:                  -3.327
REMARK INTRA:                  -0.054
REMARK UNBOUND:                -0.100
REMARK SMILES CCCCCCO
REMARK SMILES IDX 4 1 3 2 2 3 1 4 5 5 6 6 7 7
REMARK H PARENT 7 8
REMARK Flexibility Score: inf
ROOT
ATOM      1  C   UNL     1       9.840  -0.669  33.009  1.00  0.00     0.002 C 
ENDROOT
BRANCH   1   2
ATOM      2  C   UNL     1       8.783  -1.624  33.585  1.00  0.00    -0.000 C 
BRANCH   2   3
ATOM      3  C   UNL     1       8.226  -1.089  34.910  1.00  0.00    -0.003 C 
ATOM      4  C   UNL     1       6.740  -1.406  35.051  1.00  0.00     0.004 C 
ENDBRANCH   2   3
ENDBRANCH   1   2
BRANCH   1   5
ATOM      5  C   UNL     1       9.373   0.024  31.717  1.00  0.00     0.028 C 
BRANCH   5   6
ATOM      6  C   UNL     1      10.311   1.140  31.246  1.00  0.00     0.156 C 
BRANCH   6   7
ATOM      7  O   UNL     1      10.999   0.742  30.093  1.00  0.00    -0.396 OA
ATOM      8  H   UNL     1      10.303   0.502  29.427  1.00  0.00     0.210 HD
ENDBRANCH   6   7
ENDBRANCH   5   6
ENDBRANCH   1   5
TORSDOF 5
ENDMDL
