MODEL 1
REMARK VINA RESULT:    -5.056      0.000      0.000
REMARK INTER + INTRA:         -14.006
REMARK INTER:                 -11.557
REMARK INTRA:                  -2.448
REMARK UNBOUND:                -2.448
REMARK SMILES CCCCCCCCCCCCCCCCCCCCCCCC(=O)[O-]
REMARK SMILES IDX 13 1 14 2 15 3 16 4 17 5 18 6 19 7 20 8 21 9 22 10 23 11
REMARK SMILES IDX 24 12 25 13 26 14 12 15 11 16 10 17 9 18 8 19 7 20 6 21 5 22
REMARK SMILES IDX 4 23 3 24 2 25 1 26
REMARK H PARENT
REMARK Flexibility Score: inf
ROOT
ATOM      1  C   UNL     1    -129.571 109.948  39.107  1.00  0.00     0.000 C 
ENDROOT
BRANCH   1   2
ATOM      2  C   UNL     1    -130.980 109.432  39.444  1.00  0.00     0.000 C 
BRANCH   2   3
ATOM      3  C   UNL     1    -131.232 108.013  38.902  1.00  0.00     0.000 C 
BRANCH   3   4
ATOM      4  C   UNL     1    -129.956 107.158  38.795  1.00  0.00     0.000 C 
BRANCH   4   5
ATOM      5  C   UNL     1    -130.188 105.704  39.247  1.00  0.00     0.000 C 
BRANCH   5   6
ATOM      6  C   UNL     1    -129.235 105.296  40.386  1.00  0.00     0.000 C 
BRANCH   6   7
ATOM      7  C   UNL     1    -128.093 106.313  40.613  1.00  0.00     0.000 C 
BRANCH   7   8
ATOM      8  C   UNL     1    -128.031 106.857  42.050  1.00  0.00     0.000 C 
BRANCH   8   9
ATOM      9  C   UNL     1    -128.389 108.347  42.139  1.00  0.00     0.000 C 
BRANCH   9  10
ATOM     10  C   UNL     1    -129.821 108.542  42.654  1.00  0.00     0.006 C 
BRANCH  10  11
ATOM     11  C   UNL     1    -129.852 109.187  44.046  1.00  0.00     0.053 C 
BRANCH  11  12
ATOM     12  C   UNL     1    -131.007 108.692  44.863  1.00  0.00     0.041 C 
ATOM     13  O   UNL     1    -131.883 107.956  44.338  1.00  0.00    -0.550 OA
ATOM     14  O   UNL     1    -131.134 109.070  46.193  1.00  0.00    -0.550 OA
ENDBRANCH  11  12
ENDBRANCH  10  11
ENDBRANCH   9  10
ENDBRANCH   8   9
ENDBRANCH   7   8
ENDBRANCH   6   7
ENDBRANCH   5   6
ENDBRANCH   4   5
ENDBRANCH   3   4
ENDBRANCH   2   3
ENDBRANCH   1   2
BRANCH   1  15
ATOM     15  C   UNL     1    -129.340 111.347  39.699  1.00  0.00     0.000 C 
BRANCH  15  16
ATOM     16  C   UNL     1    -130.176 111.602  40.967  1.00  0.00     0.000 C 
BRANCH  16  17
ATOM     17  C   UNL     1    -130.059 113.029  41.535  1.00  0.00     0.000 C 
BRANCH  17  18
ATOM     18  C   UNL     1    -129.561 113.050  42.989  1.00  0.00    -0.000 C 
BRANCH  18  19
ATOM     19  C   UNL     1    -129.390 114.491  43.490  1.00  0.00    -0.000 C 
BRANCH  19  20
ATOM     20  C   UNL     1    -129.510 115.537  42.369  1.00  0.00    -0.000 C 
BRANCH  20  21
ATOM     21  C   UNL     1    -130.135 116.872  42.829  1.00  0.00    -0.000 C 
BRANCH  21  22
ATOM     22  C   UNL     1    -129.096 117.812  43.463  1.00  0.00    -0.000 C 
BRANCH  22  23
ATOM     23  C   UNL     1    -129.390 118.101  44.944  1.00  0.00    -0.000 C 
BRANCH  23  24
ATOM     24  C   UNL     1    -130.227 116.992  45.605  1.00  0.00    -0.000 C 
BRANCH  24  25
ATOM     25  C   UNL     1    -130.725 117.391  47.003  1.00  0.00    -0.003 C 
ATOM     26  C   UNL     1    -131.851 118.424  46.954  1.00  0.00     0.004 C 
ENDBRANCH  24  25
ENDBRANCH  23  24
ENDBRANCH  22  23
ENDBRANCH  21  22
ENDBRANCH  20  21
ENDBRANCH  19  20
ENDBRANCH  18  19
ENDBRANCH  17  18
ENDBRANCH  16  17
ENDBRANCH  15  16
ENDBRANCH   1  15
TORSDOF 22
ENDMDL
MODEL 2
REMARK VINA RESULT:    -4.953      2.808      8.560
REMARK INTER + INTRA:         -13.771
REMARK INTER:                 -11.261
REMARK INTRA:                  -2.510
REMARK UNBOUND:                -2.448
REMARK SMILES CCCCCCCCCCCCCCCCCCCCCCCC(=O)[O-]
REMARK SMILES IDX 13 1 14 2 15 3 16 4 17 5 18 6 19 7 20 8 21 9 22 10 23 11
REMARK SMILES IDX 24 12 25 13 26 14 12 15 11 16 10 17 9 18 8 19 7 20 6 21 5 22
REMARK SMILES IDX 4 23 3 24 2 25 1 26
REMARK H PARENT
REMARK Flexibility Score: inf
ROOT
ATOM      1  C   UNL     1    -129.283 111.289  39.456  1.00  0.00     0.000 C 
ENDROOT
BRANCH   1   2
ATOM      2  C   UNL     1    -129.793 111.648  40.862  1.00  0.00     0.000 C 
BRANCH   2   3
ATOM      3  C   UNL     1    -130.061 113.157  41.022  1.00  0.00     0.000 C 
BRANCH   3   4
ATOM      4  C   UNL     1    -130.297 113.590  42.480  1.00  0.00     0.000 C 
BRANCH   4   5
ATOM      5  C   UNL     1    -129.074 113.318  43.375  1.00  0.00     0.000 C 
BRANCH   5   6
ATOM      6  C   UNL     1    -129.422 113.423  44.872  1.00  0.00     0.000 C 
BRANCH   6   7
ATOM      7  C   UNL     1    -129.207 114.843  45.444  1.00  0.00     0.000 C 
BRANCH   7   8
ATOM      8  C   UNL     1    -130.456 115.428  46.124  1.00  0.00     0.000 C 
BRANCH   8   9
ATOM      9  C   UNL     1    -130.343 116.937  46.381  1.00  0.00     0.000 C 
BRANCH   9  10
ATOM     10  C   UNL     1    -130.429 117.729  45.069  1.00  0.00     0.006 C 
BRANCH  10  11
ATOM     11  C   UNL     1    -129.044 118.117  44.535  1.00  0.00     0.053 C 
BRANCH  11  12
ATOM     12  C   UNL     1    -128.907 117.813  43.074  1.00  0.00     0.041 C 
ATOM     13  O   UNL     1    -128.125 118.492  42.358  1.00  0.00    -0.550 OA
ATOM     14  O   UNL     1    -129.667 116.804  42.497  1.00  0.00    -0.550 OA
ENDBRANCH  11  12
ENDBRANCH  10  11
ENDBRANCH   9  10
ENDBRANCH   8   9
ENDBRANCH   7   8
ENDBRANCH   6   7
ENDBRANCH   5   6
ENDBRANCH   4   5
ENDBRANCH   3   4
ENDBRANCH   2   3
ENDBRANCH   1   2
BRANCH   1  15
ATOM     15  C   UNL     1    -129.432 109.784  39.184  1.00  0.00     0.000 C 
BRANCH  15  16
ATOM     16  C   UNL     1    -130.886 109.297  39.315  1.00  0.00     0.000 C 
BRANCH  16  17
ATOM     17  C   UNL     1    -131.126 107.856  38.826  1.00  0.00     0.000 C 
BRANCH  17  18
ATOM     18  C   UNL     1    -129.818 107.086  38.582  1.00  0.00    -0.000 C 
BRANCH  18  19
ATOM     19  C   UNL     1    -129.909 105.658  39.138  1.00  0.00    -0.000 C 
BRANCH  19  20
ATOM     20  C   UNL     1    -128.976 105.419  40.337  1.00  0.00    -0.000 C 
BRANCH  20  21
ATOM     21  C   UNL     1    -129.227 106.379  41.521  1.00  0.00    -0.000 C 
BRANCH  21  22
ATOM     22  C   UNL     1    -127.992 107.236  41.846  1.00  0.00    -0.000 C 
BRANCH  22  23
ATOM     23  C   UNL     1    -128.362 108.565  42.525  1.00  0.00    -0.000 C 
BRANCH  23  24
ATOM     24  C   UNL     1    -129.860 108.657  42.863  1.00  0.00    -0.000 C 
BRANCH  24  25
ATOM     25  C   UNL     1    -130.106 109.101  44.313  1.00  0.00    -0.003 C 
ATOM     26  C   UNL     1    -131.333 108.433  44.933  1.00  0.00     0.004 C 
ENDBRANCH  24  25
ENDBRANCH  23  24
ENDBRANCH  22  23
ENDBRANCH  21  22
ENDBRANCH  20  21
ENDBRANCH  19  20
ENDBRANCH  18  19
ENDBRANCH  17  18
ENDBRANCH  16  17
ENDBRANCH  15  16
ENDBRANCH   1  15
TORSDOF 22
ENDMDL
MODEL 3
REMARK VINA RESULT:    -4.887      2.449      8.252
REMARK INTER + INTRA:         -13.620
REMARK INTER:                 -11.613
REMARK INTRA:                  -2.007
REMARK UNBOUND:                -2.448
REMARK SMILES CCCCCCCCCCCCCCCCCCCCCCCC(=O)[O-]
REMARK SMILES IDX 13 1 14 2 15 3 16 4 17 5 18 6 19 7 20 8 21 9 22 10 23 11
REMARK SMILES IDX 24 12 25 13 26 14 12 15 11 16 10 17 9 18 8 19 7 20 6 21 5 22
REMARK SMILES IDX 4 23 3 24 2 25 1 26
REMARK H PARENT
REMARK Flexibility Score: inf
ROOT
ATOM      1  C   UNL     1    -129.861 110.138  39.999  1.00  0.00     0.000 C 
ENDROOT
BRANCH   1   2
ATOM      2  C   UNL     1    -129.383 111.494  39.456  1.00  0.00     0.000 C 
BRANCH   2   3
ATOM      3  C   UNL     1    -129.811 112.671  40.354  1.00  0.00     0.000 C 
BRANCH   3   4
ATOM      4  C   UNL     1    -130.085 112.265  41.813  1.00  0.00     0.000 C 
BRANCH   4   5
ATOM      5  C   UNL     1    -129.723 113.384  42.808  1.00  0.00     0.000 C 
BRANCH   5   6
ATOM      6  C   UNL     1    -129.448 114.722  42.096  1.00  0.00     0.000 C 
BRANCH   6   7
ATOM      7  C   UNL     1    -130.114 115.928  42.797  1.00  0.00     0.000 C 
BRANCH   7   8
ATOM      8  C   UNL     1    -129.355 117.251  42.596  1.00  0.00     0.000 C 
BRANCH   8   9
ATOM      9  C   UNL     1    -129.031 117.956  43.920  1.00  0.00     0.000 C 
BRANCH   9  10
ATOM     10  C   UNL     1    -129.618 117.190  45.114  1.00  0.00     0.006 C 
BRANCH  10  11
ATOM     11  C   UNL     1    -130.206 118.131  46.173  1.00  0.00     0.053 C 
BRANCH  11  12
ATOM     12  C   UNL     1    -131.391 117.523  46.861  1.00  0.00     0.041 C 
ATOM     13  O   UNL     1    -131.358 116.321  47.232  1.00  0.00    -0.550 OA
ATOM     14  O   UNL     1    -132.542 118.274  47.061  1.00  0.00    -0.550 OA
ENDBRANCH  11  12
ENDBRANCH  10  11
ENDBRANCH   9  10
ENDBRANCH   8   9
ENDBRANCH   7   8
ENDBRANCH   6   7
ENDBRANCH   5   6
ENDBRANCH   4   5
ENDBRANCH   3   4
ENDBRANCH   2   3
ENDBRANCH   1   2
BRANCH   1  15
ATOM     15  C   UNL     1    -131.173 109.707  39.326  1.00  0.00     0.000 C 
BRANCH  15  16
ATOM     16  C   UNL     1    -131.150 108.239  38.861  1.00  0.00     0.000 C 
BRANCH  16  17
ATOM     17  C   UNL     1    -129.749 107.601  38.823  1.00  0.00     0.000 C 
BRANCH  17  18
ATOM     18  C   UNL     1    -129.792 106.066  38.887  1.00  0.00    -0.000 C 
BRANCH  18  19
ATOM     19  C   UNL     1    -129.072 105.548  40.140  1.00  0.00    -0.000 C 
BRANCH  19  20
ATOM     20  C   UNL     1    -129.311 106.427  41.379  1.00  0.00    -0.000 C 
BRANCH  20  21
ATOM     21  C   UNL     1    -128.029 107.093  41.925  1.00  0.00    -0.000 C 
BRANCH  21  22
ATOM     22  C   UNL     1    -128.307 108.475  42.540  1.00  0.00    -0.000 C 
BRANCH  22  23
ATOM     23  C   UNL     1    -129.796 108.687  42.857  1.00  0.00    -0.000 C 
BRANCH  23  24
ATOM     24  C   UNL     1    -130.022 109.265  44.265  1.00  0.00    -0.000 C 
BRANCH  24  25
ATOM     25  C   UNL     1    -131.091 108.490  45.050  1.00  0.00    -0.003 C 
ATOM     26  C   UNL     1    -131.294 109.035  46.464  1.00  0.00     0.004 C 
ENDBRANCH  24  25
ENDBRANCH  23  24
ENDBRANCH  22  23
ENDBRANCH  21  22
ENDBRANCH  20  21
ENDBRANCH  19  20
ENDBRANCH  18  19
ENDBRANCH  17  18
ENDBRANCH  16  17
ENDBRANCH  15  16
ENDBRANCH   1  15
TORSDOF 22
ENDMDL
MODEL 4
REMARK VINA RESULT:    -4.874      2.529      7.703
REMARK INTER + INTRA:         -13.590
REMARK INTER:                 -11.600
REMARK INTRA:                  -1.990
REMARK UNBOUND:                -2.448
REMARK SMILES CCCCCCCCCCCCCCCCCCCCCCCC(=O)[O-]
REMARK SMILES IDX 13 1 14 2 15 3 16 4 17 5 18 6 19 7 20 8 21 9 22 10 23 11
REMARK SMILES IDX 24 12 25 13 26 14 12 15 11 16 10 17 9 18 8 19 7 20 6 21 5 22
REMARK SMILES IDX 4 23 3 24 2 25 1 26
REMARK H PARENT
REMARK Flexibility Score: inf
ROOT
ATOM      1  C   UNL     1    -131.272 109.511  39.377  1.00  0.00     0.000 C 
ENDROOT
BRANCH   1   2
ATOM      2  C   UNL     1    -129.836 109.911  39.753  1.00  0.00     0.000 C 
BRANCH   2   3
ATOM      3  C   UNL     1    -129.365 111.177  39.011  1.00  0.00     0.000 C 
BRANCH   3   4
ATOM      4  C   UNL     1    -129.447 112.457  39.862  1.00  0.00     0.000 C 
BRANCH   4   5
ATOM      5  C   UNL     1    -130.024 112.191  41.264  1.00  0.00     0.000 C 
BRANCH   5   6
ATOM      6  C   UNL     1    -129.899 113.422  42.182  1.00  0.00     0.000 C 
BRANCH   6   7
ATOM      7  C   UNL     1    -129.249 113.096  43.545  1.00  0.00     0.000 C 
BRANCH   7   8
ATOM      8  C   UNL     1    -129.334 114.250  44.559  1.00  0.00     0.000 C 
BRANCH   8   9
ATOM      9  C   UNL     1    -129.582 115.610  43.891  1.00  0.00     0.000 C 
BRANCH   9  10
ATOM     10  C   UNL     1    -129.312 116.763  44.869  1.00  0.00     0.006 C 
BRANCH  10  11
ATOM     11  C   UNL     1    -130.591 117.533  45.221  1.00  0.00     0.053 C 
BRANCH  11  12
ATOM     12  C   UNL     1    -130.896 117.464  46.687  1.00  0.00     0.041 C 
ATOM     13  O   UNL     1    -130.672 118.457  47.427  1.00  0.00    -0.550 OA
ATOM     14  O   UNL     1    -131.394 116.291  47.241  1.00  0.00    -0.550 OA
ENDBRANCH  11  12
ENDBRANCH  10  11
ENDBRANCH   9  10
ENDBRANCH   8   9
ENDBRANCH   7   8
ENDBRANCH   6   7
ENDBRANCH   5   6
ENDBRANCH   4   5
ENDBRANCH   3   4
ENDBRANCH   2   3
ENDBRANCH   1   2
BRANCH   1  15
ATOM     15  C   UNL     1    -131.312 108.093  38.787  1.00  0.00     0.000 C 
BRANCH  15  16
ATOM     16  C   UNL     1    -129.959 107.367  38.891  1.00  0.00     0.000 C 
BRANCH  16  17
ATOM     17  C   UNL     1    -130.063 105.849  39.133  1.00  0.00     0.000 C 
BRANCH  17  18
ATOM     18  C   UNL     1    -129.173 105.369  40.290  1.00  0.00    -0.000 C 
BRANCH  18  19
ATOM     19  C   UNL     1    -128.527 106.557  41.016  1.00  0.00    -0.000 C 
BRANCH  19  20
ATOM     20  C   UNL     1    -129.403 107.119  42.148  1.00  0.00    -0.000 C 
BRANCH  20  21
ATOM     21  C   UNL     1    -129.003 108.543  42.594  1.00  0.00    -0.000 C 
BRANCH  21  22
ATOM     22  C   UNL     1    -129.955 109.107  43.662  1.00  0.00    -0.000 C 
BRANCH  22  23
ATOM     23  C   UNL     1    -131.154 108.183  43.927  1.00  0.00    -0.000 C 
BRANCH  23  24
ATOM     24  C   UNL     1    -131.899 108.543  45.225  1.00  0.00    -0.000 C 
BRANCH  24  25
ATOM     25  C   UNL     1    -130.957 109.105  46.301  1.00  0.00    -0.003 C 
ATOM     26  C   UNL     1    -130.632 108.083  47.391  1.00  0.00     0.004 C 
ENDBRANCH  24  25
ENDBRANCH  23  24
ENDBRANCH  22  23
ENDBRANCH  21  22
ENDBRANCH  20  21
ENDBRANCH  19  20
ENDBRANCH  18  19
ENDBRANCH  17  18
ENDBRANCH  16  17
ENDBRANCH  15  16
ENDBRANCH   1  15
TORSDOF 22
ENDMDL
MODEL 5
REMARK VINA RESULT:    -4.772      5.710      9.045
REMARK INTER + INTRA:         -13.357
REMARK INTER:                 -11.482
REMARK INTRA:                  -1.874
REMARK UNBOUND:                -2.448
REMARK SMILES CCCCCCCCCCCCCCCCCCCCCCCC(=O)[O-]
REMARK SMILES IDX 13 1 14 2 15 3 16 4 17 5 18 6 19 7 20 8 21 9 22 10 23 11
REMARK SMILES IDX 24 12 25 13 26 14 12 15 11 16 10 17 9 18 8 19 7 20 6 21 5 22
REMARK SMILES IDX 4 23 3 24 2 25 1 26
REMARK H PARENT
REMARK Flexibility Score: inf
ROOT
ATOM      1  C   UNL     1    -130.865 109.444  39.371  1.00  0.00     0.000 C 
ENDROOT
BRANCH   1   2
ATOM      2  C   UNL     1    -129.366 109.726  39.174  1.00  0.00     0.000 C 
BRANCH   2   3
ATOM      3  C   UNL     1    -129.049 111.234  39.158  1.00  0.00     0.000 C 
BRANCH   3   4
ATOM      4  C   UNL     1    -127.964 111.625  38.139  1.00  0.00     0.000 C 
BRANCH   4   5
ATOM      5  C   UNL     1    -128.161 113.052  37.595  1.00  0.00     0.000 C 
BRANCH   5   6
ATOM      6  C   UNL     1    -128.372 113.063  36.069  1.00  0.00     0.000 C 
BRANCH   6   7
ATOM      7  C   UNL     1    -129.609 113.882  35.635  1.00  0.00     0.000 C 
BRANCH   7   8
ATOM      8  C   UNL     1    -129.588 114.287  34.152  1.00  0.00     0.000 C 
BRANCH   8   9
ATOM      9  C   UNL     1    -130.792 113.744  33.370  1.00  0.00     0.000 C 
BRANCH   9  10
ATOM     10  C   UNL     1    -132.005 113.545  34.289  1.00  0.00     0.006 C 
BRANCH  10  11
ATOM     11  C   UNL     1    -133.111 112.721  33.618  1.00  0.00     0.053 C 
BRANCH  11  12
ATOM     12  C   UNL     1    -134.209 113.593  33.086  1.00  0.00     0.041 C 
ATOM     13  O   UNL     1    -134.579 114.607  33.733  1.00  0.00    -0.550 OA
ATOM     14  O   UNL     1    -134.845 113.266  31.896  1.00  0.00    -0.550 OA
ENDBRANCH  11  12
ENDBRANCH  10  11
ENDBRANCH   9  10
ENDBRANCH   8   9
ENDBRANCH   7   8
ENDBRANCH   6   7
ENDBRANCH   5   6
ENDBRANCH   4   5
ENDBRANCH   3   4
ENDBRANCH   2   3
ENDBRANCH   1   2
BRANCH   1  15
ATOM     15  C   UNL     1    -131.222 108.022  38.913  1.00  0.00     0.000 C 
BRANCH  15  16
ATOM     16  C   UNL     1    -129.980 107.152  38.646  1.00  0.00     0.000 C 
BRANCH  16  17
ATOM     17  C   UNL     1    -130.228 105.635  38.738  1.00  0.00     0.000 C 
BRANCH  17  18
ATOM     18  C   UNL     1    -129.643 105.013  40.016  1.00  0.00    -0.000 C 
BRANCH  18  19
ATOM     19  C   UNL     1    -128.526 105.893  40.594  1.00  0.00    -0.000 C 
BRANCH  19  20
ATOM     20  C   UNL     1    -129.015 106.835  41.707  1.00  0.00    -0.000 C 
BRANCH  20  21
ATOM     21  C   UNL     1    -127.877 107.597  42.420  1.00  0.00    -0.000 C 
BRANCH  21  22
ATOM     22  C   UNL     1    -128.123 109.115  42.447  1.00  0.00    -0.000 C 
BRANCH  22  23
ATOM     23  C   UNL     1    -129.570 109.470  42.824  1.00  0.00    -0.000 C 
BRANCH  23  24
ATOM     24  C   UNL     1    -129.802 109.461  44.345  1.00  0.00    -0.000 C 
BRANCH  24  25
ATOM     25  C   UNL     1    -130.954 108.531  44.755  1.00  0.00    -0.003 C 
ATOM     26  C   UNL     1    -131.340 108.686  46.226  1.00  0.00     0.004 C 
ENDBRANCH  24  25
ENDBRANCH  23  24
ENDBRANCH  22  23
ENDBRANCH  21  22
ENDBRANCH  20  21
ENDBRANCH  19  20
ENDBRANCH  18  19
ENDBRANCH  17  18
ENDBRANCH  16  17
ENDBRANCH  15  16
ENDBRANCH   1  15
TORSDOF 22
ENDMDL
MODEL 6
REMARK VINA RESULT:    -4.605      1.937      3.318
REMARK INTER + INTRA:         -12.975
REMARK INTER:                 -11.131
REMARK INTRA:                  -1.845
REMARK UNBOUND:                -2.448
REMARK SMILES CCCCCCCCCCCCCCCCCCCCCCCC(=O)[O-]
REMARK SMILES IDX 13 1 14 2 15 3 16 4 17 5 18 6 19 7 20 8 21 9 22 10 23 11
REMARK SMILES IDX 24 12 25 13 26 14 12 15 11 16 10 17 9 18 8 19 7 20 6 21 5 22
REMARK SMILES IDX 4 23 3 24 2 25 1 26
REMARK H PARENT
REMARK Flexibility Score: inf
ROOT
ATOM      1  C   UNL     1    -130.130 108.581  39.189  1.00  0.00     0.000 C 
ENDROOT
BRANCH   1   2
ATOM      2  C   UNL     1    -129.669 107.122  39.343  1.00  0.00     0.000 C 
BRANCH   2   3
ATOM      3  C   UNL     1    -129.687 106.651  40.809  1.00  0.00     0.000 C 
BRANCH   3   4
ATOM      4  C   UNL     1    -128.342 106.840  41.534  1.00  0.00     0.000 C 
BRANCH   4   5
ATOM      5  C   UNL     1    -128.372 108.020  42.523  1.00  0.00     0.000 C 
BRANCH   5   6
ATOM      6  C   UNL     1    -129.798 108.561  42.732  1.00  0.00     0.000 C 
BRANCH   6   7
ATOM      7  C   UNL     1    -130.091 108.943  44.200  1.00  0.00     0.000 C 
BRANCH   7   8
ATOM      8  C   UNL     1    -131.398 108.339  44.743  1.00  0.00     0.000 C 
BRANCH   8   9
ATOM      9  C   UNL     1    -131.643 108.682  46.219  1.00  0.00     0.000 C 
BRANCH   9  10
ATOM     10  C   UNL     1    -130.353 108.545  47.041  1.00  0.00     0.006 C 
BRANCH  10  11
ATOM     11  C   UNL     1    -130.485 107.498  48.154  1.00  0.00     0.053 C 
BRANCH  11  12
ATOM     12  C   UNL     1    -129.345 107.571  49.124  1.00  0.00     0.041 C 
ATOM     13  O   UNL     1    -128.664 106.544  49.378  1.00  0.00    -0.550 OA
ATOM     14  O   UNL     1    -129.058 108.765  49.774  1.00  0.00    -0.550 OA
ENDBRANCH  11  12
ENDBRANCH  10  11
ENDBRANCH   9  10
ENDBRANCH   8   9
ENDBRANCH   7   8
ENDBRANCH   6   7
ENDBRANCH   5   6
ENDBRANCH   4   5
ENDBRANCH   3   4
ENDBRANCH   2   3
ENDBRANCH   1   2
BRANCH   1  15
ATOM     15  C   UNL     1    -128.930 109.539  39.173  1.00  0.00     0.000 C 
BRANCH  15  16
ATOM     16  C   UNL     1    -129.345 111.016  39.308  1.00  0.00     0.000 C 
BRANCH  16  17
ATOM     17  C   UNL     1    -130.332 111.302  40.455  1.00  0.00     0.000 C 
BRANCH  17  18
ATOM     18  C   UNL     1    -129.691 112.091  41.608  1.00  0.00    -0.000 C 
BRANCH  18  19
ATOM     19  C   UNL     1    -130.061 113.578  41.527  1.00  0.00    -0.000 C 
BRANCH  19  20
ATOM     20  C   UNL     1    -129.877 114.318  42.864  1.00  0.00    -0.000 C 
BRANCH  20  21
ATOM     21  C   UNL     1    -129.835 115.855  42.722  1.00  0.00    -0.000 C 
BRANCH  21  22
ATOM     22  C   UNL     1    -129.594 116.556  44.069  1.00  0.00    -0.000 C 
BRANCH  22  23
ATOM     23  C   UNL     1    -129.847 115.629  45.268  1.00  0.00    -0.000 C 
BRANCH  23  24
ATOM     24  C   UNL     1    -130.491 116.364  46.456  1.00  0.00    -0.000 C 
BRANCH  24  25
ATOM     25  C   UNL     1    -130.803 117.834  46.133  1.00  0.00    -0.003 C 
ATOM     26  C   UNL     1    -131.079 118.666  47.386  1.00  0.00     0.004 C 
ENDBRANCH  24  25
ENDBRANCH  23  24
ENDBRANCH  22  23
ENDBRANCH  21  22
ENDBRANCH  20  21
ENDBRANCH  19  20
ENDBRANCH  18  19
ENDBRANCH  17  18
ENDBRANCH  16  17
ENDBRANCH  15  16
ENDBRANCH   1  15
TORSDOF 22
ENDMDL
MODEL 7
REMARK VINA RESULT:    -4.598      4.950      8.845
REMARK INTER + INTRA:         -12.960
REMARK INTER:                 -11.786
REMARK INTRA:                  -1.174
REMARK UNBOUND:                -2.448
REMARK SMILES CCCCCCCCCCCCCCCCCCCCCCCC(=O)[O-]
REMARK SMILES IDX 13 1 14 2 15 3 16 4 17 5 18 6 19 7 20 8 21 9 22 10 23 11
REMARK SMILES IDX 24 12 25 13 26 14 12 15 11 16 10 17 9 18 8 19 7 20 6 21 5 22
REMARK SMILES IDX 4 23 3 24 2 25 1 26
REMARK H PARENT
REMARK Flexibility Score: inf
ROOT
ATOM      1  C   UNL     1    -130.038 109.423  39.515  1.00  0.00     0.000 C 
ENDROOT
BRANCH   1   2
ATOM      2  C   UNL     1    -130.144 109.039  41.000  1.00  0.00     0.000 C 
BRANCH   2   3
ATOM      3  C   UNL     1    -129.074 109.732  41.865  1.00  0.00     0.000 C 
BRANCH   3   4
ATOM      4  C   UNL     1    -129.431 109.789  43.361  1.00  0.00     0.000 C 
BRANCH   4   5
ATOM      5  C   UNL     1    -129.331 111.215  43.931  1.00  0.00     0.000 C 
BRANCH   5   6
ATOM      6  C   UNL     1    -129.474 112.286  42.834  1.00  0.00     0.000 C 
BRANCH   6   7
ATOM      7  C   UNL     1    -129.678 113.710  43.400  1.00  0.00     0.000 C 
BRANCH   7   8
ATOM      8  C   UNL     1    -129.716 114.802  42.318  1.00  0.00     0.000 C 
BRANCH   8   9
ATOM      9  C   UNL     1    -129.795 116.219  42.906  1.00  0.00     0.000 C 
BRANCH   9  10
ATOM     10  C   UNL     1    -129.691 116.189  44.437  1.00  0.00     0.006 C 
BRANCH  10  11
ATOM     11  C   UNL     1    -130.052 117.540  45.068  1.00  0.00     0.053 C 
BRANCH  11  12
ATOM     12  C   UNL     1    -130.566 117.381  46.467  1.00  0.00     0.041 C 
ATOM     13  O   UNL     1    -130.855 116.238  46.908  1.00  0.00    -0.550 OA
ATOM     14  O   UNL     1    -130.757 118.498  47.270  1.00  0.00    -0.550 OA
ENDBRANCH  11  12
ENDBRANCH  10  11
ENDBRANCH   9  10
ENDBRANCH   8   9
ENDBRANCH   7   8
ENDBRANCH   6   7
ENDBRANCH   5   6
ENDBRANCH   4   5
ENDBRANCH   3   4
ENDBRANCH   2   3
ENDBRANCH   1   2
BRANCH   1  15
ATOM     15  C   UNL     1    -128.745 110.206  39.240  1.00  0.00     0.000 C 
BRANCH  15  16
ATOM     16  C   UNL     1    -129.010 111.625  38.705  1.00  0.00     0.000 C 
BRANCH  16  17
ATOM     17  C   UNL     1    -128.031 112.091  37.612  1.00  0.00     0.000 C 
BRANCH  17  18
ATOM     18  C   UNL     1    -128.397 113.467  37.033  1.00  0.00    -0.000 C 
BRANCH  18  19
ATOM     19  C   UNL     1    -128.738 113.363  35.541  1.00  0.00    -0.000 C 
BRANCH  19  20
ATOM     20  C   UNL     1    -129.841 114.342  35.105  1.00  0.00    -0.000 C 
BRANCH  20  21
ATOM     21  C   UNL     1    -130.626 113.879  33.858  1.00  0.00    -0.000 C 
BRANCH  21  22
ATOM     22  C   UNL     1    -131.906 113.112  34.229  1.00  0.00    -0.000 C 
BRANCH  22  23
ATOM     23  C   UNL     1    -132.807 112.848  33.012  1.00  0.00    -0.000 C 
BRANCH  23  24
ATOM     24  C   UNL     1    -134.174 113.543  33.128  1.00  0.00    -0.000 C 
BRANCH  24  25
ATOM     25  C   UNL     1    -135.133 113.139  31.998  1.00  0.00    -0.003 C 
ATOM     26  C   UNL     1    -135.189 114.176  30.875  1.00  0.00     0.004 C 
ENDBRANCH  24  25
ENDBRANCH  23  24
ENDBRANCH  22  23
ENDBRANCH  21  22
ENDBRANCH  20  21
ENDBRANCH  19  20
ENDBRANCH  18  19
ENDBRANCH  17  18
ENDBRANCH  16  17
ENDBRANCH  15  16
ENDBRANCH   1  15
TORSDOF 22
ENDMDL
MODEL 8
REMARK VINA RESULT:    -4.483      2.768      7.455
REMARK INTER + INTRA:         -12.698
REMARK INTER:                 -10.878
REMARK INTRA:                  -1.820
REMARK UNBOUND:                -2.448
REMARK SMILES CCCCCCCCCCCCCCCCCCCCCCCC(=O)[O-]
REMARK SMILES IDX 13 1 14 2 15 3 16 4 17 5 18 6 19 7 20 8 21 9 22 10 23 11
REMARK SMILES IDX 24 12 25 13 26 14 12 15 11 16 10 17 9 18 8 19 7 20 6 21 5 22
REMARK SMILES IDX 4 23 3 24 2 25 1 26
REMARK H PARENT
REMARK Flexibility Score: inf
ROOT
ATOM      1  C   UNL     1    -129.868 107.781  38.881  1.00  0.00     0.000 C 
ENDROOT
BRANCH   1   2
ATOM      2  C   UNL     1    -131.223 108.505  38.803  1.00  0.00     0.000 C 
BRANCH   2   3
ATOM      3  C   UNL     1    -131.284 109.738  39.724  1.00  0.00     0.000 C 
BRANCH   3   4
ATOM      4  C   UNL     1    -129.983 110.560  39.742  1.00  0.00     0.000 C 
BRANCH   4   5
ATOM      5  C   UNL     1    -129.797 111.330  41.062  1.00  0.00     0.000 C 
BRANCH   5   6
ATOM      6  C   UNL     1    -129.847 112.855  40.851  1.00  0.00     0.000 C 
BRANCH   6   7
ATOM      7  C   UNL     1    -130.451 113.613  42.056  1.00  0.00     0.000 C 
BRANCH   7   8
ATOM      8  C   UNL     1    -129.418 114.440  42.841  1.00  0.00     0.000 C 
BRANCH   8   9
ATOM      9  C   UNL     1    -129.466 115.934  42.495  1.00  0.00     0.000 C 
BRANCH   9  10
ATOM     10  C   UNL     1    -130.120 116.743  43.624  1.00  0.00     0.006 C 
BRANCH  10  11
ATOM     11  C   UNL     1    -129.682 116.258  45.012  1.00  0.00     0.053 C 
BRANCH  11  12
ATOM     12  C   UNL     1    -130.411 116.975  46.108  1.00  0.00     0.041 C 
ATOM     13  O   UNL     1    -130.479 118.232  46.104  1.00  0.00    -0.550 OA
ATOM     14  O   UNL     1    -130.984 116.258  47.150  1.00  0.00    -0.550 OA
ENDBRANCH  11  12
ENDBRANCH  10  11
ENDBRANCH   9  10
ENDBRANCH   8   9
ENDBRANCH   7   8
ENDBRANCH   6   7
ENDBRANCH   5   6
ENDBRANCH   4   5
ENDBRANCH   3   4
ENDBRANCH   2   3
ENDBRANCH   1   2
BRANCH   1  15
ATOM     15  C   UNL     1    -130.062 106.272  39.100  1.00  0.00     0.000 C 
BRANCH  15  16
ATOM     16  C   UNL     1    -129.058 105.683  40.108  1.00  0.00     0.000 C 
BRANCH  16  17
ATOM     17  C   UNL     1    -128.474 106.705  41.102  1.00  0.00     0.000 C 
BRANCH  17  18
ATOM     18  C   UNL     1    -129.502 107.176  42.142  1.00  0.00    -0.000 C 
BRANCH  18  19
ATOM     19  C   UNL     1    -128.981 108.395  42.917  1.00  0.00    -0.000 C 
BRANCH  19  20
ATOM     20  C   UNL     1    -130.062 109.066  43.781  1.00  0.00    -0.000 C 
BRANCH  20  21
ATOM     21  C   UNL     1    -131.246 108.137  44.127  1.00  0.00    -0.000 C 
BRANCH  21  22
ATOM     22  C   UNL     1    -132.055 108.651  45.330  1.00  0.00    -0.000 C 
BRANCH  22  23
ATOM     23  C   UNL     1    -131.159 109.079  46.503  1.00  0.00    -0.000 C 
BRANCH  23  24
ATOM     24  C   UNL     1    -130.561 107.877  47.255  1.00  0.00    -0.000 C 
BRANCH  24  25
ATOM     25  C   UNL     1    -129.686 108.308  48.442  1.00  0.00    -0.003 C 
ATOM     26  C   UNL     1    -129.325 107.140  49.362  1.00  0.00     0.004 C 
ENDBRANCH  24  25
ENDBRANCH  23  24
ENDBRANCH  22  23
ENDBRANCH  21  22
ENDBRANCH  20  21
ENDBRANCH  19  20
ENDBRANCH  18  19
ENDBRANCH  17  18
ENDBRANCH  16  17
ENDBRANCH  15  16
ENDBRANCH   1  15
TORSDOF 22
ENDMDL
MODEL 9
REMARK VINA RESULT:    -4.431      3.562      6.625
REMARK INTER + INTRA:         -12.578
REMARK INTER:                 -10.700
REMARK INTRA:                  -1.878
REMARK UNBOUND:                -2.448
REMARK SMILES CCCCCCCCCCCCCCCCCCCCCCCC(=O)[O-]
REMARK SMILES IDX 13 1 14 2 15 3 16 4 17 5 18 6 19 7 20 8 21 9 22 10 23 11
REMARK SMILES IDX 24 12 25 13 26 14 12 15 11 16 10 17 9 18 8 19 7 20 6 21 5 22
REMARK SMILES IDX 4 23 3 24 2 25 1 26
REMARK H PARENT
REMARK Flexibility Score: inf
ROOT
ATOM      1  C   UNL     1    -131.424 107.817  38.740  1.00  0.00     0.000 C 
ENDROOT
BRANCH   1   2
ATOM      2  C   UNL     1    -129.933 107.476  38.894  1.00  0.00     0.000 C 
BRANCH   2   3
ATOM      3  C   UNL     1    -129.674 105.957  38.894  1.00  0.00     0.000 C 
BRANCH   3   4
ATOM      4  C   UNL     1    -128.957 105.454  40.160  1.00  0.00     0.000 C 
BRANCH   4   5
ATOM      5  C   UNL     1    -129.214 106.361  41.377  1.00  0.00     0.000 C 
BRANCH   5   6
ATOM      6  C   UNL     1    -127.962 107.168  41.769  1.00  0.00     0.000 C 
BRANCH   6   7
ATOM      7  C   UNL     1    -128.293 108.589  42.278  1.00  0.00     0.000 C 
BRANCH   7   8
ATOM      8  C   UNL     1    -129.616 108.670  43.058  1.00  0.00     0.000 C 
BRANCH   8   9
ATOM      9  C   UNL     1    -129.719 109.932  43.925  1.00  0.00     0.000 C 
BRANCH   9  10
ATOM     10  C   UNL     1    -129.323 111.184  43.129  1.00  0.00     0.006 C 
BRANCH  10  11
ATOM     11  C   UNL     1    -129.053 112.388  44.040  1.00  0.00     0.053 C 
BRANCH  11  12
ATOM     12  C   UNL     1    -129.540 113.667  43.430  1.00  0.00     0.041 C 
ATOM     13  O   UNL     1    -129.431 114.751  44.062  1.00  0.00    -0.550 OA
ATOM     14  O   UNL     1    -130.145 113.658  42.180  1.00  0.00    -0.550 OA
ENDBRANCH  11  12
ENDBRANCH  10  11
ENDBRANCH   9  10
ENDBRANCH   8   9
ENDBRANCH   7   8
ENDBRANCH   6   7
ENDBRANCH   5   6
ENDBRANCH   4   5
ENDBRANCH   3   4
ENDBRANCH   2   3
ENDBRANCH   1   2
BRANCH   1  15
ATOM     15  C   UNL     1    -131.646 109.337  38.762  1.00  0.00     0.000 C 
BRANCH  15  16
ATOM     16  C   UNL     1    -131.299 109.970  40.122  1.00  0.00     0.000 C 
BRANCH  16  17
ATOM     17  C   UNL     1    -130.117 110.957  40.087  1.00  0.00     0.000 C 
BRANCH  17  18
ATOM     18  C   UNL     1    -129.189 110.730  38.883  1.00  0.00    -0.000 C 
BRANCH  18  19
ATOM     19  C   UNL     1    -128.422 112.013  38.531  1.00  0.00    -0.000 C 
BRANCH  19  20
ATOM     20  C   UNL     1    -128.202 112.187  37.019  1.00  0.00    -0.000 C 
BRANCH  20  21
ATOM     21  C   UNL     1    -128.613 113.578  36.488  1.00  0.00    -0.000 C 
BRANCH  21  22
ATOM     22  C   UNL     1    -128.956 113.549  34.989  1.00  0.00    -0.000 C 
BRANCH  22  23
ATOM     23  C   UNL     1    -130.137 114.469  34.639  1.00  0.00    -0.000 C 
BRANCH  23  24
ATOM     24  C   UNL     1    -131.073 113.850  33.586  1.00  0.00    -0.000 C 
BRANCH  24  25
ATOM     25  C   UNL     1    -132.457 113.511  34.163  1.00  0.00    -0.003 C 
ATOM     26  C   UNL     1    -133.351 112.783  33.158  1.00  0.00     0.004 C 
ENDBRANCH  24  25
ENDBRANCH  23  24
ENDBRANCH  22  23
ENDBRANCH  21  22
ENDBRANCH  20  21
ENDBRANCH  19  20
ENDBRANCH  18  19
ENDBRANCH  17  18
ENDBRANCH  16  17
ENDBRANCH  15  16
ENDBRANCH   1  15
TORSDOF 22
ENDMDL
