MODEL 1
REMARK VINA RESULT:    -3.554      0.000      0.000
REMARK INTER + INTRA:          -5.250
REMARK INTER:                  -5.424
REMARK INTRA:                   0.174
REMARK UNBOUND:                 0.174
REMARK SMILES CC1=CCC[C@H](C)C(=O)C[C@H](C(C)C)C(=O)C1
REMARK SMILES IDX 8 1 9 2 6 3 7 4 5 5 4 6 3 7 2 8 1 9 10 11 11 12 15 13 16 14
REMARK SMILES IDX 17 15 12 17 13 18 14 19
REMARK H PARENT
REMARK Flexibility Score: 70.00
ROOT
ATOM      1  C   UNL     1      41.110 -40.656  -5.219  1.00  0.00     0.136 C 
ATOM      2  O   UNL     1      40.850 -41.626  -5.916  1.00  0.00    -0.299 OA
ENDROOT
BRANCH   1   3
ATOM      3  C   UNL     1      42.354 -40.676  -4.346  1.00  0.00     0.053 C 
ATOM      4  C   UNL     1      43.510 -41.378  -5.073  1.00  0.00     0.016 C 
BRANCH   3   5
ATOM      5  C   UNL     1      42.754 -39.244  -3.929  1.00  0.00     0.015 C 
BRANCH   5   6
ATOM      6  C   UNL     1      42.565 -39.017  -2.414  1.00  0.00     0.028 C 
BRANCH   6   7
ATOM      7  C   UNL     1      41.808 -40.133  -1.741  1.00  0.00    -0.028 C 
ATOM      8  C   UNL     1      40.492 -40.096  -1.422  1.00  0.00    -0.070 CG0
ATOM      9  C   UNL     1      39.878 -41.344  -0.835  1.00  0.00     0.039 C 
ATOM     10  G   UNL     1      39.624 -38.857  -1.590  1.00  0.00     0.000 G0
ENDBRANCH   6   7
ENDBRANCH   5   6
ENDBRANCH   3   5
ENDBRANCH   1   3
BRANCH   1  11
ATOM     11  C   UNL     1      40.162 -39.476  -5.200  1.00  0.00     0.087 C 
BRANCH  11  12
ATOM     12  C   UNL     1      39.073 -39.515  -4.089  1.00  0.00     0.066 C 
BRANCH  12  13
ATOM     13  C   UNL     1      39.331 -38.463  -3.016  1.00  0.00     0.140 C 
ATOM     14  O   UNL     1      39.376 -37.285  -3.343  1.00  0.00    -0.299 OA
BRANCH  13  15
ATOM     15  C   UNL     1      39.606 -38.839  -1.575  1.00  0.00     0.106 CG0
ATOM     16  G   UNL     1      40.475 -40.081  -1.420  1.00  0.00     0.000 G0
ENDBRANCH  13  15
ENDBRANCH  12  13
BRANCH  12  17
ATOM     17  C   UNL     1      37.593 -39.496  -4.596  1.00  0.00    -0.006 C 
ATOM     18  C   UNL     1      36.993 -40.915  -4.587  1.00  0.00     0.008 C 
ATOM     19  C   UNL     1      37.464 -38.917  -6.015  1.00  0.00     0.008 C 
ENDBRANCH  12  17
ENDBRANCH  11  12
ENDBRANCH   1  11
TORSDOF 1
ENDMDL
MODEL 2
REMARK VINA RESULT:    -3.515      2.095      4.211
REMARK INTER + INTRA:          -5.190
REMARK INTER:                  -5.282
REMARK INTRA:                   0.092
REMARK UNBOUND:                 0.174
REMARK SMILES CC1=CCC[C@H](C)C(=O)C[C@H](C(C)C)C(=O)C1
REMARK SMILES IDX 8 1 9 2 6 3 7 4 5 5 4 6 3 7 2 8 1 9 10 11 11 12 15 13 16 14
REMARK SMILES IDX 17 15 12 17 13 18 14 19
REMARK H PARENT
REMARK Flexibility Score: 70.00
ROOT
ATOM      1  C   UNL     1      42.564 -40.577  -1.125  1.00  0.00     0.136 C 
ATOM      2  O   UNL     1      43.267 -40.843  -0.161  1.00  0.00    -0.299 OA
ENDROOT
BRANCH   1   3
ATOM      3  C   UNL     1      41.074 -40.361  -0.926  1.00  0.00     0.053 C 
ATOM      4  C   UNL     1      40.427 -41.607  -0.305  1.00  0.00     0.016 C 
BRANCH   3   5
ATOM      5  C   UNL     1      40.811 -39.113  -0.056  1.00  0.00     0.015 C 
BRANCH   5   6
ATOM      6  C   UNL     1      40.304 -37.925  -0.899  1.00  0.00     0.028 C 
BRANCH   6   7
ATOM      7  C   UNL     1      39.381 -38.345  -2.015  1.00  0.00    -0.028 C 
ATOM      8  C   UNL     1      39.681 -38.286  -3.334  1.00  0.00    -0.070 CG0
ATOM      9  C   UNL     1      38.670 -38.838  -4.309  1.00  0.00     0.039 C 
ATOM     10  G   UNL     1      40.960 -37.659  -3.875  1.00  0.00     0.000 G0
ENDBRANCH   6   7
ENDBRANCH   5   6
ENDBRANCH   3   5
ENDBRANCH   1   3
BRANCH   1  11
ATOM     11  C   UNL     1      43.184 -40.519  -2.506  1.00  0.00     0.087 C 
BRANCH  11  12
ATOM     12  C   UNL     1      42.266 -39.947  -3.624  1.00  0.00     0.066 C 
BRANCH  12  13
ATOM     13  C   UNL     1      42.228 -38.423  -3.589  1.00  0.00     0.140 C 
ATOM     14  O   UNL     1      43.231 -37.815  -3.242  1.00  0.00    -0.299 OA
BRANCH  13  15
ATOM     15  C   UNL     1      40.965 -37.646  -3.901  1.00  0.00     0.106 CG0
ATOM     16  G   UNL     1      39.701 -38.278  -3.334  1.00  0.00     0.000 G0
ENDBRANCH  13  15
ENDBRANCH  12  13
BRANCH  12  17
ATOM     17  C   UNL     1      42.530 -40.502  -5.063  1.00  0.00    -0.006 C 
ATOM     18  C   UNL     1      41.319 -41.306  -5.570  1.00  0.00     0.008 C 
ATOM     19  C   UNL     1      43.778 -41.399  -5.128  1.00  0.00     0.008 C 
ENDBRANCH  12  17
ENDBRANCH  11  12
ENDBRANCH   1  11
TORSDOF 1
ENDMDL
MODEL 3
REMARK VINA RESULT:    -3.478      1.839      3.949
REMARK INTER + INTRA:          -5.135
REMARK INTER:                  -4.883
REMARK INTRA:                  -0.252
REMARK UNBOUND:                 0.174
REMARK SMILES CC1=CCC[C@H](C)C(=O)C[C@H](C(C)C)C(=O)C1
REMARK SMILES IDX 8 1 9 2 6 3 7 4 5 5 4 6 3 7 2 8 1 9 10 11 11 12 15 13 16 14
REMARK SMILES IDX 17 15 12 17 13 18 14 19
REMARK H PARENT
REMARK Flexibility Score: 70.00
ROOT
ATOM      1  C   UNL     1      38.393 -40.614  -4.945  1.00  0.00     0.136 C 
ATOM      2  O   UNL     1      37.322 -41.201  -4.881  1.00  0.00    -0.299 OA
ENDROOT
BRANCH   1   3
ATOM      3  C   UNL     1      38.481 -39.301  -5.704  1.00  0.00     0.053 C 
ATOM      4  C   UNL     1      38.094 -39.504  -7.176  1.00  0.00     0.016 C 
BRANCH   3   5
ATOM      5  C   UNL     1      37.592 -38.225  -5.044  1.00  0.00     0.015 C 
BRANCH   5   6
ATOM      6  C   UNL     1      38.239 -37.657  -3.764  1.00  0.00     0.028 C 
BRANCH   6   7
ATOM      7  C   UNL     1      37.607 -38.183  -2.501  1.00  0.00    -0.028 C 
ATOM      8  C   UNL     1      38.288 -38.662  -1.433  1.00  0.00    -0.070 CG0
ATOM      9  C   UNL     1      37.493 -39.060  -0.214  1.00  0.00     0.039 C 
ATOM     10  G   UNL     1      39.799 -38.852  -1.420  1.00  0.00     0.000 G0
ENDBRANCH   6   7
ENDBRANCH   5   6
ENDBRANCH   3   5
ENDBRANCH   1   3
BRANCH   1  11
ATOM     11  C   UNL     1      39.620 -41.233  -4.310  1.00  0.00     0.087 C 
BRANCH  11  12
ATOM     12  C   UNL     1      40.560 -40.238  -3.569  1.00  0.00     0.066 C 
BRANCH  12  13
ATOM     13  C   UNL     1      40.233 -40.163  -2.082  1.00  0.00     0.140 C 
ATOM     14  O   UNL     1      40.266 -41.190  -1.418  1.00  0.00    -0.299 OA
BRANCH  13  15
ATOM     15  C   UNL     1      39.799 -38.872  -1.421  1.00  0.00     0.106 CG0
ATOM     16  G   UNL     1      38.290 -38.666  -1.408  1.00  0.00     0.000 G0
ENDBRANCH  13  15
ENDBRANCH  12  13
BRANCH  12  17
ATOM     17  C   UNL     1      42.090 -40.433  -3.832  1.00  0.00    -0.006 C 
ATOM     18  C   UNL     1      42.840 -39.093  -3.717  1.00  0.00     0.008 C 
ATOM     19  C   UNL     1      42.377 -41.039  -5.217  1.00  0.00     0.008 C 
ENDBRANCH  12  17
ENDBRANCH  11  12
ENDBRANCH   1  11
TORSDOF 1
ENDMDL
MODEL 4
REMARK VINA RESULT:    -3.437      2.155      3.794
REMARK INTER + INTRA:          -5.072
REMARK INTER:                  -5.081
REMARK INTRA:                   0.009
REMARK UNBOUND:                 0.174
REMARK SMILES CC1=CCC[C@H](C)C(=O)C[C@H](C(C)C)C(=O)C1
REMARK SMILES IDX 8 1 9 2 6 3 7 4 5 5 4 6 3 7 2 8 1 9 10 11 11 12 15 13 16 14
REMARK SMILES IDX 17 15 12 17 13 18 14 19
REMARK H PARENT
REMARK Flexibility Score: 70.00
ROOT
ATOM      1  C   UNL     1      42.478 -40.067  -3.769  1.00  0.00     0.136 C 
ATOM      2  O   UNL     1      42.276 -40.791  -2.806  1.00  0.00    -0.299 OA
ENDROOT
BRANCH   1   3
ATOM      3  C   UNL     1      42.541 -40.674  -5.160  1.00  0.00     0.053 C 
ATOM      4  C   UNL     1      43.736 -41.631  -5.276  1.00  0.00     0.016 C 
BRANCH   3   5
ATOM      5  C   UNL     1      41.221 -41.398  -5.504  1.00  0.00     0.015 C 
BRANCH   5   6
ATOM      6  C   UNL     1      40.103 -40.401  -5.872  1.00  0.00     0.028 C 
BRANCH   6   7
ATOM      7  C   UNL     1      38.955 -40.415  -4.896  1.00  0.00    -0.028 C 
ATOM      8  C   UNL     1      38.438 -39.319  -4.290  1.00  0.00    -0.070 CG0
ATOM      9  C   UNL     1      37.226 -39.510  -3.412  1.00  0.00     0.039 C 
ATOM     10  G   UNL     1      39.041 -37.927  -4.422  1.00  0.00     0.000 G0
ENDBRANCH   6   7
ENDBRANCH   5   6
ENDBRANCH   3   5
ENDBRANCH   1   3
BRANCH   1  11
ATOM     11  C   UNL     1      42.711 -38.586  -3.552  1.00  0.00     0.087 C 
BRANCH  11  12
ATOM     12  C   UNL     1      41.686 -37.643  -4.244  1.00  0.00     0.066 C 
BRANCH  12  13
ATOM     13  C   UNL     1      40.311 -37.737  -3.592  1.00  0.00     0.140 C 
ATOM     14  O   UNL     1      40.234 -37.715  -2.371  1.00  0.00    -0.299 OA
BRANCH  13  15
ATOM     15  C   UNL     1      39.049 -37.931  -4.406  1.00  0.00     0.106 CG0
ATOM     16  G   UNL     1      38.434 -39.317  -4.265  1.00  0.00     0.000 G0
ENDBRANCH  13  15
ENDBRANCH  12  13
BRANCH  12  17
ATOM     17  C   UNL     1      42.153 -36.161  -4.432  1.00  0.00    -0.006 C 
ATOM     18  C   UNL     1      42.774 -35.614  -3.133  1.00  0.00     0.008 C 
ATOM     19  C   UNL     1      41.004 -35.231  -4.857  1.00  0.00     0.008 C 
ENDBRANCH  12  17
ENDBRANCH  11  12
ENDBRANCH   1  11
TORSDOF 1
ENDMDL
MODEL 5
REMARK VINA RESULT:    -3.431      2.076      3.560
REMARK INTER + INTRA:          -5.062
REMARK INTER:                  -4.560
REMARK INTRA:                  -0.502
REMARK UNBOUND:                 0.174
REMARK SMILES CC1=CCC[C@H](C)C(=O)C[C@H](C(C)C)C(=O)C1
REMARK SMILES IDX 8 1 9 2 6 3 7 4 5 5 4 6 3 7 2 8 1 9 10 11 11 12 15 13 16 14
REMARK SMILES IDX 17 15 12 17 13 18 14 19
REMARK H PARENT
REMARK Flexibility Score: 70.00
ROOT
ATOM      1  C   UNL     1      39.614 -37.293  -3.439  1.00  0.00     0.136 C 
ATOM      2  O   UNL     1      38.971 -36.372  -2.955  1.00  0.00    -0.299 OA
ENDROOT
BRANCH   1   3
ATOM      3  C   UNL     1      40.725 -36.989  -4.430  1.00  0.00     0.053 C 
ATOM      4  C   UNL     1      40.195 -36.126  -5.584  1.00  0.00     0.016 C 
BRANCH   3   5
ATOM      5  C   UNL     1      41.914 -36.298  -3.727  1.00  0.00     0.015 C 
BRANCH   5   6
ATOM      6  C   UNL     1      42.975 -37.318  -3.266  1.00  0.00     0.028 C 
BRANCH   6   7
ATOM      7  C   UNL     1      42.907 -37.614  -1.790  1.00  0.00    -0.028 C 
ATOM      8  C   UNL     1      42.744 -38.847  -1.253  1.00  0.00    -0.070 CG0
ATOM      9  C   UNL     1      42.793 -38.969   0.251  1.00  0.00     0.039 C 
ATOM     10  G   UNL     1      42.476 -40.094  -2.084  1.00  0.00     0.000 G0
ENDBRANCH   6   7
ENDBRANCH   5   6
ENDBRANCH   3   5
ENDBRANCH   1   3
BRANCH   1  11
ATOM     11  C   UNL     1      39.258 -38.720  -3.079  1.00  0.00     0.087 C 
BRANCH  11  12
ATOM     12  C   UNL     1      40.292 -39.795  -3.520  1.00  0.00     0.066 C 
BRANCH  12  13
ATOM     13  C   UNL     1      41.020 -40.396  -2.322  1.00  0.00     0.140 C 
ATOM     14  O   UNL     1      40.385 -41.068  -1.522  1.00  0.00    -0.299 OA
BRANCH  13  15
ATOM     15  C   UNL     1      42.486 -40.123  -2.057  1.00  0.00     0.106 CG0
ATOM     16  G   UNL     1      42.738 -38.858  -1.246  1.00  0.00     0.000 G0
ENDBRANCH  13  15
ENDBRANCH  12  13
BRANCH  12  17
ATOM     17  C   UNL     1      39.750 -40.892  -4.496  1.00  0.00    -0.006 C 
ATOM     18  C   UNL     1      40.780 -41.203  -5.597  1.00  0.00     0.008 C 
ATOM     19  C   UNL     1      38.426 -40.482  -5.164  1.00  0.00     0.008 C 
ENDBRANCH  12  17
ENDBRANCH  11  12
ENDBRANCH   1  11
TORSDOF 1
ENDMDL
MODEL 6
REMARK VINA RESULT:    -3.266      2.640      4.444
REMARK INTER + INTRA:          -4.811
REMARK INTER:                  -4.479
REMARK INTRA:                  -0.332
REMARK UNBOUND:                 0.174
REMARK SMILES CC1=CCC[C@H](C)C(=O)C[C@H](C(C)C)C(=O)C1
REMARK SMILES IDX 8 1 9 2 6 3 7 4 5 5 4 6 3 7 2 8 1 9 10 11 11 12 15 13 16 14
REMARK SMILES IDX 17 15 12 17 13 18 14 19
REMARK H PARENT
REMARK Flexibility Score: 70.00
ROOT
ATOM      1  C   UNL     1      42.400 -40.871  -0.699  1.00  0.00     0.136 C 
ATOM      2  O   UNL     1      42.967 -41.676   0.026  1.00  0.00    -0.299 OA
ENDROOT
BRANCH   1   3
ATOM      3  C   UNL     1      41.049 -40.313  -0.284  1.00  0.00     0.053 C 
ATOM      4  C   UNL     1      39.954 -41.376  -0.452  1.00  0.00     0.016 C 
BRANCH   3   5
ATOM      5  C   UNL     1      41.093 -39.793   1.169  1.00  0.00     0.015 C 
BRANCH   5   6
ATOM      6  C   UNL     1      41.825 -38.438   1.268  1.00  0.00     0.028 C 
BRANCH   6   7
ATOM      7  C   UNL     1      41.179 -37.357   0.440  1.00  0.00    -0.028 C 
ATOM      8  C   UNL     1      41.620 -36.939  -0.771  1.00  0.00    -0.070 CG0
ATOM      9  C   UNL     1      40.794 -35.909  -1.502  1.00  0.00     0.039 C 
ATOM     10  G   UNL     1      42.918 -37.425  -1.403  1.00  0.00     0.000 G0
ENDBRANCH   6   7
ENDBRANCH   5   6
ENDBRANCH   3   5
ENDBRANCH   1   3
BRANCH   1  11
ATOM     11  C   UNL     1      43.032 -40.484  -2.020  1.00  0.00     0.087 C 
BRANCH  11  12
ATOM     12  C   UNL     1      42.195 -39.510  -2.898  1.00  0.00     0.066 C 
BRANCH  12  13
ATOM     13  C   UNL     1      42.697 -38.076  -2.776  1.00  0.00     0.140 C 
ATOM     14  O   UNL     1      42.994 -37.466  -3.795  1.00  0.00    -0.299 OA
BRANCH  13  15
ATOM     15  C   UNL     1      42.909 -37.412  -1.431  1.00  0.00     0.106 CG0
ATOM     16  G   UNL     1      41.618 -36.958  -0.762  1.00  0.00     0.000 G0
ENDBRANCH  13  15
ENDBRANCH  12  13
BRANCH  12  17
ATOM     17  C   UNL     1      41.998 -39.946  -4.388  1.00  0.00    -0.006 C 
ATOM     18  C   UNL     1      40.585 -40.520  -4.608  1.00  0.00     0.008 C 
ATOM     19  C   UNL     1      43.029 -40.995  -4.836  1.00  0.00     0.008 C 
ENDBRANCH  12  17
ENDBRANCH  11  12
ENDBRANCH   1  11
TORSDOF 1
ENDMDL
MODEL 7
REMARK VINA RESULT:    -3.261      2.156      4.514
REMARK INTER + INTRA:          -4.802
REMARK INTER:                  -4.641
REMARK INTRA:                  -0.161
REMARK UNBOUND:                 0.174
REMARK SMILES CC1=CCC[C@H](C)C(=O)C[C@H](C(C)C)C(=O)C1
REMARK SMILES IDX 8 1 9 2 6 3 7 4 5 5 4 6 3 7 2 8 1 9 10 11 11 12 15 13 16 14
REMARK SMILES IDX 17 15 12 17 13 18 14 19
REMARK H PARENT
REMARK Flexibility Score: 70.00
ROOT
ATOM      1  C   UNL     1      42.649 -39.029  -2.404  1.00  0.00     0.136 C 
ATOM      2  O   UNL     1      42.744 -38.002  -1.746  1.00  0.00    -0.299 OA
ENDROOT
BRANCH   1   3
ATOM      3  C   UNL     1      42.755 -38.959  -3.917  1.00  0.00     0.053 C 
ATOM      4  C   UNL     1      42.951 -40.362  -4.509  1.00  0.00     0.016 C 
BRANCH   3   5
ATOM      5  C   UNL     1      41.510 -38.275  -4.524  1.00  0.00     0.015 C 
BRANCH   5   6
ATOM      6  C   UNL     1      40.375 -39.286  -4.787  1.00  0.00     0.028 C 
BRANCH   6   7
ATOM      7  C   UNL     1      39.143 -39.019  -3.961  1.00  0.00    -0.028 C 
ATOM      8  C   UNL     1      38.808 -39.683  -2.830  1.00  0.00    -0.070 CG0
ATOM      9  C   UNL     1      37.584 -39.217  -2.079  1.00  0.00     0.039 C 
ATOM     10  G   UNL     1      39.577 -40.890  -2.308  1.00  0.00     0.000 G0
ENDBRANCH   6   7
ENDBRANCH   5   6
ENDBRANCH   3   5
ENDBRANCH   1   3
BRANCH   1  11
ATOM     11  C   UNL     1      42.377 -40.342  -1.699  1.00  0.00     0.087 C 
BRANCH  11  12
ATOM     12  C   UNL     1      41.390 -40.261  -0.500  1.00  0.00     0.066 C 
BRANCH  12  13
ATOM     13  C   UNL     1      40.010 -40.790  -0.874  1.00  0.00     0.140 C 
ATOM     14  O   UNL     1      39.268 -41.186   0.015  1.00  0.00    -0.299 OA
BRANCH  13  15
ATOM     15  C   UNL     1      39.561 -40.909  -2.316  1.00  0.00     0.106 CG0
ATOM     16  G   UNL     1      38.811 -39.686  -2.828  1.00  0.00     0.000 G0
ENDBRANCH  13  15
ENDBRANCH  12  13
BRANCH  12  17
ATOM     17  C   UNL     1      41.912 -40.865   0.845  1.00  0.00    -0.006 C 
ATOM     18  C   UNL     1      43.176 -40.125   1.324  1.00  0.00     0.008 C 
ATOM     19  C   UNL     1      42.236 -42.365   0.730  1.00  0.00     0.008 C 
ENDBRANCH  12  17
ENDBRANCH  11  12
ENDBRANCH   1  11
TORSDOF 1
ENDMDL
MODEL 8
REMARK VINA RESULT:    -3.164      2.358      4.973
REMARK INTER + INTRA:          -4.655
REMARK INTER:                  -5.026
REMARK INTRA:                   0.371
REMARK UNBOUND:                 0.174
REMARK SMILES CC1=CCC[C@H](C)C(=O)C[C@H](C(C)C)C(=O)C1
REMARK SMILES IDX 8 1 9 2 6 3 7 4 5 5 4 6 3 7 2 8 1 9 10 11 11 12 15 13 16 14
REMARK SMILES IDX 17 15 12 17 13 18 14 19
REMARK H PARENT
REMARK Flexibility Score: 70.00
ROOT
ATOM      1  C   UNL     1      38.878 -39.963  -3.366  1.00  0.00     0.136 C 
ATOM      2  O   UNL     1      37.933 -39.660  -2.652  1.00  0.00    -0.299 OA
ENDROOT
BRANCH   1   3
ATOM      3  C   UNL     1      38.625 -40.729  -4.653  1.00  0.00     0.053 C 
ATOM      4  C   UNL     1      37.148 -41.136  -4.756  1.00  0.00     0.016 C 
BRANCH   3   5
ATOM      5  C   UNL     1      39.054 -39.897  -5.881  1.00  0.00     0.015 C 
BRANCH   5   6
ATOM      6  C   UNL     1      38.056 -38.758  -6.175  1.00  0.00     0.028 C 
BRANCH   6   7
ATOM      7  C   UNL     1      38.720 -37.515  -6.710  1.00  0.00    -0.028 C 
ATOM      8  C   UNL     1      39.542 -36.707  -5.999  1.00  0.00    -0.070 CG0
ATOM      9  C   UNL     1      40.194 -35.556  -6.726  1.00  0.00     0.039 C 
ATOM     10  G   UNL     1      39.802 -36.879  -4.509  1.00  0.00     0.000 G0
ENDBRANCH   6   7
ENDBRANCH   5   6
ENDBRANCH   3   5
ENDBRANCH   1   3
BRANCH   1  11
ATOM     11  C   UNL     1      40.285 -39.613  -2.929  1.00  0.00     0.087 C 
BRANCH  11  12
ATOM     12  C   UNL     1      41.216 -39.076  -4.054  1.00  0.00     0.066 C 
BRANCH  12  13
ATOM     13  C   UNL     1      41.123 -37.559  -4.181  1.00  0.00     0.140 C 
ATOM     14  O   UNL     1      42.121 -36.886  -3.966  1.00  0.00    -0.299 OA
BRANCH  13  15
ATOM     15  C   UNL     1      39.815 -36.861  -4.492  1.00  0.00     0.106 CG0
ATOM     16  G   UNL     1      39.540 -36.709  -5.983  1.00  0.00     0.000 G0
ENDBRANCH  13  15
ENDBRANCH  12  13
BRANCH  12  17
ATOM     17  C   UNL     1      42.698 -39.576  -3.998  1.00  0.00    -0.006 C 
ATOM     18  C   UNL     1      42.935 -40.699  -5.026  1.00  0.00     0.008 C 
ATOM     19  C   UNL     1      43.092 -40.095  -2.605  1.00  0.00     0.008 C 
ENDBRANCH  12  17
ENDBRANCH  11  12
ENDBRANCH   1  11
TORSDOF 1
ENDMDL
MODEL 9
REMARK VINA RESULT:    -2.979      2.202      3.250
REMARK INTER + INTRA:          -4.373
REMARK INTER:                  -4.162
REMARK INTRA:                  -0.211
REMARK UNBOUND:                 0.174
REMARK SMILES CC1=CCC[C@H](C)C(=O)C[C@H](C(C)C)C(=O)C1
REMARK SMILES IDX 8 1 9 2 6 3 7 4 5 5 4 6 3 7 2 8 1 9 10 11 11 12 15 13 16 14
REMARK SMILES IDX 17 15 12 17 13 18 14 19
REMARK H PARENT
REMARK Flexibility Score: 70.00
ROOT
ATOM      1  C   UNL     1      38.606 -40.026  -5.268  1.00  0.00     0.136 C 
ATOM      2  O   UNL     1      37.393 -40.137  -5.165  1.00  0.00    -0.299 OA
ENDROOT
BRANCH   1   3
ATOM      3  C   UNL     1      39.508 -41.076  -4.642  1.00  0.00     0.053 C 
ATOM      4  C   UNL     1      40.894 -41.059  -5.304  1.00  0.00     0.016 C 
BRANCH   3   5
ATOM      5  C   UNL     1      39.624 -40.861  -3.117  1.00  0.00     0.015 C 
BRANCH   5   6
ATOM      6  C   UNL     1      40.435 -39.593  -2.779  1.00  0.00     0.028 C 
BRANCH   6   7
ATOM      7  C   UNL     1      39.597 -38.506  -2.154  1.00  0.00    -0.028 C 
ATOM      8  C   UNL     1      39.404 -37.275  -2.683  1.00  0.00    -0.070 CG0
ATOM      9  C   UNL     1      38.456 -36.344  -1.965  1.00  0.00     0.039 C 
ATOM     10  G   UNL     1      40.122 -36.776  -3.930  1.00  0.00     0.000 G0
ENDBRANCH   6   7
ENDBRANCH   5   6
ENDBRANCH   3   5
ENDBRANCH   1   3
BRANCH   1  11
ATOM     11  C   UNL     1      39.186 -38.819  -5.975  1.00  0.00     0.087 C 
BRANCH  11  12
ATOM     12  C   UNL     1      38.381 -37.498  -5.804  1.00  0.00     0.066 C 
BRANCH  12  13
ATOM     13  C   UNL     1      39.203 -36.429  -5.093  1.00  0.00     0.140 C 
ATOM     14  O   UNL     1      39.162 -35.279  -5.508  1.00  0.00    -0.299 OA
BRANCH  13  15
ATOM     15  C   UNL     1      40.124 -36.764  -3.938  1.00  0.00     0.106 CG0
ATOM     16  G   UNL     1      39.396 -37.270  -2.700  1.00  0.00     0.000 G0
ENDBRANCH  13  15
ENDBRANCH  12  13
BRANCH  12  17
ATOM     17  C   UNL     1      37.696 -36.954  -7.102  1.00  0.00    -0.006 C 
ATOM     18  C   UNL     1      36.165 -37.098  -7.014  1.00  0.00     0.008 C 
ATOM     19  C   UNL     1      38.184 -37.674  -8.371  1.00  0.00     0.008 C 
ENDBRANCH  12  17
ENDBRANCH  11  12
ENDBRANCH   1  11
TORSDOF 1
ENDMDL
