MODEL 1
REMARK VINA RESULT:    -3.476      0.000      0.000
REMARK INTER + INTRA:          -6.290
REMARK INTER:                  -5.305
REMARK INTRA:                  -0.984
REMARK UNBOUND:                -0.984
REMARK SMILES O=C([O-])CCCCCCCCC(=O)[O-]
REMARK SMILES IDX 7 1 6 2 5 3 4 4 2 5 1 6 3 7 8 8 9 9 10 10 11 11 12 12 13 13
REMARK SMILES IDX 14 14
REMARK H PARENT
REMARK Flexibility Score: inf
ROOT
ATOM      1  C   UNL     1      25.461  11.868  20.673  1.00  0.00     0.000 C 
ENDROOT
BRANCH   1   2
ATOM      2  C   UNL     1      26.005  12.660  21.875  1.00  0.00     0.000 C 
BRANCH   2   3
ATOM      3  C   UNL     1      26.873  11.805  22.810  1.00  0.00     0.006 C 
BRANCH   3   4
ATOM      4  C   UNL     1      26.888  10.342  22.357  1.00  0.00     0.053 C 
BRANCH   4   5
ATOM      5  C   UNL     1      28.286   9.897  22.066  1.00  0.00     0.041 C 
ATOM      6  O   UNL     1      28.588   9.466  20.922  1.00  0.00    -0.550 OA
ATOM      7  O   UNL     1      29.244   9.913  23.071  1.00  0.00    -0.550 OA
ENDBRANCH   4   5
ENDBRANCH   3   4
ENDBRANCH   2   3
ENDBRANCH   1   2
BRANCH   1   8
ATOM      8  C   UNL     1      24.199  12.463  20.017  1.00  0.00     0.000 C 
BRANCH   8   9
ATOM      9  C   UNL     1      22.887  11.714  20.323  1.00  0.00     0.000 C 
BRANCH   9  10
ATOM     10  C   UNL     1      23.051  10.422  21.150  1.00  0.00     0.006 C 
BRANCH  10  11
ATOM     11  C   UNL     1      22.300  10.428  22.491  1.00  0.00     0.053 C 
BRANCH  11  12
ATOM     12  C   UNL     1      23.055  11.167  23.554  1.00  0.00     0.041 C 
ATOM     13  O   UNL     1      22.910  12.410  23.685  1.00  0.00    -0.550 OA
ATOM     14  O   UNL     1      23.945  10.487  24.375  1.00  0.00    -0.550 OA
ENDBRANCH  11  12
ENDBRANCH  10  11
ENDBRANCH   9  10
ENDBRANCH   8   9
ENDBRANCH   1   8
TORSDOF 9
ENDMDL
MODEL 2
REMARK VINA RESULT:    -3.367      2.063      5.018
REMARK INTER + INTRA:          -6.123
REMARK INTER:                  -5.165
REMARK INTRA:                  -0.958
REMARK UNBOUND:                -0.984
REMARK SMILES O=C([O-])CCCCCCCCC(=O)[O-]
REMARK SMILES IDX 7 1 6 2 5 3 4 4 2 5 1 6 3 7 8 8 9 9 10 10 11 11 12 12 13 13
REMARK SMILES IDX 14 14
REMARK H PARENT
REMARK Flexibility Score: inf
ROOT
ATOM      1  C   UNL     1      23.016  11.337  22.916  1.00  0.00     0.000 C 
ENDROOT
BRANCH   1   2
ATOM      2  C   UNL     1      22.805  10.345  21.758  1.00  0.00     0.000 C 
BRANCH   2   3
ATOM      3  C   UNL     1      23.277  10.899  20.405  1.00  0.00     0.006 C 
BRANCH   3   4
ATOM      4  C   UNL     1      22.895  12.374  20.254  1.00  0.00     0.053 C 
BRANCH   4   5
ATOM      5  C   UNL     1      24.002  13.139  19.601  1.00  0.00     0.041 C 
ATOM      6  O   UNL     1      23.752  14.198  18.966  1.00  0.00    -0.550 OA
ATOM      7  O   UNL     1      25.304  12.657  19.651  1.00  0.00    -0.550 OA
ENDBRANCH   4   5
ENDBRANCH   3   4
ENDBRANCH   2   3
ENDBRANCH   1   2
BRANCH   1   8
ATOM      8  C   UNL     1      24.400  11.264  23.593  1.00  0.00     0.000 C 
BRANCH   8   9
ATOM      9  C   UNL     1      25.365  12.410  23.233  1.00  0.00     0.000 C 
BRANCH   9  10
ATOM     10  C   UNL     1      26.785  11.964  22.828  1.00  0.00     0.006 C 
BRANCH  10  11
ATOM     11  C   UNL     1      26.837  10.636  22.056  1.00  0.00     0.053 C 
BRANCH  11  12
ATOM     12  C   UNL     1      27.882   9.711  22.601  1.00  0.00     0.041 C 
ATOM     13  O   UNL     1      27.842   9.351  23.806  1.00  0.00    -0.550 OA
ATOM     14  O   UNL     1      28.919   9.276  21.786  1.00  0.00    -0.550 OA
ENDBRANCH  11  12
ENDBRANCH  10  11
ENDBRANCH   9  10
ENDBRANCH   8   9
ENDBRANCH   1   8
TORSDOF 9
ENDMDL
MODEL 3
REMARK VINA RESULT:    -3.358      2.581      3.533
REMARK INTER + INTRA:          -6.109
REMARK INTER:                  -5.672
REMARK INTRA:                  -0.437
REMARK UNBOUND:                -0.984
REMARK SMILES O=C([O-])CCCCCCCCC(=O)[O-]
REMARK SMILES IDX 7 1 6 2 5 3 4 4 2 5 1 6 3 7 8 8 9 9 10 10 11 11 12 12 13 13
REMARK SMILES IDX 14 14
REMARK H PARENT
REMARK Flexibility Score: inf
ROOT
ATOM      1  C   UNL     1      27.377  11.095  22.578  1.00  0.00     0.000 C 
ENDROOT
BRANCH   1   2
ATOM      2  C   UNL     1      27.918   9.694  22.912  1.00  0.00     0.000 C 
BRANCH   2   3
ATOM      3  C   UNL     1      28.449   8.950  21.678  1.00  0.00     0.006 C 
BRANCH   3   4
ATOM      4  C   UNL     1      29.745   9.588  21.170  1.00  0.00     0.053 C 
BRANCH   4   5
ATOM      5  C   UNL     1      29.978   9.232  19.736  1.00  0.00     0.041 C 
ATOM      6  O   UNL     1      29.009   8.902  19.000  1.00  0.00    -0.550 OA
ATOM      7  O   UNL     1      31.268   9.216  19.223  1.00  0.00    -0.550 OA
ENDBRANCH   4   5
ENDBRANCH   3   4
ENDBRANCH   2   3
ENDBRANCH   1   2
BRANCH   1   8
ATOM      8  C   UNL     1      26.068  11.112  21.763  1.00  0.00     0.000 C 
BRANCH   8   9
ATOM      9  C   UNL     1      24.776  11.038  22.600  1.00  0.00     0.000 C 
BRANCH   9  10
ATOM     10  C   UNL     1      23.539  11.690  21.950  1.00  0.00     0.006 C 
BRANCH  10  11
ATOM     11  C   UNL     1      23.367  11.375  20.455  1.00  0.00     0.053 C 
BRANCH  11  12
ATOM     12  C   UNL     1      23.327  12.619  19.621  1.00  0.00     0.041 C 
ATOM     13  O   UNL     1      22.240  13.013  19.124  1.00  0.00    -0.550 OA
ATOM     14  O   UNL     1      24.496  13.323  19.365  1.00  0.00    -0.550 OA
ENDBRANCH  11  12
ENDBRANCH  10  11
ENDBRANCH   9  10
ENDBRANCH   8   9
ENDBRANCH   1   8
TORSDOF 9
ENDMDL
MODEL 4
REMARK VINA RESULT:    -3.308      2.790      6.498
REMARK INTER + INTRA:          -6.033
REMARK INTER:                  -5.655
REMARK INTRA:                  -0.378
REMARK UNBOUND:                -0.984
REMARK SMILES O=C([O-])CCCCCCCCC(=O)[O-]
REMARK SMILES IDX 7 1 6 2 5 3 4 4 2 5 1 6 3 7 8 8 9 9 10 10 11 11 12 12 13 13
REMARK SMILES IDX 14 14
REMARK H PARENT
REMARK Flexibility Score: inf
ROOT
ATOM      1  C   UNL     1      26.051  11.494  21.512  1.00  0.00     0.000 C 
ENDROOT
BRANCH   1   2
ATOM      2  C   UNL     1      24.613  10.951  21.590  1.00  0.00     0.000 C 
BRANCH   2   3
ATOM      3  C   UNL     1      23.651  11.668  20.631  1.00  0.00     0.006 C 
BRANCH   3   4
ATOM      4  C   UNL     1      24.374  12.775  19.857  1.00  0.00     0.053 C 
BRANCH   4   5
ATOM      5  C   UNL     1      23.386  13.678  19.190  1.00  0.00     0.041 C 
ATOM      6  O   UNL     1      22.197  13.299  19.017  1.00  0.00    -0.550 OA
ATOM      7  O   UNL     1      23.789  14.919  18.714  1.00  0.00    -0.550 OA
ENDBRANCH   4   5
ENDBRANCH   3   4
ENDBRANCH   2   3
ENDBRANCH   1   2
BRANCH   1   8
ATOM      8  C   UNL     1      26.933  11.182  22.738  1.00  0.00     0.000 C 
BRANCH   8   9
ATOM      9  C   UNL     1      27.828   9.934  22.598  1.00  0.00     0.000 C 
BRANCH   9  10
ATOM     10  C   UNL     1      28.247   9.591  21.155  1.00  0.00     0.006 C 
BRANCH  10  11
ATOM     11  C   UNL     1      29.731   9.220  20.996  1.00  0.00     0.053 C 
BRANCH  11  12
ATOM     12  C   UNL     1      30.126   9.095  19.556  1.00  0.00     0.041 C 
ATOM     13  O   UNL     1      31.327   8.881  19.245  1.00  0.00    -0.550 OA
ATOM     14  O   UNL     1      29.174   9.250  18.557  1.00  0.00    -0.550 OA
ENDBRANCH  11  12
ENDBRANCH  10  11
ENDBRANCH   9  10
ENDBRANCH   8   9
ENDBRANCH   1   8
TORSDOF 9
ENDMDL
MODEL 5
REMARK VINA RESULT:    -3.298      2.042      3.461
REMARK INTER + INTRA:          -6.018
REMARK INTER:                  -5.551
REMARK INTRA:                  -0.468
REMARK UNBOUND:                -0.984
REMARK SMILES O=C([O-])CCCCCCCCC(=O)[O-]
REMARK SMILES IDX 7 1 6 2 5 3 4 4 2 5 1 6 3 7 8 8 9 9 10 10 11 11 12 12 13 13
REMARK SMILES IDX 14 14
REMARK H PARENT
REMARK Flexibility Score: inf
ROOT
ATOM      1  C   UNL     1      27.784  10.537  23.072  1.00  0.00     0.000 C 
ENDROOT
BRANCH   1   2
ATOM      2  C   UNL     1      29.059   9.802  22.622  1.00  0.00     0.000 C 
BRANCH   2   3
ATOM      3  C   UNL     1      28.932   9.192  21.218  1.00  0.00     0.006 C 
BRANCH   3   4
ATOM      4  C   UNL     1      30.136   9.565  20.348  1.00  0.00     0.053 C 
BRANCH   4   5
ATOM      5  C   UNL     1      29.878   9.213  18.917  1.00  0.00     0.041 C 
ATOM      6  O   UNL     1      28.698   9.177  18.477  1.00  0.00    -0.550 OA
ATOM      7  O   UNL     1      30.935   8.876  18.082  1.00  0.00    -0.550 OA
ENDBRANCH   4   5
ENDBRANCH   3   4
ENDBRANCH   2   3
ENDBRANCH   1   2
BRANCH   1   8
ATOM      8  C   UNL     1      26.614  10.485  22.069  1.00  0.00     0.000 C 
BRANCH   8   9
ATOM      9  C   UNL     1      26.133  11.856  21.553  1.00  0.00     0.000 C 
BRANCH   9  10
ATOM     10  C   UNL     1      25.160  11.798  20.357  1.00  0.00     0.006 C 
BRANCH  10  11
ATOM     11  C   UNL     1      23.714  12.197  20.696  1.00  0.00     0.053 C 
BRANCH  11  12
ATOM     12  C   UNL     1      23.083  11.246  21.666  1.00  0.00     0.041 C 
ATOM     13  O   UNL     1      22.640  10.137  21.269  1.00  0.00    -0.550 OA
ATOM     14  O   UNL     1      22.954  11.600  23.003  1.00  0.00    -0.550 OA
ENDBRANCH  11  12
ENDBRANCH  10  11
ENDBRANCH   9  10
ENDBRANCH   8   9
ENDBRANCH   1   8
TORSDOF 9
ENDMDL
MODEL 6
REMARK VINA RESULT:    -3.243      1.436      1.760
REMARK INTER + INTRA:          -5.933
REMARK INTER:                  -4.912
REMARK INTRA:                  -1.021
REMARK UNBOUND:                -0.984
REMARK SMILES O=C([O-])CCCCCCCCC(=O)[O-]
REMARK SMILES IDX 7 1 6 2 5 3 4 4 2 5 1 6 3 7 8 8 9 9 10 10 11 11 12 12 13 13
REMARK SMILES IDX 14 14
REMARK H PARENT
REMARK Flexibility Score: inf
ROOT
ATOM      1  C   UNL     1      25.424  11.971  20.706  1.00  0.00     0.000 C 
ENDROOT
BRANCH   1   2
ATOM      2  C   UNL     1      25.985  12.803  21.873  1.00  0.00     0.000 C 
BRANCH   2   3
ATOM      3  C   UNL     1      27.080  12.065  22.659  1.00  0.00     0.006 C 
BRANCH   3   4
ATOM      4  C   UNL     1      26.646  10.634  22.990  1.00  0.00     0.053 C 
BRANCH   4   5
ATOM      5  C   UNL     1      26.852  10.347  24.443  1.00  0.00     0.041 C 
ATOM      6  O   UNL     1      26.361  11.112  25.316  1.00  0.00    -0.550 OA
ATOM      7  O   UNL     1      27.626   9.263  24.836  1.00  0.00    -0.550 OA
ENDBRANCH   4   5
ENDBRANCH   3   4
ENDBRANCH   2   3
ENDBRANCH   1   2
BRANCH   1   8
ATOM      8  C   UNL     1      24.100  12.492  20.112  1.00  0.00     0.000 C 
BRANCH   8   9
ATOM      9  C   UNL     1      22.873  11.593  20.360  1.00  0.00     0.000 C 
BRANCH   9  10
ATOM     10  C   UNL     1      23.129  10.378  21.275  1.00  0.00     0.006 C 
BRANCH  10  11
ATOM     11  C   UNL     1      22.231  10.322  22.522  1.00  0.00     0.053 C 
BRANCH  11  12
ATOM     12  C   UNL     1      22.949  10.793  23.750  1.00  0.00     0.041 C 
ATOM     13  O   UNL     1      23.310  11.994  23.852  1.00  0.00    -0.550 OA
ATOM     14  O   UNL     1      23.249   9.895  24.767  1.00  0.00    -0.550 OA
ENDBRANCH  11  12
ENDBRANCH  10  11
ENDBRANCH   9  10
ENDBRANCH   8   9
ENDBRANCH   1   8
TORSDOF 9
ENDMDL
MODEL 7
REMARK VINA RESULT:    -3.226      0.762      5.093
REMARK INTER + INTRA:          -5.907
REMARK INTER:                  -5.075
REMARK INTRA:                  -0.832
REMARK UNBOUND:                -0.984
REMARK SMILES O=C([O-])CCCCCCCCC(=O)[O-]
REMARK SMILES IDX 7 1 6 2 5 3 4 4 2 5 1 6 3 7 8 8 9 9 10 10 11 11 12 12 13 13
REMARK SMILES IDX 14 14
REMARK H PARENT
REMARK Flexibility Score: inf
ROOT
ATOM      1  C   UNL     1      24.479  12.108  20.354  1.00  0.00     0.000 C 
ENDROOT
BRANCH   1   2
ATOM      2  C   UNL     1      23.322  11.095  20.381  1.00  0.00     0.000 C 
BRANCH   2   3
ATOM      3  C   UNL     1      22.345  11.336  21.541  1.00  0.00     0.006 C 
BRANCH   3   4
ATOM      4  C   UNL     1      22.625  10.377  22.702  1.00  0.00     0.053 C 
BRANCH   4   5
ATOM      5  C   UNL     1      23.264  11.105  23.841  1.00  0.00     0.041 C 
ATOM      6  O   UNL     1      23.294  12.365  23.851  1.00  0.00    -0.550 OA
ATOM      7  O   UNL     1      23.871  10.394  24.868  1.00  0.00    -0.550 OA
ENDBRANCH   4   5
ENDBRANCH   3   4
ENDBRANCH   2   3
ENDBRANCH   1   2
BRANCH   1   8
ATOM      8  C   UNL     1      25.851  11.544  20.775  1.00  0.00     0.000 C 
BRANCH   8   9
ATOM      9  C   UNL     1      26.361  12.021  22.149  1.00  0.00     0.000 C 
BRANCH   9  10
ATOM     10  C   UNL     1      26.969  10.918  23.039  1.00  0.00     0.006 C 
BRANCH  10  11
ATOM     11  C   UNL     1      27.608   9.756  22.260  1.00  0.00     0.053 C 
BRANCH  11  12
ATOM     12  C   UNL     1      29.104   9.810  22.300  1.00  0.00     0.041 C 
ATOM     13  O   UNL     1      29.766   9.828  21.230  1.00  0.00    -0.550 OA
ATOM     14  O   UNL     1      29.769   9.805  23.520  1.00  0.00    -0.550 OA
ENDBRANCH  11  12
ENDBRANCH  10  11
ENDBRANCH   9  10
ENDBRANCH   8   9
ENDBRANCH   1   8
TORSDOF 9
ENDMDL
MODEL 8
REMARK VINA RESULT:    -3.210      1.282      2.145
REMARK INTER + INTRA:          -5.883
REMARK INTER:                  -4.790
REMARK INTRA:                  -1.093
REMARK UNBOUND:                -0.984
REMARK SMILES O=C([O-])CCCCCCCCC(=O)[O-]
REMARK SMILES IDX 7 1 6 2 5 3 4 4 2 5 1 6 3 7 8 8 9 9 10 10 11 11 12 12 13 13
REMARK SMILES IDX 14 14
REMARK H PARENT
REMARK Flexibility Score: inf
ROOT
ATOM      1  C   UNL     1      23.055  11.897  20.450  1.00  0.00     0.000 C 
ENDROOT
BRANCH   1   2
ATOM      2  C   UNL     1      24.442  12.561  20.401  1.00  0.00     0.000 C 
BRANCH   2   3
ATOM      3  C   UNL     1      25.583  11.582  20.714  1.00  0.00     0.006 C 
BRANCH   3   4
ATOM      4  C   UNL     1      26.350  12.016  21.966  1.00  0.00     0.053 C 
BRANCH   4   5
ATOM      5  C   UNL     1      27.065  10.851  22.574  1.00  0.00     0.041 C 
ATOM      6  O   UNL     1      27.735  10.070  21.847  1.00  0.00    -0.550 OA
ATOM      7  O   UNL     1      26.951  10.599  23.935  1.00  0.00    -0.550 OA
ENDBRANCH   4   5
ENDBRANCH   3   4
ENDBRANCH   2   3
ENDBRANCH   1   2
BRANCH   1   8
ATOM      8  C   UNL     1      23.065  10.387  20.763  1.00  0.00     0.000 C 
BRANCH   8   9
ATOM      9  C   UNL     1      22.343   9.984  22.064  1.00  0.00     0.000 C 
BRANCH   9  10
ATOM     10  C   UNL     1      22.253  11.093  23.131  1.00  0.00     0.006 C 
BRANCH  10  11
ATOM     11  C   UNL     1      23.419  11.106  24.133  1.00  0.00     0.053 C 
BRANCH  11  12
ATOM     12  C   UNL     1      23.873  12.499  24.446  1.00  0.00     0.041 C 
ATOM     13  O   UNL     1      23.501  13.463  23.728  1.00  0.00    -0.550 OA
ATOM     14  O   UNL     1      24.736  12.727  25.511  1.00  0.00    -0.550 OA
ENDBRANCH  11  12
ENDBRANCH  10  11
ENDBRANCH   9  10
ENDBRANCH   8   9
ENDBRANCH   1   8
TORSDOF 9
ENDMDL
MODEL 9
REMARK VINA RESULT:    -3.164      2.391      4.598
REMARK INTER + INTRA:          -5.813
REMARK INTER:                  -4.696
REMARK INTRA:                  -1.117
REMARK UNBOUND:                -0.984
REMARK SMILES O=C([O-])CCCCCCCCC(=O)[O-]
REMARK SMILES IDX 7 1 6 2 5 3 4 4 2 5 1 6 3 7 8 8 9 9 10 10 11 11 12 12 13 13
REMARK SMILES IDX 14 14
REMARK H PARENT
REMARK Flexibility Score: inf
ROOT
ATOM      1  C   UNL     1      23.479  11.625  20.342  1.00  0.00     0.000 C 
ENDROOT
BRANCH   1   2
ATOM      2  C   UNL     1      22.995  10.411  21.155  1.00  0.00     0.000 C 
BRANCH   2   3
ATOM      3  C   UNL     1      22.094  10.805  22.335  1.00  0.00     0.006 C 
BRANCH   3   4
ATOM      4  C   UNL     1      22.693  10.333  23.663  1.00  0.00     0.053 C 
BRANCH   4   5
ATOM      5  C   UNL     1      22.923  11.495  24.576  1.00  0.00     0.041 C 
ATOM      6  O   UNL     1      22.414  12.617  24.313  1.00  0.00    -0.550 OA
ATOM      7  O   UNL     1      23.739  11.353  25.691  1.00  0.00    -0.550 OA
ENDBRANCH   4   5
ENDBRANCH   3   4
ENDBRANCH   2   3
ENDBRANCH   1   2
BRANCH   1   8
ATOM      8  C   UNL     1      24.984  11.939  20.472  1.00  0.00     0.000 C 
BRANCH   8   9
ATOM      9  C   UNL     1      25.739  11.098  21.521  1.00  0.00     0.000 C 
BRANCH   9  10
ATOM     10  C   UNL     1      26.221  11.881  22.759  1.00  0.00     0.006 C 
BRANCH  10  11
ATOM     11  C   UNL     1      25.782  13.354  22.790  1.00  0.00     0.053 C 
BRANCH  11  12
ATOM     12  C   UNL     1      25.720  13.891  24.186  1.00  0.00     0.041 C 
ATOM     13  O   UNL     1      26.431  13.384  25.092  1.00  0.00    -0.550 OA
ATOM     14  O   UNL     1      24.852  14.930  24.494  1.00  0.00    -0.550 OA
ENDBRANCH  11  12
ENDBRANCH  10  11
ENDBRANCH   9  10
ENDBRANCH   8   9
ENDBRANCH   1   8
TORSDOF 9
ENDMDL
