MODEL 1
REMARK VINA RESULT:    -2.946      0.000      0.000
REMARK INTER + INTRA:          -3.639
REMARK INTER:                  -3.635
REMARK INTRA:                  -0.004
REMARK UNBOUND:                -0.004
REMARK SMILES CCCCCC(=O)[O-]
REMARK SMILES IDX 4 1 5 2 6 3 7 4 8 5 3 6 2 7 1 8
REMARK H PARENT
REMARK Flexibility Score: inf
ROOT
ATOM      1  C   UNL     1       0.864   5.370 -11.803  1.00  0.00     0.006 C 
ENDROOT
BRANCH   1   2
ATOM      2  C   UNL     1       0.310   3.942 -11.798  1.00  0.00     0.053 C 
BRANCH   2   3
ATOM      3  C   UNL     1       1.325   2.988 -11.253  1.00  0.00     0.041 C 
ATOM      4  O   UNL     1       1.540   1.892 -11.833  1.00  0.00    -0.550 OA
ATOM      5  O   UNL     1       1.999   3.287 -10.075  1.00  0.00    -0.550 OA
ENDBRANCH   2   3
ENDBRANCH   1   2
BRANCH   1   6
ATOM      6  C   UNL     1       2.261   5.416 -12.434  1.00  0.00     0.000 C 
BRANCH   6   7
ATOM      7  C   UNL     1       2.507   6.761 -13.125  1.00  0.00    -0.003 C 
ATOM      8  C   UNL     1       1.246   7.621 -13.124  1.00  0.00     0.004 C 
ENDBRANCH   6   7
ENDBRANCH   1   6
TORSDOF 4
ENDMDL
MODEL 2
REMARK VINA RESULT:    -2.896     18.561     19.314
REMARK INTER + INTRA:          -3.578
REMARK INTER:                  -3.441
REMARK INTRA:                  -0.137
REMARK UNBOUND:                -0.004
REMARK SMILES CCCCCC(=O)[O-]
REMARK SMILES IDX 4 1 5 2 6 3 7 4 8 5 3 6 2 7 1 8
REMARK H PARENT
REMARK Flexibility Score: inf
ROOT
ATOM      1  C   UNL     1     -15.290  14.132  -9.215  1.00  0.00     0.006 C 
ENDROOT
BRANCH   1   2
ATOM      2  C   UNL     1     -16.254  14.192  -8.026  1.00  0.00     0.053 C 
BRANCH   2   3
ATOM      3  C   UNL     1     -15.754  13.341  -6.902  1.00  0.00     0.041 C 
ATOM      4  O   UNL     1     -14.524  13.096  -6.792  1.00  0.00    -0.550 OA
ATOM      5  O   UNL     1     -16.651  12.779  -6.002  1.00  0.00    -0.550 OA
ENDBRANCH   2   3
ENDBRANCH   1   2
BRANCH   1   6
ATOM      6  C   UNL     1     -15.700  13.032 -10.201  1.00  0.00     0.000 C 
BRANCH   6   7
ATOM      7  C   UNL     1     -14.536  12.073 -10.471  1.00  0.00    -0.003 C 
ATOM      8  C   UNL     1     -13.912  12.334 -11.840  1.00  0.00     0.004 C 
ENDBRANCH   6   7
ENDBRANCH   1   6
TORSDOF 4
ENDMDL
MODEL 3
REMARK VINA RESULT:    -2.863     17.746     18.470
REMARK INTER + INTRA:          -3.536
REMARK INTER:                  -3.429
REMARK INTRA:                  -0.107
REMARK UNBOUND:                -0.004
REMARK SMILES CCCCCC(=O)[O-]
REMARK SMILES IDX 4 1 5 2 6 3 7 4 8 5 3 6 2 7 1 8
REMARK H PARENT
REMARK Flexibility Score: inf
ROOT
ATOM      1  C   UNL     1     -15.595  13.133 -10.245  1.00  0.00     0.006 C 
ENDROOT
BRANCH   1   2
ATOM      2  C   UNL     1     -14.511  12.090 -10.537  1.00  0.00     0.053 C 
BRANCH   2   3
ATOM      3  C   UNL     1     -14.229  12.025 -12.004  1.00  0.00     0.041 C 
ATOM      4  O   UNL     1     -13.122  12.423 -12.455  1.00  0.00    -0.550 OA
ATOM      5  O   UNL     1     -15.206  11.571 -12.882  1.00  0.00    -0.550 OA
ENDBRANCH   2   3
ENDBRANCH   1   2
BRANCH   1   6
ATOM      6  C   UNL     1     -15.257  13.941  -8.986  1.00  0.00     0.000 C 
BRANCH   6   7
ATOM      7  C   UNL     1     -14.459  13.095  -7.988  1.00  0.00    -0.003 C 
ATOM      8  C   UNL     1     -15.041  13.208  -6.581  1.00  0.00     0.004 C 
ENDBRANCH   6   7
ENDBRANCH   1   6
TORSDOF 4
ENDMDL
MODEL 4
REMARK VINA RESULT:    -2.752     18.147     18.921
REMARK INTER + INTRA:          -3.400
REMARK INTER:                  -3.285
REMARK INTRA:                  -0.115
REMARK UNBOUND:                -0.004
REMARK SMILES CCCCCC(=O)[O-]
REMARK SMILES IDX 4 1 5 2 6 3 7 4 8 5 3 6 2 7 1 8
REMARK H PARENT
REMARK Flexibility Score: inf
ROOT
ATOM      1  C   UNL     1     -15.029  13.782  -9.285  1.00  0.00     0.006 C 
ENDROOT
BRANCH   1   2
ATOM      2  C   UNL     1     -15.278  13.433 -10.755  1.00  0.00     0.053 C 
BRANCH   2   3
ATOM      3  C   UNL     1     -14.334  12.364 -11.206  1.00  0.00     0.041 C 
ATOM      4  O   UNL     1     -14.198  11.311 -10.529  1.00  0.00    -0.550 OA
ATOM      5  O   UNL     1     -13.568  12.549 -12.351  1.00  0.00    -0.550 OA
ENDBRANCH   2   3
ENDBRANCH   1   2
BRANCH   1   6
ATOM      6  C   UNL     1     -16.352  13.962  -8.530  1.00  0.00     0.000 C 
BRANCH   6   7
ATOM      7  C   UNL     1     -16.216  13.518  -7.070  1.00  0.00    -0.003 C 
ATOM      8  C   UNL     1     -14.771  13.156  -6.735  1.00  0.00     0.004 C 
ENDBRANCH   6   7
ENDBRANCH   1   6
TORSDOF 4
ENDMDL
MODEL 5
REMARK VINA RESULT:    -2.685      2.564      4.062
REMARK INTER + INTRA:          -3.317
REMARK INTER:                  -3.212
REMARK INTRA:                  -0.105
REMARK UNBOUND:                -0.004
REMARK SMILES CCCCCC(=O)[O-]
REMARK SMILES IDX 4 1 5 2 6 3 7 4 8 5 3 6 2 7 1 8
REMARK H PARENT
REMARK Flexibility Score: inf
ROOT
ATOM      1  C   UNL     1       2.152   4.648 -11.149  1.00  0.00     0.006 C 
ENDROOT
BRANCH   1   2
ATOM      2  C   UNL     1       2.890   5.170 -12.386  1.00  0.00     0.053 C 
BRANCH   2   3
ATOM      3  C   UNL     1       2.344   6.500 -12.799  1.00  0.00     0.041 C 
ATOM      4  O   UNL     1       3.124   7.459 -13.037  1.00  0.00    -0.550 OA
ATOM      5  O   UNL     1       0.970   6.695 -12.875  1.00  0.00    -0.550 OA
ENDBRANCH   2   3
ENDBRANCH   1   2
BRANCH   1   6
ATOM      6  C   UNL     1       2.143   3.115 -11.119  1.00  0.00     0.000 C 
BRANCH   6   7
ATOM      7  C   UNL     1       0.823   2.561 -11.666  1.00  0.00    -0.003 C 
ATOM      8  C   UNL     1      -0.251   3.646 -11.717  1.00  0.00     0.004 C 
ENDBRANCH   6   7
ENDBRANCH   1   6
TORSDOF 4
ENDMDL
MODEL 6
REMARK VINA RESULT:    -2.474     19.885     20.716
REMARK INTER + INTRA:          -3.056
REMARK INTER:                  -2.992
REMARK INTRA:                  -0.064
REMARK UNBOUND:                -0.004
REMARK SMILES CCCCCC(=O)[O-]
REMARK SMILES IDX 4 1 5 2 6 3 7 4 8 5 3 6 2 7 1 8
REMARK H PARENT
REMARK Flexibility Score: inf
ROOT
ATOM      1  C   UNL     1     -15.961  15.688  -8.987  1.00  0.00     0.006 C 
ENDROOT
BRANCH   1   2
ATOM      2  C   UNL     1     -16.215  14.892  -7.703  1.00  0.00     0.053 C 
BRANCH   2   3
ATOM      3  C   UNL     1     -15.316  13.698  -7.641  1.00  0.00     0.041 C 
ATOM      4  O   UNL     1     -14.755  13.272  -8.685  1.00  0.00    -0.550 OA
ATOM      5  O   UNL     1     -15.136  13.024  -6.439  1.00  0.00    -0.550 OA
ENDBRANCH   2   3
ENDBRANCH   1   2
BRANCH   1   6
ATOM      6  C   UNL     1     -15.651  17.156  -8.672  1.00  0.00     0.000 C 
BRANCH   6   7
ATOM      7  C   UNL     1     -16.662  18.089  -9.347  1.00  0.00    -0.003 C 
ATOM      8  C   UNL     1     -16.003  18.904 -10.458  1.00  0.00     0.004 C 
ENDBRANCH   6   7
ENDBRANCH   1   6
TORSDOF 4
ENDMDL
MODEL 7
REMARK VINA RESULT:    -2.389     18.627     19.353
REMARK INTER + INTRA:          -2.952
REMARK INTER:                  -2.821
REMARK INTRA:                  -0.130
REMARK UNBOUND:                -0.004
REMARK SMILES CCCCCC(=O)[O-]
REMARK SMILES IDX 4 1 5 2 6 3 7 4 8 5 3 6 2 7 1 8
REMARK H PARENT
REMARK Flexibility Score: inf
ROOT
ATOM      1  C   UNL     1     -14.636  12.736  -9.673  1.00  0.00     0.006 C 
ENDROOT
BRANCH   1   2
ATOM      2  C   UNL     1     -14.670  12.778 -11.204  1.00  0.00     0.053 C 
BRANCH   2   3
ATOM      3  C   UNL     1     -16.020  12.377 -11.710  1.00  0.00     0.041 C 
ATOM      4  O   UNL     1     -16.712  13.189 -12.377  1.00  0.00    -0.550 OA
ATOM      5  O   UNL     1     -16.534  11.123 -11.402  1.00  0.00    -0.550 OA
ENDBRANCH   2   3
ENDBRANCH   1   2
BRANCH   1   6
ATOM      6  C   UNL     1     -15.281  13.991  -9.074  1.00  0.00     0.000 C 
BRANCH   6   7
ATOM      7  C   UNL     1     -15.877  13.697  -7.693  1.00  0.00    -0.003 C 
ATOM      8  C   UNL     1     -14.816  13.156  -6.738  1.00  0.00     0.004 C 
ENDBRANCH   6   7
ENDBRANCH   1   6
TORSDOF 4
ENDMDL
MODEL 8
REMARK VINA RESULT:    -2.331     21.847     22.240
REMARK INTER + INTRA:          -2.881
REMARK INTER:                  -2.830
REMARK INTRA:                  -0.050
REMARK UNBOUND:                -0.004
REMARK SMILES CCCCCC(=O)[O-]
REMARK SMILES IDX 4 1 5 2 6 3 7 4 8 5 3 6 2 7 1 8
REMARK H PARENT
REMARK Flexibility Score: inf
ROOT
ATOM      1  C   UNL     1     -15.294  19.212 -11.483  1.00  0.00     0.006 C 
ENDROOT
BRANCH   1   2
ATOM      2  C   UNL     1     -16.199  19.120 -10.251  1.00  0.00     0.053 C 
BRANCH   2   3
ATOM      3  C   UNL     1     -16.267  17.710  -9.755  1.00  0.00     0.041 C 
ATOM      4  O   UNL     1     -16.987  16.864 -10.347  1.00  0.00    -0.550 OA
ATOM      5  O   UNL     1     -15.573  17.341  -8.609  1.00  0.00    -0.550 OA
ENDBRANCH   2   3
ENDBRANCH   1   2
BRANCH   1   6
ATOM      6  C   UNL     1     -14.927  20.668 -11.789  1.00  0.00     0.000 C 
BRANCH   6   7
ATOM      7  C   UNL     1     -13.485  20.777 -12.296  1.00  0.00    -0.003 C 
ATOM      8  C   UNL     1     -12.871  22.125 -11.926  1.00  0.00     0.004 C 
ENDBRANCH   6   7
ENDBRANCH   1   6
TORSDOF 4
ENDMDL
MODEL 9
REMARK VINA RESULT:    -2.159     20.767     21.691
REMARK INTER + INTRA:          -2.668
REMARK INTER:                  -2.558
REMARK INTRA:                  -0.110
REMARK UNBOUND:                -0.004
REMARK SMILES CCCCCC(=O)[O-]
REMARK SMILES IDX 4 1 5 2 6 3 7 4 8 5 3 6 2 7 1 8
REMARK H PARENT
REMARK Flexibility Score: inf
ROOT
ATOM      1  C   UNL     1     -16.516  16.015  -7.745  1.00  0.00     0.006 C 
ENDROOT
BRANCH   1   2
ATOM      2  C   UNL     1     -15.649  16.971  -8.570  1.00  0.00     0.053 C 
BRANCH   2   3
ATOM      3  C   UNL     1     -16.504  17.829  -9.448  1.00  0.00     0.041 C 
ATOM      4  O   UNL     1     -16.715  17.498 -10.645  1.00  0.00    -0.550 OA
ATOM      5  O   UNL     1     -17.029  19.019  -8.960  1.00  0.00    -0.550 OA
ENDBRANCH   2   3
ENDBRANCH   1   2
BRANCH   1   6
ATOM      6  C   UNL     1     -16.332  14.566  -8.209  1.00  0.00     0.000 C 
BRANCH   6   7
ATOM      7  C   UNL     1     -15.679  13.717  -7.114  1.00  0.00    -0.003 C 
ATOM      8  C   UNL     1     -14.379  13.086  -7.607  1.00  0.00     0.004 C 
ENDBRANCH   6   7
ENDBRANCH   1   6
TORSDOF 4
ENDMDL
