MODEL 1
REMARK VINA RESULT:    -3.880      0.000      0.000
REMARK INTER + INTRA:         -13.373
REMARK INTER:                  -9.776
REMARK INTRA:                  -3.596
REMARK UNBOUND:                -3.596
REMARK SMILES CCCCCCCCCCCCCCCCCCCCCCCCCCCC(=O)[O-]
REMARK SMILES IDX 15 1 16 2 17 3 18 4 19 5 20 6 21 7 22 8 23 9 24 10 25 11
REMARK SMILES IDX 26 12 27 13 28 14 29 15 30 16 14 17 13 18 12 19 11 20 10 21
REMARK SMILES IDX 9 22 8 23 7 24 6 25 5 26 4 27 3 28 2 29 1 30
REMARK H PARENT
REMARK Flexibility Score: inf
ROOT
ATOM      1  C   UNL     1      -5.809   3.629   2.326  1.00  0.00     0.000 C 
ENDROOT
BRANCH   1   2
ATOM      2  C   UNL     1      -4.342   3.650   2.790  1.00  0.00     0.000 C 
BRANCH   2   3
ATOM      3  C   UNL     1      -3.372   4.022   1.657  1.00  0.00     0.000 C 
BRANCH   3   4
ATOM      4  C   UNL     1      -3.139   2.858   0.677  1.00  0.00     0.000 C 
BRANCH   4   5
ATOM      5  C   UNL     1      -3.572   3.198  -0.762  1.00  0.00     0.000 C 
BRANCH   5   6
ATOM      6  C   UNL     1      -4.065   4.645  -0.942  1.00  0.00     0.000 C 
BRANCH   6   7
ATOM      7  C   UNL     1      -5.591   4.729  -1.133  1.00  0.00     0.000 C 
BRANCH   7   8
ATOM      8  C   UNL     1      -6.077   3.934  -2.355  1.00  0.00     0.000 C 
BRANCH   8   9
ATOM      9  C   UNL     1      -6.571   4.838  -3.497  1.00  0.00     0.000 C 
BRANCH   9  10
ATOM     10  C   UNL     1      -5.404   5.534  -4.231  1.00  0.00     0.000 C 
BRANCH  10  11
ATOM     11  C   UNL     1      -4.938   4.786  -5.493  1.00  0.00     0.000 C 
BRANCH  11  12
ATOM     12  C   UNL     1      -3.413   4.782  -5.658  1.00  0.00     0.006 C 
BRANCH  12  13
ATOM     13  C   UNL     1      -2.719   5.245  -4.373  1.00  0.00     0.053 C 
BRANCH  13  14
ATOM     14  C   UNL     1      -1.522   4.393  -4.090  1.00  0.00     0.041 C 
ATOM     15  O   UNL     1      -1.667   3.210  -3.683  1.00  0.00    -0.550 OA
ATOM     16  O   UNL     1      -0.245   4.887  -4.323  1.00  0.00    -0.550 OA
ENDBRANCH  13  14
ENDBRANCH  12  13
ENDBRANCH  11  12
ENDBRANCH  10  11
ENDBRANCH   9  10
ENDBRANCH   8   9
ENDBRANCH   7   8
ENDBRANCH   6   7
ENDBRANCH   5   6
ENDBRANCH   4   5
ENDBRANCH   3   4
ENDBRANCH   2   3
ENDBRANCH   1   2
BRANCH   1  17
ATOM     17  C   UNL     1      -6.368   2.204   2.189  1.00  0.00     0.000 C 
BRANCH  17  18
ATOM     18  C   UNL     1      -7.059   1.970   0.834  1.00  0.00     0.000 C 
BRANCH  18  19
ATOM     19  C   UNL     1      -6.291   0.974  -0.052  1.00  0.00     0.000 C 
BRANCH  19  20
ATOM     20  C   UNL     1      -5.220   0.198   0.731  1.00  0.00     0.000 C 
BRANCH  20  21
ATOM     21  C   UNL     1      -5.346  -1.328   0.566  1.00  0.00     0.000 C 
BRANCH  21  22
ATOM     22  C   UNL     1      -6.393  -1.999   1.478  1.00  0.00    -0.000 C 
BRANCH  22  23
ATOM     23  C   UNL     1      -7.475  -2.814   0.743  1.00  0.00    -0.000 C 
BRANCH  23  24
ATOM     24  C   UNL     1      -8.011  -2.177  -0.556  1.00  0.00    -0.000 C 
BRANCH  24  25
ATOM     25  C   UNL     1      -8.104  -3.131  -1.764  1.00  0.00    -0.000 C 
BRANCH  25  26
ATOM     26  C   UNL     1      -7.488  -4.528  -1.521  1.00  0.00    -0.000 C 
BRANCH  26  27
ATOM     27  C   UNL     1      -6.277  -4.837  -2.422  1.00  0.00    -0.000 C 
BRANCH  27  28
ATOM     28  C   UNL     1      -6.467  -6.029  -3.378  1.00  0.00    -0.000 C 
BRANCH  28  29
ATOM     29  C   UNL     1      -5.497  -7.202  -3.149  1.00  0.00    -0.003 C 
ATOM     30  C   UNL     1      -4.135  -6.988  -3.807  1.00  0.00     0.004 C 
ENDBRANCH  28  29
ENDBRANCH  27  28
ENDBRANCH  26  27
ENDBRANCH  25  26
ENDBRANCH  24  25
ENDBRANCH  23  24
ENDBRANCH  22  23
ENDBRANCH  21  22
ENDBRANCH  20  21
ENDBRANCH  19  20
ENDBRANCH  18  19
ENDBRANCH  17  18
ENDBRANCH   1  17
TORSDOF 26
ENDMDL
MODEL 2
REMARK VINA RESULT:    -3.853      2.865      4.437
REMARK INTER + INTRA:         -13.306
REMARK INTER:                  -9.448
REMARK INTRA:                  -3.858
REMARK UNBOUND:                -3.596
REMARK SMILES CCCCCCCCCCCCCCCCCCCCCCCCCCCC(=O)[O-]
REMARK SMILES IDX 15 1 16 2 17 3 18 4 19 5 20 6 21 7 22 8 23 9 24 10 25 11
REMARK SMILES IDX 26 12 27 13 28 14 29 15 30 16 14 17 13 18 12 19 11 20 10 21
REMARK SMILES IDX 9 22 8 23 7 24 6 25 5 26 4 27 3 28 2 29 1 30
REMARK H PARENT
REMARK Flexibility Score: inf
ROOT
ATOM      1  C   UNL     1      -4.928   3.622   1.558  1.00  0.00     0.000 C 
ENDROOT
BRANCH   1   2
ATOM      2  C   UNL     1      -5.193   3.624   3.074  1.00  0.00     0.000 C 
BRANCH   2   3
ATOM      3  C   UNL     1      -6.663   3.328   3.414  1.00  0.00     0.000 C 
BRANCH   3   4
ATOM      4  C   UNL     1      -7.180   2.051   2.726  1.00  0.00     0.000 C 
BRANCH   4   5
ATOM      5  C   UNL     1      -8.482   2.288   1.937  1.00  0.00     0.000 C 
BRANCH   5   6
ATOM      6  C   UNL     1      -8.279   3.023   0.599  1.00  0.00     0.000 C 
BRANCH   6   7
ATOM      7  C   UNL     1      -8.453   2.093  -0.616  1.00  0.00     0.000 C 
BRANCH   7   8
ATOM      8  C   UNL     1      -7.691   2.591  -1.853  1.00  0.00     0.000 C 
BRANCH   8   9
ATOM      9  C   UNL     1      -7.174   4.032  -1.695  1.00  0.00     0.000 C 
BRANCH   9  10
ATOM     10  C   UNL     1      -5.944   4.307  -2.587  1.00  0.00     0.000 C 
BRANCH  10  11
ATOM     11  C   UNL     1      -4.761   4.932  -1.827  1.00  0.00     0.000 C 
BRANCH  11  12
ATOM     12  C   UNL     1      -3.404   4.623  -2.472  1.00  0.00     0.006 C 
BRANCH  12  13
ATOM     13  C   UNL     1      -3.489   4.705  -3.999  1.00  0.00     0.053 C 
BRANCH  13  14
ATOM     14  C   UNL     1      -2.260   4.124  -4.624  1.00  0.00     0.041 C 
ATOM     15  O   UNL     1      -2.347   3.443  -5.680  1.00  0.00    -0.550 OA
ATOM     16  O   UNL     1      -1.012   4.376  -4.069  1.00  0.00    -0.550 OA
ENDBRANCH  13  14
ENDBRANCH  12  13
ENDBRANCH  11  12
ENDBRANCH  10  11
ENDBRANCH   9  10
ENDBRANCH   8   9
ENDBRANCH   7   8
ENDBRANCH   6   7
ENDBRANCH   5   6
ENDBRANCH   4   5
ENDBRANCH   3   4
ENDBRANCH   2   3
ENDBRANCH   1   2
BRANCH   1  17
ATOM     17  C   UNL     1      -3.515   3.135   1.203  1.00  0.00     0.000 C 
BRANCH  17  18
ATOM     18  C   UNL     1      -3.525   2.016   0.147  1.00  0.00     0.000 C 
BRANCH  18  19
ATOM     19  C   UNL     1      -4.908   1.360  -0.001  1.00  0.00     0.000 C 
BRANCH  19  20
ATOM     20  C   UNL     1      -4.966  -0.035   0.643  1.00  0.00     0.000 C 
BRANCH  20  21
ATOM     21  C   UNL     1      -6.322  -0.733   0.434  1.00  0.00     0.000 C 
BRANCH  21  22
ATOM     22  C   UNL     1      -6.632  -1.870   1.429  1.00  0.00    -0.000 C 
BRANCH  22  23
ATOM     23  C   UNL     1      -7.964  -1.726   2.192  1.00  0.00    -0.000 C 
BRANCH  23  24
ATOM     24  C   UNL     1      -8.101  -2.611   3.449  1.00  0.00    -0.000 C 
BRANCH  24  25
ATOM     25  C   UNL     1      -7.121  -3.799   3.525  1.00  0.00    -0.000 C 
BRANCH  25  26
ATOM     26  C   UNL     1      -5.995  -3.630   4.570  1.00  0.00    -0.000 C 
BRANCH  26  27
ATOM     27  C   UNL     1      -5.236  -4.934   4.881  1.00  0.00    -0.000 C 
BRANCH  27  28
ATOM     28  C   UNL     1      -3.751  -4.932   4.473  1.00  0.00    -0.000 C 
BRANCH  28  29
ATOM     29  C   UNL     1      -3.005  -3.615   4.755  1.00  0.00    -0.003 C 
ATOM     30  C   UNL     1      -2.756  -3.375   6.243  1.00  0.00     0.004 C 
ENDBRANCH  28  29
ENDBRANCH  27  28
ENDBRANCH  26  27
ENDBRANCH  25  26
ENDBRANCH  24  25
ENDBRANCH  23  24
ENDBRANCH  22  23
ENDBRANCH  21  22
ENDBRANCH  20  21
ENDBRANCH  19  20
ENDBRANCH  18  19
ENDBRANCH  17  18
ENDBRANCH   1  17
TORSDOF 26
ENDMDL
MODEL 3
REMARK VINA RESULT:    -3.836      4.514      7.293
REMARK INTER + INTRA:         -13.263
REMARK INTER:                  -9.984
REMARK INTRA:                  -3.278
REMARK UNBOUND:                -3.596
REMARK SMILES CCCCCCCCCCCCCCCCCCCCCCCCCCCC(=O)[O-]
REMARK SMILES IDX 15 1 16 2 17 3 18 4 19 5 20 6 21 7 22 8 23 9 24 10 25 11
REMARK SMILES IDX 26 12 27 13 28 14 29 15 30 16 14 17 13 18 12 19 11 20 10 21
REMARK SMILES IDX 9 22 8 23 7 24 6 25 5 26 4 27 3 28 2 29 1 30
REMARK H PARENT
REMARK Flexibility Score: inf
ROOT
ATOM      1  C   UNL     1      -7.494   2.914   5.140  1.00  0.00     0.000 C 
ENDROOT
BRANCH   1   2
ATOM      2  C   UNL     1      -7.549   2.313   3.725  1.00  0.00     0.000 C 
BRANCH   2   3
ATOM      3  C   UNL     1      -8.962   1.850   3.338  1.00  0.00     0.000 C 
BRANCH   3   4
ATOM      4  C   UNL     1      -8.947   0.590   2.453  1.00  0.00     0.000 C 
BRANCH   4   5
ATOM      5  C   UNL     1      -8.972  -0.713   3.276  1.00  0.00     0.000 C 
BRANCH   5   6
ATOM      6  C   UNL     1      -8.028  -1.807   2.746  1.00  0.00     0.000 C 
BRANCH   6   7
ATOM      7  C   UNL     1      -7.412  -1.445   1.382  1.00  0.00     0.000 C 
BRANCH   7   8
ATOM      8  C   UNL     1      -5.921  -1.805   1.294  1.00  0.00     0.000 C 
BRANCH   8   9
ATOM      9  C   UNL     1      -5.117  -0.808   0.441  1.00  0.00     0.000 C 
BRANCH   9  10
ATOM     10  C   UNL     1      -5.331   0.651   0.898  1.00  0.00     0.000 C 
BRANCH  10  11
ATOM     11  C   UNL     1      -5.620   1.622  -0.260  1.00  0.00     0.000 C 
BRANCH  11  12
ATOM     12  C   UNL     1      -4.531   2.688  -0.434  1.00  0.00     0.006 C 
BRANCH  12  13
ATOM     13  C   UNL     1      -3.468   2.573   0.663  1.00  0.00     0.053 C 
BRANCH  13  14
ATOM     14  C   UNL     1      -3.422   3.826   1.479  1.00  0.00     0.041 C 
ATOM     15  O   UNL     1      -3.422   3.763   2.737  1.00  0.00    -0.550 OA
ATOM     16  O   UNL     1      -3.327   5.061   0.853  1.00  0.00    -0.550 OA
ENDBRANCH  13  14
ENDBRANCH  12  13
ENDBRANCH  11  12
ENDBRANCH  10  11
ENDBRANCH   9  10
ENDBRANCH   8   9
ENDBRANCH   7   8
ENDBRANCH   6   7
ENDBRANCH   5   6
ENDBRANCH   4   5
ENDBRANCH   3   4
ENDBRANCH   2   3
ENDBRANCH   1   2
BRANCH   1  17
ATOM     17  C   UNL     1      -7.529   1.844   6.242  1.00  0.00     0.000 C 
BRANCH  17  18
ATOM     18  C   UNL     1      -7.136   2.404   7.621  1.00  0.00     0.000 C 
BRANCH  18  19
ATOM     19  C   UNL     1      -6.949   1.297   8.672  1.00  0.00     0.000 C 
BRANCH  19  20
ATOM     20  C   UNL     1      -5.494   1.192   9.160  1.00  0.00     0.000 C 
BRANCH  20  21
ATOM     21  C   UNL     1      -4.916  -0.227   9.011  1.00  0.00     0.000 C 
BRANCH  21  22
ATOM     22  C   UNL     1      -5.914  -1.290   8.510  1.00  0.00    -0.000 C 
BRANCH  22  23
ATOM     23  C   UNL     1      -5.339  -2.304   7.502  1.00  0.00    -0.000 C 
BRANCH  23  24
ATOM     24  C   UNL     1      -3.932  -2.842   7.838  1.00  0.00    -0.000 C 
BRANCH  24  25
ATOM     25  C   UNL     1      -2.836  -2.494   6.811  1.00  0.00    -0.000 C 
BRANCH  25  26
ATOM     26  C   UNL     1      -2.303  -3.706   6.014  1.00  0.00    -0.000 C 
BRANCH  26  27
ATOM     27  C   UNL     1      -2.980  -3.894   4.643  1.00  0.00    -0.000 C 
BRANCH  27  28
ATOM     28  C   UNL     1      -4.247  -4.769   4.661  1.00  0.00    -0.000 C 
BRANCH  28  29
ATOM     29  C   UNL     1      -5.546  -4.035   4.279  1.00  0.00    -0.003 C 
ATOM     30  C   UNL     1      -6.795  -4.682   4.874  1.00  0.00     0.004 C 
ENDBRANCH  28  29
ENDBRANCH  27  28
ENDBRANCH  26  27
ENDBRANCH  25  26
ENDBRANCH  24  25
ENDBRANCH  23  24
ENDBRANCH  22  23
ENDBRANCH  21  22
ENDBRANCH  20  21
ENDBRANCH  19  20
ENDBRANCH  18  19
ENDBRANCH  17  18
ENDBRANCH   1  17
TORSDOF 26
ENDMDL
MODEL 4
REMARK VINA RESULT:    -3.832      4.313      7.159
REMARK INTER + INTRA:         -13.254
REMARK INTER:                  -9.726
REMARK INTRA:                  -3.528
REMARK UNBOUND:                -3.596
REMARK SMILES CCCCCCCCCCCCCCCCCCCCCCCCCCCC(=O)[O-]
REMARK SMILES IDX 15 1 16 2 17 3 18 4 19 5 20 6 21 7 22 8 23 9 24 10 25 11
REMARK SMILES IDX 26 12 27 13 28 14 29 15 30 16 14 17 13 18 12 19 11 20 10 21
REMARK SMILES IDX 9 22 8 23 7 24 6 25 5 26 4 27 3 28 2 29 1 30
REMARK H PARENT
REMARK Flexibility Score: inf
ROOT
ATOM      1  C   UNL     1      -5.259   0.023   0.747  1.00  0.00     0.000 C 
ENDROOT
BRANCH   1   2
ATOM      2  C   UNL     1      -6.526   0.733   0.238  1.00  0.00     0.000 C 
BRANCH   2   3
ATOM      3  C   UNL     1      -6.204   1.964  -0.623  1.00  0.00     0.000 C 
BRANCH   3   4
ATOM      4  C   UNL     1      -4.700   2.295  -0.637  1.00  0.00     0.000 C 
BRANCH   4   5
ATOM      5  C   UNL     1      -4.426   3.804  -0.784  1.00  0.00     0.000 C 
BRANCH   5   6
ATOM      6  C   UNL     1      -3.745   4.440   0.442  1.00  0.00     0.000 C 
BRANCH   6   7
ATOM      7  C   UNL     1      -3.413   3.407   1.534  1.00  0.00     0.000 C 
BRANCH   7   8
ATOM      8  C   UNL     1      -4.128   3.702   2.861  1.00  0.00     0.000 C 
BRANCH   8   9
ATOM      9  C   UNL     1      -5.538   3.088   2.929  1.00  0.00     0.000 C 
BRANCH   9  10
ATOM     10  C   UNL     1      -6.610   4.139   3.288  1.00  0.00     0.000 C 
BRANCH  10  11
ATOM     11  C   UNL     1      -6.346   5.523   2.670  1.00  0.00     0.000 C 
BRANCH  11  12
ATOM     12  C   UNL     1      -6.520   6.671   3.673  1.00  0.00     0.006 C 
BRANCH  12  13
ATOM     13  C   UNL     1      -5.982   6.282   5.053  1.00  0.00     0.053 C 
BRANCH  13  14
ATOM     14  C   UNL     1      -4.625   6.874   5.270  1.00  0.00     0.041 C 
ATOM     15  O   UNL     1      -3.785   6.898   4.332  1.00  0.00    -0.550 OA
ATOM     16  O   UNL     1      -4.303   7.446   6.494  1.00  0.00    -0.550 OA
ENDBRANCH  13  14
ENDBRANCH  12  13
ENDBRANCH  11  12
ENDBRANCH  10  11
ENDBRANCH   9  10
ENDBRANCH   8   9
ENDBRANCH   7   8
ENDBRANCH   6   7
ENDBRANCH   5   6
ENDBRANCH   4   5
ENDBRANCH   3   4
ENDBRANCH   2   3
ENDBRANCH   1   2
BRANCH   1  17
ATOM     17  C   UNL     1      -5.410  -1.505   0.786  1.00  0.00     0.000 C 
BRANCH  17  18
ATOM     18  C   UNL     1      -6.633  -1.997  -0.010  1.00  0.00     0.000 C 
BRANCH  18  19
ATOM     19  C   UNL     1      -7.612  -2.804   0.858  1.00  0.00     0.000 C 
BRANCH  19  20
ATOM     20  C   UNL     1      -7.430  -2.527   2.360  1.00  0.00     0.000 C 
BRANCH  20  21
ATOM     21  C   UNL     1      -7.511  -3.803   3.217  1.00  0.00     0.000 C 
BRANCH  21  22
ATOM     22  C   UNL     1      -6.458  -3.904   4.339  1.00  0.00    -0.000 C 
BRANCH  22  23
ATOM     23  C   UNL     1      -6.853  -4.799   5.530  1.00  0.00    -0.000 C 
BRANCH  23  24
ATOM     24  C   UNL     1      -6.637  -4.175   6.925  1.00  0.00    -0.000 C 
BRANCH  24  25
ATOM     25  C   UNL     1      -6.079  -2.737   6.919  1.00  0.00    -0.000 C 
BRANCH  25  26
ATOM     26  C   UNL     1      -4.733  -2.575   7.660  1.00  0.00    -0.000 C 
BRANCH  26  27
ATOM     27  C   UNL     1      -3.647  -3.566   7.199  1.00  0.00    -0.000 C 
BRANCH  27  28
ATOM     28  C   UNL     1      -2.776  -3.075   6.028  1.00  0.00    -0.000 C 
BRANCH  28  29
ATOM     29  C   UNL     1      -2.934  -3.877   4.724  1.00  0.00    -0.003 C 
ATOM     30  C   UNL     1      -3.172  -5.367   4.963  1.00  0.00     0.004 C 
ENDBRANCH  28  29
ENDBRANCH  27  28
ENDBRANCH  26  27
ENDBRANCH  25  26
ENDBRANCH  24  25
ENDBRANCH  23  24
ENDBRANCH  22  23
ENDBRANCH  21  22
ENDBRANCH  20  21
ENDBRANCH  19  20
ENDBRANCH  18  19
ENDBRANCH  17  18
ENDBRANCH   1  17
TORSDOF 26
ENDMDL
MODEL 5
REMARK VINA RESULT:    -3.806      3.847      8.180
REMARK INTER + INTRA:         -13.187
REMARK INTER:                  -8.850
REMARK INTRA:                  -4.337
REMARK UNBOUND:                -3.596
REMARK SMILES CCCCCCCCCCCCCCCCCCCCCCCCCCCC(=O)[O-]
REMARK SMILES IDX 15 1 16 2 17 3 18 4 19 5 20 6 21 7 22 8 23 9 24 10 25 11
REMARK SMILES IDX 26 12 27 13 28 14 29 15 30 16 14 17 13 18 12 19 11 20 10 21
REMARK SMILES IDX 9 22 8 23 7 24 6 25 5 26 4 27 3 28 2 29 1 30
REMARK H PARENT
REMARK Flexibility Score: inf
ROOT
ATOM      1  C   UNL     1      -3.029   3.169   1.187  1.00  0.00     0.000 C 
ENDROOT
BRANCH   1   2
ATOM      2  C   UNL     1      -3.390   2.271  -0.010  1.00  0.00     0.000 C 
BRANCH   2   3
ATOM      3  C   UNL     1      -4.782   2.585  -0.580  1.00  0.00     0.000 C 
BRANCH   3   4
ATOM      4  C   UNL     1      -5.813   1.490  -0.250  1.00  0.00     0.000 C 
BRANCH   4   5
ATOM      5  C   UNL     1      -5.215   0.346   0.590  1.00  0.00     0.000 C 
BRANCH   5   6
ATOM      6  C   UNL     1      -6.103  -0.910   0.661  1.00  0.00     0.000 C 
BRANCH   6   7
ATOM      7  C   UNL     1      -7.514  -0.667   0.095  1.00  0.00     0.000 C 
BRANCH   7   8
ATOM      8  C   UNL     1      -8.038  -1.863  -0.715  1.00  0.00     0.000 C 
BRANCH   8   9
ATOM      9  C   UNL     1      -7.070  -3.059  -0.706  1.00  0.00     0.000 C 
BRANCH   9  10
ATOM     10  C   UNL     1      -7.273  -3.977  -1.931  1.00  0.00     0.000 C 
BRANCH  10  11
ATOM     11  C   UNL     1      -5.956  -4.486  -2.542  1.00  0.00     0.000 C 
BRANCH  11  12
ATOM     12  C   UNL     1      -5.968  -5.995  -2.821  1.00  0.00     0.006 C 
BRANCH  12  13
ATOM     13  C   UNL     1      -4.637  -6.454  -3.422  1.00  0.00     0.053 C 
BRANCH  13  14
ATOM     14  C   UNL     1      -4.848  -7.629  -4.325  1.00  0.00     0.041 C 
ATOM     15  O   UNL     1      -5.769  -8.454  -4.087  1.00  0.00    -0.550 OA
ATOM     16  O   UNL     1      -4.062  -7.785  -5.459  1.00  0.00    -0.550 OA
ENDBRANCH  13  14
ENDBRANCH  12  13
ENDBRANCH  11  12
ENDBRANCH  10  11
ENDBRANCH   9  10
ENDBRANCH   8   9
ENDBRANCH   7   8
ENDBRANCH   6   7
ENDBRANCH   5   6
ENDBRANCH   4   5
ENDBRANCH   3   4
ENDBRANCH   2   3
ENDBRANCH   1   2
BRANCH   1  17
ATOM     17  C   UNL     1      -3.862   4.458   1.236  1.00  0.00     0.000 C 
BRANCH  17  18
ATOM     18  C   UNL     1      -4.558   4.660   2.594  1.00  0.00     0.000 C 
BRANCH  18  19
ATOM     19  C   UNL     1      -5.322   3.407   3.054  1.00  0.00     0.000 C 
BRANCH  19  20
ATOM     20  C   UNL     1      -6.263   3.695   4.236  1.00  0.00     0.000 C 
BRANCH  20  21
ATOM     21  C   UNL     1      -7.455   2.723   4.302  1.00  0.00     0.000 C 
BRANCH  21  22
ATOM     22  C   UNL     1      -7.699   1.903   3.019  1.00  0.00    -0.000 C 
BRANCH  22  23
ATOM     23  C   UNL     1      -9.093   2.080   2.385  1.00  0.00    -0.000 C 
BRANCH  23  24
ATOM     24  C   UNL     1      -9.095   2.586   0.927  1.00  0.00    -0.000 C 
BRANCH  24  25
ATOM     25  C   UNL     1      -9.168   4.117   0.765  1.00  0.00    -0.000 C 
BRANCH  25  26
ATOM     26  C   UNL     1      -7.803   4.834   0.871  1.00  0.00    -0.000 C 
BRANCH  26  27
ATOM     27  C   UNL     1      -7.249   5.316  -0.483  1.00  0.00    -0.000 C 
BRANCH  27  28
ATOM     28  C   UNL     1      -8.204   5.134  -1.677  1.00  0.00    -0.000 C 
BRANCH  28  29
ATOM     29  C   UNL     1      -7.737   4.111  -2.728  1.00  0.00    -0.003 C 
ATOM     30  C   UNL     1      -8.487   2.782  -2.645  1.00  0.00     0.004 C 
ENDBRANCH  28  29
ENDBRANCH  27  28
ENDBRANCH  26  27
ENDBRANCH  25  26
ENDBRANCH  24  25
ENDBRANCH  23  24
ENDBRANCH  22  23
ENDBRANCH  21  22
ENDBRANCH  20  21
ENDBRANCH  19  20
ENDBRANCH  18  19
ENDBRANCH  17  18
ENDBRANCH   1  17
TORSDOF 26
ENDMDL
MODEL 6
REMARK VINA RESULT:    -3.805      4.510      7.361
REMARK INTER + INTRA:         -13.185
REMARK INTER:                  -9.536
REMARK INTRA:                  -3.649
REMARK UNBOUND:                -3.596
REMARK SMILES CCCCCCCCCCCCCCCCCCCCCCCCCCCC(=O)[O-]
REMARK SMILES IDX 15 1 16 2 17 3 18 4 19 5 20 6 21 7 22 8 23 9 24 10 25 11
REMARK SMILES IDX 26 12 27 13 28 14 29 15 30 16 14 17 13 18 12 19 11 20 10 21
REMARK SMILES IDX 9 22 8 23 7 24 6 25 5 26 4 27 3 28 2 29 1 30
REMARK H PARENT
REMARK Flexibility Score: inf
ROOT
ATOM      1  C   UNL     1      -6.410   0.664   0.152  1.00  0.00     0.000 C 
ENDROOT
BRANCH   1   2
ATOM      2  C   UNL     1      -5.167   1.074   0.962  1.00  0.00     0.000 C 
BRANCH   2   3
ATOM      3  C   UNL     1      -4.025   1.582   0.068  1.00  0.00     0.000 C 
BRANCH   3   4
ATOM      4  C   UNL     1      -3.400   2.885   0.596  1.00  0.00     0.000 C 
BRANCH   4   5
ATOM      5  C   UNL     1      -3.795   4.115  -0.243  1.00  0.00     0.000 C 
BRANCH   5   6
ATOM      6  C   UNL     1      -4.502   3.770  -1.566  1.00  0.00     0.000 C 
BRANCH   6   7
ATOM      7  C   UNL     1      -6.014   4.055  -1.518  1.00  0.00     0.000 C 
BRANCH   7   8
ATOM      8  C   UNL     1      -6.434   4.797  -0.240  1.00  0.00     0.000 C 
BRANCH   8   9
ATOM      9  C   UNL     1      -7.660   4.165   0.441  1.00  0.00     0.000 C 
BRANCH   9  10
ATOM     10  C   UNL     1      -7.460   4.009   1.964  1.00  0.00     0.000 C 
BRANCH  10  11
ATOM     11  C   UNL     1      -6.046   4.383   2.440  1.00  0.00     0.000 C 
BRANCH  11  12
ATOM     12  C   UNL     1      -5.736   3.876   3.854  1.00  0.00     0.006 C 
BRANCH  12  13
ATOM     13  C   UNL     1      -4.743   4.801   4.565  1.00  0.00     0.053 C 
BRANCH  13  14
ATOM     14  C   UNL     1      -5.302   5.262   5.874  1.00  0.00     0.041 C 
ATOM     15  O   UNL     1      -4.536   5.705   6.770  1.00  0.00    -0.550 OA
ATOM     16  O   UNL     1      -6.674   5.251   6.086  1.00  0.00    -0.550 OA
ENDBRANCH  13  14
ENDBRANCH  12  13
ENDBRANCH  11  12
ENDBRANCH  10  11
ENDBRANCH   9  10
ENDBRANCH   8   9
ENDBRANCH   7   8
ENDBRANCH   6   7
ENDBRANCH   5   6
ENDBRANCH   4   5
ENDBRANCH   3   4
ENDBRANCH   2   3
ENDBRANCH   1   2
BRANCH   1  17
ATOM     17  C   UNL     1      -6.773  -0.818   0.331  1.00  0.00     0.000 C 
BRANCH  17  18
ATOM     18  C   UNL     1      -5.565  -1.674   0.750  1.00  0.00     0.000 C 
BRANCH  18  19
ATOM     19  C   UNL     1      -5.780  -2.371   2.104  1.00  0.00     0.000 C 
BRANCH  19  20
ATOM     20  C   UNL     1      -7.213  -2.905   2.267  1.00  0.00     0.000 C 
BRANCH  20  21
ATOM     21  C   UNL     1      -7.366  -3.842   3.479  1.00  0.00     0.000 C 
BRANCH  21  22
ATOM     22  C   UNL     1      -6.191  -3.817   4.477  1.00  0.00    -0.000 C 
BRANCH  22  23
ATOM     23  C   UNL     1      -5.427  -5.148   4.622  1.00  0.00    -0.000 C 
BRANCH  23  24
ATOM     24  C   UNL     1      -3.890  -5.038   4.540  1.00  0.00    -0.000 C 
BRANCH  24  25
ATOM     25  C   UNL     1      -3.330  -3.604   4.634  1.00  0.00    -0.000 C 
BRANCH  25  26
ATOM     26  C   UNL     1      -2.585  -3.298   5.953  1.00  0.00    -0.000 C 
BRANCH  26  27
ATOM     27  C   UNL     1      -3.039  -4.168   7.139  1.00  0.00    -0.000 C 
BRANCH  27  28
ATOM     28  C   UNL     1      -3.796  -3.412   8.247  1.00  0.00    -0.000 C 
BRANCH  28  29
ATOM     29  C   UNL     1      -4.907  -2.472   7.744  1.00  0.00    -0.003 C 
ATOM     30  C   UNL     1      -4.811  -1.065   8.330  1.00  0.00     0.004 C 
ENDBRANCH  28  29
ENDBRANCH  27  28
ENDBRANCH  26  27
ENDBRANCH  25  26
ENDBRANCH  24  25
ENDBRANCH  23  24
ENDBRANCH  22  23
ENDBRANCH  21  22
ENDBRANCH  20  21
ENDBRANCH  19  20
ENDBRANCH  18  19
ENDBRANCH  17  18
ENDBRANCH   1  17
TORSDOF 26
ENDMDL
MODEL 7
REMARK VINA RESULT:    -3.797      4.393      7.107
REMARK INTER + INTRA:         -13.165
REMARK INTER:                  -9.232
REMARK INTRA:                  -3.933
REMARK UNBOUND:                -3.596
REMARK SMILES CCCCCCCCCCCCCCCCCCCCCCCCCCCC(=O)[O-]
REMARK SMILES IDX 15 1 16 2 17 3 18 4 19 5 20 6 21 7 22 8 23 9 24 10 25 11
REMARK SMILES IDX 26 12 27 13 28 14 29 15 30 16 14 17 13 18 12 19 11 20 10 21
REMARK SMILES IDX 9 22 8 23 7 24 6 25 5 26 4 27 3 28 2 29 1 30
REMARK H PARENT
REMARK Flexibility Score: inf
ROOT
ATOM      1  C   UNL     1      -7.413  -2.773   0.930  1.00  0.00     0.000 C 
ENDROOT
BRANCH   1   2
ATOM      2  C   UNL     1      -6.138  -2.310   0.203  1.00  0.00     0.000 C 
BRANCH   2   3
ATOM      3  C   UNL     1      -5.292  -1.350   1.054  1.00  0.00     0.000 C 
BRANCH   3   4
ATOM      4  C   UNL     1      -5.378   0.105   0.559  1.00  0.00     0.000 C 
BRANCH   4   5
ATOM      5  C   UNL     1      -6.677   0.806   0.999  1.00  0.00     0.000 C 
BRANCH   5   6
ATOM      6  C   UNL     1      -7.105   1.967   0.083  1.00  0.00     0.000 C 
BRANCH   6   7
ATOM      7  C   UNL     1      -6.121   2.194  -1.079  1.00  0.00     0.000 C 
BRANCH   7   8
ATOM      8  C   UNL     1      -5.854   3.684  -1.343  1.00  0.00     0.000 C 
BRANCH   8   9
ATOM      9  C   UNL     1      -4.398   4.089  -1.057  1.00  0.00     0.000 C 
BRANCH   9  10
ATOM     10  C   UNL     1      -3.510   2.868  -0.733  1.00  0.00     0.000 C 
BRANCH  10  11
ATOM     11  C   UNL     1      -3.112   2.773   0.750  1.00  0.00     0.000 C 
BRANCH  11  12
ATOM     12  C   UNL     1      -3.373   4.072   1.525  1.00  0.00     0.006 C 
BRANCH  12  13
ATOM     13  C   UNL     1      -3.964   3.779   2.907  1.00  0.00     0.053 C 
BRANCH  13  14
ATOM     14  C   UNL     1      -5.459   3.800   2.851  1.00  0.00     0.041 C 
ATOM     15  O   UNL     1      -6.132   3.002   3.557  1.00  0.00    -0.550 OA
ATOM     16  O   UNL     1      -6.113   4.735   2.059  1.00  0.00    -0.550 OA
ENDBRANCH  13  14
ENDBRANCH  12  13
ENDBRANCH  11  12
ENDBRANCH  10  11
ENDBRANCH   9  10
ENDBRANCH   8   9
ENDBRANCH   7   8
ENDBRANCH   6   7
ENDBRANCH   5   6
ENDBRANCH   4   5
ENDBRANCH   3   4
ENDBRANCH   2   3
ENDBRANCH   1   2
BRANCH   1  17
ATOM     17  C   UNL     1      -7.162  -3.119   2.406  1.00  0.00     0.000 C 
BRANCH  17  18
ATOM     18  C   UNL     1      -8.327  -2.694   3.317  1.00  0.00     0.000 C 
BRANCH  18  19
ATOM     19  C   UNL     1      -7.864  -2.363   4.746  1.00  0.00     0.000 C 
BRANCH  19  20
ATOM     20  C   UNL     1      -7.853  -3.599   5.660  1.00  0.00     0.000 C 
BRANCH  20  21
ATOM     21  C   UNL     1      -7.294  -3.300   7.063  1.00  0.00     0.000 C 
BRANCH  21  22
ATOM     22  C   UNL     1      -6.530  -4.464   7.724  1.00  0.00    -0.000 C 
BRANCH  22  23
ATOM     23  C   UNL     1      -5.354  -4.046   8.629  1.00  0.00    -0.000 C 
BRANCH  23  24
ATOM     24  C   UNL     1      -4.939  -2.563   8.526  1.00  0.00    -0.000 C 
BRANCH  24  25
ATOM     25  C   UNL     1      -3.786  -2.272   7.545  1.00  0.00    -0.000 C 
BRANCH  25  26
ATOM     26  C   UNL     1      -2.643  -3.312   7.579  1.00  0.00    -0.000 C 
BRANCH  26  27
ATOM     27  C   UNL     1      -2.527  -4.148   6.290  1.00  0.00    -0.000 C 
BRANCH  27  28
ATOM     28  C   UNL     1      -3.009  -3.439   5.011  1.00  0.00    -0.000 C 
BRANCH  28  29
ATOM     29  C   UNL     1      -4.190  -4.123   4.298  1.00  0.00    -0.003 C 
ATOM     30  C   UNL     1      -4.543  -5.484   4.897  1.00  0.00     0.004 C 
ENDBRANCH  28  29
ENDBRANCH  27  28
ENDBRANCH  26  27
ENDBRANCH  25  26
ENDBRANCH  24  25
ENDBRANCH  23  24
ENDBRANCH  22  23
ENDBRANCH  21  22
ENDBRANCH  20  21
ENDBRANCH  19  20
ENDBRANCH  18  19
ENDBRANCH  17  18
ENDBRANCH   1  17
TORSDOF 26
ENDMDL
MODEL 8
REMARK VINA RESULT:    -3.788      5.416      8.088
REMARK INTER + INTRA:         -13.143
REMARK INTER:                  -8.669
REMARK INTRA:                  -4.474
REMARK UNBOUND:                -3.596
REMARK SMILES CCCCCCCCCCCCCCCCCCCCCCCCCCCC(=O)[O-]
REMARK SMILES IDX 15 1 16 2 17 3 18 4 19 5 20 6 21 7 22 8 23 9 24 10 25 11
REMARK SMILES IDX 26 12 27 13 28 14 29 15 30 16 14 17 13 18 12 19 11 20 10 21
REMARK SMILES IDX 9 22 8 23 7 24 6 25 5 26 4 27 3 28 2 29 1 30
REMARK H PARENT
REMARK Flexibility Score: inf
ROOT
ATOM      1  C   UNL     1      -5.962  -3.419   8.267  1.00  0.00     0.000 C 
ENDROOT
BRANCH   1   2
ATOM      2  C   UNL     1      -6.443  -2.545   7.095  1.00  0.00     0.000 C 
BRANCH   2   3
ATOM      3  C   UNL     1      -7.731  -3.082   6.451  1.00  0.00     0.000 C 
BRANCH   3   4
ATOM      4  C   UNL     1      -7.889  -2.632   4.987  1.00  0.00     0.000 C 
BRANCH   4   5
ATOM      5  C   UNL     1      -8.637  -3.667   4.126  1.00  0.00     0.000 C 
BRANCH   5   6
ATOM      6  C   UNL     1      -8.128  -3.761   2.676  1.00  0.00     0.000 C 
BRANCH   6   7
ATOM      7  C   UNL     1      -6.952  -2.806   2.400  1.00  0.00     0.000 C 
BRANCH   7   8
ATOM      8  C   UNL     1      -7.009  -2.191   0.994  1.00  0.00     0.000 C 
BRANCH   8   9
ATOM      9  C   UNL     1      -5.617  -1.840   0.440  1.00  0.00     0.000 C 
BRANCH   9  10
ATOM     10  C   UNL     1      -5.179  -0.413   0.837  1.00  0.00     0.000 C 
BRANCH  10  11
ATOM     11  C   UNL     1      -6.190   0.675   0.435  1.00  0.00     0.000 C 
BRANCH  11  12
ATOM     12  C   UNL     1      -5.653   2.097   0.641  1.00  0.00     0.006 C 
BRANCH  12  13
ATOM     13  C   UNL     1      -4.840   2.560  -0.571  1.00  0.00     0.053 C 
BRANCH  13  14
ATOM     14  C   UNL     1      -3.376   2.527  -0.263  1.00  0.00     0.041 C 
ATOM     15  O   UNL     1      -2.533   2.456  -1.196  1.00  0.00    -0.550 OA
ATOM     16  O   UNL     1      -2.940   2.626   1.052  1.00  0.00    -0.550 OA
ENDBRANCH  13  14
ENDBRANCH  12  13
ENDBRANCH  11  12
ENDBRANCH  10  11
ENDBRANCH   9  10
ENDBRANCH   8   9
ENDBRANCH   7   8
ENDBRANCH   6   7
ENDBRANCH   5   6
ENDBRANCH   4   5
ENDBRANCH   3   4
ENDBRANCH   2   3
ENDBRANCH   1   2
BRANCH   1  17
ATOM     17  C   UNL     1      -4.433  -3.417   8.420  1.00  0.00     0.000 C 
BRANCH  17  18
ATOM     18  C   UNL     1      -3.725  -2.692   7.262  1.00  0.00     0.000 C 
BRANCH  18  19
ATOM     19  C   UNL     1      -2.805  -3.626   6.459  1.00  0.00     0.000 C 
BRANCH  19  20
ATOM     20  C   UNL     1      -3.008  -3.487   4.941  1.00  0.00     0.000 C 
BRANCH  20  21
ATOM     21  C   UNL     1      -4.371  -4.027   4.469  1.00  0.00     0.000 C 
BRANCH  21  22
ATOM     22  C   UNL     1      -4.541  -5.555   4.582  1.00  0.00    -0.000 C 
BRANCH  22  23
ATOM     23  C   UNL     1      -5.594  -6.022   5.607  1.00  0.00    -0.000 C 
BRANCH  23  24
ATOM     24  C   UNL     1      -5.190  -7.248   6.453  1.00  0.00    -0.000 C 
BRANCH  24  25
ATOM     25  C   UNL     1      -4.148  -6.970   7.555  1.00  0.00    -0.000 C 
BRANCH  25  26
ATOM     26  C   UNL     1      -2.716  -7.435   7.209  1.00  0.00    -0.000 C 
BRANCH  26  27
ATOM     27  C   UNL     1      -2.640  -8.332   5.958  1.00  0.00    -0.000 C 
BRANCH  27  28
ATOM     28  C   UNL     1      -1.634  -7.870   4.888  1.00  0.00    -0.000 C 
BRANCH  28  29
ATOM     29  C   UNL     1      -0.996  -6.493   5.153  1.00  0.00    -0.003 C 
ATOM     30  C   UNL     1      -0.270  -5.927   3.935  1.00  0.00     0.004 C 
ENDBRANCH  28  29
ENDBRANCH  27  28
ENDBRANCH  26  27
ENDBRANCH  25  26
ENDBRANCH  24  25
ENDBRANCH  23  24
ENDBRANCH  22  23
ENDBRANCH  21  22
ENDBRANCH  20  21
ENDBRANCH  19  20
ENDBRANCH  18  19
ENDBRANCH  17  18
ENDBRANCH   1  17
TORSDOF 26
ENDMDL
MODEL 9
REMARK VINA RESULT:    -3.782      4.732     10.118
REMARK INTER + INTRA:         -13.127
REMARK INTER:                  -9.354
REMARK INTRA:                  -3.774
REMARK UNBOUND:                -3.596
REMARK SMILES CCCCCCCCCCCCCCCCCCCCCCCCCCCC(=O)[O-]
REMARK SMILES IDX 15 1 16 2 17 3 18 4 19 5 20 6 21 7 22 8 23 9 24 10 25 11
REMARK SMILES IDX 26 12 27 13 28 14 29 15 30 16 14 17 13 18 12 19 11 20 10 21
REMARK SMILES IDX 9 22 8 23 7 24 6 25 5 26 4 27 3 28 2 29 1 30
REMARK H PARENT
REMARK Flexibility Score: inf
ROOT
ATOM      1  C   UNL     1      -6.370   0.607   0.915  1.00  0.00     0.000 C 
ENDROOT
BRANCH   1   2
ATOM      2  C   UNL     1      -5.242  -0.419   0.711  1.00  0.00     0.000 C 
BRANCH   2   3
ATOM      3  C   UNL     1      -5.738  -1.869   0.827  1.00  0.00     0.000 C 
BRANCH   3   4
ATOM      4  C   UNL     1      -6.835  -2.032   1.895  1.00  0.00     0.000 C 
BRANCH   4   5
ATOM      5  C   UNL     1      -7.573  -3.380   1.787  1.00  0.00     0.000 C 
BRANCH   5   6
ATOM      6  C   UNL     1      -7.920  -4.015   3.146  1.00  0.00     0.000 C 
BRANCH   6   7
ATOM      7  C   UNL     1      -7.398  -3.187   4.334  1.00  0.00     0.000 C 
BRANCH   7   8
ATOM      8  C   UNL     1      -6.512  -4.010   5.282  1.00  0.00     0.000 C 
BRANCH   8   9
ATOM      9  C   UNL     1      -5.929  -5.267   4.613  1.00  0.00     0.000 C 
BRANCH   9  10
ATOM     10  C   UNL     1      -4.385  -5.279   4.650  1.00  0.00     0.000 C 
BRANCH  10  11
ATOM     11  C   UNL     1      -3.752  -3.914   4.328  1.00  0.00     0.000 C 
BRANCH  11  12
ATOM     12  C   UNL     1      -3.197  -3.203   5.569  1.00  0.00     0.006 C 
BRANCH  12  13
ATOM     13  C   UNL     1      -2.262  -4.124   6.359  1.00  0.00     0.053 C 
BRANCH  13  14
ATOM     14  C   UNL     1      -2.629  -4.121   7.810  1.00  0.00     0.041 C 
ATOM     15  O   UNL     1      -2.245  -5.055   8.563  1.00  0.00    -0.550 OA
ATOM     16  O   UNL     1      -3.351  -3.061   8.342  1.00  0.00    -0.550 OA
ENDBRANCH  13  14
ENDBRANCH  12  13
ENDBRANCH  11  12
ENDBRANCH  10  11
ENDBRANCH   9  10
ENDBRANCH   8   9
ENDBRANCH   7   8
ENDBRANCH   6   7
ENDBRANCH   5   6
ENDBRANCH   4   5
ENDBRANCH   3   4
ENDBRANCH   2   3
ENDBRANCH   1   2
BRANCH   1  17
ATOM     17  C   UNL     1      -6.795   1.291  -0.394  1.00  0.00     0.000 C 
BRANCH  17  18
ATOM     18  C   UNL     1      -7.353   2.707  -0.166  1.00  0.00     0.000 C 
BRANCH  18  19
ATOM     19  C   UNL     1      -7.354   3.552  -1.450  1.00  0.00     0.000 C 
BRANCH  19  20
ATOM     20  C   UNL     1      -6.235   4.606  -1.459  1.00  0.00     0.000 C 
BRANCH  20  21
ATOM     21  C   UNL     1      -4.988   4.148  -2.237  1.00  0.00     0.000 C 
BRANCH  21  22
ATOM     22  C   UNL     1      -3.685   4.103  -1.414  1.00  0.00    -0.000 C 
BRANCH  22  23
ATOM     23  C   UNL     1      -3.373   2.744  -0.756  1.00  0.00    -0.000 C 
BRANCH  23  24
ATOM     24  C   UNL     1      -3.267   2.765   0.783  1.00  0.00    -0.000 C 
BRANCH  24  25
ATOM     25  C   UNL     1      -3.421   4.155   1.431  1.00  0.00    -0.000 C 
BRANCH  25  26
ATOM     26  C   UNL     1      -4.836   4.450   1.978  1.00  0.00    -0.000 C 
BRANCH  26  27
ATOM     27  C   UNL     1      -5.354   3.387   2.964  1.00  0.00    -0.000 C 
BRANCH  27  28
ATOM     28  C   UNL     1      -6.687   3.735   3.652  1.00  0.00    -0.000 C 
BRANCH  28  29
ATOM     29  C   UNL     1      -7.318   2.586   4.459  1.00  0.00    -0.003 C 
ATOM     30  C   UNL     1      -8.370   1.808   3.670  1.00  0.00     0.004 C 
ENDBRANCH  28  29
ENDBRANCH  27  28
ENDBRANCH  26  27
ENDBRANCH  25  26
ENDBRANCH  24  25
ENDBRANCH  23  24
ENDBRANCH  22  23
ENDBRANCH  21  22
ENDBRANCH  20  21
ENDBRANCH  19  20
ENDBRANCH  18  19
ENDBRANCH  17  18
ENDBRANCH   1  17
TORSDOF 26
ENDMDL
