MODEL 1
REMARK VINA RESULT:    -3.874      0.000      0.000
REMARK INTER + INTRA:          -6.038
REMARK INTER:                  -5.459
REMARK INTRA:                  -0.579
REMARK UNBOUND:                -0.579
REMARK SMILES CCCCCCCCC(=O)[O-]
REMARK SMILES IDX 6 1 7 2 8 3 9 4 10 5 11 6 5 7 4 8 3 9 2 10 1 11
REMARK H PARENT
REMARK Flexibility Score: inf
ROOT
ATOM      1  C   UNL     1     -53.467 120.765  -9.082  1.00  0.00     0.000 C 
ENDROOT
BRANCH   1   2
ATOM      2  C   UNL     1     -54.221 120.151 -10.276  1.00  0.00     0.006 C 
BRANCH   2   3
ATOM      3  C   UNL     1     -55.753 120.246 -10.164  1.00  0.00     0.053 C 
BRANCH   3   4
ATOM      4  C   UNL     1     -56.240 121.659 -10.053  1.00  0.00     0.041 C 
ATOM      5  O   UNL     1     -56.839 122.045  -9.015  1.00  0.00    -0.550 OA
ATOM      6  O   UNL     1     -56.005 122.559 -11.085  1.00  0.00    -0.550 OA
ENDBRANCH   3   4
ENDBRANCH   2   3
ENDBRANCH   1   2
BRANCH   1   7
ATOM      7  C   UNL     1     -52.597 121.967  -9.476  1.00  0.00     0.000 C 
BRANCH   7   8
ATOM      8  C   UNL     1     -52.341 121.989 -10.990  1.00  0.00    -0.000 C 
BRANCH   8   9
ATOM      9  C   UNL     1     -50.872 121.705 -11.355  1.00  0.00    -0.000 C 
BRANCH   9  10
ATOM     10  C   UNL     1     -49.847 122.103 -10.277  1.00  0.00    -0.003 C 
ATOM     11  C   UNL     1     -48.915 120.956  -9.887  1.00  0.00     0.004 C 
ENDBRANCH   9  10
ENDBRANCH   8   9
ENDBRANCH   7   8
ENDBRANCH   1   7
TORSDOF 7
ENDMDL
MODEL 2
REMARK VINA RESULT:    -3.828      1.657      2.006
REMARK INTER + INTRA:          -5.974
REMARK INTER:                  -5.390
REMARK INTRA:                  -0.584
REMARK UNBOUND:                -0.579
REMARK SMILES CCCCCCCCC(=O)[O-]
REMARK SMILES IDX 6 1 7 2 8 3 9 4 10 5 11 6 5 7 4 8 3 9 2 10 1 11
REMARK H PARENT
REMARK Flexibility Score: inf
ROOT
ATOM      1  C   UNL     1     -53.967 121.247  -8.968  1.00  0.00     0.000 C 
ENDROOT
BRANCH   1   2
ATOM      2  C   UNL     1     -55.177 121.693  -9.808  1.00  0.00     0.006 C 
BRANCH   2   3
ATOM      3  C   UNL     1     -56.486 120.964  -9.457  1.00  0.00     0.053 C 
BRANCH   3   4
ATOM      4  C   UNL     1     -56.991 120.106 -10.578  1.00  0.00     0.041 C 
ATOM      5  O   UNL     1     -56.503 118.962 -10.772  1.00  0.00    -0.550 OA
ATOM      6  O   UNL     1     -58.021 120.560 -11.392  1.00  0.00    -0.550 OA
ENDBRANCH   3   4
ENDBRANCH   2   3
ENDBRANCH   1   2
BRANCH   1   7
ATOM      7  C   UNL     1     -53.193 120.082  -9.601  1.00  0.00     0.000 C 
BRANCH   7   8
ATOM      8  C   UNL     1     -53.041 120.280 -11.116  1.00  0.00    -0.000 C 
BRANCH   8   9
ATOM      9  C   UNL     1     -51.990 121.345 -11.479  1.00  0.00    -0.000 C 
BRANCH   9  10
ATOM     10  C   UNL     1     -50.653 121.222 -10.725  1.00  0.00    -0.003 C 
ATOM     11  C   UNL     1     -50.268 122.498  -9.979  1.00  0.00     0.004 C 
ENDBRANCH   9  10
ENDBRANCH   8   9
ENDBRANCH   7   8
ENDBRANCH   1   7
TORSDOF 7
ENDMDL
MODEL 3
REMARK VINA RESULT:    -3.821      2.056      3.018
REMARK INTER + INTRA:          -5.964
REMARK INTER:                  -5.346
REMARK INTRA:                  -0.618
REMARK UNBOUND:                -0.579
REMARK SMILES CCCCCCCCC(=O)[O-]
REMARK SMILES IDX 6 1 7 2 8 3 9 4 10 5 11 6 5 7 4 8 3 9 2 10 1 11
REMARK H PARENT
REMARK Flexibility Score: inf
ROOT
ATOM      1  C   UNL     1     -54.524 122.853 -11.533  1.00  0.00     0.000 C 
ENDROOT
BRANCH   1   2
ATOM      2  C   UNL     1     -55.663 122.002 -12.125  1.00  0.00     0.006 C 
BRANCH   2   3
ATOM      3  C   UNL     1     -55.497 120.489 -11.900  1.00  0.00     0.053 C 
BRANCH   3   4
ATOM      4  C   UNL     1     -56.689 119.867 -11.237  1.00  0.00     0.041 C 
ATOM      5  O   UNL     1     -56.606 118.718 -10.730  1.00  0.00    -0.550 OA
ATOM      6  O   UNL     1     -57.884 120.570 -11.154  1.00  0.00    -0.550 OA
ENDBRANCH   3   4
ENDBRANCH   2   3
ENDBRANCH   1   2
BRANCH   1   7
ATOM      7  C   UNL     1     -53.138 122.443 -12.051  1.00  0.00     0.000 C 
BRANCH   7   8
ATOM      8  C   UNL     1     -52.265 121.894 -10.913  1.00  0.00    -0.000 C 
BRANCH   8   9
ATOM      9  C   UNL     1     -52.795 122.267  -9.517  1.00  0.00    -0.000 C 
BRANCH   9  10
ATOM     10  C   UNL     1     -53.425 121.103  -8.729  1.00  0.00    -0.003 C 
ATOM     11  C   UNL     1     -53.122 119.735  -9.340  1.00  0.00     0.004 C 
ENDBRANCH   9  10
ENDBRANCH   8   9
ENDBRANCH   7   8
ENDBRANCH   1   7
TORSDOF 7
ENDMDL
MODEL 4
REMARK VINA RESULT:    -3.817      1.918      2.449
REMARK INTER + INTRA:          -5.959
REMARK INTER:                  -5.230
REMARK INTRA:                  -0.729
REMARK UNBOUND:                -0.579
REMARK SMILES CCCCCCCCC(=O)[O-]
REMARK SMILES IDX 6 1 7 2 8 3 9 4 10 5 11 6 5 7 4 8 3 9 2 10 1 11
REMARK H PARENT
REMARK Flexibility Score: inf
ROOT
ATOM      1  C   UNL     1     -55.143 121.425  -9.185  1.00  0.00     0.000 C 
ENDROOT
BRANCH   1   2
ATOM      2  C   UNL     1     -55.289 121.858 -10.656  1.00  0.00     0.006 C 
BRANCH   2   3
ATOM      3  C   UNL     1     -55.572 120.697 -11.625  1.00  0.00     0.053 C 
BRANCH   3   4
ATOM      4  C   UNL     1     -56.766 119.885 -11.224  1.00  0.00     0.041 C 
ATOM      5  O   UNL     1     -56.618 118.719 -10.770  1.00  0.00    -0.550 OA
ATOM      6  O   UNL     1     -58.042 120.427 -11.323  1.00  0.00    -0.550 OA
ENDBRANCH   3   4
ENDBRANCH   2   3
ENDBRANCH   1   2
BRANCH   1   7
ATOM      7  C   UNL     1     -53.681 121.245  -8.754  1.00  0.00     0.000 C 
BRANCH   7   8
ATOM      8  C   UNL     1     -52.904 122.565  -8.875  1.00  0.00    -0.000 C 
BRANCH   8   9
ATOM      9  C   UNL     1     -51.627 122.433  -9.725  1.00  0.00    -0.000 C 
BRANCH   9  10
ATOM     10  C   UNL     1     -51.555 121.167 -10.598  1.00  0.00    -0.003 C 
ATOM     11  C   UNL     1     -51.813 121.446 -12.078  1.00  0.00     0.004 C 
ENDBRANCH   9  10
ENDBRANCH   8   9
ENDBRANCH   7   8
ENDBRANCH   1   7
TORSDOF 7
ENDMDL
MODEL 5
REMARK VINA RESULT:    -3.769      1.079      1.773
REMARK INTER + INTRA:          -5.891
REMARK INTER:                  -5.219
REMARK INTRA:                  -0.671
REMARK UNBOUND:                -0.579
REMARK SMILES CCCCCCCCC(=O)[O-]
REMARK SMILES IDX 6 1 7 2 8 3 9 4 10 5 11 6 5 7 4 8 3 9 2 10 1 11
REMARK H PARENT
REMARK Flexibility Score: inf
ROOT
ATOM      1  C   UNL     1     -53.885 119.717  -9.924  1.00  0.00     0.000 C 
ENDROOT
BRANCH   1   2
ATOM      2  C   UNL     1     -54.085 120.350 -11.314  1.00  0.00     0.006 C 
BRANCH   2   3
ATOM      3  C   UNL     1     -55.560 120.567 -11.697  1.00  0.00     0.053 C 
BRANCH   3   4
ATOM      4  C   UNL     1     -56.129 121.829 -11.121  1.00  0.00     0.041 C 
ATOM      5  O   UNL     1     -56.072 122.906 -11.771  1.00  0.00    -0.550 OA
ATOM      6  O   UNL     1     -56.748 121.808  -9.878  1.00  0.00    -0.550 OA
ENDBRANCH   3   4
ENDBRANCH   2   3
ENDBRANCH   1   2
BRANCH   1   7
ATOM      7  C   UNL     1     -53.013 120.572  -8.995  1.00  0.00     0.000 C 
BRANCH   7   8
ATOM      8  C   UNL     1     -52.889 122.009  -9.523  1.00  0.00    -0.000 C 
BRANCH   8   9
ATOM      9  C   UNL     1     -51.428 122.445  -9.739  1.00  0.00    -0.000 C 
BRANCH   9  10
ATOM     10  C   UNL     1     -50.525 121.386 -10.396  1.00  0.00    -0.003 C 
ATOM     11  C   UNL     1     -50.541 121.449 -11.923  1.00  0.00     0.004 C 
ENDBRANCH   9  10
ENDBRANCH   8   9
ENDBRANCH   7   8
ENDBRANCH   1   7
TORSDOF 7
ENDMDL
MODEL 6
REMARK VINA RESULT:    -3.739      1.397      2.461
REMARK INTER + INTRA:          -5.849
REMARK INTER:                  -5.262
REMARK INTRA:                  -0.586
REMARK UNBOUND:                -0.579
REMARK SMILES CCCCCCCCC(=O)[O-]
REMARK SMILES IDX 6 1 7 2 8 3 9 4 10 5 11 6 5 7 4 8 3 9 2 10 1 11
REMARK H PARENT
REMARK Flexibility Score: inf
ROOT
ATOM      1  C   UNL     1     -53.457 120.143 -11.985  1.00  0.00     0.000 C 
ENDROOT
BRANCH   1   2
ATOM      2  C   UNL     1     -54.985 120.271 -12.125  1.00  0.00     0.006 C 
BRANCH   2   3
ATOM      3  C   UNL     1     -55.734 120.333 -10.781  1.00  0.00     0.053 C 
BRANCH   3   4
ATOM      4  C   UNL     1     -56.297 121.692 -10.494  1.00  0.00     0.041 C 
ATOM      5  O   UNL     1     -57.009 121.882  -9.473  1.00  0.00    -0.550 OA
ATOM      6  O   UNL     1     -56.011 122.757 -11.340  1.00  0.00    -0.550 OA
ENDBRANCH   3   4
ENDBRANCH   2   3
ENDBRANCH   1   2
BRANCH   1   7
ATOM      7  C   UNL     1     -52.746 121.501 -11.896  1.00  0.00     0.000 C 
BRANCH   7   8
ATOM      8  C   UNL     1     -51.813 121.555 -10.678  1.00  0.00    -0.000 C 
BRANCH   8   9
ATOM      9  C   UNL     1     -52.348 120.755  -9.476  1.00  0.00    -0.000 C 
BRANCH   9  10
ATOM     10  C   UNL     1     -53.377 121.501  -8.606  1.00  0.00    -0.003 C 
ATOM     11  C   UNL     1     -53.163 123.015  -8.593  1.00  0.00     0.004 C 
ENDBRANCH   9  10
ENDBRANCH   8   9
ENDBRANCH   7   8
ENDBRANCH   1   7
TORSDOF 7
ENDMDL
MODEL 7
REMARK VINA RESULT:    -3.631      0.942      1.632
REMARK INTER + INTRA:          -5.696
REMARK INTER:                  -5.208
REMARK INTRA:                  -0.488
REMARK UNBOUND:                -0.579
REMARK SMILES CCCCCCCCC(=O)[O-]
REMARK SMILES IDX 6 1 7 2 8 3 9 4 10 5 11 6 5 7 4 8 3 9 2 10 1 11
REMARK H PARENT
REMARK Flexibility Score: inf
ROOT
ATOM      1  C   UNL     1     -52.934 122.149  -9.482  1.00  0.00     0.000 C 
ENDROOT
BRANCH   1   2
ATOM      2  C   UNL     1     -53.770 120.978  -8.933  1.00  0.00     0.006 C 
BRANCH   2   3
ATOM      3  C   UNL     1     -54.906 120.527  -9.868  1.00  0.00     0.053 C 
BRANCH   3   4
ATOM      4  C   UNL     1     -56.182 121.276  -9.634  1.00  0.00     0.041 C 
ATOM      5  O   UNL     1     -57.093 121.268 -10.504  1.00  0.00    -0.550 OA
ATOM      6  O   UNL     1     -56.379 121.960  -8.441  1.00  0.00    -0.550 OA
ENDBRANCH   3   4
ENDBRANCH   2   3
ENDBRANCH   1   2
BRANCH   1   7
ATOM      7  C   UNL     1     -52.769 122.105 -11.008  1.00  0.00     0.000 C 
BRANCH   7   8
ATOM      8  C   UNL     1     -51.298 121.899 -11.397  1.00  0.00    -0.000 C 
BRANCH   8   9
ATOM      9  C   UNL     1     -50.443 121.349 -10.240  1.00  0.00    -0.000 C 
BRANCH   9  10
ATOM     10  C   UNL     1     -49.122 122.101  -9.994  1.00  0.00    -0.003 C 
ATOM     11  C   UNL     1     -49.329 123.490  -9.391  1.00  0.00     0.004 C 
ENDBRANCH   9  10
ENDBRANCH   8   9
ENDBRANCH   7   8
ENDBRANCH   1   7
TORSDOF 7
ENDMDL
MODEL 8
REMARK VINA RESULT:    -3.210      3.148      5.533
REMARK INTER + INTRA:          -5.103
REMARK INTER:                  -4.705
REMARK INTRA:                  -0.398
REMARK UNBOUND:                -0.579
REMARK SMILES CCCCCCCCC(=O)[O-]
REMARK SMILES IDX 6 1 7 2 8 3 9 4 10 5 11 6 5 7 4 8 3 9 2 10 1 11
REMARK H PARENT
REMARK Flexibility Score: inf
ROOT
ATOM      1  C   UNL     1     -53.091 120.387 -10.688  1.00  0.00     0.000 C 
ENDROOT
BRANCH   1   2
ATOM      2  C   UNL     1     -51.886 121.244 -11.119  1.00  0.00     0.006 C 
BRANCH   2   3
ATOM      3  C   UNL     1     -50.817 121.417 -10.025  1.00  0.00     0.053 C 
BRANCH   3   4
ATOM      4  C   UNL     1     -49.951 122.620 -10.245  1.00  0.00     0.041 C 
ATOM      5  O   UNL     1     -49.687 123.007 -11.414  1.00  0.00    -0.550 OA
ATOM      6  O   UNL     1     -49.460 123.332  -9.158  1.00  0.00    -0.550 OA
ENDBRANCH   3   4
ENDBRANCH   2   3
ENDBRANCH   1   2
BRANCH   1   7
ATOM      7  C   UNL     1     -53.520 120.643  -9.236  1.00  0.00     0.000 C 
BRANCH   7   8
ATOM      8  C   UNL     1     -54.558 121.773  -9.160  1.00  0.00    -0.000 C 
BRANCH   8   9
ATOM      9  C   UNL     1     -56.005 121.253  -9.077  1.00  0.00    -0.000 C 
BRANCH   9  10
ATOM     10  C   UNL     1     -56.664 120.946 -10.434  1.00  0.00    -0.003 C 
ATOM     11  C   UNL     1     -56.770 119.449 -10.723  1.00  0.00     0.004 C 
ENDBRANCH   9  10
ENDBRANCH   8   9
ENDBRANCH   7   8
ENDBRANCH   1   7
TORSDOF 7
ENDMDL
MODEL 9
REMARK VINA RESULT:    -3.202      1.817      4.280
REMARK INTER + INTRA:          -5.092
REMARK INTER:                  -4.559
REMARK INTRA:                  -0.533
REMARK UNBOUND:                -0.579
REMARK SMILES CCCCCCCCC(=O)[O-]
REMARK SMILES IDX 6 1 7 2 8 3 9 4 10 5 11 6 5 7 4 8 3 9 2 10 1 11
REMARK H PARENT
REMARK Flexibility Score: inf
ROOT
ATOM      1  C   UNL     1     -52.045 121.314 -10.962  1.00  0.00     0.000 C 
ENDROOT
BRANCH   1   2
ATOM      2  C   UNL     1     -52.171 121.725  -9.484  1.00  0.00     0.006 C 
BRANCH   2   3
ATOM      3  C   UNL     1     -53.474 121.255  -8.812  1.00  0.00     0.053 C 
BRANCH   3   4
ATOM      4  C   UNL     1     -54.427 122.380  -8.544  1.00  0.00     0.041 C 
ATOM      5  O   UNL     1     -54.005 123.563  -8.460  1.00  0.00    -0.550 OA
ATOM      6  O   UNL     1     -55.786 122.125  -8.415  1.00  0.00    -0.550 OA
ENDBRANCH   3   4
ENDBRANCH   2   3
ENDBRANCH   1   2
BRANCH   1   7
ATOM      7  C   UNL     1     -53.341 120.721 -11.533  1.00  0.00     0.000 C 
BRANCH   7   8
ATOM      8  C   UNL     1     -54.235 121.820 -12.125  1.00  0.00    -0.000 C 
BRANCH   8   9
ATOM      9  C   UNL     1     -55.735 121.478 -12.050  1.00  0.00    -0.000 C 
BRANCH   9  10
ATOM     10  C   UNL     1     -56.069 120.190 -11.276  1.00  0.00    -0.003 C 
ATOM     11  C   UNL     1     -57.572 119.967 -11.107  1.00  0.00     0.004 C 
ENDBRANCH   9  10
ENDBRANCH   8   9
ENDBRANCH   7   8
ENDBRANCH   1   7
TORSDOF 7
ENDMDL
