MODEL 1
REMARK VINA RESULT:    -2.758      0.000      0.000
REMARK INTER + INTRA:          -7.888
REMARK INTER:                  -5.177
REMARK INTRA:                  -2.710
REMARK UNBOUND:                -2.710
REMARK SMILES CCCCCCCCC=CCCCCCCCC(=O)[O-]
REMARK SMILES IDX 10 1 9 2 11 3 12 4 13 5 14 6 15 7 16 8 17 9 18 10 19 11
REMARK SMILES IDX 20 12 8 13 7 14 6 15 5 16 4 17 3 18 2 19 1 20
REMARK H PARENT
REMARK Flexibility Score: inf
ROOT
ATOM      1  C   UNL     1      48.910  38.045 137.719  1.00  0.00    -0.031 C 
ATOM      2  C   UNL     1      48.427  38.408 136.517  1.00  0.00    -0.031 C 
ENDROOT
BRANCH   1   3
ATOM      3  C   UNL     1      49.209  36.626 138.144  1.00  0.00     0.027 C 
BRANCH   3   4
ATOM      4  C   UNL     1      50.595  36.181 137.661  1.00  0.00     0.004 C 
BRANCH   4   5
ATOM      5  C   UNL     1      51.723  37.035 138.267  1.00  0.00     0.000 C 
BRANCH   5   6
ATOM      6  C   UNL     1      52.665  37.606 137.187  1.00  0.00     0.000 C 
BRANCH   6   7
ATOM      7  C   UNL     1      52.361  37.093 135.769  1.00  0.00     0.000 C 
BRANCH   7   8
ATOM      8  C   UNL     1      51.825  38.193 134.839  1.00  0.00     0.006 C 
BRANCH   8   9
ATOM      9  C   UNL     1      51.725  39.551 135.545  1.00  0.00     0.053 C 
BRANCH   9  10
ATOM     10  C   UNL     1      50.992  40.560 134.713  1.00  0.00     0.041 C 
ATOM     11  O   UNL     1      50.854  40.381 133.475  1.00  0.00    -0.550 OA
ATOM     12  O   UNL     1      50.445  41.690 135.310  1.00  0.00    -0.550 OA
ENDBRANCH   9  10
ENDBRANCH   8   9
ENDBRANCH   7   8
ENDBRANCH   6   7
ENDBRANCH   5   6
ENDBRANCH   4   5
ENDBRANCH   3   4
ENDBRANCH   1   3
BRANCH   2  13
ATOM     13  C   UNL     1      48.048  37.455 135.410  1.00  0.00     0.027 C 
BRANCH  13  14
ATOM     14  C   UNL     1      48.192  38.090 134.018  1.00  0.00     0.004 C 
BRANCH  14  15
ATOM     15  C   UNL     1      46.866  38.079 133.236  1.00  0.00     0.000 C 
BRANCH  15  16
ATOM     16  C   UNL     1      45.705  37.495 134.058  1.00  0.00     0.000 C 
BRANCH  16  17
ATOM     17  C   UNL     1      44.684  38.564 134.482  1.00  0.00    -0.000 C 
BRANCH  17  18
ATOM     18  C   UNL     1      44.970  39.941 133.862  1.00  0.00    -0.000 C 
BRANCH  18  19
ATOM     19  C   UNL     1      45.247  41.042 134.906  1.00  0.00    -0.003 C 
ATOM     20  C   UNL     1      46.725  41.430 134.965  1.00  0.00     0.004 C 
ENDBRANCH  18  19
ENDBRANCH  17  18
ENDBRANCH  16  17
ENDBRANCH  15  16
ENDBRANCH  14  15
ENDBRANCH  13  14
ENDBRANCH   2  13
TORSDOF 15
ENDMDL
MODEL 2
REMARK VINA RESULT:    -2.739      2.669      4.778
REMARK INTER + INTRA:          -7.851
REMARK INTER:                  -4.925
REMARK INTRA:                  -2.926
REMARK UNBOUND:                -2.710
REMARK SMILES CCCCCCCCC=CCCCCCCCC(=O)[O-]
REMARK SMILES IDX 10 1 9 2 11 3 12 4 13 5 14 6 15 7 16 8 17 9 18 10 19 11
REMARK SMILES IDX 20 12 8 13 7 14 6 15 5 16 4 17 3 18 2 19 1 20
REMARK H PARENT
REMARK Flexibility Score: inf
ROOT
ATOM      1  C   UNL     1      51.325  35.886 136.892  1.00  0.00    -0.031 C 
ATOM      2  C   UNL     1      51.941  36.411 135.817  1.00  0.00    -0.031 C 
ENDROOT
BRANCH   1   3
ATOM      3  C   UNL     1      50.916  36.658 138.124  1.00  0.00     0.027 C 
BRANCH   3   4
ATOM      4  C   UNL     1      49.403  36.901 138.153  1.00  0.00     0.004 C 
BRANCH   4   5
ATOM      5  C   UNL     1      49.026  38.282 137.587  1.00  0.00     0.000 C 
BRANCH   5   6
ATOM      6  C   UNL     1      47.936  38.189 136.500  1.00  0.00     0.000 C 
BRANCH   6   7
ATOM      7  C   UNL     1      48.338  37.320 135.296  1.00  0.00     0.000 C 
BRANCH   7   8
ATOM      8  C   UNL     1      47.591  37.704 134.008  1.00  0.00     0.006 C 
BRANCH   8   9
ATOM      9  C   UNL     1      46.379  38.603 134.287  1.00  0.00     0.053 C 
BRANCH   9  10
ATOM     10  C   UNL     1      45.085  37.872 134.093  1.00  0.00     0.041 C 
ATOM     11  O   UNL     1      45.071  36.746 133.529  1.00  0.00    -0.550 OA
ATOM     12  O   UNL     1      43.896  38.426 134.553  1.00  0.00    -0.550 OA
ENDBRANCH   9  10
ENDBRANCH   8   9
ENDBRANCH   7   8
ENDBRANCH   6   7
ENDBRANCH   5   6
ENDBRANCH   4   5
ENDBRANCH   3   4
ENDBRANCH   1   3
BRANCH   2  13
ATOM     13  C   UNL     1      52.378  37.849 135.684  1.00  0.00     0.027 C 
BRANCH  13  14
ATOM     14  C   UNL     1      51.671  38.569 134.524  1.00  0.00     0.004 C 
BRANCH  14  15
ATOM     15  C   UNL     1      51.051  39.906 134.966  1.00  0.00     0.000 C 
BRANCH  15  16
ATOM     16  C   UNL     1      50.125  40.506 133.895  1.00  0.00     0.000 C 
BRANCH  16  17
ATOM     17  C   UNL     1      48.980  41.334 134.501  1.00  0.00    -0.000 C 
BRANCH  17  18
ATOM     18  C   UNL     1      49.178  41.621 135.998  1.00  0.00    -0.000 C 
BRANCH  18  19
ATOM     19  C   UNL     1      49.338  43.120 136.323  1.00  0.00    -0.003 C 
ATOM     20  C   UNL     1      50.804  43.556 136.356  1.00  0.00     0.004 C 
ENDBRANCH  18  19
ENDBRANCH  17  18
ENDBRANCH  16  17
ENDBRANCH  15  16
ENDBRANCH  14  15
ENDBRANCH  13  14
ENDBRANCH   2  13
TORSDOF 15
ENDMDL
MODEL 3
REMARK VINA RESULT:    -2.682      2.196      4.737
REMARK INTER + INTRA:          -7.744
REMARK INTER:                  -5.199
REMARK INTRA:                  -2.545
REMARK UNBOUND:                -2.710
REMARK SMILES CCCCCCCCC=CCCCCCCCC(=O)[O-]
REMARK SMILES IDX 10 1 9 2 11 3 12 4 13 5 14 6 15 7 16 8 17 9 18 10 19 11
REMARK SMILES IDX 20 12 8 13 7 14 6 15 5 16 4 17 3 18 2 19 1 20
REMARK H PARENT
REMARK Flexibility Score: inf
ROOT
ATOM      1  C   UNL     1      46.689  38.850 135.492  1.00  0.00    -0.031 C 
ATOM      2  C   UNL     1      46.668  40.056 134.897  1.00  0.00    -0.031 C 
ENDROOT
BRANCH   1   3
ATOM      3  C   UNL     1      47.937  38.063 135.821  1.00  0.00     0.027 C 
BRANCH   3   4
ATOM      4  C   UNL     1      48.460  38.409 137.220  1.00  0.00     0.004 C 
BRANCH   4   5
ATOM      5  C   UNL     1      49.161  37.213 137.889  1.00  0.00     0.000 C 
BRANCH   5   6
ATOM      6  C   UNL     1      49.704  36.204 136.856  1.00  0.00     0.000 C 
BRANCH   6   7
ATOM      7  C   UNL     1      51.225  35.990 136.943  1.00  0.00     0.000 C 
BRANCH   7   8
ATOM      8  C   UNL     1      51.909  36.957 137.924  1.00  0.00     0.006 C 
BRANCH   8   9
ATOM      9  C   UNL     1      53.439  36.866 137.855  1.00  0.00     0.053 C 
BRANCH   9  10
ATOM     10  C   UNL     1      54.080  38.221 137.889  1.00  0.00     0.041 C 
ATOM     11  O   UNL     1      54.915  38.505 138.787  1.00  0.00    -0.550 OA
ATOM     12  O   UNL     1      53.767  39.165 136.918  1.00  0.00    -0.550 OA
ENDBRANCH   9  10
ENDBRANCH   8   9
ENDBRANCH   7   8
ENDBRANCH   6   7
ENDBRANCH   5   6
ENDBRANCH   4   5
ENDBRANCH   3   4
ENDBRANCH   1   3
BRANCH   2  13
ATOM     13  C   UNL     1      47.883  40.803 134.406  1.00  0.00     0.027 C 
BRANCH  13  14
ATOM     14  C   UNL     1      48.081  42.141 135.137  1.00  0.00     0.004 C 
BRANCH  14  15
ATOM     15  C   UNL     1      49.424  42.197 135.887  1.00  0.00     0.000 C 
BRANCH  15  16
ATOM     16  C   UNL     1      50.281  40.943 135.652  1.00  0.00     0.000 C 
BRANCH  16  17
ATOM     17  C   UNL     1      51.536  41.233 134.812  1.00  0.00    -0.000 C 
BRANCH  17  18
ATOM     18  C   UNL     1      51.961  40.038 133.943  1.00  0.00    -0.000 C 
BRANCH  18  19
ATOM     19  C   UNL     1      51.330  38.701 134.383  1.00  0.00    -0.003 C 
ATOM     20  C   UNL     1      50.459  38.080 133.290  1.00  0.00     0.004 C 
ENDBRANCH  18  19
ENDBRANCH  17  18
ENDBRANCH  16  17
ENDBRANCH  15  16
ENDBRANCH  14  15
ENDBRANCH  13  14
ENDBRANCH   2  13
TORSDOF 15
ENDMDL
MODEL 4
REMARK VINA RESULT:    -2.674      1.940      5.008
REMARK INTER + INTRA:          -7.728
REMARK INTER:                  -5.027
REMARK INTRA:                  -2.701
REMARK UNBOUND:                -2.710
REMARK SMILES CCCCCCCCC=CCCCCCCCC(=O)[O-]
REMARK SMILES IDX 10 1 9 2 11 3 12 4 13 5 14 6 15 7 16 8 17 9 18 10 19 11
REMARK SMILES IDX 20 12 8 13 7 14 6 15 5 16 4 17 3 18 2 19 1 20
REMARK H PARENT
REMARK Flexibility Score: inf
ROOT
ATOM      1  C   UNL     1      47.633  41.276 134.780  1.00  0.00    -0.031 C 
ATOM      2  C   UNL     1      46.686  40.323 134.861  1.00  0.00    -0.031 C 
ENDROOT
BRANCH   1   3
ATOM      3  C   UNL     1      48.968  41.240 135.485  1.00  0.00     0.027 C 
BRANCH   3   4
ATOM      4  C   UNL     1      50.128  41.246 134.482  1.00  0.00     0.004 C 
BRANCH   4   5
ATOM      5  C   UNL     1      51.478  40.935 135.153  1.00  0.00     0.000 C 
BRANCH   5   6
ATOM      6  C   UNL     1      51.610  39.446 135.532  1.00  0.00     0.000 C 
BRANCH   6   7
ATOM      7  C   UNL     1      52.373  38.610 134.490  1.00  0.00     0.000 C 
BRANCH   7   8
ATOM      8  C   UNL     1      51.490  37.547 133.816  1.00  0.00     0.006 C 
BRANCH   8   9
ATOM      9  C   UNL     1      51.085  37.949 132.392  1.00  0.00     0.053 C 
BRANCH   9  10
ATOM     10  C   UNL     1      49.690  37.509 132.064  1.00  0.00     0.041 C 
ATOM     11  O   UNL     1      48.921  38.267 131.417  1.00  0.00    -0.550 OA
ATOM     12  O   UNL     1      49.245  36.252 132.458  1.00  0.00    -0.550 OA
ENDBRANCH   9  10
ENDBRANCH   8   9
ENDBRANCH   7   8
ENDBRANCH   6   7
ENDBRANCH   5   6
ENDBRANCH   4   5
ENDBRANCH   3   4
ENDBRANCH   1   3
BRANCH   2  13
ATOM     13  C   UNL     1      46.776  39.083 135.717  1.00  0.00     0.027 C 
BRANCH  13  14
ATOM     14  C   UNL     1      47.600  37.972 135.049  1.00  0.00     0.004 C 
BRANCH  14  15
ATOM     15  C   UNL     1      48.628  37.355 136.014  1.00  0.00     0.000 C 
BRANCH  15  16
ATOM     16  C   UNL     1      48.675  38.083 137.367  1.00  0.00     0.000 C 
BRANCH  16  17
ATOM     17  C   UNL     1      49.581  37.376 138.388  1.00  0.00    -0.000 C 
BRANCH  17  18
ATOM     18  C   UNL     1      50.722  36.585 137.727  1.00  0.00    -0.000 C 
BRANCH  18  19
ATOM     19  C   UNL     1      52.116  36.926 138.291  1.00  0.00    -0.003 C 
ATOM     20  C   UNL     1      53.247  36.379 137.418  1.00  0.00     0.004 C 
ENDBRANCH  18  19
ENDBRANCH  17  18
ENDBRANCH  16  17
ENDBRANCH  15  16
ENDBRANCH  14  15
ENDBRANCH  13  14
ENDBRANCH   2  13
TORSDOF 15
ENDMDL
MODEL 5
REMARK VINA RESULT:    -2.620      2.236      4.644
REMARK INTER + INTRA:          -7.627
REMARK INTER:                  -5.672
REMARK INTRA:                  -1.955
REMARK UNBOUND:                -2.710
REMARK SMILES CCCCCCCCC=CCCCCCCCC(=O)[O-]
REMARK SMILES IDX 10 1 9 2 11 3 12 4 13 5 14 6 15 7 16 8 17 9 18 10 19 11
REMARK SMILES IDX 20 12 8 13 7 14 6 15 5 16 4 17 3 18 2 19 1 20
REMARK H PARENT
REMARK Flexibility Score: inf
ROOT
ATOM      1  C   UNL     1      51.212  36.002 136.786  1.00  0.00    -0.031 C 
ATOM      2  C   UNL     1      51.792  36.459 135.662  1.00  0.00    -0.031 C 
ENDROOT
BRANCH   1   3
ATOM      3  C   UNL     1      50.945  36.825 138.025  1.00  0.00     0.027 C 
BRANCH   3   4
ATOM      4  C   UNL     1      49.444  36.906 138.327  1.00  0.00     0.004 C 
BRANCH   4   5
ATOM      5  C   UNL     1      48.778  38.112 137.640  1.00  0.00     0.000 C 
BRANCH   5   6
ATOM      6  C   UNL     1      48.360  37.797 136.189  1.00  0.00     0.000 C 
BRANCH   6   7
ATOM      7  C   UNL     1      47.164  38.631 135.696  1.00  0.00     0.000 C 
BRANCH   7   8
ATOM      8  C   UNL     1      46.661  38.191 134.311  1.00  0.00     0.006 C 
BRANCH   8   9
ATOM      9  C   UNL     1      47.289  36.866 133.861  1.00  0.00     0.053 C 
BRANCH   9  10
ATOM     10  C   UNL     1      48.419  37.082 132.900  1.00  0.00     0.041 C 
ATOM     11  O   UNL     1      48.429  38.092 132.149  1.00  0.00    -0.550 OA
ATOM     12  O   UNL     1      49.472  36.176 132.848  1.00  0.00    -0.550 OA
ENDBRANCH   9  10
ENDBRANCH   8   9
ENDBRANCH   7   8
ENDBRANCH   6   7
ENDBRANCH   5   6
ENDBRANCH   4   5
ENDBRANCH   3   4
ENDBRANCH   1   3
BRANCH   2  13
ATOM     13  C   UNL     1      52.327  37.857 135.468  1.00  0.00     0.027 C 
BRANCH  13  14
ATOM     14  C   UNL     1      51.385  38.730 134.624  1.00  0.00     0.004 C 
BRANCH  14  15
ATOM     15  C   UNL     1      51.213  40.139 135.220  1.00  0.00     0.000 C 
BRANCH  15  16
ATOM     16  C   UNL     1      49.929  40.830 134.732  1.00  0.00     0.000 C 
BRANCH  16  17
ATOM     17  C   UNL     1      49.239  41.646 135.838  1.00  0.00    -0.000 C 
BRANCH  17  18
ATOM     18  C   UNL     1      50.080  42.846 136.305  1.00  0.00    -0.000 C 
BRANCH  18  19
ATOM     19  C   UNL     1      49.658  43.394 137.684  1.00  0.00    -0.003 C 
ATOM     20  C   UNL     1      48.682  44.565 137.571  1.00  0.00     0.004 C 
ENDBRANCH  18  19
ENDBRANCH  17  18
ENDBRANCH  16  17
ENDBRANCH  15  16
ENDBRANCH  14  15
ENDBRANCH  13  14
ENDBRANCH   2  13
TORSDOF 15
ENDMDL
MODEL 6
REMARK VINA RESULT:    -2.607      1.411      5.776
REMARK INTER + INTRA:          -7.604
REMARK INTER:                  -5.244
REMARK INTRA:                  -2.360
REMARK UNBOUND:                -2.710
REMARK SMILES CCCCCCCCC=CCCCCCCCC(=O)[O-]
REMARK SMILES IDX 10 1 9 2 11 3 12 4 13 5 14 6 15 7 16 8 17 9 18 10 19 11
REMARK SMILES IDX 20 12 8 13 7 14 6 15 5 16 4 17 3 18 2 19 1 20
REMARK H PARENT
REMARK Flexibility Score: inf
ROOT
ATOM      1  C   UNL     1      47.288  37.501 134.491  1.00  0.00    -0.031 C 
ATOM      2  C   UNL     1      48.266  37.703 135.393  1.00  0.00    -0.031 C 
ENDROOT
BRANCH   1   3
ATOM      3  C   UNL     1      45.873  38.016 134.610  1.00  0.00     0.027 C 
BRANCH   3   4
ATOM      4  C   UNL     1      45.570  39.065 133.534  1.00  0.00     0.004 C 
BRANCH   4   5
ATOM      5  C   UNL     1      46.521  40.272 133.616  1.00  0.00     0.000 C 
BRANCH   5   6
ATOM      6  C   UNL     1      46.005  41.356 134.585  1.00  0.00     0.000 C 
BRANCH   6   7
ATOM      7  C   UNL     1      47.087  42.358 135.023  1.00  0.00     0.000 C 
BRANCH   7   8
ATOM      8  C   UNL     1      48.509  41.897 134.664  1.00  0.00     0.006 C 
BRANCH   8   9
ATOM      9  C   UNL     1      49.365  41.637 135.909  1.00  0.00     0.053 C 
BRANCH   9  10
ATOM     10  C   UNL     1      49.944  42.904 136.463  1.00  0.00     0.041 C 
ATOM     11  O   UNL     1      49.437  43.440 137.483  1.00  0.00    -0.550 OA
ATOM     12  O   UNL     1      51.055  43.483 135.861  1.00  0.00    -0.550 OA
ENDBRANCH   9  10
ENDBRANCH   8   9
ENDBRANCH   7   8
ENDBRANCH   6   7
ENDBRANCH   5   6
ENDBRANCH   4   5
ENDBRANCH   3   4
ENDBRANCH   1   3
BRANCH   2  13
ATOM     13  C   UNL     1      48.098  38.430 136.705  1.00  0.00     0.027 C 
BRANCH  13  14
ATOM     14  C   UNL     1      49.048  37.900 137.790  1.00  0.00     0.004 C 
BRANCH  14  15
ATOM     15  C   UNL     1      49.220  36.373 137.714  1.00  0.00     0.000 C 
BRANCH  15  16
ATOM     16  C   UNL     1      50.698  35.949 137.679  1.00  0.00     0.000 C 
BRANCH  16  17
ATOM     17  C   UNL     1      51.641  37.047 138.199  1.00  0.00    -0.000 C 
BRANCH  17  18
ATOM     18  C   UNL     1      52.705  37.456 137.167  1.00  0.00    -0.000 C 
BRANCH  18  19
ATOM     19  C   UNL     1      52.128  37.732 135.763  1.00  0.00    -0.003 C 
ATOM     20  C   UNL     1      51.968  39.226 135.482  1.00  0.00     0.004 C 
ENDBRANCH  18  19
ENDBRANCH  17  18
ENDBRANCH  16  17
ENDBRANCH  15  16
ENDBRANCH  14  15
ENDBRANCH  13  14
ENDBRANCH   2  13
TORSDOF 15
ENDMDL
MODEL 7
REMARK VINA RESULT:    -2.601      2.770      6.353
REMARK INTER + INTRA:          -7.593
REMARK INTER:                  -5.018
REMARK INTRA:                  -2.574
REMARK UNBOUND:                -2.710
REMARK SMILES CCCCCCCCC=CCCCCCCCC(=O)[O-]
REMARK SMILES IDX 10 1 9 2 11 3 12 4 13 5 14 6 15 7 16 8 17 9 18 10 19 11
REMARK SMILES IDX 20 12 8 13 7 14 6 15 5 16 4 17 3 18 2 19 1 20
REMARK H PARENT
REMARK Flexibility Score: inf
ROOT
ATOM      1  C   UNL     1      48.422  38.111 136.786  1.00  0.00    -0.031 C 
ATOM      2  C   UNL     1      49.132  37.817 137.891  1.00  0.00    -0.031 C 
ENDROOT
BRANCH   1   3
ATOM      3  C   UNL     1      48.385  37.277 135.527  1.00  0.00     0.027 C 
BRANCH   3   4
ATOM      4  C   UNL     1      47.198  37.664 134.638  1.00  0.00     0.004 C 
BRANCH   4   5
ATOM      5  C   UNL     1      46.366  38.809 135.245  1.00  0.00     0.000 C 
BRANCH   5   6
ATOM      6  C   UNL     1      46.188  39.983 134.261  1.00  0.00     0.000 C 
BRANCH   6   7
ATOM      7  C   UNL     1      44.917  39.881 133.400  1.00  0.00     0.000 C 
BRANCH   7   8
ATOM      8  C   UNL     1      43.776  39.133 134.109  1.00  0.00     0.006 C 
BRANCH   8   9
ATOM      9  C   UNL     1      43.076  38.131 133.181  1.00  0.00     0.053 C 
BRANCH   9  10
ATOM     10  C   UNL     1      43.830  36.838 133.086  1.00  0.00     0.041 C 
ATOM     11  O   UNL     1      44.540  36.591 132.076  1.00  0.00    -0.550 OA
ATOM     12  O   UNL     1      43.763  35.915 134.123  1.00  0.00    -0.550 OA
ENDBRANCH   9  10
ENDBRANCH   8   9
ENDBRANCH   7   8
ENDBRANCH   6   7
ENDBRANCH   5   6
ENDBRANCH   4   5
ENDBRANCH   3   4
ENDBRANCH   1   3
BRANCH   2  13
ATOM     13  C   UNL     1      50.057  36.633 138.038  1.00  0.00     0.027 C 
BRANCH  13  14
ATOM     14  C   UNL     1      51.534  37.023 137.876  1.00  0.00     0.004 C 
BRANCH  14  15
ATOM     15  C   UNL     1      51.973  37.031 136.400  1.00  0.00     0.000 C 
BRANCH  15  16
ATOM     16  C   UNL     1      52.743  38.307 136.023  1.00  0.00     0.000 C 
BRANCH  16  17
ATOM     17  C   UNL     1      51.813  39.460 135.613  1.00  0.00    -0.000 C 
BRANCH  17  18
ATOM     18  C   UNL     1      51.117  39.214 134.264  1.00  0.00    -0.000 C 
BRANCH  18  19
ATOM     19  C   UNL     1      50.024  40.252 133.937  1.00  0.00    -0.003 C 
ATOM     20  C   UNL     1      49.656  41.112 135.146  1.00  0.00     0.004 C 
ENDBRANCH  18  19
ENDBRANCH  17  18
ENDBRANCH  16  17
ENDBRANCH  15  16
ENDBRANCH  14  15
ENDBRANCH  13  14
ENDBRANCH   2  13
TORSDOF 15
ENDMDL
MODEL 8
REMARK VINA RESULT:    -2.563      3.428      6.357
REMARK INTER + INTRA:          -7.521
REMARK INTER:                  -4.810
REMARK INTRA:                  -2.711
REMARK UNBOUND:                -2.710
REMARK SMILES CCCCCCCCC=CCCCCCCCC(=O)[O-]
REMARK SMILES IDX 10 1 9 2 11 3 12 4 13 5 14 6 15 7 16 8 17 9 18 10 19 11
REMARK SMILES IDX 20 12 8 13 7 14 6 15 5 16 4 17 3 18 2 19 1 20
REMARK H PARENT
REMARK Flexibility Score: inf
ROOT
ATOM      1  C   UNL     1      48.859  40.645 132.839  1.00  0.00    -0.031 C 
ATOM      2  C   UNL     1      48.479  39.769 131.891  1.00  0.00    -0.031 C 
ENDROOT
BRANCH   1   3
ATOM      3  C   UNL     1      49.437  40.275 134.184  1.00  0.00     0.027 C 
BRANCH   3   4
ATOM      4  C   UNL     1      48.335  40.100 135.235  1.00  0.00     0.004 C 
BRANCH   4   5
ATOM      5  C   UNL     1      47.086  40.940 134.912  1.00  0.00     0.000 C 
BRANCH   5   6
ATOM      6  C   UNL     1      45.799  40.090 134.899  1.00  0.00     0.000 C 
BRANCH   6   7
ATOM      7  C   UNL     1      46.061  38.574 134.875  1.00  0.00     0.000 C 
BRANCH   7   8
ATOM      8  C   UNL     1      45.120  37.822 133.920  1.00  0.00     0.006 C 
BRANCH   8   9
ATOM      9  C   UNL     1      43.663  38.282 134.061  1.00  0.00     0.053 C 
BRANCH   9  10
ATOM     10  C   UNL     1      42.815  37.249 134.741  1.00  0.00     0.041 C 
ATOM     11  O   UNL     1      43.106  36.028 134.646  1.00  0.00    -0.550 OA
ATOM     12  O   UNL     1      41.713  37.638 135.494  1.00  0.00    -0.550 OA
ENDBRANCH   9  10
ENDBRANCH   8   9
ENDBRANCH   7   8
ENDBRANCH   6   7
ENDBRANCH   5   6
ENDBRANCH   4   5
ENDBRANCH   3   4
ENDBRANCH   1   3
BRANCH   2  13
ATOM     13  C   UNL     1      48.511  38.268 132.034  1.00  0.00     0.027 C 
BRANCH  13  14
ATOM     14  C   UNL     1      49.945  37.713 132.037  1.00  0.00     0.004 C 
BRANCH  14  15
ATOM     15  C   UNL     1      50.202  36.781 133.235  1.00  0.00     0.000 C 
BRANCH  15  16
ATOM     16  C   UNL     1      48.899  36.268 133.870  1.00  0.00     0.000 C 
BRANCH  16  17
ATOM     17  C   UNL     1      48.901  36.386 135.403  1.00  0.00    -0.000 C 
BRANCH  17  18
ATOM     18  C   UNL     1      50.315  36.547 135.987  1.00  0.00    -0.000 C 
BRANCH  18  19
ATOM     19  C   UNL     1      50.397  37.586 137.123  1.00  0.00    -0.003 C 
ATOM     20  C   UNL     1      49.105  37.664 137.937  1.00  0.00     0.004 C 
ENDBRANCH  18  19
ENDBRANCH  17  18
ENDBRANCH  16  17
ENDBRANCH  15  16
ENDBRANCH  14  15
ENDBRANCH  13  14
ENDBRANCH   2  13
TORSDOF 15
ENDMDL
