MODEL 1
REMARK VINA RESULT:    -6.354      0.000      0.000
REMARK INTER + INTRA:          -6.967
REMARK INTER:                  -6.725
REMARK INTRA:                  -0.242
REMARK UNBOUND:                -0.242
REMARK SMILES O=c1cc(-c2ccccc2)oc2ccccc12
REMARK SMILES IDX 4 1 3 2 2 3 1 4 17 5 16 6 15 7 14 8 13 9 12 10 11 11 5 12
REMARK SMILES IDX 8 13 7 14 9 15 6 16 10 17
REMARK H PARENT
REMARK Flexibility Score: inf
ROOT
ATOM      1  C   UNL     1      26.518   9.283 -32.501  1.00  0.00     0.138 A 
ATOM      2  C   UNL     1      26.498  10.592 -31.976  1.00  0.00     0.100 A 
ATOM      3  C   UNL     1      27.566  11.454 -32.233  1.00  0.00     0.193 A 
ATOM      4  O   UNL     1      27.547  12.625 -31.764  1.00  0.00    -0.289 OA
ATOM      5  C   UNL     1      28.643  11.006 -33.009  1.00  0.00     0.065 A 
ATOM      6  C   UNL     1      29.750  11.822 -33.306  1.00  0.00     0.016 A 
ATOM      7  C   UNL     1      30.799  11.324 -34.085  1.00  0.00     0.001 A 
ATOM      8  C   UNL     1      30.753  10.014 -34.572  1.00  0.00     0.004 A 
ATOM      9  C   UNL     1      29.656   9.196 -34.283  1.00  0.00     0.048 A 
ATOM     10  C   UNL     1      28.601   9.684 -33.503  1.00  0.00     0.138 A 
ATOM     11  O   UNL     1      27.564   8.898 -33.234  1.00  0.00    -0.456 OA
ENDROOT
BRANCH   1  12
ATOM     12  C   UNL     1      25.417   8.297 -32.273  1.00  0.00     0.017 A 
ATOM     13  C   UNL     1      23.336   6.419 -31.940  1.00  0.00     0.000 A 
ATOM     14  C   UNL     1      23.847   6.676 -33.212  1.00  0.00     0.001 A 
ATOM     15  C   UNL     1      23.853   7.091 -30.834  1.00  0.00     0.001 A 
ATOM     16  C   UNL     1      24.878   7.606 -33.379  1.00  0.00     0.012 A 
ATOM     17  C   UNL     1      24.885   8.022 -30.992  1.00  0.00     0.012 A 
ENDBRANCH   1  12
TORSDOF 1
ENDMDL
MODEL 2
REMARK VINA RESULT:    -6.303      1.674      6.047
REMARK INTER + INTRA:          -6.914
REMARK INTER:                  -6.682
REMARK INTRA:                  -0.232
REMARK UNBOUND:                -0.242
REMARK SMILES O=c1cc(-c2ccccc2)oc2ccccc12
REMARK SMILES IDX 4 1 3 2 2 3 1 4 17 5 16 6 15 7 14 8 13 9 12 10 11 11 5 12
REMARK SMILES IDX 8 13 7 14 9 15 6 16 10 17
REMARK H PARENT
REMARK Flexibility Score: inf
ROOT
ATOM      1  C   UNL     1      26.837   9.582 -32.113  1.00  0.00     0.138 A 
ATOM      2  C   UNL     1      25.487   9.894 -32.380  1.00  0.00     0.100 A 
ATOM      3  C   UNL     1      24.481   9.040 -31.927  1.00  0.00     0.193 A 
ATOM      4  O   UNL     1      23.274   9.319 -32.166  1.00  0.00    -0.289 OA
ATOM      5  C   UNL     1      24.825   7.884 -31.212  1.00  0.00     0.065 A 
ATOM      6  C   UNL     1      23.861   6.981 -30.728  1.00  0.00     0.016 A 
ATOM      7  C   UNL     1      24.260   5.843 -30.020  1.00  0.00     0.001 A 
ATOM      8  C   UNL     1      25.617   5.596 -29.793  1.00  0.00     0.004 A 
ATOM      9  C   UNL     1      26.583   6.488 -30.270  1.00  0.00     0.048 A 
ATOM     10  C   UNL     1      26.194   7.631 -30.980  1.00  0.00     0.138 A 
ATOM     11  O   UNL     1      27.120   8.472 -31.430  1.00  0.00    -0.456 OA
ENDROOT
BRANCH   1  12
ATOM     12  C   UNL     1      27.976  10.442 -32.562  1.00  0.00     0.017 A 
ATOM     13  C   UNL     1      30.087  12.139 -33.355  1.00  0.00     0.000 A 
ATOM     14  C   UNL     1      29.097  12.612 -32.495  1.00  0.00     0.001 A 
ATOM     15  C   UNL     1      30.032  10.827 -33.824  1.00  0.00     0.001 A 
ATOM     16  C   UNL     1      28.051  11.773 -32.100  1.00  0.00     0.012 A 
ATOM     17  C   UNL     1      28.989   9.981 -33.434  1.00  0.00     0.012 A 
ENDBRANCH   1  12
TORSDOF 1
ENDMDL
MODEL 3
REMARK VINA RESULT:    -6.036      1.509      6.144
REMARK INTER + INTRA:          -6.631
REMARK INTER:                  -6.388
REMARK INTRA:                  -0.243
REMARK UNBOUND:                -0.242
REMARK SMILES O=c1cc(-c2ccccc2)oc2ccccc12
REMARK SMILES IDX 4 1 3 2 2 3 1 4 17 5 16 6 15 7 14 8 13 9 12 10 11 11 5 12
REMARK SMILES IDX 8 13 7 14 9 15 6 16 10 17
REMARK H PARENT
REMARK Flexibility Score: inf
ROOT
ATOM      1  C   UNL     1      27.397   9.384 -32.418  1.00  0.00     0.138 A 
ATOM      2  C   UNL     1      27.967   8.138 -32.080  1.00  0.00     0.100 A 
ATOM      3  C   UNL     1      27.139   7.028 -31.902  1.00  0.00     0.193 A 
ATOM      4  O   UNL     1      27.648   5.914 -31.600  1.00  0.00    -0.289 OA
ATOM      5  C   UNL     1      25.753   7.167 -32.062  1.00  0.00     0.065 A 
ATOM      6  C   UNL     1      24.863   6.090 -31.898  1.00  0.00     0.016 A 
ATOM      7  C   UNL     1      23.489   6.284 -32.070  1.00  0.00     0.001 A 
ATOM      8  C   UNL     1      22.994   7.549 -32.404  1.00  0.00     0.004 A 
ATOM      9  C   UNL     1      23.872   8.625 -32.571  1.00  0.00     0.048 A 
ATOM     10  C   UNL     1      25.249   8.441 -32.400  1.00  0.00     0.138 A 
ATOM     11  O   UNL     1      26.074   9.471 -32.560  1.00  0.00    -0.456 OA
ENDROOT
BRANCH   1  12
ATOM     12  C   UNL     1      28.212  10.621 -32.626  1.00  0.00     0.017 A 
ATOM     13  C   UNL     1      29.809  12.904 -33.075  1.00  0.00     0.000 A 
ATOM     14  C   UNL     1      30.153  11.686 -33.660  1.00  0.00     0.001 A 
ATOM     15  C   UNL     1      28.676  12.993 -32.267  1.00  0.00     0.001 A 
ATOM     16  C   UNL     1      29.362  10.554 -33.439  1.00  0.00     0.012 A 
ATOM     17  C   UNL     1      27.880  11.866 -32.041  1.00  0.00     0.012 A 
ENDBRANCH   1  12
TORSDOF 1
ENDMDL
MODEL 4
REMARK VINA RESULT:    -5.959     12.876     14.009
REMARK INTER + INTRA:          -6.549
REMARK INTER:                  -6.295
REMARK INTRA:                  -0.254
REMARK UNBOUND:                -0.242
REMARK SMILES O=c1cc(-c2ccccc2)oc2ccccc12
REMARK SMILES IDX 4 1 3 2 2 3 1 4 17 5 16 6 15 7 14 8 13 9 12 10 11 11 5 12
REMARK SMILES IDX 8 13 7 14 9 15 6 16 10 17
REMARK H PARENT
REMARK Flexibility Score: inf
ROOT
ATOM      1  C   UNL     1      34.598   6.174 -22.201  1.00  0.00     0.138 A 
ATOM      2  C   UNL     1      34.678   7.453 -21.609  1.00  0.00     0.100 A 
ATOM      3  C   UNL     1      33.505   8.162 -21.341  1.00  0.00     0.193 A 
ATOM      4  O   UNL     1      33.577   9.305 -20.812  1.00  0.00    -0.289 OA
ATOM      5  C   UNL     1      32.265   7.593 -21.662  1.00  0.00     0.065 A 
ATOM      6  C   UNL     1      31.047   8.253 -21.419  1.00  0.00     0.016 A 
ATOM      7  C   UNL     1      29.838   7.640 -21.759  1.00  0.00     0.001 A 
ATOM      8  C   UNL     1      29.834   6.369 -22.344  1.00  0.00     0.004 A 
ATOM      9  C   UNL     1      31.040   5.706 -22.590  1.00  0.00     0.048 A 
ATOM     10  C   UNL     1      32.256   6.311 -22.253  1.00  0.00     0.138 A 
ATOM     11  O   UNL     1      33.397   5.672 -22.491  1.00  0.00    -0.456 OA
ENDROOT
BRANCH   1  12
ATOM     12  C   UNL     1      35.803   5.349 -22.522  1.00  0.00     0.017 A 
ATOM     13  C   UNL     1      38.025   3.711 -23.108  1.00  0.00     0.000 A 
ATOM     14  C   UNL     1      36.815   3.134 -22.725  1.00  0.00     0.001 A 
ATOM     15  C   UNL     1      38.137   5.097 -23.200  1.00  0.00     0.001 A 
ATOM     16  C   UNL     1      35.713   3.944 -22.435  1.00  0.00     0.012 A 
ATOM     17  C   UNL     1      37.039   5.914 -22.912  1.00  0.00     0.012 A 
ENDBRANCH   1  12
TORSDOF 1
ENDMDL
MODEL 5
REMARK VINA RESULT:    -5.770      1.494      2.728
REMARK INTER + INTRA:          -6.350
REMARK INTER:                  -6.103
REMARK INTRA:                  -0.246
REMARK UNBOUND:                -0.242
REMARK SMILES O=c1cc(-c2ccccc2)oc2ccccc12
REMARK SMILES IDX 4 1 3 2 2 3 1 4 17 5 16 6 15 7 14 8 13 9 12 10 11 11 5 12
REMARK SMILES IDX 8 13 7 14 9 15 6 16 10 17
REMARK H PARENT
REMARK Flexibility Score: inf
ROOT
ATOM      1  C   UNL     1      27.049   8.594 -31.982  1.00  0.00     0.138 A 
ATOM      2  C   UNL     1      28.054   8.159 -32.870  1.00  0.00     0.100 A 
ATOM      3  C   UNL     1      28.944   9.088 -33.411  1.00  0.00     0.193 A 
ATOM      4  O   UNL     1      29.844   8.698 -34.206  1.00  0.00    -0.289 OA
ATOM      5  C   UNL     1      28.827  10.441 -33.064  1.00  0.00     0.065 A 
ATOM      6  C   UNL     1      29.690  11.428 -33.573  1.00  0.00     0.016 A 
ATOM      7  C   UNL     1      29.527  12.764 -33.193  1.00  0.00     0.001 A 
ATOM      8  C   UNL     1      28.507  13.124 -32.308  1.00  0.00     0.004 A 
ATOM      9  C   UNL     1      27.644  12.150 -31.797  1.00  0.00     0.048 A 
ATOM     10  C   UNL     1      27.798  10.810 -32.171  1.00  0.00     0.138 A 
ATOM     11  O   UNL     1      26.972   9.891 -31.680  1.00  0.00    -0.456 OA
ENDROOT
BRANCH   1  12
ATOM     12  C   UNL     1      26.056   7.666 -31.358  1.00  0.00     0.017 A 
ATOM     13  C   UNL     1      24.255   5.849 -30.166  1.00  0.00     0.000 A 
ATOM     14  C   UNL     1      25.606   5.522 -30.274  1.00  0.00     0.001 A 
ATOM     15  C   UNL     1      23.794   7.073 -30.648  1.00  0.00     0.001 A 
ATOM     16  C   UNL     1      26.500   6.421 -30.864  1.00  0.00     0.012 A 
ATOM     17  C   UNL     1      24.682   7.978 -31.239  1.00  0.00     0.012 A 
ENDBRANCH   1  12
TORSDOF 1
ENDMDL
MODEL 6
REMARK VINA RESULT:    -5.764     12.080     14.540
REMARK INTER + INTRA:          -6.343
REMARK INTER:                  -6.088
REMARK INTRA:                  -0.255
REMARK UNBOUND:                -0.242
REMARK SMILES O=c1cc(-c2ccccc2)oc2ccccc12
REMARK SMILES IDX 4 1 3 2 2 3 1 4 17 5 16 6 15 7 14 8 13 9 12 10 11 11 5 12
REMARK SMILES IDX 8 13 7 14 9 15 6 16 10 17
REMARK H PARENT
REMARK Flexibility Score: inf
ROOT
ATOM      1  C   UNL     1      25.624  -3.710 -32.884  1.00  0.00     0.138 A 
ATOM      2  C   UNL     1      24.387  -3.355 -32.305  1.00  0.00     0.100 A 
ATOM      3  C   UNL     1      24.028  -3.891 -31.067  1.00  0.00     0.193 A 
ATOM      4  O   UNL     1      22.922  -3.574 -30.550  1.00  0.00    -0.289 OA
ATOM      5  C   UNL     1      24.901  -4.773 -30.417  1.00  0.00     0.065 A 
ATOM      6  C   UNL     1      24.601  -5.349 -29.168  1.00  0.00     0.016 A 
ATOM      7  C   UNL     1      25.509  -6.223 -28.563  1.00  0.00     0.001 A 
ATOM      8  C   UNL     1      26.718  -6.530 -29.196  1.00  0.00     0.004 A 
ATOM      9  C   UNL     1      27.025  -5.962 -30.437  1.00  0.00     0.048 A 
ATOM     10  C   UNL     1      26.123  -5.086 -31.051  1.00  0.00     0.138 A 
ATOM     11  O   UNL     1      26.424  -4.553 -32.231  1.00  0.00    -0.456 OA
ENDROOT
BRANCH   1  12
ATOM     12  C   UNL     1      26.084  -3.182 -34.206  1.00  0.00     0.017 A 
ATOM     13  C   UNL     1      27.001  -2.272 -36.715  1.00  0.00     0.000 A 
ATOM     14  C   UNL     1      27.350  -3.544 -36.265  1.00  0.00     0.001 A 
ATOM     15  C   UNL     1      26.199  -1.449 -35.925  1.00  0.00     0.001 A 
ATOM     16  C   UNL     1      26.897  -3.997 -35.022  1.00  0.00     0.012 A 
ATOM     17  C   UNL     1      25.741  -1.895 -34.681  1.00  0.00     0.012 A 
ENDBRANCH   1  12
TORSDOF 1
ENDMDL
MODEL 7
REMARK VINA RESULT:    -5.682     13.456     14.452
REMARK INTER + INTRA:          -6.256
REMARK INTER:                  -6.020
REMARK INTRA:                  -0.236
REMARK UNBOUND:                -0.242
REMARK SMILES O=c1cc(-c2ccccc2)oc2ccccc12
REMARK SMILES IDX 4 1 3 2 2 3 1 4 17 5 16 6 15 7 14 8 13 9 12 10 11 11 5 12
REMARK SMILES IDX 8 13 7 14 9 15 6 16 10 17
REMARK H PARENT
REMARK Flexibility Score: inf
ROOT
ATOM      1  C   UNL     1      30.888   3.868 -19.795  1.00  0.00     0.138 A 
ATOM      2  C   UNL     1      32.098   3.452 -20.390  1.00  0.00     0.100 A 
ATOM      3  C   UNL     1      32.826   4.352 -21.170  1.00  0.00     0.193 A 
ATOM      4  O   UNL     1      33.908   3.980 -21.701  1.00  0.00    -0.289 OA
ATOM      5  C   UNL     1      32.345   5.656 -21.351  1.00  0.00     0.065 A 
ATOM      6  C   UNL     1      33.029   6.611 -22.125  1.00  0.00     0.016 A 
ATOM      7  C   UNL     1      32.504   7.899 -22.273  1.00  0.00     0.001 A 
ATOM      8  C   UNL     1      31.297   8.241 -21.655  1.00  0.00     0.004 A 
ATOM      9  C   UNL     1      30.611   7.298 -20.884  1.00  0.00     0.048 A 
ATOM     10  C   UNL     1      31.128   6.006 -20.729  1.00  0.00     0.138 A 
ATOM     11  O   UNL     1      30.467   5.117 -19.995  1.00  0.00    -0.456 OA
ENDROOT
BRANCH   1  12
ATOM     12  C   UNL     1      30.047   2.968 -18.946  1.00  0.00     0.017 A 
ATOM     13  C   UNL     1      28.459   1.205 -17.418  1.00  0.00     0.000 A 
ATOM     14  C   UNL     1      28.831   0.861 -18.716  1.00  0.00     0.001 A 
ATOM     15  C   UNL     1      28.871   2.422 -16.875  1.00  0.00     0.001 A 
ATOM     16  C   UNL     1      29.619   1.732 -19.475  1.00  0.00     0.012 A 
ATOM     17  C   UNL     1      29.659   3.299 -17.627  1.00  0.00     0.012 A 
ENDBRANCH   1  12
TORSDOF 1
ENDMDL
MODEL 8
REMARK VINA RESULT:    -5.589     11.873     14.913
REMARK INTER + INTRA:          -6.157
REMARK INTER:                  -5.908
REMARK INTRA:                  -0.250
REMARK UNBOUND:                -0.242
REMARK SMILES O=c1cc(-c2ccccc2)oc2ccccc12
REMARK SMILES IDX 4 1 3 2 2 3 1 4 17 5 16 6 15 7 14 8 13 9 12 10 11 11 5 12
REMARK SMILES IDX 8 13 7 14 9 15 6 16 10 17
REMARK H PARENT
REMARK Flexibility Score: inf
ROOT
ATOM      1  C   UNL     1      26.564  -4.177 -32.542  1.00  0.00     0.138 A 
ATOM      2  C   UNL     1      27.654  -5.050 -32.344  1.00  0.00     0.100 A 
ATOM      3  C   UNL     1      27.688  -5.863 -31.210  1.00  0.00     0.193 A 
ATOM      4  O   UNL     1      28.663  -6.644 -31.033  1.00  0.00    -0.289 OA
ATOM      5  C   UNL     1      26.637  -5.802 -30.284  1.00  0.00     0.065 A 
ATOM      6  C   UNL     1      26.609  -6.593 -29.121  1.00  0.00     0.016 A 
ATOM      7  C   UNL     1      25.536  -6.492 -28.231  1.00  0.00     0.001 A 
ATOM      8  C   UNL     1      24.488  -5.603 -28.491  1.00  0.00     0.004 A 
ATOM      9  C   UNL     1      24.507  -4.813 -29.645  1.00  0.00     0.048 A 
ATOM     10  C   UNL     1      25.577  -4.907 -30.542  1.00  0.00     0.138 A 
ATOM     11  O   UNL     1      25.586  -4.151 -31.636  1.00  0.00    -0.456 OA
ENDROOT
BRANCH   1  12
ATOM     12  C   UNL     1      26.450  -3.273 -33.729  1.00  0.00     0.017 A 
ATOM     13  C   UNL     1      26.273  -1.639 -36.023  1.00  0.00     0.000 A 
ATOM     14  C   UNL     1      26.788  -2.931 -36.124  1.00  0.00     0.001 A 
ATOM     15  C   UNL     1      25.847  -1.155 -34.787  1.00  0.00     0.001 A 
ATOM     16  C   UNL     1      26.876  -3.743 -34.989  1.00  0.00     0.012 A 
ATOM     17  C   UNL     1      25.931  -1.961 -33.647  1.00  0.00     0.012 A 
ENDBRANCH   1  12
TORSDOF 1
ENDMDL
MODEL 9
REMARK VINA RESULT:    -5.461     11.212     13.349
REMARK INTER + INTRA:          -6.022
REMARK INTER:                  -5.768
REMARK INTRA:                  -0.254
REMARK UNBOUND:                -0.242
REMARK SMILES O=c1cc(-c2ccccc2)oc2ccccc12
REMARK SMILES IDX 4 1 3 2 2 3 1 4 17 5 16 6 15 7 14 8 13 9 12 10 11 11 5 12
REMARK SMILES IDX 8 13 7 14 9 15 6 16 10 17
REMARK H PARENT
REMARK Flexibility Score: inf
ROOT
ATOM      1  C   UNL     1      25.764  -3.702 -31.912  1.00  0.00     0.138 A 
ATOM      2  C   UNL     1      25.285  -2.378 -31.827  1.00  0.00     0.100 A 
ATOM      3  C   UNL     1      25.375  -1.540 -32.940  1.00  0.00     0.193 A 
ATOM      4  O   UNL     1      24.947  -0.356 -32.863  1.00  0.00    -0.289 OA
ATOM      5  C   UNL     1      25.940  -2.026 -34.127  1.00  0.00     0.065 A 
ATOM      6  C   UNL     1      26.062  -1.235 -35.284  1.00  0.00     0.016 A 
ATOM      7  C   UNL     1      26.634  -1.771 -36.442  1.00  0.00     0.001 A 
ATOM      8  C   UNL     1      27.088  -3.094 -36.455  1.00  0.00     0.004 A 
ATOM      9  C   UNL     1      26.971  -3.887 -35.309  1.00  0.00     0.048 A 
ATOM     10  C   UNL     1      26.400  -3.360 -34.145  1.00  0.00     0.138 A 
ATOM     11  O   UNL     1      26.295  -4.123 -33.061  1.00  0.00    -0.456 OA
ENDROOT
BRANCH   1  12
ATOM     12  C   UNL     1      25.706  -4.664 -30.768  1.00  0.00     0.017 A 
ATOM     13  C   UNL     1      25.680  -6.520 -28.642  1.00  0.00     0.000 A 
ATOM     14  C   UNL     1      26.710  -6.549 -29.581  1.00  0.00     0.001 A 
ATOM     15  C   UNL     1      24.662  -5.573 -28.755  1.00  0.00     0.001 A 
ATOM     16  C   UNL     1      26.725  -5.630 -30.635  1.00  0.00     0.012 A 
ATOM     17  C   UNL     1      24.670  -4.650 -29.806  1.00  0.00     0.012 A 
ENDBRANCH   1  12
TORSDOF 1
ENDMDL
