MODEL 1
REMARK VINA RESULT:    -3.021      0.000      0.000
REMARK INTER + INTRA:          -4.859
REMARK INTER:                  -4.257
REMARK INTRA:                  -0.602
REMARK UNBOUND:                -0.602
REMARK SMILES CCCCCCCCC=O
REMARK SMILES IDX 5 1 4 2 3 3 2 4 1 5 6 6 7 7 8 8 9 9 10 10
REMARK H PARENT
REMARK Flexibility Score: inf
ROOT
ATOM      1  C   UNL     1     140.406 135.322 129.686  1.00  0.00     0.000 C 
ENDROOT
BRANCH   1   2
ATOM      2  C   UNL     1     139.668 134.613 128.542  1.00  0.00    -0.000 C 
BRANCH   2   3
ATOM      3  C   UNL     1     138.451 133.802 129.024  1.00  0.00    -0.000 C 
BRANCH   3   4
ATOM      4  C   UNL     1     137.177 134.632 129.268  1.00  0.00    -0.003 C 
ATOM      5  C   UNL     1     136.772 135.478 128.061  1.00  0.00     0.004 C 
ENDBRANCH   3   4
ENDBRANCH   2   3
ENDBRANCH   1   2
BRANCH   1   6
ATOM      6  C   UNL     1     140.334 136.848 129.523  1.00  0.00     0.000 C 
BRANCH   6   7
ATOM      7  C   UNL     1     140.038 137.279 128.074  1.00  0.00     0.008 C 
BRANCH   7   8
ATOM      8  C   UNL     1     139.596 138.744 127.931  1.00  0.00     0.072 C 
BRANCH   8   9
ATOM      9  C   UNL     1     140.528 139.693 128.626  1.00  0.00     0.224 C 
ATOM     10  O   UNL     1     140.106 140.476 129.461  1.00  0.00    -0.303 OA
ENDBRANCH   8   9
ENDBRANCH   7   8
ENDBRANCH   6   7
ENDBRANCH   1   6
TORSDOF 7
ENDMDL
MODEL 2
REMARK VINA RESULT:    -2.992      3.323      4.661
REMARK INTER + INTRA:          -4.818
REMARK INTER:                  -4.347
REMARK INTRA:                  -0.471
REMARK UNBOUND:                -0.602
REMARK SMILES CCCCCCCCC=O
REMARK SMILES IDX 5 1 4 2 3 3 2 4 1 5 6 6 7 7 8 8 9 9 10 10
REMARK H PARENT
REMARK Flexibility Score: inf
ROOT
ATOM      1  C   UNL     1     134.628 135.375 128.626  1.00  0.00     0.000 C 
ENDROOT
BRANCH   1   2
ATOM      2  C   UNL     1     135.137 134.966 130.016  1.00  0.00    -0.000 C 
BRANCH   2   3
ATOM      3  C   UNL     1     136.672 135.016 130.131  1.00  0.00    -0.000 C 
BRANCH   3   4
ATOM      4  C   UNL     1     137.424 134.970 128.789  1.00  0.00    -0.003 C 
ATOM      5  C   UNL     1     138.509 133.893 128.747  1.00  0.00     0.004 C 
ENDBRANCH   3   4
ENDBRANCH   2   3
ENDBRANCH   1   2
BRANCH   1   6
ATOM      6  C   UNL     1     133.969 136.762 128.670  1.00  0.00     0.000 C 
BRANCH   6   7
ATOM      7  C   UNL     1     134.993 137.911 128.605  1.00  0.00     0.008 C 
BRANCH   7   8
ATOM      8  C   UNL     1     135.010 138.810 129.852  1.00  0.00     0.072 C 
BRANCH   8   9
ATOM      9  C   UNL     1     134.959 140.269 129.503  1.00  0.00     0.224 C 
ATOM     10  O   UNL     1     135.383 140.665 128.429  1.00  0.00    -0.303 OA
ENDBRANCH   8   9
ENDBRANCH   7   8
ENDBRANCH   6   7
ENDBRANCH   1   6
TORSDOF 7
ENDMDL
MODEL 3
REMARK VINA RESULT:    -2.954      4.069      6.307
REMARK INTER + INTRA:          -4.765
REMARK INTER:                  -4.084
REMARK INTRA:                  -0.681
REMARK UNBOUND:                -0.602
REMARK SMILES CCCCCCCCC=O
REMARK SMILES IDX 5 1 4 2 3 3 2 4 1 5 6 6 7 7 8 8 9 9 10 10
REMARK H PARENT
REMARK Flexibility Score: inf
ROOT
ATOM      1  C   UNL     1     134.768 139.975 129.982  1.00  0.00     0.000 C 
ENDROOT
BRANCH   1   2
ATOM      2  C   UNL     1     135.388 140.568 128.709  1.00  0.00    -0.000 C 
BRANCH   2   3
ATOM      3  C   UNL     1     136.763 141.218 128.957  1.00  0.00    -0.000 C 
BRANCH   3   4
ATOM      4  C   UNL     1     137.959 140.252 128.880  1.00  0.00    -0.003 C 
ATOM      5  C   UNL     1     138.526 139.891 130.253  1.00  0.00     0.004 C 
ENDBRANCH   3   4
ENDBRANCH   2   3
ENDBRANCH   1   2
BRANCH   1   6
ATOM      6  C   UNL     1     134.965 138.452 130.031  1.00  0.00     0.000 C 
BRANCH   6   7
ATOM      7  C   UNL     1     134.997 137.811 128.631  1.00  0.00     0.008 C 
BRANCH   7   8
ATOM      8  C   UNL     1     136.162 136.831 128.414  1.00  0.00     0.072 C 
BRANCH   8   9
ATOM      9  C   UNL     1     135.844 135.449 128.906  1.00  0.00     0.224 C 
ATOM     10  O   UNL     1     134.709 135.007 128.822  1.00  0.00    -0.303 OA
ENDBRANCH   8   9
ENDBRANCH   7   8
ENDBRANCH   6   7
ENDBRANCH   1   6
TORSDOF 7
ENDMDL
MODEL 4
REMARK VINA RESULT:    -2.906      4.604      5.501
REMARK INTER + INTRA:          -4.698
REMARK INTER:                  -3.842
REMARK INTRA:                  -0.855
REMARK UNBOUND:                -0.602
REMARK SMILES CCCCCCCCC=O
REMARK SMILES IDX 5 1 4 2 3 3 2 4 1 5 6 6 7 7 8 8 9 9 10 10
REMARK H PARENT
REMARK Flexibility Score: inf
ROOT
ATOM      1  C   UNL     1     138.617 139.986 130.367  1.00  0.00     0.000 C 
ENDROOT
BRANCH   1   2
ATOM      2  C   UNL     1     137.838 138.907 131.133  1.00  0.00    -0.000 C 
BRANCH   2   3
ATOM      3  C   UNL     1     137.012 139.478 132.301  1.00  0.00    -0.000 C 
BRANCH   3   4
ATOM      4  C   UNL     1     135.488 139.448 132.090  1.00  0.00    -0.003 C 
ATOM      5  C   UNL     1     134.839 140.828 132.211  1.00  0.00     0.004 C 
ENDBRANCH   3   4
ENDBRANCH   2   3
ENDBRANCH   1   2
BRANCH   1   6
ATOM      6  C   UNL     1     138.011 140.215 128.974  1.00  0.00     0.000 C 
BRANCH   6   7
ATOM      7  C   UNL     1     136.844 141.221 128.989  1.00  0.00     0.008 C 
BRANCH   7   8
ATOM      8  C   UNL     1     135.501 140.635 128.525  1.00  0.00     0.072 C 
BRANCH   8   9
ATOM      9  C   UNL     1     135.611 139.188 128.143  1.00  0.00     0.224 C 
ATOM     10  O   UNL     1     134.999 138.334 128.764  1.00  0.00    -0.303 OA
ENDBRANCH   8   9
ENDBRANCH   7   8
ENDBRANCH   6   7
ENDBRANCH   1   6
TORSDOF 7
ENDMDL
MODEL 5
REMARK VINA RESULT:    -2.867      2.613      4.586
REMARK INTER + INTRA:          -4.642
REMARK INTER:                  -4.033
REMARK INTRA:                  -0.609
REMARK UNBOUND:                -0.602
REMARK SMILES CCCCCCCCC=O
REMARK SMILES IDX 5 1 4 2 3 3 2 4 1 5 6 6 7 7 8 8 9 9 10 10
REMARK H PARENT
REMARK Flexibility Score: inf
ROOT
ATOM      1  C   UNL     1     139.803 134.611 128.621  1.00  0.00     0.000 C 
ENDROOT
BRANCH   1   2
ATOM      2  C   UNL     1     140.442 135.411 129.766  1.00  0.00    -0.000 C 
BRANCH   2   3
ATOM      3  C   UNL     1     140.383 136.934 129.540  1.00  0.00    -0.000 C 
BRANCH   3   4
ATOM      4  C   UNL     1     139.691 137.729 130.662  1.00  0.00    -0.003 C 
ATOM      5  C   UNL     1     138.923 136.839 131.640  1.00  0.00     0.004 C 
ENDBRANCH   3   4
ENDBRANCH   2   3
ENDBRANCH   1   2
BRANCH   1   6
ATOM      6  C   UNL     1     138.428 134.065 129.034  1.00  0.00     0.000 C 
BRANCH   6   7
ATOM      7  C   UNL     1     137.275 135.024 128.682  1.00  0.00     0.008 C 
BRANCH   7   8
ATOM      8  C   UNL     1     136.130 135.036 129.707  1.00  0.00     0.072 C 
BRANCH   8   9
ATOM      9  C   UNL     1     134.809 135.378 129.082  1.00  0.00     0.224 C 
ATOM     10  O   UNL     1     134.320 136.486 129.235  1.00  0.00    -0.303 OA
ENDBRANCH   8   9
ENDBRANCH   7   8
ENDBRANCH   6   7
ENDBRANCH   1   6
TORSDOF 7
ENDMDL
MODEL 6
REMARK VINA RESULT:    -2.861      3.203      5.248
REMARK INTER + INTRA:          -4.634
REMARK INTER:                  -4.232
REMARK INTRA:                  -0.402
REMARK UNBOUND:                -0.602
REMARK SMILES CCCCCCCCC=O
REMARK SMILES IDX 5 1 4 2 3 3 2 4 1 5 6 6 7 7 8 8 9 9 10 10
REMARK H PARENT
REMARK Flexibility Score: inf
ROOT
ATOM      1  C   UNL     1     138.869 140.200 130.438  1.00  0.00     0.000 C 
ENDROOT
BRANCH   1   2
ATOM      2  C   UNL     1     140.242 140.531 129.835  1.00  0.00    -0.000 C 
BRANCH   2   3
ATOM      3  C   UNL     1     140.584 139.662 128.610  1.00  0.00    -0.000 C 
BRANCH   3   4
ATOM      4  C   UNL     1     141.354 138.368 128.929  1.00  0.00    -0.003 C 
ATOM      5  C   UNL     1     140.444 137.148 129.068  1.00  0.00     0.004 C 
ENDBRANCH   3   4
ENDBRANCH   2   3
ENDBRANCH   1   2
BRANCH   1   6
ATOM      6  C   UNL     1     137.853 139.860 129.337  1.00  0.00     0.000 C 
BRANCH   6   7
ATOM      7  C   UNL     1     136.838 140.991 129.091  1.00  0.00     0.008 C 
BRANCH   7   8
ATOM      8  C   UNL     1     135.419 140.503 128.757  1.00  0.00     0.072 C 
BRANCH   8   9
ATOM      9  C   UNL     1     135.333 139.007 128.685  1.00  0.00     0.224 C 
ATOM     10  O   UNL     1     134.585 138.392 129.428  1.00  0.00    -0.303 OA
ENDBRANCH   8   9
ENDBRANCH   7   8
ENDBRANCH   6   7
ENDBRANCH   1   6
TORSDOF 7
ENDMDL
MODEL 7
REMARK VINA RESULT:    -2.858      3.091      5.082
REMARK INTER + INTRA:          -4.629
REMARK INTER:                  -4.184
REMARK INTRA:                  -0.446
REMARK UNBOUND:                -0.602
REMARK SMILES CCCCCCCCC=O
REMARK SMILES IDX 5 1 4 2 3 3 2 4 1 5 6 6 7 7 8 8 9 9 10 10
REMARK H PARENT
REMARK Flexibility Score: inf
ROOT
ATOM      1  C   UNL     1     134.756 135.341 128.957  1.00  0.00     0.000 C 
ENDROOT
BRANCH   1   2
ATOM      2  C   UNL     1     134.046 136.703 128.937  1.00  0.00    -0.000 C 
BRANCH   2   3
ATOM      3  C   UNL     1     135.019 137.884 128.765  1.00  0.00    -0.000 C 
BRANCH   3   4
ATOM      4  C   UNL     1     135.022 138.895 129.925  1.00  0.00    -0.003 C 
ATOM      5  C   UNL     1     135.590 138.317 131.221  1.00  0.00     0.004 C 
ENDBRANCH   3   4
ENDBRANCH   2   3
ENDBRANCH   1   2
BRANCH   1   6
ATOM      6  C   UNL     1     136.211 135.475 128.482  1.00  0.00     0.000 C 
BRANCH   6   7
ATOM      7  C   UNL     1     137.227 134.957 129.517  1.00  0.00     0.008 C 
BRANCH   7   8
ATOM      8  C   UNL     1     138.309 134.034 128.933  1.00  0.00     0.072 C 
BRANCH   8   9
ATOM      9  C   UNL     1     139.576 134.772 128.617  1.00  0.00     0.224 C 
ATOM     10  O   UNL     1     140.525 134.732 129.383  1.00  0.00    -0.303 OA
ENDBRANCH   8   9
ENDBRANCH   7   8
ENDBRANCH   6   7
ENDBRANCH   1   6
TORSDOF 7
ENDMDL
MODEL 8
REMARK VINA RESULT:    -2.839      2.577      4.828
REMARK INTER + INTRA:          -4.602
REMARK INTER:                  -4.179
REMARK INTRA:                  -0.423
REMARK UNBOUND:                -0.602
REMARK SMILES CCCCCCCCC=O
REMARK SMILES IDX 5 1 4 2 3 3 2 4 1 5 6 6 7 7 8 8 9 9 10 10
REMARK H PARENT
REMARK Flexibility Score: inf
ROOT
ATOM      1  C   UNL     1     140.258 135.379 130.151  1.00  0.00     0.000 C 
ENDROOT
BRANCH   1   2
ATOM      2  C   UNL     1     140.100 136.906 130.088  1.00  0.00    -0.000 C 
BRANCH   2   3
ATOM      3  C   UNL     1     140.193 137.460 128.654  1.00  0.00    -0.000 C 
BRANCH   3   4
ATOM      4  C   UNL     1     140.835 138.855 128.540  1.00  0.00    -0.003 C 
ATOM      5  C   UNL     1     142.212 138.827 127.876  1.00  0.00     0.004 C 
ENDBRANCH   3   4
ENDBRANCH   2   3
ENDBRANCH   1   2
BRANCH   1   6
ATOM      6  C   UNL     1     139.878 134.734 128.809  1.00  0.00     0.000 C 
BRANCH   6   7
ATOM      7  C   UNL     1     138.513 134.023 128.856  1.00  0.00     0.008 C 
BRANCH   7   8
ATOM      8  C   UNL     1     137.324 134.915 128.465  1.00  0.00     0.072 C 
BRANCH   8   9
ATOM      9  C   UNL     1     136.393 135.161 129.616  1.00  0.00     0.224 C 
ATOM     10  O   UNL     1     135.423 134.442 129.793  1.00  0.00    -0.303 OA
ENDBRANCH   8   9
ENDBRANCH   7   8
ENDBRANCH   6   7
ENDBRANCH   1   6
TORSDOF 7
ENDMDL
MODEL 9
REMARK VINA RESULT:    -2.794      3.430      4.414
REMARK INTER + INTRA:          -4.540
REMARK INTER:                  -3.892
REMARK INTRA:                  -0.648
REMARK UNBOUND:                -0.602
REMARK SMILES CCCCCCCCC=O
REMARK SMILES IDX 5 1 4 2 3 3 2 4 1 5 6 6 7 7 8 8 9 9 10 10
REMARK H PARENT
REMARK Flexibility Score: inf
ROOT
ATOM      1  C   UNL     1     136.859 139.578 131.110  1.00  0.00     0.000 C 
ENDROOT
BRANCH   1   2
ATOM      2  C   UNL     1     136.186 140.626 130.212  1.00  0.00    -0.000 C 
BRANCH   2   3
ATOM      3  C   UNL     1     135.002 140.057 129.408  1.00  0.00    -0.000 C 
BRANCH   3   4
ATOM      4  C   UNL     1     135.004 138.526 129.247  1.00  0.00    -0.003 C 
ATOM      5  C   UNL     1     135.502 138.069 127.876  1.00  0.00     0.004 C 
ENDBRANCH   3   4
ENDBRANCH   2   3
ENDBRANCH   1   2
BRANCH   1   6
ATOM      6  C   UNL     1     138.330 139.378 130.712  1.00  0.00     0.000 C 
BRANCH   6   7
ATOM      7  C   UNL     1     138.747 140.249 129.513  1.00  0.00     0.008 C 
BRANCH   7   8
ATOM      8  C   UNL     1     139.291 139.454 128.315  1.00  0.00     0.072 C 
BRANCH   8   9
ATOM      9  C   UNL     1     140.789 139.483 128.245  1.00  0.00     0.224 C 
ATOM     10  O   UNL     1     141.447 138.541 128.656  1.00  0.00    -0.303 OA
ENDBRANCH   8   9
ENDBRANCH   7   8
ENDBRANCH   6   7
ENDBRANCH   1   6
TORSDOF 7
ENDMDL
