MODEL 1
REMARK VINA RESULT:    -5.790      0.000      0.000
REMARK INTER + INTRA:          -6.298
REMARK INTER:                  -6.298
REMARK INTRA:                   0.000
REMARK UNBOUND:                 0.000
REMARK SMILES Cc1cc(O)c2c(c1)C(=O)c1cc(O)cc(O)c1C2=O
REMARK SMILES IDX 1 1 2 2 8 3 7 4 6 5 4 6 3 7 19 8 20 9 18 10 11 11 9 12 10 13
REMARK SMILES IDX 12 14 13 15 15 16 16 17 5 18 17 20 14 22
REMARK H PARENT 5 19 17 21 14 23
REMARK Flexibility Score: inf
ROOT
ATOM      1  C   UNL     1      -4.881  82.736 -10.019  1.00  0.00     0.044 C 
ATOM      2  C   UNL     1      -4.596  84.043  -9.338  1.00  0.00    -0.047 A 
ATOM      3  C   UNL     1      -5.435  85.143  -9.547  1.00  0.00     0.016 A 
ATOM      4  C   UNL     1      -5.160  86.379  -8.935  1.00  0.00     0.038 A 
ATOM      5  C   UNL     1      -4.026  86.515  -8.104  1.00  0.00     0.076 A 
ATOM      6  C   UNL     1      -3.134  85.421  -7.965  1.00  0.00     0.127 A 
ATOM      7  C   UNL     1      -3.440  84.196  -8.566  1.00  0.00     0.050 A 
ATOM      8  C   UNL     1      -3.850  87.789  -7.359  1.00  0.00     0.201 C 
ATOM      9  O   UNL     1      -3.264  87.787  -6.244  1.00  0.00    -0.288 OA
ATOM     10  C   UNL     1      -4.527  89.022  -7.838  1.00  0.00     0.076 A 
ATOM     11  C   UNL     1      -5.659  88.882  -8.672  1.00  0.00     0.041 A 
ATOM     12  C   UNL     1      -6.050  87.542  -9.167  1.00  0.00     0.194 C 
ATOM     13  O   UNL     1      -7.128  87.394  -9.807  1.00  0.00    -0.289 OA
ATOM     14  C   UNL     1      -6.406  90.016  -9.032  1.00  0.00     0.059 A 
ATOM     15  C   UNL     1      -6.032  91.284  -8.587  1.00  0.00     0.120 A 
ATOM     16  C   UNL     1      -4.891  91.433  -7.795  1.00  0.00     0.093 A 
ATOM     17  C   UNL     1      -4.117  90.322  -7.439  1.00  0.00     0.131 A 
ENDROOT
BRANCH   6  18
ATOM     18  O   UNL     1      -1.923  85.517  -7.275  1.00  0.00    -0.507 OA
ATOM     19  H   UNL     1      -1.260  86.267  -7.413  1.00  0.00     0.293 HD
ENDBRANCH   6  18
BRANCH  17  20
ATOM     20  O   UNL     1      -2.942  90.559  -6.724  1.00  0.00    -0.507 OA
ATOM     21  H   UNL     1      -2.020  90.529  -7.139  1.00  0.00     0.293 HD
ENDBRANCH  17  20
BRANCH  15  22
ATOM     22  O   UNL     1      -6.796  92.392  -8.946  1.00  0.00    -0.508 OA
ATOM     23  H   UNL     1      -6.691  93.284  -8.476  1.00  0.00     0.293 HD
ENDBRANCH  15  22
TORSDOF 3
ENDMDL
MODEL 2
REMARK VINA RESULT:    -5.647      1.600      5.559
REMARK INTER + INTRA:          -6.142
REMARK INTER:                  -6.142
REMARK INTRA:                   0.000
REMARK UNBOUND:                 0.000
REMARK SMILES Cc1cc(O)c2c(c1)C(=O)c1cc(O)cc(O)c1C2=O
REMARK SMILES IDX 1 1 2 2 8 3 7 4 6 5 4 6 3 7 19 8 20 9 18 10 11 11 9 12 10 13
REMARK SMILES IDX 12 14 13 15 15 16 16 17 5 18 17 20 14 22
REMARK H PARENT 5 19 17 21 14 23
REMARK Flexibility Score: inf
ROOT
ATOM      1  C   UNL     1      -7.084  91.510  -8.322  1.00  0.00     0.044 C 
ATOM      2  C   UNL     1      -6.176  90.319  -8.222  1.00  0.00    -0.047 A 
ATOM      3  C   UNL     1      -6.436  89.169  -8.976  1.00  0.00     0.016 A 
ATOM      4  C   UNL     1      -5.608  88.039  -8.868  1.00  0.00     0.038 A 
ATOM      5  C   UNL     1      -4.503  88.059  -7.988  1.00  0.00     0.076 A 
ATOM      6  C   UNL     1      -4.295  89.195  -7.164  1.00  0.00     0.127 A 
ATOM      7  C   UNL     1      -5.120  90.315  -7.305  1.00  0.00     0.050 A 
ATOM      8  C   UNL     1      -3.567  86.905  -8.009  1.00  0.00     0.201 C 
ATOM      9  O   UNL     1      -2.350  87.080  -7.733  1.00  0.00    -0.288 OA
ATOM     10  C   UNL     1      -4.025  85.594  -8.538  1.00  0.00     0.076 A 
ATOM     11  C   UNL     1      -5.132  85.577  -9.415  1.00  0.00     0.041 A 
ATOM     12  C   UNL     1      -5.894  86.823  -9.667  1.00  0.00     0.194 C 
ATOM     13  O   UNL     1      -6.803  86.842 -10.542  1.00  0.00    -0.289 OA
ATOM     14  C   UNL     1      -5.509  84.378 -10.043  1.00  0.00     0.059 A 
ATOM     15  C   UNL     1      -4.809  83.197  -9.795  1.00  0.00     0.120 A 
ATOM     16  C   UNL     1      -3.739  83.200  -8.898  1.00  0.00     0.093 A 
ATOM     17  C   UNL     1      -3.356  84.376  -8.245  1.00  0.00     0.131 A 
ENDROOT
BRANCH   6  18
ATOM     18  O   UNL     1      -3.312  89.238  -6.173  1.00  0.00    -0.507 OA
ATOM     19  H   UNL     1      -2.422  89.702  -6.288  1.00  0.00     0.293 HD
ENDBRANCH   6  18
BRANCH  17  20
ATOM     20  O   UNL     1      -2.338  84.283  -7.294  1.00  0.00    -0.507 OA
ATOM     21  H   UNL     1      -2.427  84.621  -6.345  1.00  0.00     0.293 HD
ENDBRANCH  17  20
BRANCH  15  22
ATOM     22  O   UNL     1      -5.193  82.023 -10.439  1.00  0.00    -0.508 OA
ATOM     23  H   UNL     1      -4.694  81.675 -11.249  1.00  0.00     0.293 HD
ENDBRANCH  15  22
TORSDOF 3
ENDMDL
MODEL 3
REMARK VINA RESULT:    -5.316      9.088     10.678
REMARK INTER + INTRA:          -5.782
REMARK INTER:                  -5.782
REMARK INTRA:                   0.000
REMARK UNBOUND:                 0.000
REMARK SMILES Cc1cc(O)c2c(c1)C(=O)c1cc(O)cc(O)c1C2=O
REMARK SMILES IDX 1 1 2 2 8 3 7 4 6 5 4 6 3 7 19 8 20 9 18 10 11 11 9 12 10 13
REMARK SMILES IDX 12 14 13 15 15 16 16 17 5 18 17 20 14 22
REMARK H PARENT 5 19 17 21 14 23
REMARK Flexibility Score: inf
ROOT
ATOM      1  C   UNL     1      -5.998  93.165 -12.234  1.00  0.00     0.044 C 
ATOM      2  C   UNL     1      -5.231  92.671 -13.425  1.00  0.00    -0.047 A 
ATOM      3  C   UNL     1      -5.403  93.277 -14.675  1.00  0.00     0.016 A 
ATOM      4  C   UNL     1      -4.710  92.803 -15.802  1.00  0.00     0.038 A 
ATOM      5  C   UNL     1      -3.833  91.703 -15.677  1.00  0.00     0.076 A 
ATOM      6  C   UNL     1      -3.728  91.040 -14.427  1.00  0.00     0.127 A 
ATOM      7  C   UNL     1      -4.411  91.543 -13.316  1.00  0.00     0.050 A 
ATOM      8  C   UNL     1      -3.008  91.324 -16.854  1.00  0.00     0.201 C 
ATOM      9  O   UNL     1      -1.875  90.801 -16.683  1.00  0.00    -0.288 OA
ATOM     10  C   UNL     1      -3.435  91.735 -18.216  1.00  0.00     0.076 A 
ATOM     11  C   UNL     1      -4.315  92.834 -18.338  1.00  0.00     0.041 A 
ATOM     12  C   UNL     1      -4.903  93.447 -17.123  1.00  0.00     0.194 C 
ATOM     13  O   UNL     1      -5.587  94.503 -17.217  1.00  0.00    -0.289 OA
ATOM     14  C   UNL     1      -4.634  93.338 -19.610  1.00  0.00     0.059 A 
ATOM     15  C   UNL     1      -4.100  92.752 -20.759  1.00  0.00     0.120 A 
ATOM     16  C   UNL     1      -3.263  91.641 -20.646  1.00  0.00     0.093 A 
ATOM     17  C   UNL     1      -2.946  91.107 -19.392  1.00  0.00     0.131 A 
ENDROOT
BRANCH   6  18
ATOM     18  O   UNL     1      -2.992  89.865 -14.256  1.00  0.00    -0.507 OA
ATOM     19  H   UNL     1      -3.387  89.004 -13.903  1.00  0.00     0.293 HD
ENDBRANCH   6  18
BRANCH  17  20
ATOM     20  O   UNL     1      -2.178  89.942 -19.363  1.00  0.00    -0.507 OA
ATOM     21  H   UNL     1      -2.547  89.024 -19.574  1.00  0.00     0.293 HD
ENDBRANCH  17  20
BRANCH  15  22
ATOM     22  O   UNL     1      -4.420  93.278 -22.009  1.00  0.00    -0.508 OA
ATOM     23  H   UNL     1      -3.732  93.336 -22.751  1.00  0.00     0.293 HD
ENDBRANCH  15  22
TORSDOF 3
ENDMDL
MODEL 4
REMARK VINA RESULT:    -5.166      1.306      6.287
REMARK INTER + INTRA:          -5.619
REMARK INTER:                  -5.619
REMARK INTRA:                   0.000
REMARK UNBOUND:                 0.000
REMARK SMILES Cc1cc(O)c2c(c1)C(=O)c1cc(O)cc(O)c1C2=O
REMARK SMILES IDX 1 1 2 2 8 3 7 4 6 5 4 6 3 7 19 8 20 9 18 10 11 11 9 12 10 13
REMARK SMILES IDX 12 14 13 15 15 16 16 17 5 18 17 20 14 22
REMARK H PARENT 5 19 17 21 14 23
REMARK Flexibility Score: inf
ROOT
ATOM      1  C   UNL     1      -4.659  92.620  -7.528  1.00  0.00     0.044 C 
ATOM      2  C   UNL     1      -4.898  91.197  -7.938  1.00  0.00    -0.047 A 
ATOM      3  C   UNL     1      -4.144  90.164  -7.369  1.00  0.00     0.016 A 
ATOM      4  C   UNL     1      -4.341  88.830  -7.768  1.00  0.00     0.038 A 
ATOM      5  C   UNL     1      -5.306  88.526  -8.753  1.00  0.00     0.076 A 
ATOM      6  C   UNL     1      -6.006  89.585  -9.386  1.00  0.00     0.127 A 
ATOM      7  C   UNL     1      -5.808  90.901  -8.958  1.00  0.00     0.050 A 
ATOM      8  C   UNL     1      -5.590  87.096  -9.041  1.00  0.00     0.201 C 
ATOM      9  O   UNL     1      -6.739  86.750  -9.423  1.00  0.00    -0.288 OA
ATOM     10  C   UNL     1      -4.581  86.061  -8.698  1.00  0.00     0.076 A 
ATOM     11  C   UNL     1      -3.615  86.369  -7.715  1.00  0.00     0.041 A 
ATOM     12  C   UNL     1      -3.534  87.743  -7.164  1.00  0.00     0.194 C 
ATOM     13  O   UNL     1      -2.759  87.992  -6.199  1.00  0.00    -0.289 OA
ATOM     14  C   UNL     1      -2.731  85.374  -7.265  1.00  0.00     0.059 A 
ATOM     15  C   UNL     1      -2.788  84.083  -7.794  1.00  0.00     0.120 A 
ATOM     16  C   UNL     1      -3.714  83.784  -8.795  1.00  0.00     0.093 A 
ATOM     17  C   UNL     1      -4.592  84.763  -9.274  1.00  0.00     0.131 A 
ENDROOT
BRANCH   6  18
ATOM     18  O   UNL     1      -6.873  89.380 -10.462  1.00  0.00    -0.507 OA
ATOM     19  H   UNL     1      -6.562  89.274 -11.418  1.00  0.00     0.293 HD
ENDBRANCH   6  18
BRANCH  17  20
ATOM     20  O   UNL     1      -5.426  84.415 -10.339  1.00  0.00    -0.507 OA
ATOM     21  H   UNL     1      -5.393  84.865 -11.244  1.00  0.00     0.293 HD
ENDBRANCH  17  20
BRANCH  15  22
ATOM     22  O   UNL     1      -1.911  83.109  -7.323  1.00  0.00    -0.508 OA
ATOM     23  H   UNL     1      -1.820  82.211  -7.783  1.00  0.00     0.293 HD
ENDBRANCH  15  22
TORSDOF 3
ENDMDL
MODEL 5
REMARK VINA RESULT:    -5.149      6.134      8.036
REMARK INTER + INTRA:          -5.600
REMARK INTER:                  -5.600
REMARK INTRA:                   0.000
REMARK UNBOUND:                 0.000
REMARK SMILES Cc1cc(O)c2c(c1)C(=O)c1cc(O)cc(O)c1C2=O
REMARK SMILES IDX 1 1 2 2 8 3 7 4 6 5 4 6 3 7 19 8 20 9 18 10 11 11 9 12 10 13
REMARK SMILES IDX 12 14 13 15 15 16 16 17 5 18 17 20 14 22
REMARK H PARENT 5 19 17 21 14 23
REMARK Flexibility Score: inf
ROOT
ATOM      1  C   UNL     1     -11.721  90.439 -13.292  1.00  0.00     0.044 C 
ATOM      2  C   UNL     1     -10.224  90.343 -13.330  1.00  0.00    -0.047 A 
ATOM      3  C   UNL     1      -9.480  91.246 -14.096  1.00  0.00     0.016 A 
ATOM      4  C   UNL     1      -8.079  91.147 -14.160  1.00  0.00     0.038 A 
ATOM      5  C   UNL     1      -7.414  90.125 -13.447  1.00  0.00     0.076 A 
ATOM      6  C   UNL     1      -8.180  89.161 -12.742  1.00  0.00     0.127 A 
ATOM      7  C   UNL     1      -9.570  89.294 -12.676  1.00  0.00     0.050 A 
ATOM      8  C   UNL     1      -5.928  90.141 -13.419  1.00  0.00     0.201 C 
ATOM      9  O   UNL     1      -5.315  89.680 -12.419  1.00  0.00    -0.288 OA
ATOM     10  C   UNL     1      -5.178  90.867 -14.476  1.00  0.00     0.076 A 
ATOM     11  C   UNL     1      -5.848  91.886 -15.189  1.00  0.00     0.041 A 
ATOM     12  C   UNL     1      -7.298  92.105 -14.979  1.00  0.00     0.194 C 
ATOM     13  O   UNL     1      -7.873  93.091 -15.517  1.00  0.00    -0.289 OA
ATOM     14  C   UNL     1      -5.136  92.687 -16.099  1.00  0.00     0.059 A 
ATOM     15  C   UNL     1      -3.775  92.474 -16.317  1.00  0.00     0.120 A 
ATOM     16  C   UNL     1      -3.117  91.441 -15.645  1.00  0.00     0.093 A 
ATOM     17  C   UNL     1      -3.807  90.617 -14.749  1.00  0.00     0.131 A 
ENDROOT
BRANCH   6  18
ATOM     18  O   UNL     1      -7.608  88.044 -12.129  1.00  0.00    -0.507 OA
ATOM     19  H   UNL     1      -7.118  88.081 -11.245  1.00  0.00     0.293 HD
ENDBRANCH   6  18
BRANCH  17  20
ATOM     20  O   UNL     1      -3.106  89.550 -14.185  1.00  0.00    -0.507 OA
ATOM     21  H   UNL     1      -2.099  89.527 -14.098  1.00  0.00     0.293 HD
ENDBRANCH  17  20
BRANCH  15  22
ATOM     22  O   UNL     1      -3.087  93.288 -17.215  1.00  0.00    -0.508 OA
ATOM     23  H   UNL     1      -3.576  93.859 -17.894  1.00  0.00     0.293 HD
ENDBRANCH  15  22
TORSDOF 3
ENDMDL
MODEL 6
REMARK VINA RESULT:    -5.076     11.538     13.193
REMARK INTER + INTRA:          -5.522
REMARK INTER:                  -5.522
REMARK INTRA:                   0.000
REMARK UNBOUND:                 0.000
REMARK SMILES Cc1cc(O)c2c(c1)C(=O)c1cc(O)cc(O)c1C2=O
REMARK SMILES IDX 1 1 2 2 8 3 7 4 6 5 4 6 3 7 19 8 20 9 18 10 11 11 9 12 10 13
REMARK SMILES IDX 12 14 13 15 15 16 16 17 5 18 17 20 14 22
REMARK H PARENT 5 19 17 21 14 23
REMARK Flexibility Score: inf
ROOT
ATOM      1  C   UNL     1      -3.609  92.471 -24.756  1.00  0.00     0.044 C 
ATOM      2  C   UNL     1      -3.744  92.875 -23.317  1.00  0.00    -0.047 A 
ATOM      3  C   UNL     1      -3.183  92.084 -22.308  1.00  0.00     0.016 A 
ATOM      4  C   UNL     1      -3.328  92.439 -20.956  1.00  0.00     0.038 A 
ATOM      5  C   UNL     1      -4.049  93.603 -20.608  1.00  0.00     0.076 A 
ATOM      6  C   UNL     1      -4.687  94.353 -21.630  1.00  0.00     0.127 A 
ATOM      7  C   UNL     1      -4.510  93.992 -22.969  1.00  0.00     0.050 A 
ATOM      8  C   UNL     1      -4.056  94.027 -19.184  1.00  0.00     0.201 C 
ATOM      9  O   UNL     1      -4.149  95.249 -18.894  1.00  0.00    -0.288 OA
ATOM     10  C   UNL     1      -3.763  93.033 -18.118  1.00  0.00     0.076 A 
ATOM     11  C   UNL     1      -3.045  91.868 -18.470  1.00  0.00     0.041 A 
ATOM     12  C   UNL     1      -2.736  91.593 -19.893  1.00  0.00     0.194 C 
ATOM     13  O   UNL     1      -1.990  90.622 -20.200  1.00  0.00    -0.289 OA
ATOM     14  C   UNL     1      -2.631  90.973 -17.469  1.00  0.00     0.059 A 
ATOM     15  C   UNL     1      -2.936  91.216 -16.129  1.00  0.00     0.120 A 
ATOM     16  C   UNL     1      -3.680  92.345 -15.781  1.00  0.00     0.093 A 
ATOM     17  C   UNL     1      -4.122  93.242 -16.760  1.00  0.00     0.131 A 
ENDROOT
BRANCH   6  18
ATOM     18  O   UNL     1      -5.529  95.434 -21.359  1.00  0.00    -0.507 OA
ATOM     19  H   UNL     1      -6.314  95.690 -21.941  1.00  0.00     0.293 HD
ENDBRANCH   6  18
BRANCH  17  20
ATOM     20  O   UNL     1      -4.938  94.296 -16.347  1.00  0.00    -0.507 OA
ATOM     21  H   UNL     1      -5.948  94.250 -16.338  1.00  0.00     0.293 HD
ENDBRANCH  17  20
BRANCH  15  22
ATOM     22  O   UNL     1      -2.503  90.321 -15.153  1.00  0.00    -0.508 OA
ATOM     23  H   UNL     1      -1.521  90.105 -15.031  1.00  0.00     0.293 HD
ENDBRANCH  15  22
TORSDOF 3
ENDMDL
MODEL 7
REMARK VINA RESULT:    -5.018      6.737      8.790
REMARK INTER + INTRA:          -5.458
REMARK INTER:                  -5.458
REMARK INTRA:                   0.000
REMARK UNBOUND:                 0.000
REMARK SMILES Cc1cc(O)c2c(c1)C(=O)c1cc(O)cc(O)c1C2=O
REMARK SMILES IDX 1 1 2 2 8 3 7 4 6 5 4 6 3 7 19 8 20 9 18 10 11 11 9 12 10 13
REMARK SMILES IDX 12 14 13 15 15 16 16 17 5 18 17 20 14 22
REMARK H PARENT 5 19 17 21 14 23
REMARK Flexibility Score: inf
ROOT
ATOM      1  C   UNL     1     -12.845  89.757 -13.251  1.00  0.00     0.044 C 
ATOM      2  C   UNL     1     -11.561  90.479 -13.534  1.00  0.00    -0.047 A 
ATOM      3  C   UNL     1     -10.369  89.762 -13.686  1.00  0.00     0.016 A 
ATOM      4  C   UNL     1      -9.156  90.432 -13.923  1.00  0.00     0.038 A 
ATOM      5  C   UNL     1      -9.136  91.842 -14.007  1.00  0.00     0.076 A 
ATOM      6  C   UNL     1     -10.332  92.566 -13.768  1.00  0.00     0.127 A 
ATOM      7  C   UNL     1     -11.530  91.877 -13.555  1.00  0.00     0.050 A 
ATOM      8  C   UNL     1      -7.867  92.504 -14.405  1.00  0.00     0.201 C 
ATOM      9  O   UNL     1      -7.900  93.596 -15.033  1.00  0.00    -0.288 OA
ATOM     10  C   UNL     1      -6.576  91.790 -14.230  1.00  0.00     0.076 A 
ATOM     11  C   UNL     1      -6.600  90.380 -14.143  1.00  0.00     0.041 A 
ATOM     12  C   UNL     1      -7.896  89.665 -14.077  1.00  0.00     0.194 C 
ATOM     13  O   UNL     1      -7.926  88.405 -14.125  1.00  0.00    -0.289 OA
ATOM     14  C   UNL     1      -5.393  89.660 -14.115  1.00  0.00     0.059 A 
ATOM     15  C   UNL     1      -4.168  90.327 -14.157  1.00  0.00     0.120 A 
ATOM     16  C   UNL     1      -4.139  91.722 -14.202  1.00  0.00     0.093 A 
ATOM     17  C   UNL     1      -5.326  92.463 -14.210  1.00  0.00     0.131 A 
ENDROOT
BRANCH   6  18
ATOM     18  O   UNL     1     -10.368  93.961 -13.696  1.00  0.00    -0.507 OA
ATOM     19  H   UNL     1      -9.708  94.562 -14.169  1.00  0.00     0.293 HD
ENDBRANCH   6  18
BRANCH  17  20
ATOM     20  O   UNL     1      -5.218  93.855 -14.163  1.00  0.00    -0.507 OA
ATOM     21  H   UNL     1      -4.457  94.340 -13.708  1.00  0.00     0.293 HD
ENDBRANCH  17  20
BRANCH  15  22
ATOM     22  O   UNL     1      -2.984  89.592 -14.142  1.00  0.00    -0.508 OA
ATOM     23  H   UNL     1      -2.509  89.372 -13.274  1.00  0.00     0.293 HD
ENDBRANCH  15  22
TORSDOF 3
ENDMDL
MODEL 8
REMARK VINA RESULT:    -4.977      6.589      9.103
REMARK INTER + INTRA:          -5.414
REMARK INTER:                  -5.414
REMARK INTRA:                   0.000
REMARK UNBOUND:                 0.000
REMARK SMILES Cc1cc(O)c2c(c1)C(=O)c1cc(O)cc(O)c1C2=O
REMARK SMILES IDX 1 1 2 2 8 3 7 4 6 5 4 6 3 7 19 8 20 9 18 10 11 11 9 12 10 13
REMARK SMILES IDX 12 14 13 15 15 16 16 17 5 18 17 20 14 22
REMARK H PARENT 5 19 17 21 14 23
REMARK Flexibility Score: inf
ROOT
ATOM      1  C   UNL     1      -2.069  92.618 -17.812  1.00  0.00     0.044 C 
ATOM      2  C   UNL     1      -3.377  92.408 -17.107  1.00  0.00    -0.047 A 
ATOM      3  C   UNL     1      -3.460  91.523 -16.027  1.00  0.00     0.016 A 
ATOM      4  C   UNL     1      -4.687  91.298 -15.378  1.00  0.00     0.038 A 
ATOM      5  C   UNL     1      -5.849  91.969 -15.820  1.00  0.00     0.076 A 
ATOM      6  C   UNL     1      -5.775  92.799 -16.968  1.00  0.00     0.127 A 
ATOM      7  C   UNL     1      -4.539  93.023 -17.583  1.00  0.00     0.050 A 
ATOM      8  C   UNL     1      -7.092  91.820 -15.020  1.00  0.00     0.201 C 
ATOM      9  O   UNL     1      -7.932  92.759 -14.987  1.00  0.00    -0.288 OA
ATOM     10  C   UNL     1      -7.252  90.653 -14.115  1.00  0.00     0.076 A 
ATOM     11  C   UNL     1      -6.088  89.982 -13.678  1.00  0.00     0.041 A 
ATOM     12  C   UNL     1      -4.767  90.353 -14.238  1.00  0.00     0.194 C 
ATOM     13  O   UNL     1      -3.714  89.847 -13.762  1.00  0.00    -0.289 OA
ATOM     14  C   UNL     1      -6.187  88.962 -12.716  1.00  0.00     0.059 A 
ATOM     15  C   UNL     1      -7.430  88.594 -12.199  1.00  0.00     0.120 A 
ATOM     16  C   UNL     1      -8.588  89.226 -12.658  1.00  0.00     0.093 A 
ATOM     17  C   UNL     1      -8.518  90.230 -13.629  1.00  0.00     0.131 A 
ENDROOT
BRANCH   6  18
ATOM     18  O   UNL     1      -6.901  93.386 -17.548  1.00  0.00    -0.507 OA
ATOM     19  H   UNL     1      -7.796  92.922 -17.625  1.00  0.00     0.293 HD
ENDBRANCH   6  18
BRANCH  17  20
ATOM     20  O   UNL     1      -9.723  90.751 -14.105  1.00  0.00    -0.507 OA
ATOM     21  H   UNL     1      -9.782  91.415 -14.866  1.00  0.00     0.293 HD
ENDBRANCH  17  20
BRANCH  15  22
ATOM     22  O   UNL     1      -7.503  87.588 -11.237  1.00  0.00    -0.508 OA
ATOM     23  H   UNL     1      -7.627  86.616 -11.495  1.00  0.00     0.293 HD
ENDBRANCH  15  22
TORSDOF 3
ENDMDL
