MODEL 1
REMARK VINA RESULT:    -4.884      0.000      0.000
REMARK INTER + INTRA:          -5.450
REMARK INTER:                  -5.312
REMARK INTRA:                  -0.138
REMARK UNBOUND:                -0.138
REMARK SMILES CC1=CC[C@](O)(C(C)C)CC1
REMARK SMILES IDX 1 1 2 2 3 3 4 4 5 5 10 6 11 7 7 8 8 9 9 10 6 11
REMARK H PARENT 6 12
REMARK Flexibility Score: inf
ROOT
ATOM      1  C   UNL     1     123.078 118.301 120.430  1.00  0.00     0.039 C 
ATOM      2  C   UNL     1     124.354 119.009 120.062  1.00  0.00    -0.077 C 
ATOM      3  C   UNL     1     125.376 119.015 120.941  1.00  0.00    -0.025 C 
ATOM      4  C   UNL     1     126.671 119.746 120.683  1.00  0.00     0.062 C 
ATOM      5  C   UNL     1     126.975 119.890 119.172  1.00  0.00     0.071 C 
ATOM      6  C   UNL     1     125.712 120.502 118.504  1.00  0.00     0.040 C 
ATOM      7  C   UNL     1     124.494 119.580 118.664  1.00  0.00     0.033 C 
ENDROOT
BRANCH   5   8
ATOM      8  C   UNL     1     128.267 120.766 118.957  1.00  0.00     0.015 C 
ATOM      9  C   UNL     1     129.518 120.243 119.691  1.00  0.00     0.010 C 
ATOM     10  C   UNL     1     128.055 122.247 119.330  1.00  0.00     0.010 C 
ENDBRANCH   5   8
BRANCH   5  11
ATOM     11  O   UNL     1     127.214 118.587 118.680  1.00  0.00    -0.389 OA
ATOM     12  H   UNL     1     127.203 117.951 119.443  1.00  0.00     0.211 HD
ENDBRANCH   5  11
TORSDOF 2
ENDMDL
MODEL 2
REMARK VINA RESULT:    -4.781     15.385     16.406
REMARK INTER + INTRA:          -5.338
REMARK INTER:                  -5.219
REMARK INTRA:                  -0.119
REMARK UNBOUND:                -0.138
REMARK SMILES CC1=CC[C@](O)(C(C)C)CC1
REMARK SMILES IDX 1 1 2 2 3 3 4 4 5 5 10 6 11 7 7 8 8 9 9 10 6 11
REMARK H PARENT 6 12
REMARK Flexibility Score: inf
ROOT
ATOM      1  C   UNL     1     122.889 131.962 128.370  1.00  0.00     0.039 C 
ATOM      2  C   UNL     1     121.632 131.259 128.805  1.00  0.00    -0.077 C 
ATOM      3  C   UNL     1     121.594 129.911 128.783  1.00  0.00    -0.025 C 
ATOM      4  C   UNL     1     120.360 129.122 129.145  1.00  0.00     0.062 C 
ATOM      5  C   UNL     1     119.441 129.886 130.131  1.00  0.00     0.071 C 
ATOM      6  C   UNL     1     119.186 131.295 129.525  1.00  0.00     0.040 C 
ATOM      7  C   UNL     1     120.495 132.084 129.378  1.00  0.00     0.033 C 
ENDROOT
BRANCH   5   8
ATOM      8  C   UNL     1     118.113 129.075 130.377  1.00  0.00     0.015 C 
ATOM      9  C   UNL     1     117.772 128.850 131.864  1.00  0.00     0.010 C 
ATOM     10  C   UNL     1     118.098 127.715 129.652  1.00  0.00     0.010 C 
ENDBRANCH   5   8
BRANCH   5  11
ATOM     11  O   UNL     1     120.151 129.991 131.348  1.00  0.00    -0.389 OA
ATOM     12  H   UNL     1     120.849 130.689 131.251  1.00  0.00     0.211 HD
ENDBRANCH   5  11
TORSDOF 2
ENDMDL
MODEL 3
REMARK VINA RESULT:    -4.740      1.198      4.457
REMARK INTER + INTRA:          -5.294
REMARK INTER:                  -5.171
REMARK INTRA:                  -0.123
REMARK UNBOUND:                -0.138
REMARK SMILES CC1=CC[C@](O)(C(C)C)CC1
REMARK SMILES IDX 1 1 2 2 3 3 4 4 5 5 10 6 11 7 7 8 8 9 9 10 6 11
REMARK H PARENT 6 12
REMARK Flexibility Score: inf
ROOT
ATOM      1  C   UNL     1     128.201 121.907 119.285  1.00  0.00     0.039 C 
ATOM      2  C   UNL     1     127.082 120.902 119.326  1.00  0.00    -0.077 C 
ATOM      3  C   UNL     1     126.087 120.992 118.421  1.00  0.00    -0.025 C 
ATOM      4  C   UNL     1     124.896 120.065 118.421  1.00  0.00     0.062 C 
ATOM      5  C   UNL     1     125.221 118.688 119.049  1.00  0.00     0.071 C 
ATOM      6  C   UNL     1     125.867 118.956 120.439  1.00  0.00     0.040 C 
ATOM      7  C   UNL     1     127.177 119.744 120.302  1.00  0.00     0.033 C 
ENDROOT
BRANCH   5   8
ATOM      8  C   UNL     1     123.917 117.808 119.140  1.00  0.00     0.015 C 
ATOM      9  C   UNL     1     123.052 118.083 120.386  1.00  0.00     0.010 C 
ATOM     10  C   UNL     1     124.208 116.297 119.059  1.00  0.00     0.010 C 
ENDBRANCH   5   8
BRANCH   5  11
ATOM     11  O   UNL     1     126.146 118.057 118.187  1.00  0.00    -0.389 OA
ATOM     12  H   UNL     1     125.644 117.591 117.468  1.00  0.00     0.211 HD
ENDBRANCH   5  11
TORSDOF 2
ENDMDL
MODEL 4
REMARK VINA RESULT:    -4.686     16.671     17.578
REMARK INTER + INTRA:          -5.235
REMARK INTER:                  -5.108
REMARK INTRA:                  -0.127
REMARK UNBOUND:                -0.138
REMARK SMILES CC1=CC[C@](O)(C(C)C)CC1
REMARK SMILES IDX 1 1 2 2 3 3 4 4 5 5 10 6 11 7 7 8 8 9 9 10 6 11
REMARK H PARENT 6 12
REMARK Flexibility Score: inf
ROOT
ATOM      1  C   UNL     1     123.151 131.833 128.437  1.00  0.00     0.039 C 
ATOM      2  C   UNL     1     121.709 132.262 128.458  1.00  0.00    -0.077 C 
ATOM      3  C   UNL     1     121.416 133.577 128.392  1.00  0.00    -0.025 C 
ATOM      4  C   UNL     1     120.004 134.104 128.465  1.00  0.00     0.062 C 
ATOM      5  C   UNL     1     118.964 133.074 127.960  1.00  0.00     0.071 C 
ATOM      6  C   UNL     1     119.226 131.743 128.722  1.00  0.00     0.040 C 
ATOM      7  C   UNL     1     120.630 131.197 128.422  1.00  0.00     0.033 C 
ENDROOT
BRANCH   5   8
ATOM      8  C   UNL     1     117.503 133.624 128.175  1.00  0.00     0.015 C 
ATOM      9  C   UNL     1     116.819 134.128 126.888  1.00  0.00     0.010 C 
ATOM     10  C   UNL     1     117.432 134.733 129.243  1.00  0.00     0.010 C 
ENDBRANCH   5   8
BRANCH   5  11
ATOM     11  O   UNL     1     119.196 132.907 126.577  1.00  0.00    -0.389 OA
ATOM     12  H   UNL     1     119.153 133.796 126.137  1.00  0.00     0.211 HD
ENDBRANCH   5  11
TORSDOF 2
ENDMDL
MODEL 5
REMARK VINA RESULT:    -4.567     14.941     16.381
REMARK INTER + INTRA:          -5.106
REMARK INTER:                  -4.990
REMARK INTRA:                  -0.115
REMARK UNBOUND:                -0.138
REMARK SMILES CC1=CC[C@](O)(C(C)C)CC1
REMARK SMILES IDX 1 1 2 2 3 3 4 4 5 5 10 6 11 7 7 8 8 9 9 10 6 11
REMARK H PARENT 6 12
REMARK Flexibility Score: inf
ROOT
ATOM      1  C   UNL     1     114.606 120.842 127.914  1.00  0.00     0.039 C 
ATOM      2  C   UNL     1     115.121 120.949 129.323  1.00  0.00    -0.077 C 
ATOM      3  C   UNL     1     114.781 122.023 130.065  1.00  0.00    -0.025 C 
ATOM      4  C   UNL     1     115.296 122.245 131.466  1.00  0.00     0.062 C 
ATOM      5  C   UNL     1     115.649 120.918 132.180  1.00  0.00     0.071 C 
ATOM      6  C   UNL     1     116.593 120.122 131.234  1.00  0.00     0.040 C 
ATOM      7  C   UNL     1     115.897 119.784 129.908  1.00  0.00     0.033 C 
ENDROOT
BRANCH   5   8
ATOM      8  C   UNL     1     116.298 121.211 133.586  1.00  0.00     0.015 C 
ATOM      9  C   UNL     1     117.790 120.839 133.687  1.00  0.00     0.010 C 
ATOM     10  C   UNL     1     115.538 120.541 134.747  1.00  0.00     0.010 C 
ENDBRANCH   5   8
BRANCH   5  11
ATOM     11  O   UNL     1     114.434 120.222 132.368  1.00  0.00    -0.389 OA
ATOM     12  H   UNL     1     114.321 120.033 133.336  1.00  0.00     0.211 HD
ENDBRANCH   5  11
TORSDOF 2
ENDMDL
MODEL 6
REMARK VINA RESULT:    -4.505     14.744     15.351
REMARK INTER + INTRA:          -5.039
REMARK INTER:                  -4.921
REMARK INTRA:                  -0.118
REMARK UNBOUND:                -0.138
REMARK SMILES CC1=CC[C@](O)(C(C)C)CC1
REMARK SMILES IDX 1 1 2 2 3 3 4 4 5 5 10 6 11 7 7 8 8 9 9 10 6 11
REMARK H PARENT 6 12
REMARK Flexibility Score: inf
ROOT
ATOM      1  C   UNL     1     117.379 126.134 131.339  1.00  0.00     0.039 C 
ATOM      2  C   UNL     1     118.101 127.190 130.547  1.00  0.00    -0.077 C 
ATOM      3  C   UNL     1     117.864 128.490 130.819  1.00  0.00    -0.025 C 
ATOM      4  C   UNL     1     118.497 129.616 130.040  1.00  0.00     0.062 C 
ATOM      5  C   UNL     1     119.857 129.212 129.420  1.00  0.00     0.071 C 
ATOM      6  C   UNL     1     119.629 127.892 128.630  1.00  0.00     0.040 C 
ATOM      7  C   UNL     1     119.168 126.759 129.559  1.00  0.00     0.033 C 
ENDROOT
BRANCH   5   8
ATOM      8  C   UNL     1     120.412 130.377 128.517  1.00  0.00     0.015 C 
ATOM      9  C   UNL     1     121.895 130.720 128.762  1.00  0.00     0.010 C 
ATOM     10  C   UNL     1     119.579 131.669 128.627  1.00  0.00     0.010 C 
ENDBRANCH   5   8
BRANCH   5  11
ATOM     11  O   UNL     1     120.746 128.998 130.496  1.00  0.00    -0.389 OA
ATOM     12  H   UNL     1     120.452 129.549 131.268  1.00  0.00     0.211 HD
ENDBRANCH   5  11
TORSDOF 2
ENDMDL
MODEL 7
REMARK VINA RESULT:    -4.466     14.718     16.467
REMARK INTER + INTRA:          -4.996
REMARK INTER:                  -4.852
REMARK INTRA:                  -0.144
REMARK UNBOUND:                -0.138
REMARK SMILES CC1=CC[C@](O)(C(C)C)CC1
REMARK SMILES IDX 1 1 2 2 3 3 4 4 5 5 10 6 11 7 7 8 8 9 9 10 6 11
REMARK H PARENT 6 12
REMARK Flexibility Score: inf
ROOT
ATOM      1  C   UNL     1     116.578 119.828 135.124  1.00  0.00     0.039 C 
ATOM      2  C   UNL     1     116.313 120.352 133.739  1.00  0.00    -0.077 C 
ATOM      3  C   UNL     1     115.112 120.120 133.170  1.00  0.00    -0.025 C 
ATOM      4  C   UNL     1     114.776 120.556 131.765  1.00  0.00     0.062 C 
ATOM      5  C   UNL     1     115.595 121.793 131.320  1.00  0.00     0.071 C 
ATOM      6  C   UNL     1     117.094 121.473 131.586  1.00  0.00     0.040 C 
ATOM      7  C   UNL     1     117.356 121.234 133.080  1.00  0.00     0.033 C 
ENDROOT
BRANCH   5   8
ATOM      8  C   UNL     1     115.299 122.127 129.809  1.00  0.00     0.015 C 
ATOM      9  C   UNL     1     115.132 120.889 128.906  1.00  0.00     0.010 C 
ATOM     10  C   UNL     1     116.355 123.060 129.184  1.00  0.00     0.010 C 
ENDBRANCH   5   8
BRANCH   5  11
ATOM     11  O   UNL     1     115.169 122.872 132.125  1.00  0.00    -0.389 OA
ATOM     12  H   UNL     1     115.424 123.722 131.680  1.00  0.00     0.211 HD
ENDBRANCH   5  11
TORSDOF 2
ENDMDL
MODEL 8
REMARK VINA RESULT:    -4.434     15.443     15.982
REMARK INTER + INTRA:          -4.961
REMARK INTER:                  -4.861
REMARK INTRA:                  -0.101
REMARK UNBOUND:                -0.138
REMARK SMILES CC1=CC[C@](O)(C(C)C)CC1
REMARK SMILES IDX 1 1 2 2 3 3 4 4 5 5 10 6 11 7 7 8 8 9 9 10 6 11
REMARK H PARENT 6 12
REMARK Flexibility Score: inf
ROOT
ATOM      1  C   UNL     1     117.822 128.267 130.216  1.00  0.00     0.039 C 
ATOM      2  C   UNL     1     118.830 129.270 129.725  1.00  0.00    -0.077 C 
ATOM      3  C   UNL     1     118.469 130.565 129.621  1.00  0.00    -0.025 C 
ATOM      4  C   UNL     1     119.393 131.631 129.085  1.00  0.00     0.062 C 
ATOM      5  C   UNL     1     120.885 131.280 129.303  1.00  0.00     0.071 C 
ATOM      6  C   UNL     1     121.110 129.849 128.739  1.00  0.00     0.040 C 
ATOM      7  C   UNL     1     120.258 128.814 129.488  1.00  0.00     0.033 C 
ENDROOT
BRANCH   5   8
ATOM      8  C   UNL     1     121.805 132.360 128.616  1.00  0.00     0.015 C 
ATOM      9  C   UNL     1     123.248 131.887 128.349  1.00  0.00     0.010 C 
ATOM     10  C   UNL     1     121.853 133.689 129.396  1.00  0.00     0.010 C 
ENDBRANCH   5   8
BRANCH   5  11
ATOM     11  O   UNL     1     121.108 131.303 130.698  1.00  0.00    -0.389 OA
ATOM     12  H   UNL     1     120.260 131.547 131.153  1.00  0.00     0.211 HD
ENDBRANCH   5  11
TORSDOF 2
ENDMDL
MODEL 9
REMARK VINA RESULT:    -4.377     13.593     14.873
REMARK INTER + INTRA:          -4.899
REMARK INTER:                  -4.750
REMARK INTRA:                  -0.150
REMARK UNBOUND:                -0.138
REMARK SMILES CC1=CC[C@](O)(C(C)C)CC1
REMARK SMILES IDX 1 1 2 2 3 3 4 4 5 5 10 6 11 7 7 8 8 9 9 10 6 11
REMARK H PARENT 6 12
REMARK Flexibility Score: inf
ROOT
ATOM      1  C   UNL     1     117.392 127.914 132.488  1.00  0.00     0.039 C 
ATOM      2  C   UNL     1     117.557 127.251 131.148  1.00  0.00    -0.077 C 
ATOM      3  C   UNL     1     117.233 125.948 131.018  1.00  0.00    -0.025 C 
ATOM      4  C   UNL     1     117.419 125.185 129.730  1.00  0.00     0.062 C 
ATOM      5  C   UNL     1     117.358 126.105 128.486  1.00  0.00     0.071 C 
ATOM      6  C   UNL     1     118.356 127.272 128.727  1.00  0.00     0.040 C 
ATOM      7  C   UNL     1     117.959 128.100 129.958  1.00  0.00     0.033 C 
ENDROOT
BRANCH   5   8
ATOM      8  C   UNL     1     117.683 125.281 127.183  1.00  0.00     0.015 C 
ATOM      9  C   UNL     1     117.246 123.803 127.240  1.00  0.00     0.010 C 
ATOM     10  C   UNL     1     119.172 125.344 126.790  1.00  0.00     0.010 C 
ENDBRANCH   5   8
BRANCH   5  11
ATOM     11  O   UNL     1     116.035 126.592 128.407  1.00  0.00    -0.389 OA
ATOM     12  H   UNL     1     115.407 125.826 128.480  1.00  0.00     0.211 HD
ENDBRANCH   5  11
TORSDOF 2
ENDMDL
