MODEL 1
REMARK VINA RESULT:    -4.791      0.000      0.000
REMARK INTER + INTRA:          -5.198
REMARK INTER:                  -5.071
REMARK INTRA:                  -0.127
REMARK UNBOUND:                -0.127
REMARK SMILES C=C(C)[C@H]1CC=C(C)CC1
REMARK SMILES IDX 8 1 7 2 6 3 5 4 4 5 10 6 9 7 2 8 1 9 3 10
REMARK H PARENT
REMARK Flexibility Score: inf
ROOT
ATOM      1  C   UNL     1      -2.918 -45.564 -17.671  1.00  0.00     0.039 C 
ATOM      2  C   UNL     1      -1.477 -45.157 -17.534  1.00  0.00    -0.077 C 
ATOM      3  C   UNL     1      -0.531 -46.117 -17.436  1.00  0.00    -0.027 C 
ATOM      4  C   UNL     1       0.933 -45.810 -17.243  1.00  0.00     0.035 C 
ATOM      5  C   UNL     1       1.299 -44.393 -17.717  1.00  0.00     0.018 C 
ATOM      6  C   UNL     1       0.299 -43.377 -17.144  1.00  0.00     0.013 C 
ATOM      7  C   UNL     1      -1.117 -43.688 -17.645  1.00  0.00     0.031 C 
ENDROOT
BRANCH   5   8
ATOM      8  C   UNL     1       2.736 -44.035 -17.358  1.00  0.00    -0.077 C 
ATOM      9  C   UNL     1       3.385 -43.036 -17.980  1.00  0.00     0.008 C 
ATOM     10  C   UNL     1       3.461 -44.809 -16.288  1.00  0.00     0.039 C 
ENDBRANCH   5   8
TORSDOF 1
ENDMDL
MODEL 2
REMARK VINA RESULT:    -4.686      1.130      4.500
REMARK INTER + INTRA:          -5.086
REMARK INTER:                  -4.965
REMARK INTRA:                  -0.122
REMARK UNBOUND:                -0.127
REMARK SMILES C=C(C)[C@H]1CC=C(C)CC1
REMARK SMILES IDX 8 1 7 2 6 3 5 4 4 5 10 6 9 7 2 8 1 9 3 10
REMARK H PARENT
REMARK Flexibility Score: inf
ROOT
ATOM      1  C   UNL     1       3.646 -43.088 -18.121  1.00  0.00     0.039 C 
ATOM      2  C   UNL     1       2.274 -43.584 -17.757  1.00  0.00    -0.077 C 
ATOM      3  C   UNL     1       1.193 -42.918 -18.218  1.00  0.00    -0.027 C 
ATOM      4  C   UNL     1      -0.222 -43.305 -17.866  1.00  0.00     0.035 C 
ATOM      5  C   UNL     1      -0.332 -44.778 -17.433  1.00  0.00     0.018 C 
ATOM      6  C   UNL     1       0.751 -45.097 -16.392  1.00  0.00     0.013 C 
ATOM      7  C   UNL     1       2.144 -44.890 -16.997  1.00  0.00     0.031 C 
ENDROOT
BRANCH   5   8
ATOM      8  C   UNL     1      -1.727 -45.106 -16.915  1.00  0.00    -0.077 C 
ATOM      9  C   UNL     1      -2.699 -45.528 -17.742  1.00  0.00     0.008 C 
ATOM     10  C   UNL     1      -2.043 -44.956 -15.450  1.00  0.00     0.039 C 
ENDBRANCH   5   8
TORSDOF 1
ENDMDL
MODEL 3
REMARK VINA RESULT:    -4.560      1.016      1.990
REMARK INTER + INTRA:          -4.953
REMARK INTER:                  -4.828
REMARK INTRA:                  -0.125
REMARK UNBOUND:                -0.127
REMARK SMILES C=C(C)[C@H]1CC=C(C)CC1
REMARK SMILES IDX 8 1 7 2 6 3 5 4 4 5 10 6 9 7 2 8 1 9 3 10
REMARK H PARENT
REMARK Flexibility Score: inf
ROOT
ATOM      1  C   UNL     1      -2.681 -45.980 -17.827  1.00  0.00     0.039 C 
ATOM      2  C   UNL     1      -1.406 -45.194 -17.690  1.00  0.00    -0.077 C 
ATOM      3  C   UNL     1      -1.455 -43.847 -17.775  1.00  0.00    -0.027 C 
ATOM      4  C   UNL     1      -0.227 -42.974 -17.703  1.00  0.00     0.035 C 
ATOM      5  C   UNL     1       0.944 -43.674 -16.990  1.00  0.00     0.018 C 
ATOM      6  C   UNL     1       1.133 -45.086 -17.562  1.00  0.00     0.013 C 
ATOM      7  C   UNL     1      -0.128 -45.926 -17.327  1.00  0.00     0.031 C 
ENDROOT
BRANCH   5   8
ATOM      8  C   UNL     1       2.225 -42.853 -17.078  1.00  0.00    -0.077 C 
ATOM      9  C   UNL     1       3.180 -43.141 -17.978  1.00  0.00     0.008 C 
ATOM     10  C   UNL     1       2.445 -41.695 -16.140  1.00  0.00     0.039 C 
ENDBRANCH   5   8
TORSDOF 1
ENDMDL
MODEL 4
REMARK VINA RESULT:    -4.504      1.727      4.363
REMARK INTER + INTRA:          -4.894
REMARK INTER:                  -4.773
REMARK INTRA:                  -0.121
REMARK UNBOUND:                -0.127
REMARK SMILES C=C(C)[C@H]1CC=C(C)CC1
REMARK SMILES IDX 8 1 7 2 6 3 5 4 4 5 10 6 9 7 2 8 1 9 3 10
REMARK H PARENT
REMARK Flexibility Score: inf
ROOT
ATOM      1  C   UNL     1       3.759 -46.404 -15.352  1.00  0.00     0.039 C 
ATOM      2  C   UNL     1       2.430 -45.956 -15.895  1.00  0.00    -0.077 C 
ATOM      3  C   UNL     1       2.035 -46.400 -17.108  1.00  0.00    -0.027 C 
ATOM      4  C   UNL     1       0.745 -45.966 -17.761  1.00  0.00     0.035 C 
ATOM      5  C   UNL     1      -0.284 -45.459 -16.736  1.00  0.00     0.018 C 
ATOM      6  C   UNL     1       0.380 -44.453 -15.784  1.00  0.00     0.013 C 
ATOM      7  C   UNL     1       1.517 -45.130 -15.009  1.00  0.00     0.031 C 
ENDROOT
BRANCH   5   8
ATOM      8  C   UNL     1      -1.510 -44.864 -17.420  1.00  0.00    -0.077 C 
ATOM      9  C   UNL     1      -2.620 -45.593 -17.623  1.00  0.00     0.008 C 
ATOM     10  C   UNL     1      -1.492 -43.433 -17.889  1.00  0.00     0.039 C 
ENDBRANCH   5   8
TORSDOF 1
ENDMDL
MODEL 5
REMARK VINA RESULT:    -4.461     13.739     15.913
REMARK INTER + INTRA:          -4.849
REMARK INTER:                  -4.719
REMARK INTRA:                  -0.130
REMARK UNBOUND:                -0.127
REMARK SMILES C=C(C)[C@H]1CC=C(C)CC1
REMARK SMILES IDX 8 1 7 2 6 3 5 4 4 5 10 6 9 7 2 8 1 9 3 10
REMARK H PARENT
REMARK Flexibility Score: inf
ROOT
ATOM      1  C   UNL     1       4.156 -32.751 -15.194  1.00  0.00     0.039 C 
ATOM      2  C   UNL     1       4.816 -31.537 -15.790  1.00  0.00    -0.077 C 
ATOM      3  C   UNL     1       4.404 -30.311 -15.403  1.00  0.00    -0.027 C 
ATOM      4  C   UNL     1       4.966 -29.035 -15.981  1.00  0.00     0.035 C 
ATOM      5  C   UNL     1       6.365 -29.238 -16.588  1.00  0.00     0.018 C 
ATOM      6  C   UNL     1       6.360 -30.469 -17.507  1.00  0.00     0.013 C 
ATOM      7  C   UNL     1       6.012 -31.728 -16.703  1.00  0.00     0.031 C 
ENDROOT
BRANCH   5   8
ATOM      8  C   UNL     1       6.844 -27.990 -17.320  1.00  0.00    -0.077 C 
ATOM      9  C   UNL     1       6.016 -26.960 -17.563  1.00  0.00     0.008 C 
ATOM     10  C   UNL     1       8.272 -27.894 -17.792  1.00  0.00     0.039 C 
ENDBRANCH   5   8
TORSDOF 1
ENDMDL
MODEL 6
REMARK VINA RESULT:    -4.414      1.450      4.286
REMARK INTER + INTRA:          -4.799
REMARK INTER:                  -4.676
REMARK INTRA:                  -0.123
REMARK UNBOUND:                -0.127
REMARK SMILES C=C(C)[C@H]1CC=C(C)CC1
REMARK SMILES IDX 8 1 7 2 6 3 5 4 4 5 10 6 9 7 2 8 1 9 3 10
REMARK H PARENT
REMARK Flexibility Score: inf
ROOT
ATOM      1  C   UNL     1       3.763 -46.675 -16.013  1.00  0.00     0.039 C 
ATOM      2  C   UNL     1       2.447 -46.072 -16.420  1.00  0.00    -0.077 C 
ATOM      3  C   UNL     1       2.086 -44.877 -15.903  1.00  0.00    -0.027 C 
ATOM      4  C   UNL     1       0.764 -44.217 -16.208  1.00  0.00     0.035 C 
ATOM      5  C   UNL     1       0.152 -44.720 -17.527  1.00  0.00     0.018 C 
ATOM      6  C   UNL     1       0.181 -46.255 -17.563  1.00  0.00     0.013 C 
ATOM      7  C   UNL     1       1.628 -46.759 -17.497  1.00  0.00     0.031 C 
ENDROOT
BRANCH   5   8
ATOM      8  C   UNL     1      -1.257 -44.177 -17.733  1.00  0.00    -0.077 C 
ATOM      9  C   UNL     1      -1.471 -42.894 -18.071  1.00  0.00     0.008 C 
ATOM     10  C   UNL     1      -2.448 -45.082 -17.554  1.00  0.00     0.039 C 
ENDBRANCH   5   8
TORSDOF 1
ENDMDL
MODEL 7
REMARK VINA RESULT:    -4.356      1.652      4.433
REMARK INTER + INTRA:          -4.738
REMARK INTER:                  -4.616
REMARK INTRA:                  -0.122
REMARK UNBOUND:                -0.127
REMARK SMILES C=C(C)[C@H]1CC=C(C)CC1
REMARK SMILES IDX 8 1 7 2 6 3 5 4 4 5 10 6 9 7 2 8 1 9 3 10
REMARK H PARENT
REMARK Flexibility Score: inf
ROOT
ATOM      1  C   UNL     1       1.693 -40.385 -15.984  1.00  0.00     0.039 C 
ATOM      2  C   UNL     1       0.937 -41.634 -16.348  1.00  0.00    -0.077 C 
ATOM      3  C   UNL     1      -0.006 -42.099 -15.501  1.00  0.00    -0.027 C 
ATOM      4  C   UNL     1      -0.779 -43.371 -15.751  1.00  0.00     0.035 C 
ATOM      5  C   UNL     1      -0.803 -43.754 -17.242  1.00  0.00     0.018 C 
ATOM      6  C   UNL     1       0.618 -43.684 -17.820  1.00  0.00     0.013 C 
ATOM      7  C   UNL     1       1.164 -42.255 -17.713  1.00  0.00     0.031 C 
ENDROOT
BRANCH   5   8
ATOM      8  C   UNL     1      -1.434 -45.124 -17.458  1.00  0.00    -0.077 C 
ATOM      9  C   UNL     1      -2.765 -45.272 -17.565  1.00  0.00     0.008 C 
ATOM     10  C   UNL     1      -0.563 -46.350 -17.551  1.00  0.00     0.039 C 
ENDBRANCH   5   8
TORSDOF 1
ENDMDL
MODEL 8
REMARK VINA RESULT:    -4.327     13.710     15.811
REMARK INTER + INTRA:          -4.707
REMARK INTER:                  -4.577
REMARK INTRA:                  -0.130
REMARK UNBOUND:                -0.127
REMARK SMILES C=C(C)[C@H]1CC=C(C)CC1
REMARK SMILES IDX 8 1 7 2 6 3 5 4 4 5 10 6 9 7 2 8 1 9 3 10
REMARK H PARENT
REMARK Flexibility Score: inf
ROOT
ATOM      1  C   UNL     1       6.728 -32.705 -19.588  1.00  0.00     0.039 C 
ATOM      2  C   UNL     1       6.501 -31.676 -18.515  1.00  0.00    -0.077 C 
ATOM      3  C   UNL     1       7.361 -30.639 -18.410  1.00  0.00    -0.027 C 
ATOM      4  C   UNL     1       7.250 -29.586 -17.336  1.00  0.00     0.035 C 
ATOM      5  C   UNL     1       5.825 -29.486 -16.763  1.00  0.00     0.018 C 
ATOM      6  C   UNL     1       5.305 -30.888 -16.413  1.00  0.00     0.013 C 
ATOM      7  C   UNL     1       5.243 -31.760 -17.672  1.00  0.00     0.031 C 
ENDROOT
BRANCH   5   8
ATOM      8  C   UNL     1       5.767 -28.546 -15.565  1.00  0.00    -0.077 C 
ATOM      9  C   UNL     1       6.883 -28.021 -15.033  1.00  0.00     0.008 C 
ATOM     10  C   UNL     1       4.439 -28.192 -14.947  1.00  0.00     0.039 C 
ENDBRANCH   5   8
TORSDOF 1
ENDMDL
