MODEL 1
REMARK VINA RESULT:    -5.063      0.000      0.000
REMARK INTER + INTRA:          -5.705
REMARK INTER:                  -5.655
REMARK INTRA:                  -0.050
REMARK UNBOUND:                -0.050
REMARK SMILES COc1cc2ccc(=O)oc2c(O)c1O
REMARK SMILES IDX 3 1 14 2 12 3 11 4 5 5 4 6 6 7 7 8 8 9 9 10 10 11 2 12 1 13
REMARK SMILES IDX 15 14 13 16
REMARK H PARENT 15 15 13 17
REMARK Flexibility Score: inf
ROOT
ATOM      1  C   UNL     1      60.756   3.951  53.131  1.00  0.00     0.165 A 
ATOM      2  C   UNL     1      59.850   3.192  52.363  1.00  0.00     0.204 A 
ATOM      3  C   UNL     1      58.710   2.630  52.966  1.00  0.00     0.205 A 
ATOM      4  C   UNL     1      58.471   2.824  54.331  1.00  0.00     0.184 A 
ATOM      5  C   UNL     1      59.375   3.584  55.102  1.00  0.00     0.025 A 
ATOM      6  C   UNL     1      60.510   4.143  54.504  1.00  0.00     0.062 A 
ATOM      7  C   UNL     1      59.107   3.760  56.464  1.00  0.00     0.020 A 
ATOM      8  C   UNL     1      57.964   3.184  57.017  1.00  0.00     0.094 A 
ATOM      9  C   UNL     1      57.112   2.444  56.192  1.00  0.00     0.336 A 
ATOM     10  O   UNL     1      56.075   1.915  56.672  1.00  0.00    -0.246 OA
ATOM     11  O   UNL     1      57.391   2.292  54.900  1.00  0.00    -0.419 OA
ENDROOT
BRANCH   1  12
ATOM     12  O   UNL     1      61.885   4.498  52.498  1.00  0.00    -0.493 OA
ATOM     13  C   UNL     1      62.625   5.612  52.984  1.00  0.00     0.278 C 
ENDBRANCH   1  12
BRANCH   2  14
ATOM     14  O   UNL     1      60.074   2.988  51.000  1.00  0.00    -0.502 OA
ATOM     15  H   UNL     1      59.369   2.597  50.387  1.00  0.00     0.293 HD
ENDBRANCH   2  14
BRANCH   3  16
ATOM     16  O   UNL     1      57.805   1.876  52.218  1.00  0.00    -0.502 OA
ATOM     17  H   UNL     1      57.006   2.292  51.755  1.00  0.00     0.293 HD
ENDBRANCH   3  16
TORSDOF 3
ENDMDL
MODEL 2
REMARK VINA RESULT:    -4.765      1.934      4.843
REMARK INTER + INTRA:          -5.372
REMARK INTER:                  -5.323
REMARK INTRA:                  -0.049
REMARK UNBOUND:                -0.050
REMARK SMILES COc1cc2ccc(=O)oc2c(O)c1O
REMARK SMILES IDX 3 1 14 2 12 3 11 4 5 5 4 6 6 7 7 8 8 9 9 10 10 11 2 12 1 13
REMARK SMILES IDX 15 14 13 16
REMARK H PARENT 15 15 13 17
REMARK Flexibility Score: inf
ROOT
ATOM      1  C   UNL     1      58.655   3.477  57.704  1.00  0.00     0.165 A 
ATOM      2  C   UNL     1      57.408   3.857  57.166  1.00  0.00     0.204 A 
ATOM      3  C   UNL     1      57.200   3.831  55.775  1.00  0.00     0.205 A 
ATOM      4  C   UNL     1      58.230   3.425  54.920  1.00  0.00     0.184 A 
ATOM      5  C   UNL     1      59.479   3.043  55.454  1.00  0.00     0.025 A 
ATOM      6  C   UNL     1      59.688   3.070  56.838  1.00  0.00     0.062 A 
ATOM      7  C   UNL     1      60.488   2.643  54.572  1.00  0.00     0.020 A 
ATOM      8  C   UNL     1      60.236   2.633  53.201  1.00  0.00     0.094 A 
ATOM      9  C   UNL     1      58.974   3.025  52.742  1.00  0.00     0.336 A 
ATOM     10  O   UNL     1      58.725   3.023  51.508  1.00  0.00    -0.246 OA
ATOM     11  O   UNL     1      58.032   3.401  53.603  1.00  0.00    -0.419 OA
ENDROOT
BRANCH   1  12
ATOM     12  O   UNL     1      58.829   3.515  59.097  1.00  0.00    -0.493 OA
ATOM     13  C   UNL     1      59.979   3.033  59.782  1.00  0.00     0.278 C 
ENDBRANCH   1  12
BRANCH   2  14
ATOM     14  O   UNL     1      56.370   4.265  58.005  1.00  0.00    -0.502 OA
ATOM     15  H   UNL     1      56.533   4.793  58.854  1.00  0.00     0.293 HD
ENDBRANCH   2  14
BRANCH   3  16
ATOM     16  O   UNL     1      55.971   4.205  55.229  1.00  0.00    -0.502 OA
ATOM     17  H   UNL     1      55.363   3.544  54.761  1.00  0.00     0.293 HD
ENDBRANCH   3  16
TORSDOF 3
ENDMDL
MODEL 3
REMARK VINA RESULT:    -4.573      1.912      5.531
REMARK INTER + INTRA:          -5.158
REMARK INTER:                  -5.103
REMARK INTRA:                  -0.054
REMARK UNBOUND:                -0.050
REMARK SMILES COc1cc2ccc(=O)oc2c(O)c1O
REMARK SMILES IDX 3 1 14 2 12 3 11 4 5 5 4 6 6 7 7 8 8 9 9 10 10 11 2 12 1 13
REMARK SMILES IDX 15 14 13 16
REMARK H PARENT 15 15 13 17
REMARK Flexibility Score: inf
ROOT
ATOM      1  C   UNL     1      57.092   3.153  56.584  1.00  0.00     0.165 A 
ATOM      2  C   UNL     1      57.721   4.363  56.944  1.00  0.00     0.204 A 
ATOM      3  C   UNL     1      58.832   4.827  56.215  1.00  0.00     0.205 A 
ATOM      4  C   UNL     1      59.315   4.089  55.129  1.00  0.00     0.184 A 
ATOM      5  C   UNL     1      58.689   2.879  54.765  1.00  0.00     0.025 A 
ATOM      6  C   UNL     1      57.584   2.415  55.490  1.00  0.00     0.062 A 
ATOM      7  C   UNL     1      59.196   2.164  53.675  1.00  0.00     0.020 A 
ATOM      8  C   UNL     1      60.299   2.664  52.983  1.00  0.00     0.094 A 
ATOM      9  C   UNL     1      60.869   3.871  53.399  1.00  0.00     0.336 A 
ATOM     10  O   UNL     1      61.865   4.339  52.787  1.00  0.00    -0.246 OA
ATOM     11  O   UNL     1      60.366   4.529  54.440  1.00  0.00    -0.419 OA
ENDROOT
BRANCH   1  12
ATOM     12  O   UNL     1      55.987   2.719  57.333  1.00  0.00    -0.493 OA
ATOM     13  C   UNL     1      56.065   1.875  58.477  1.00  0.00     0.278 C 
ENDBRANCH   1  12
BRANCH   2  14
ATOM     14  O   UNL     1      57.252   5.111  58.025  1.00  0.00    -0.502 OA
ATOM     15  H   UNL     1      57.719   5.949  58.348  1.00  0.00     0.293 HD
ENDBRANCH   2  14
BRANCH   3  16
ATOM     16  O   UNL     1      59.464   6.022  56.560  1.00  0.00    -0.502 OA
ATOM     17  H   UNL     1      60.235   6.057  57.215  1.00  0.00     0.293 HD
ENDBRANCH   3  16
TORSDOF 3
ENDMDL
MODEL 4
REMARK VINA RESULT:    -4.551      2.390      5.491
REMARK INTER + INTRA:          -5.133
REMARK INTER:                  -5.069
REMARK INTRA:                  -0.064
REMARK UNBOUND:                -0.050
REMARK SMILES COc1cc2ccc(=O)oc2c(O)c1O
REMARK SMILES IDX 3 1 14 2 12 3 11 4 5 5 4 6 6 7 7 8 8 9 9 10 10 11 2 12 1 13
REMARK SMILES IDX 15 14 13 16
REMARK H PARENT 15 15 13 17
REMARK Flexibility Score: inf
ROOT
ATOM      1  C   UNL     1      56.752   3.641  57.586  1.00  0.00     0.165 A 
ATOM      2  C   UNL     1      57.889   4.425  57.303  1.00  0.00     0.204 A 
ATOM      3  C   UNL     1      58.474   4.387  56.023  1.00  0.00     0.205 A 
ATOM      4  C   UNL     1      57.926   3.571  55.027  1.00  0.00     0.184 A 
ATOM      5  C   UNL     1      56.788   2.786  55.306  1.00  0.00     0.025 A 
ATOM      6  C   UNL     1      56.206   2.822  56.579  1.00  0.00     0.062 A 
ATOM      7  C   UNL     1      56.265   1.982  54.289  1.00  0.00     0.020 A 
ATOM      8  C   UNL     1      56.877   1.977  53.036  1.00  0.00     0.094 A 
ATOM      9  C   UNL     1      58.003   2.781  52.830  1.00  0.00     0.336 A 
ATOM     10  O   UNL     1      58.571   2.791  51.707  1.00  0.00    -0.246 OA
ATOM     11  O   UNL     1      58.479   3.536  53.816  1.00  0.00    -0.419 OA
ENDROOT
BRANCH   1  12
ATOM     12  O   UNL     1      56.194   3.703  58.874  1.00  0.00    -0.493 OA
ATOM     13  C   UNL     1      56.091   2.597  59.764  1.00  0.00     0.278 C 
ENDBRANCH   1  12
BRANCH   2  14
ATOM     14  O   UNL     1      58.448   5.243  58.285  1.00  0.00    -0.502 OA
ATOM     15  H   UNL     1      58.456   4.987  59.265  1.00  0.00     0.293 HD
ENDBRANCH   2  14
BRANCH   3  16
ATOM     16  O   UNL     1      59.599   5.157  55.728  1.00  0.00    -0.502 OA
ATOM     17  H   UNL     1      59.538   6.036  55.229  1.00  0.00     0.293 HD
ENDBRANCH   3  16
TORSDOF 3
ENDMDL
MODEL 5
REMARK VINA RESULT:    -4.077      2.337      3.811
REMARK INTER + INTRA:          -4.604
REMARK INTER:                  -4.543
REMARK INTRA:                  -0.061
REMARK UNBOUND:                -0.050
REMARK SMILES COc1cc2ccc(=O)oc2c(O)c1O
REMARK SMILES IDX 3 1 14 2 12 3 11 4 5 5 4 6 6 7 7 8 8 9 9 10 10 11 2 12 1 13
REMARK SMILES IDX 15 14 13 16
REMARK H PARENT 15 15 13 17
REMARK Flexibility Score: inf
ROOT
ATOM      1  C   UNL     1      58.947   3.340  54.717  1.00  0.00     0.165 A 
ATOM      2  C   UNL     1      59.394   4.459  55.447  1.00  0.00     0.204 A 
ATOM      3  C   UNL     1      58.841   4.749  56.708  1.00  0.00     0.205 A 
ATOM      4  C   UNL     1      57.844   3.924  57.242  1.00  0.00     0.184 A 
ATOM      5  C   UNL     1      57.394   2.802  56.515  1.00  0.00     0.025 A 
ATOM      6  C   UNL     1      57.943   2.514  55.259  1.00  0.00     0.062 A 
ATOM      7  C   UNL     1      56.397   1.998  57.076  1.00  0.00     0.020 A 
ATOM      8  C   UNL     1      55.878   2.324  58.329  1.00  0.00     0.094 A 
ATOM      9  C   UNL     1      56.372   3.451  58.993  1.00  0.00     0.336 A 
ATOM     10  O   UNL     1      55.918   3.763  60.125  1.00  0.00    -0.246 OA
ATOM     11  O   UNL     1      57.321   4.199  58.435  1.00  0.00    -0.419 OA
ENDROOT
BRANCH   1  12
ATOM     12  O   UNL     1      59.520   3.080  53.461  1.00  0.00    -0.493 OA
ATOM     13  C   UNL     1      58.790   2.973  52.244  1.00  0.00     0.278 C 
ENDBRANCH   1  12
BRANCH   2  14
ATOM     14  O   UNL     1      60.387   5.292  54.929  1.00  0.00    -0.502 OA
ATOM     15  H   UNL     1      60.500   6.253  55.228  1.00  0.00     0.293 HD
ENDBRANCH   2  14
BRANCH   3  16
ATOM     16  O   UNL     1      59.274   5.853  57.443  1.00  0.00    -0.502 OA
ATOM     17  H   UNL     1      58.780   6.738  57.432  1.00  0.00     0.293 HD
ENDBRANCH   3  16
TORSDOF 3
ENDMDL
MODEL 6
REMARK VINA RESULT:    -4.020      2.585      3.932
REMARK INTER + INTRA:          -4.540
REMARK INTER:                  -4.473
REMARK INTRA:                  -0.067
REMARK UNBOUND:                -0.050
REMARK SMILES COc1cc2ccc(=O)oc2c(O)c1O
REMARK SMILES IDX 3 1 14 2 12 3 11 4 5 5 4 6 6 7 7 8 8 9 9 10 10 11 2 12 1 13
REMARK SMILES IDX 15 14 13 16
REMARK H PARENT 15 15 13 17
REMARK Flexibility Score: inf
ROOT
ATOM      1  C   UNL     1      57.816   3.225  54.443  1.00  0.00     0.165 A 
ATOM      2  C   UNL     1      59.071   2.583  54.444  1.00  0.00     0.204 A 
ATOM      3  C   UNL     1      59.826   2.507  55.629  1.00  0.00     0.205 A 
ATOM      4  C   UNL     1      59.332   3.069  56.812  1.00  0.00     0.184 A 
ATOM      5  C   UNL     1      58.077   3.712  56.815  1.00  0.00     0.025 A 
ATOM      6  C   UNL     1      57.325   3.789  55.637  1.00  0.00     0.062 A 
ATOM      7  C   UNL     1      57.612   4.263  58.014  1.00  0.00     0.020 A 
ATOM      8  C   UNL     1      58.395   4.163  59.163  1.00  0.00     0.094 A 
ATOM      9  C   UNL     1      59.629   3.512  59.086  1.00  0.00     0.336 A 
ATOM     10  O   UNL     1      60.352   3.411  60.112  1.00  0.00    -0.246 OA
ATOM     11  O   UNL     1      60.048   2.997  57.932  1.00  0.00    -0.419 OA
ENDROOT
BRANCH   1  12
ATOM     12  O   UNL     1      57.089   3.283  53.243  1.00  0.00    -0.493 OA
ATOM     13  C   UNL     1      55.877   2.578  52.997  1.00  0.00     0.278 C 
ENDBRANCH   1  12
BRANCH   2  14
ATOM     14  O   UNL     1      59.578   2.018  53.273  1.00  0.00    -0.502 OA
ATOM     15  H   UNL     1      59.025   1.927  52.430  1.00  0.00     0.293 HD
ENDBRANCH   2  14
BRANCH   3  16
ATOM     16  O   UNL     1      61.070   1.875  55.645  1.00  0.00    -0.502 OA
ATOM     17  H   UNL     1      61.922   2.350  55.373  1.00  0.00     0.293 HD
ENDBRANCH   3  16
TORSDOF 3
ENDMDL
MODEL 7
REMARK VINA RESULT:    -3.749      1.581      2.349
REMARK INTER + INTRA:          -4.237
REMARK INTER:                  -4.186
REMARK INTRA:                  -0.051
REMARK UNBOUND:                -0.050
REMARK SMILES COc1cc2ccc(=O)oc2c(O)c1O
REMARK SMILES IDX 3 1 14 2 12 3 11 4 5 5 4 6 6 7 7 8 8 9 9 10 10 11 2 12 1 13
REMARK SMILES IDX 15 14 13 16
REMARK H PARENT 15 15 13 17
REMARK Flexibility Score: inf
ROOT
ATOM      1  C   UNL     1      59.489   3.343  54.109  1.00  0.00     0.165 A 
ATOM      2  C   UNL     1      58.089   3.293  53.960  1.00  0.00     0.204 A 
ATOM      3  C   UNL     1      57.264   3.080  55.080  1.00  0.00     0.205 A 
ATOM      4  C   UNL     1      57.834   2.919  56.348  1.00  0.00     0.184 A 
ATOM      5  C   UNL     1      59.235   2.969  56.502  1.00  0.00     0.025 A 
ATOM      6  C   UNL     1      60.057   3.180  55.388  1.00  0.00     0.062 A 
ATOM      7  C   UNL     1      59.773   2.804  57.783  1.00  0.00     0.020 A 
ATOM      8  C   UNL     1      58.917   2.596  58.864  1.00  0.00     0.094 A 
ATOM      9  C   UNL     1      57.538   2.558  58.636  1.00  0.00     0.336 A 
ATOM     10  O   UNL     1      56.747   2.371  59.599  1.00  0.00    -0.246 OA
ATOM     11  O   UNL     1      57.053   2.718  57.408  1.00  0.00    -0.419 OA
ENDROOT
BRANCH   1  12
ATOM     12  O   UNL     1      60.283   3.557  52.970  1.00  0.00    -0.493 OA
ATOM     13  C   UNL     1      61.526   4.250  52.968  1.00  0.00     0.278 C 
ENDBRANCH   1  12
BRANCH   2  14
ATOM     14  O   UNL     1      57.505   3.452  52.702  1.00  0.00    -0.502 OA
ATOM     15  H   UNL     1      56.510   3.337  52.546  1.00  0.00     0.293 HD
ENDBRANCH   2  14
BRANCH   3  16
ATOM     16  O   UNL     1      55.876   3.028  54.947  1.00  0.00    -0.502 OA
ATOM     17  H   UNL     1      55.404   3.303  54.094  1.00  0.00     0.293 HD
ENDBRANCH   3  16
TORSDOF 3
ENDMDL
MODEL 8
REMARK VINA RESULT:    -3.255      2.147      5.386
REMARK INTER + INTRA:          -3.685
REMARK INTER:                  -3.861
REMARK INTRA:                   0.176
REMARK UNBOUND:                -0.050
REMARK SMILES COc1cc2ccc(=O)oc2c(O)c1O
REMARK SMILES IDX 3 1 14 2 12 3 11 4 5 5 4 6 6 7 7 8 8 9 9 10 10 11 2 12 1 13
REMARK SMILES IDX 15 14 13 16
REMARK H PARENT 15 15 13 17
REMARK Flexibility Score: inf
ROOT
ATOM      1  C   UNL     1      57.524   3.534  57.301  1.00  0.00     0.165 A 
ATOM      2  C   UNL     1      58.739   2.930  57.684  1.00  0.00     0.204 A 
ATOM      3  C   UNL     1      59.643   2.476  56.706  1.00  0.00     0.205 A 
ATOM      4  C   UNL     1      59.339   2.625  55.348  1.00  0.00     0.184 A 
ATOM      5  C   UNL     1      58.124   3.229  54.961  1.00  0.00     0.025 A 
ATOM      6  C   UNL     1      57.224   3.680  55.933  1.00  0.00     0.062 A 
ATOM      7  C   UNL     1      57.850   3.363  53.596  1.00  0.00     0.020 A 
ATOM      8  C   UNL     1      58.776   2.898  52.662  1.00  0.00     0.094 A 
ATOM      9  C   UNL     1      59.959   2.310  53.119  1.00  0.00     0.336 A 
ATOM     10  O   UNL     1      60.809   1.883  52.292  1.00  0.00    -0.246 OA
ATOM     11  O   UNL     1      60.195   2.195  54.423  1.00  0.00    -0.419 OA
ENDROOT
BRANCH   1  12
ATOM     12  O   UNL     1      56.645   3.976  58.303  1.00  0.00    -0.493 OA
ATOM     13  C   UNL     1      56.001   3.126  59.247  1.00  0.00     0.278 C 
ENDBRANCH   1  12
BRANCH   2  14
ATOM     14  O   UNL     1      59.058   2.774  59.034  1.00  0.00    -0.502 OA
ATOM     15  H   UNL     1      58.413   2.366  59.700  1.00  0.00     0.293 HD
ENDBRANCH   2  14
BRANCH   3  16
ATOM     16  O   UNL     1      60.849   1.876  57.070  1.00  0.00    -0.502 OA
ATOM     17  H   UNL     1      61.281   2.034  57.973  1.00  0.00     0.293 HD
ENDBRANCH   3  16
TORSDOF 3
ENDMDL
MODEL 9
REMARK VINA RESULT:    -2.611      1.906      5.413
REMARK INTER + INTRA:          -2.966
REMARK INTER:                  -2.896
REMARK INTRA:                  -0.069
REMARK UNBOUND:                -0.050
REMARK SMILES COc1cc2ccc(=O)oc2c(O)c1O
REMARK SMILES IDX 3 1 14 2 12 3 11 4 5 5 4 6 6 7 7 8 8 9 9 10 10 11 2 12 1 13
REMARK SMILES IDX 15 14 13 16
REMARK H PARENT 15 15 13 17
REMARK Flexibility Score: inf
ROOT
ATOM      1  C   UNL     1      58.175   2.948  55.065  1.00  0.00     0.165 A 
ATOM      2  C   UNL     1      58.355   3.948  56.041  1.00  0.00     0.204 A 
ATOM      3  C   UNL     1      59.426   4.855  55.937  1.00  0.00     0.205 A 
ATOM      4  C   UNL     1      60.317   4.766  54.862  1.00  0.00     0.184 A 
ATOM      5  C   UNL     1      60.141   3.767  53.882  1.00  0.00     0.025 A 
ATOM      6  C   UNL     1      59.076   2.863  53.985  1.00  0.00     0.062 A 
ATOM      7  C   UNL     1      61.049   3.705  52.820  1.00  0.00     0.020 A 
ATOM      8  C   UNL     1      62.095   4.625  52.759  1.00  0.00     0.094 A 
ATOM      9  C   UNL     1      62.208   5.588  53.765  1.00  0.00     0.336 A 
ATOM     10  O   UNL     1      63.145   6.429  53.729  1.00  0.00    -0.246 OA
ATOM     11  O   UNL     1      61.330   5.624  54.765  1.00  0.00    -0.419 OA
ENDROOT
BRANCH   1  12
ATOM     12  O   UNL     1      57.096   2.059  55.199  1.00  0.00    -0.493 OA
ATOM     13  C   UNL     1      55.875   2.153  54.474  1.00  0.00     0.278 C 
ENDBRANCH   1  12
BRANCH   2  14
ATOM     14  O   UNL     1      57.475   4.050  57.120  1.00  0.00    -0.502 OA
ATOM     15  H   UNL     1      56.634   4.613  57.084  1.00  0.00     0.293 HD
ENDBRANCH   2  14
BRANCH   3  16
ATOM     16  O   UNL     1      59.616   5.850  56.897  1.00  0.00    -0.502 OA
ATOM     17  H   UNL     1      60.158   5.695  57.738  1.00  0.00     0.293 HD
ENDBRANCH   3  16
TORSDOF 3
ENDMDL
