MODEL 1
REMARK VINA RESULT:    -4.748      0.000      0.000
REMARK INTER + INTRA:          -4.748
REMARK INTER:                  -4.748
REMARK INTRA:                   0.000
REMARK UNBOUND:                 0.000
REMARK SMILES CC(C)=C1CC[C@@H](C)CC1=O
REMARK SMILES IDX 8 1 7 2 6 3 5 4 4 5 2 6 1 7 3 8 10 9 11 10 9 11
REMARK H PARENT
REMARK Flexibility Score: inf
ROOT
ATOM      1  C   UNL     1      14.797   9.475  49.549  1.00  0.00     0.008 C 
ATOM      2  C   UNL     1      16.102  10.136  50.005  1.00  0.00    -0.006 C 
ATOM      3  C   UNL     1      16.026  10.515  51.493  1.00  0.00     0.008 C 
ATOM      4  C   UNL     1      17.360  11.085  51.992  1.00  0.00     0.039 C 
ATOM      5  C   UNL     1      17.869  12.228  51.123  1.00  0.00    -0.006 C 
ATOM      6  C   UNL     1      18.599  13.252  51.654  1.00  0.00    -0.070 C 
ATOM      7  C   UNL     1      19.060  14.420  50.814  1.00  0.00     0.039 C 
ATOM      8  C   UNL     1      18.947  13.286  53.125  1.00  0.00     0.039 C 
ATOM      9  C   UNL     1      17.622  12.096  49.657  1.00  0.00     0.159 C 
ATOM     10  O   UNL     1      18.430  12.567  48.812  1.00  0.00    -0.295 OA
ATOM     11  C   UNL     1      16.396  11.386  49.160  1.00  0.00     0.084 C 
ENDROOT
TORSDOF 0
ENDMDL
MODEL 2
REMARK VINA RESULT:    -4.632      1.815      4.819
REMARK INTER + INTRA:          -4.632
REMARK INTER:                  -4.632
REMARK INTRA:                   0.000
REMARK UNBOUND:                 0.000
REMARK SMILES CC(C)=C1CC[C@@H](C)CC1=O
REMARK SMILES IDX 8 1 7 2 6 3 5 4 4 5 2 6 1 7 3 8 10 9 11 10 9 11
REMARK H PARENT
REMARK Flexibility Score: inf
ROOT
ATOM      1  C   UNL     1      19.125  16.488  52.407  1.00  0.00     0.008 C 
ATOM      2  C   UNL     1      18.984  15.064  51.856  1.00  0.00    -0.006 C 
ATOM      3  C   UNL     1      17.834  14.990  50.838  1.00  0.00     0.008 C 
ATOM      4  C   UNL     1      17.744  13.597  50.200  1.00  0.00     0.039 C 
ATOM      5  C   UNL     1      17.682  12.483  51.236  1.00  0.00    -0.006 C 
ATOM      6  C   UNL     1      16.993  11.328  50.995  1.00  0.00    -0.070 C 
ATOM      7  C   UNL     1      16.875  10.240  52.036  1.00  0.00     0.039 C 
ATOM      8  C   UNL     1      16.279  11.101  49.682  1.00  0.00     0.039 C 
ATOM      9  C   UNL     1      18.505  12.683  52.465  1.00  0.00     0.159 C 
ATOM     10  O   UNL     1      19.024  11.707  53.071  1.00  0.00    -0.295 OA
ATOM     11  C   UNL     1      18.738  14.066  52.998  1.00  0.00     0.084 C 
ENDROOT
TORSDOF 0
ENDMDL
MODEL 3
REMARK VINA RESULT:    -4.591      1.722      2.490
REMARK INTER + INTRA:          -4.591
REMARK INTER:                  -4.591
REMARK INTRA:                   0.000
REMARK UNBOUND:                 0.000
REMARK SMILES CC(C)=C1CC[C@@H](C)CC1=O
REMARK SMILES IDX 8 1 7 2 6 3 5 4 4 5 2 6 1 7 3 8 10 9 11 10 9 11
REMARK H PARENT
REMARK Flexibility Score: inf
ROOT
ATOM      1  C   UNL     1      15.402  10.233  47.712  1.00  0.00     0.008 C 
ATOM      2  C   UNL     1      15.764  10.990  48.995  1.00  0.00    -0.006 C 
ATOM      3  C   UNL     1      16.687  12.178  48.680  1.00  0.00     0.008 C 
ATOM      4  C   UNL     1      16.977  13.007  49.938  1.00  0.00     0.039 C 
ATOM      5  C   UNL     1      17.492  12.157  51.092  1.00  0.00    -0.006 C 
ATOM      6  C   UNL     1      18.372  12.660  52.006  1.00  0.00    -0.070 C 
ATOM      7  C   UNL     1      18.934  11.810  53.121  1.00  0.00     0.039 C 
ATOM      8  C   UNL     1      18.860  14.089  51.920  1.00  0.00     0.039 C 
ATOM      9  C   UNL     1      16.890  10.797  51.223  1.00  0.00     0.159 C 
ATOM     10  O   UNL     1      16.737  10.255  52.351  1.00  0.00    -0.295 OA
ATOM     11  C   UNL     1      16.446  10.049  50.000  1.00  0.00     0.084 C 
ENDROOT
TORSDOF 0
ENDMDL
MODEL 4
REMARK VINA RESULT:    -4.572     16.360     17.631
REMARK INTER + INTRA:          -4.572
REMARK INTER:                  -4.572
REMARK INTRA:                   0.000
REMARK UNBOUND:                 0.000
REMARK SMILES CC(C)=C1CC[C@@H](C)CC1=O
REMARK SMILES IDX 8 1 7 2 6 3 5 4 4 5 2 6 1 7 3 8 10 9 11 10 9 11
REMARK H PARENT
REMARK Flexibility Score: inf
ROOT
ATOM      1  C   UNL     1      13.532  22.174  38.136  1.00  0.00     0.008 C 
ATOM      2  C   UNL     1      14.991  22.247  37.670  1.00  0.00    -0.006 C 
ATOM      3  C   UNL     1      15.081  22.887  36.275  1.00  0.00     0.008 C 
ATOM      4  C   UNL     1      16.540  23.061  35.835  1.00  0.00     0.039 C 
ATOM      5  C   UNL     1      17.340  21.770  35.939  1.00  0.00    -0.006 C 
ATOM      6  C   UNL     1      18.362  21.496  35.074  1.00  0.00    -0.070 C 
ATOM      7  C   UNL     1      19.124  20.194  35.130  1.00  0.00     0.039 C 
ATOM      8  C   UNL     1      18.752  22.474  33.989  1.00  0.00     0.039 C 
ATOM      9  C   UNL     1      17.017  20.890  37.100  1.00  0.00     0.159 C 
ATOM     10  O   UNL     1      17.901  20.178  37.648  1.00  0.00    -0.295 OA
ATOM     11  C   UNL     1      15.619  20.845  37.644  1.00  0.00     0.084 C 
ENDROOT
TORSDOF 0
ENDMDL
MODEL 5
REMARK VINA RESULT:    -4.501      1.253      4.100
REMARK INTER + INTRA:          -4.501
REMARK INTER:                  -4.501
REMARK INTRA:                   0.000
REMARK UNBOUND:                 0.000
REMARK SMILES CC(C)=C1CC[C@@H](C)CC1=O
REMARK SMILES IDX 8 1 7 2 6 3 5 4 4 5 2 6 1 7 3 8 10 9 11 10 9 11
REMARK H PARENT
REMARK Flexibility Score: inf
ROOT
ATOM      1  C   UNL     1      18.750  11.847  53.001  1.00  0.00     0.008 C 
ATOM      2  C   UNL     1      17.590  11.769  52.002  1.00  0.00    -0.006 C 
ATOM      3  C   UNL     1      17.054  10.331  51.906  1.00  0.00     0.008 C 
ATOM      4  C   UNL     1      15.828  10.253  50.988  1.00  0.00     0.039 C 
ATOM      5  C   UNL     1      16.080  10.875  49.621  1.00  0.00    -0.006 C 
ATOM      6  C   UNL     1      15.464  10.399  48.499  1.00  0.00    -0.070 C 
ATOM      7  C   UNL     1      15.750  10.970  47.130  1.00  0.00     0.039 C 
ATOM      8  C   UNL     1      14.491   9.244  48.571  1.00  0.00     0.039 C 
ATOM      9  C   UNL     1      16.942  12.094  49.605  1.00  0.00     0.159 C 
ATOM     10  O   UNL     1      16.763  13.011  48.757  1.00  0.00    -0.295 OA
ATOM     11  C   UNL     1      18.040  12.253  50.615  1.00  0.00     0.084 C 
ENDROOT
TORSDOF 0
ENDMDL
MODEL 6
REMARK VINA RESULT:    -4.464     16.347     17.694
REMARK INTER + INTRA:          -4.464
REMARK INTER:                  -4.464
REMARK INTRA:                   0.000
REMARK UNBOUND:                 0.000
REMARK SMILES CC(C)=C1CC[C@@H](C)CC1=O
REMARK SMILES IDX 8 1 7 2 6 3 5 4 4 5 2 6 1 7 3 8 10 9 11 10 9 11
REMARK H PARENT
REMARK Flexibility Score: inf
ROOT
ATOM      1  C   UNL     1      19.125  22.169  33.311  1.00  0.00     0.008 C 
ATOM      2  C   UNL     1      18.059  21.776  34.340  1.00  0.00    -0.006 C 
ATOM      3  C   UNL     1      17.264  23.012  34.794  1.00  0.00     0.008 C 
ATOM      4  C   UNL     1      16.128  22.624  35.748  1.00  0.00     0.039 C 
ATOM      5  C   UNL     1      16.609  21.776  36.918  1.00  0.00    -0.006 C 
ATOM      6  C   UNL     1      16.007  21.849  38.142  1.00  0.00    -0.070 C 
ATOM      7  C   UNL     1      16.513  21.057  39.325  1.00  0.00     0.039 C 
ATOM      8  C   UNL     1      14.826  22.762  38.381  1.00  0.00     0.039 C 
ATOM      9  C   UNL     1      17.689  20.792  36.613  1.00  0.00     0.159 C 
ATOM     10  O   UNL     1      17.763  19.692  37.225  1.00  0.00    -0.295 OA
ATOM     11  C   UNL     1      18.709  21.097  35.555  1.00  0.00     0.084 C 
ENDROOT
TORSDOF 0
ENDMDL
MODEL 7
REMARK VINA RESULT:    -4.463     21.358     22.462
REMARK INTER + INTRA:          -4.463
REMARK INTER:                  -4.463
REMARK INTRA:                   0.000
REMARK UNBOUND:                 0.000
REMARK SMILES CC(C)=C1CC[C@@H](C)CC1=O
REMARK SMILES IDX 8 1 7 2 6 3 5 4 4 5 2 6 1 7 3 8 10 9 11 10 9 11
REMARK H PARENT
REMARK Flexibility Score: inf
ROOT
ATOM      1  C   UNL     1      -1.125  20.764  38.119  1.00  0.00     0.008 C 
ATOM      2  C   UNL     1       0.036  21.764  38.107  1.00  0.00    -0.006 C 
ATOM      3  C   UNL     1       1.385  21.028  38.102  1.00  0.00     0.008 C 
ATOM      4  C   UNL     1       2.557  22.011  37.987  1.00  0.00     0.039 C 
ATOM      5  C   UNL     1       2.497  23.116  39.033  1.00  0.00    -0.006 C 
ATOM      6  C   UNL     1       3.636  23.673  39.542  1.00  0.00    -0.070 C 
ATOM      7  C   UNL     1       3.591  24.729  40.622  1.00  0.00     0.039 C 
ATOM      8  C   UNL     1       5.003  23.228  39.074  1.00  0.00     0.039 C 
ATOM      9  C   UNL     1       1.136  23.623  39.375  1.00  0.00     0.159 C 
ATOM     10  O   UNL     1       0.948  24.826  39.703  1.00  0.00    -0.295 OA
ATOM     11  C   UNL     1      -0.046  22.699  39.324  1.00  0.00     0.084 C 
ENDROOT
TORSDOF 0
ENDMDL
MODEL 8
REMARK VINA RESULT:    -4.405     21.086     22.066
REMARK INTER + INTRA:          -4.405
REMARK INTER:                  -4.405
REMARK INTRA:                   0.000
REMARK UNBOUND:                 0.000
REMARK SMILES CC(C)=C1CC[C@@H](C)CC1=O
REMARK SMILES IDX 8 1 7 2 6 3 5 4 4 5 2 6 1 7 3 8 10 9 11 10 9 11
REMARK H PARENT
REMARK Flexibility Score: inf
ROOT
ATOM      1  C   UNL     1       1.940  21.954  37.054  1.00  0.00     0.008 C 
ATOM      2  C   UNL     1       2.589  23.059  37.895  1.00  0.00    -0.006 C 
ATOM      3  C   UNL     1       3.501  22.452  38.974  1.00  0.00     0.008 C 
ATOM      4  C   UNL     1       4.237  23.544  39.759  1.00  0.00     0.039 C 
ATOM      5  C   UNL     1       3.293  24.601  40.318  1.00  0.00    -0.006 C 
ATOM      6  C   UNL     1       3.563  25.243  41.493  1.00  0.00    -0.070 C 
ATOM      7  C   UNL     1       2.606  26.250  42.086  1.00  0.00     0.039 C 
ATOM      8  C   UNL     1       4.819  24.945  42.279  1.00  0.00     0.039 C 
ATOM      9  C   UNL     1       2.133  24.966  39.454  1.00  0.00     0.159 C 
ATOM     10  O   UNL     1       1.656  26.133  39.455  1.00  0.00    -0.295 OA
ATOM     11  C   UNL     1       1.513  23.938  38.552  1.00  0.00     0.084 C 
ENDROOT
TORSDOF 0
ENDMDL
