MODEL 1
REMARK VINA RESULT:    -2.179      0.000      0.000
REMARK INTER + INTRA:          -2.179
REMARK INTER:                  -2.179
REMARK INTRA:                   0.000
REMARK UNBOUND:                 0.000
REMARK SMILES CC(=O)[O-]
REMARK SMILES IDX 1 1 2 2 3 3 4 4
REMARK H PARENT
REMARK Flexibility Score: inf
ROOT
ATOM      1  C   UNL     1      74.180   2.104  20.353  1.00  0.00     0.063 C 
ATOM      2  C   UNL     1      75.050   2.688  21.415  1.00  0.00     0.038 C 
ATOM      3  O   UNL     1      76.280   2.420  21.440  1.00  0.00    -0.550 OA
ATOM      4  O   UNL     1      74.508   3.528  22.379  1.00  0.00    -0.550 OA
ENDROOT
TORSDOF 0
ENDMDL
MODEL 2
REMARK VINA RESULT:    -2.176      0.197      1.627
REMARK INTER + INTRA:          -2.176
REMARK INTER:                  -2.176
REMARK INTRA:                   0.000
REMARK UNBOUND:                 0.000
REMARK SMILES CC(=O)[O-]
REMARK SMILES IDX 1 1 2 2 3 3 4 4
REMARK H PARENT
REMARK Flexibility Score: inf
ROOT
ATOM      1  C   UNL     1      74.051   2.100  20.264  1.00  0.00     0.063 C 
ATOM      2  C   UNL     1      74.850   2.664  21.390  1.00  0.00     0.038 C 
ATOM      3  O   UNL     1      74.295   3.391  22.254  1.00  0.00    -0.550 OA
ATOM      4  O   UNL     1      76.208   2.391  21.489  1.00  0.00    -0.550 OA
ENDROOT
TORSDOF 0
ENDMDL
MODEL 3
REMARK VINA RESULT:    -2.136      2.039      2.685
REMARK INTER + INTRA:          -2.136
REMARK INTER:                  -2.136
REMARK INTRA:                   0.000
REMARK UNBOUND:                 0.000
REMARK SMILES CC(=O)[O-]
REMARK SMILES IDX 1 1 2 2 3 3 4 4
REMARK H PARENT
REMARK Flexibility Score: inf
ROOT
ATOM      1  C   UNL     1      75.816   2.530  21.377  1.00  0.00     0.063 C 
ATOM      2  C   UNL     1      77.106   2.917  22.018  1.00  0.00     0.038 C 
ATOM      3  O   UNL     1      77.141   3.189  23.246  1.00  0.00    -0.550 OA
ATOM      4  O   UNL     1      78.270   2.980  21.264  1.00  0.00    -0.550 OA
ENDROOT
TORSDOF 0
ENDMDL
MODEL 4
REMARK VINA RESULT:    -2.132     12.443     12.951
REMARK INTER + INTRA:          -2.132
REMARK INTER:                  -2.132
REMARK INTRA:                   0.000
REMARK UNBOUND:                 0.000
REMARK SMILES CC(=O)[O-]
REMARK SMILES IDX 1 1 2 2 3 3 4 4
REMARK H PARENT
REMARK Flexibility Score: inf
ROOT
ATOM      1  C   UNL     1      63.427   0.923  19.252  1.00  0.00     0.063 C 
ATOM      2  C   UNL     1      62.271   1.748  19.707  1.00  0.00     0.038 C 
ATOM      3  O   UNL     1      61.286   1.199  20.265  1.00  0.00    -0.550 OA
ATOM      4  O   UNL     1      62.277   3.124  19.518  1.00  0.00    -0.550 OA
ENDROOT
TORSDOF 0
ENDMDL
MODEL 5
REMARK VINA RESULT:    -2.110      3.407      4.027
REMARK INTER + INTRA:          -2.110
REMARK INTER:                  -2.110
REMARK INTRA:                   0.000
REMARK UNBOUND:                 0.000
REMARK SMILES CC(=O)[O-]
REMARK SMILES IDX 1 1 2 2 3 3 4 4
REMARK H PARENT
REMARK Flexibility Score: inf
ROOT
ATOM      1  C   UNL     1      78.851   4.667  21.161  1.00  0.00     0.063 C 
ATOM      2  C   UNL     1      78.454   3.338  21.711  1.00  0.00     0.038 C 
ATOM      3  O   UNL     1      77.501   2.701  21.192  1.00  0.00    -0.550 OA
ATOM      4  O   UNL     1      79.134   2.800  22.796  1.00  0.00    -0.550 OA
ENDROOT
TORSDOF 0
ENDMDL
MODEL 6
REMARK VINA RESULT:    -2.109     10.330     10.853
REMARK INTER + INTRA:          -2.109
REMARK INTER:                  -2.109
REMARK INTRA:                   0.000
REMARK UNBOUND:                 0.000
REMARK SMILES CC(=O)[O-]
REMARK SMILES IDX 1 1 2 2 3 3 4 4
REMARK H PARENT
REMARK Flexibility Score: inf
ROOT
ATOM      1  C   UNL     1      65.689   3.360  18.437  1.00  0.00     0.063 C 
ATOM      2  C   UNL     1      64.501   2.722  19.075  1.00  0.00     0.038 C 
ATOM      3  O   UNL     1      64.573   1.539  19.497  1.00  0.00    -0.550 OA
ATOM      4  O   UNL     1      63.313   3.429  19.204  1.00  0.00    -0.550 OA
ENDROOT
TORSDOF 0
ENDMDL
MODEL 7
REMARK VINA RESULT:    -2.078      9.361      9.552
REMARK INTER + INTRA:          -2.078
REMARK INTER:                  -2.078
REMARK INTRA:                   0.000
REMARK UNBOUND:                 0.000
REMARK SMILES CC(=O)[O-]
REMARK SMILES IDX 1 1 2 2 3 3 4 4
REMARK H PARENT
REMARK Flexibility Score: inf
ROOT
ATOM      1  C   UNL     1      66.946   4.792  26.247  1.00  0.00     0.063 C 
ATOM      2  C   UNL     1      66.512   4.350  24.890  1.00  0.00     0.038 C 
ATOM      3  O   UNL     1      66.148   3.160  24.702  1.00  0.00    -0.550 OA
ATOM      4  O   UNL     1      66.507   5.248  23.831  1.00  0.00    -0.550 OA
ENDROOT
TORSDOF 0
ENDMDL
MODEL 8
REMARK VINA RESULT:    -2.063     11.249     11.651
REMARK INTER + INTRA:          -2.063
REMARK INTER:                  -2.063
REMARK INTRA:                   0.000
REMARK UNBOUND:                 0.000
REMARK SMILES CC(=O)[O-]
REMARK SMILES IDX 1 1 2 2 3 3 4 4
REMARK H PARENT
REMARK Flexibility Score: inf
ROOT
ATOM      1  C   UNL     1      62.204   1.386  19.784  1.00  0.00     0.063 C 
ATOM      2  C   UNL     1      63.614   1.066  20.149  1.00  0.00     0.038 C 
ATOM      3  O   UNL     1      64.292   0.291  19.425  1.00  0.00    -0.550 OA
ATOM      4  O   UNL     1      64.185   1.620  21.288  1.00  0.00    -0.550 OA
ENDROOT
TORSDOF 0
ENDMDL
MODEL 9
REMARK VINA RESULT:    -2.048      2.236      2.292
REMARK INTER + INTRA:          -2.048
REMARK INTER:                  -2.048
REMARK INTRA:                   0.000
REMARK UNBOUND:                 0.000
REMARK SMILES CC(=O)[O-]
REMARK SMILES IDX 1 1 2 2 3 3 4 4
REMARK H PARENT
REMARK Flexibility Score: inf
ROOT
ATOM      1  C   UNL     1      73.999   2.121  20.295  1.00  0.00     0.063 C 
ATOM      2  C   UNL     1      73.260   3.018  21.230  1.00  0.00     0.038 C 
ATOM      3  O   UNL     1      73.189   4.252  20.995  1.00  0.00    -0.550 OA
ATOM      4  O   UNL     1      72.648   2.495  22.362  1.00  0.00    -0.550 OA
ENDROOT
TORSDOF 0
ENDMDL
