MODEL 1
REMARK VINA RESULT:    -4.290      0.000      0.000
REMARK INTER + INTRA:          -7.019
REMARK INTER:                  -6.170
REMARK INTRA:                  -0.849
REMARK UNBOUND:                -0.849
REMARK SMILES O=C(CO)[C@@H](O)[C@@H](O)[C@@H](O)CO
REMARK SMILES IDX 7 1 9 2 11 3 12 4 10 6 5 8 2 9 1 10 3 11 4 12 6 14 8 16
REMARK H PARENT 12 5 10 7 4 13 6 15 8 17
REMARK Flexibility Score: inf
ROOT
ATOM      1  C   UNL     1      10.143  -6.757  26.835  1.00  0.00     0.181 C 
ENDROOT
BRANCH   1   2
ATOM      2  C   UNL     1      10.194  -6.848  25.282  1.00  0.00     0.171 C 
BRANCH   2   3
ATOM      3  C   UNL     1       8.962  -6.259  24.560  1.00  0.00     0.190 C 
BRANCH   3   4
ATOM      4  O   UNL     1       8.593  -7.071  23.482  1.00  0.00    -0.394 OA
ATOM      5  H   UNL     1       7.740  -7.507  23.743  1.00  0.00     0.210 HD
ENDBRANCH   3   4
ENDBRANCH   2   3
BRANCH   2   6
ATOM      6  O   UNL     1      10.381  -8.187  24.894  1.00  0.00    -0.388 OA
ATOM      7  H   UNL     1       9.599  -8.707  25.215  1.00  0.00     0.211 HD
ENDBRANCH   2   6
ENDBRANCH   1   2
BRANCH   1   8
ATOM      8  C   UNL     1       9.198  -7.794  27.511  1.00  0.00     0.214 C 
BRANCH   8   9
ATOM      9  C   UNL     1       9.894  -8.877  28.318  1.00  0.00     0.189 C 
ATOM     10  O   UNL     1      10.570  -9.708  27.732  1.00  0.00    -0.294 OA
BRANCH   9  11
ATOM     11  C   UNL     1       9.718  -9.023  29.806  1.00  0.00     0.234 C 
BRANCH  11  12
ATOM     12  O   UNL     1      10.192  -7.869  30.444  1.00  0.00    -0.388 OA
ATOM     13  H   UNL     1       9.776  -7.863  31.345  1.00  0.00     0.211 HD
ENDBRANCH  11  12
ENDBRANCH   9  11
ENDBRANCH   8   9
BRANCH   8  14
ATOM     14  O   UNL     1       8.235  -7.150  28.309  1.00  0.00    -0.382 OA
ATOM     15  H   UNL     1       7.703  -6.550  27.726  1.00  0.00     0.211 HD
ENDBRANCH   8  14
ENDBRANCH   1   8
BRANCH   1  16
ATOM     16  O   UNL     1      11.437  -6.822  27.385  1.00  0.00    -0.387 OA
ATOM     17  H   UNL     1      11.570  -6.003  27.929  1.00  0.00     0.211 HD
ENDBRANCH   1  16
TORSDOF 10
ENDMDL
MODEL 2
REMARK VINA RESULT:    -4.227      1.145      1.969
REMARK INTER + INTRA:          -6.928
REMARK INTER:                  -5.753
REMARK INTRA:                  -1.176
REMARK UNBOUND:                -0.849
REMARK SMILES O=C(CO)[C@@H](O)[C@@H](O)[C@@H](O)CO
REMARK SMILES IDX 7 1 9 2 11 3 12 4 10 6 5 8 2 9 1 10 3 11 4 12 6 14 8 16
REMARK H PARENT 12 5 10 7 4 13 6 15 8 17
REMARK Flexibility Score: inf
ROOT
ATOM      1  C   UNL     1       9.982  -7.289  27.118  1.00  0.00     0.181 C 
ENDROOT
BRANCH   1   2
ATOM      2  C   UNL     1      10.344  -7.939  25.750  1.00  0.00     0.171 C 
BRANCH   2   3
ATOM      3  C   UNL     1      11.845  -8.240  25.554  1.00  0.00     0.190 C 
BRANCH   3   4
ATOM      4  O   UNL     1      12.273  -9.206  26.472  1.00  0.00    -0.394 OA
ATOM      5  H   UNL     1      11.892  -8.943  27.350  1.00  0.00     0.210 HD
ENDBRANCH   3   4
ENDBRANCH   2   3
BRANCH   2   6
ATOM      6  O   UNL     1       9.879  -7.122  24.702  1.00  0.00    -0.388 OA
ATOM      7  H   UNL     1       9.271  -6.443  25.096  1.00  0.00     0.211 HD
ENDBRANCH   2   6
ENDBRANCH   1   2
BRANCH   1   8
ATOM      8  C   UNL     1       9.034  -8.147  28.007  1.00  0.00     0.214 C 
BRANCH   8   9
ATOM      9  C   UNL     1       9.727  -9.063  29.000  1.00  0.00     0.189 C 
ATOM     10  O   UNL     1      10.305 -10.056  28.585  1.00  0.00    -0.294 OA
BRANCH   9  11
ATOM     11  C   UNL     1       9.664  -8.847  30.488  1.00  0.00     0.234 C 
BRANCH  11  12
ATOM     12  O   UNL     1      10.308  -7.646  30.811  1.00  0.00    -0.388 OA
ATOM     13  H   UNL     1       9.949  -6.965  30.185  1.00  0.00     0.211 HD
ENDBRANCH  11  12
ENDBRANCH   9  11
ENDBRANCH   8   9
BRANCH   8  14
ATOM     14  O   UNL     1       8.104  -7.332  28.680  1.00  0.00    -0.382 OA
ATOM     15  H   UNL     1       7.528  -7.918  29.237  1.00  0.00     0.211 HD
ENDBRANCH   8  14
ENDBRANCH   1   8
BRANCH   1  16
ATOM     16  O   UNL     1      11.144  -6.927  27.824  1.00  0.00    -0.387 OA
ATOM     17  H   UNL     1      10.855  -6.497  28.670  1.00  0.00     0.211 HD
ENDBRANCH   1  16
TORSDOF 10
ENDMDL
MODEL 3
REMARK VINA RESULT:    -4.166      3.089      4.787
REMARK INTER + INTRA:          -6.841
REMARK INTER:                  -5.955
REMARK INTRA:                  -0.886
REMARK UNBOUND:                -0.849
REMARK SMILES O=C(CO)[C@@H](O)[C@@H](O)[C@@H](O)CO
REMARK SMILES IDX 7 1 9 2 11 3 12 4 10 6 5 8 2 9 1 10 3 11 4 12 6 14 8 16
REMARK H PARENT 12 5 10 7 4 13 6 15 8 17
REMARK Flexibility Score: inf
ROOT
ATOM      1  C   UNL     1      10.965  -9.178  25.730  1.00  0.00     0.181 C 
ENDROOT
BRANCH   1   2
ATOM      2  C   UNL     1      10.609  -7.667  25.621  1.00  0.00     0.171 C 
BRANCH   2   3
ATOM      3  C   UNL     1      10.255  -6.988  26.962  1.00  0.00     0.190 C 
BRANCH   3   4
ATOM      4  O   UNL     1      11.420  -6.641  27.655  1.00  0.00    -0.394 OA
ATOM      5  H   UNL     1      11.874  -5.950  27.105  1.00  0.00     0.210 HD
ENDBRANCH   3   4
ENDBRANCH   2   3
BRANCH   2   6
ATOM      6  O   UNL     1       9.554  -7.496  24.706  1.00  0.00    -0.388 OA
ATOM      7  H   UNL     1       9.784  -6.729  24.119  1.00  0.00     0.211 HD
ENDBRANCH   2   6
ENDBRANCH   1   2
BRANCH   1   8
ATOM      8  C   UNL     1      11.580  -9.790  24.436  1.00  0.00     0.214 C 
BRANCH   8   9
ATOM      9  C   UNL     1      11.741 -11.300  24.445  1.00  0.00     0.189 C 
ATOM     10  O   UNL     1      12.146 -11.846  25.460  1.00  0.00    -0.294 OA
BRANCH   9  11
ATOM     11  C   UNL     1      11.502 -12.151  23.227  1.00  0.00     0.234 C 
BRANCH  11  12
ATOM     12  O   UNL     1      10.181 -11.981  22.794  1.00  0.00    -0.388 OA
ATOM     13  H   UNL     1       9.620 -12.533  23.397  1.00  0.00     0.211 HD
ENDBRANCH  11  12
ENDBRANCH   9  11
ENDBRANCH   8   9
BRANCH   8  14
ATOM     14  O   UNL     1      10.852  -9.395  23.299  1.00  0.00    -0.382 OA
ATOM     15  H   UNL     1      11.313  -8.617  22.892  1.00  0.00     0.211 HD
ENDBRANCH   8  14
ENDBRANCH   1   8
BRANCH   1  16
ATOM     16  O   UNL     1      11.791  -9.421  26.843  1.00  0.00    -0.387 OA
ATOM     17  H   UNL     1      12.487  -8.714  26.856  1.00  0.00     0.211 HD
ENDBRANCH   1  16
TORSDOF 10
ENDMDL
MODEL 4
REMARK VINA RESULT:    -4.129      1.320      4.654
REMARK INTER + INTRA:          -6.788
REMARK INTER:                  -6.181
REMARK INTRA:                  -0.608
REMARK UNBOUND:                -0.849
REMARK SMILES O=C(CO)[C@@H](O)[C@@H](O)[C@@H](O)CO
REMARK SMILES IDX 7 1 9 2 11 3 12 4 10 6 5 8 2 9 1 10 3 11 4 12 6 14 8 16
REMARK H PARENT 12 5 10 7 4 13 6 15 8 17
REMARK Flexibility Score: inf
ROOT
ATOM      1  C   UNL     1       9.870  -7.763  26.260  1.00  0.00     0.181 C 
ENDROOT
BRANCH   1   2
ATOM      2  C   UNL     1      10.797  -7.984  27.491  1.00  0.00     0.171 C 
BRANCH   2   3
ATOM      3  C   UNL     1      10.119  -8.676  28.694  1.00  0.00     0.190 C 
BRANCH   3   4
ATOM      4  O   UNL     1      10.174  -7.854  29.825  1.00  0.00    -0.394 OA
ATOM      5  H   UNL     1      11.040  -8.051  30.269  1.00  0.00     0.210 HD
ENDBRANCH   3   4
ENDBRANCH   2   3
BRANCH   2   6
ATOM      6  O   UNL     1      11.347  -6.754  27.895  1.00  0.00    -0.388 OA
ATOM      7  H   UNL     1      12.302  -6.908  28.119  1.00  0.00     0.211 HD
ENDBRANCH   2   6
ENDBRANCH   1   2
BRANCH   1   8
ATOM      8  C   UNL     1       9.028  -6.454  26.315  1.00  0.00     0.214 C 
BRANCH   8   9
ATOM      9  C   UNL     1       9.033  -5.625  25.042  1.00  0.00     0.189 C 
ATOM     10  O   UNL     1       9.827  -4.702  24.941  1.00  0.00    -0.294 OA
BRANCH   9  11
ATOM     11  C   UNL     1       8.045  -5.838  23.927  1.00  0.00     0.234 C 
BRANCH  11  12
ATOM     12  O   UNL     1       8.367  -7.015  23.240  1.00  0.00    -0.388 OA
ATOM     13  H   UNL     1       7.582  -7.613  23.335  1.00  0.00     0.211 HD
ENDBRANCH  11  12
ENDBRANCH   9  11
ENDBRANCH   8   9
BRANCH   8  14
ATOM     14  O   UNL     1       7.702  -6.726  26.700  1.00  0.00    -0.382 OA
ATOM     15  H   UNL     1       7.152  -6.801  25.877  1.00  0.00     0.211 HD
ENDBRANCH   8  14
ENDBRANCH   1   8
BRANCH   1  16
ATOM     16  O   UNL     1      10.601  -7.842  25.061  1.00  0.00    -0.387 OA
ATOM     17  H   UNL     1      11.245  -7.087  25.055  1.00  0.00     0.211 HD
ENDBRANCH   1  16
TORSDOF 10
ENDMDL
MODEL 5
REMARK VINA RESULT:    -4.076      3.452      4.537
REMARK INTER + INTRA:          -6.712
REMARK INTER:                  -5.810
REMARK INTRA:                  -0.902
REMARK UNBOUND:                -0.849
REMARK SMILES O=C(CO)[C@@H](O)[C@@H](O)[C@@H](O)CO
REMARK SMILES IDX 7 1 9 2 11 3 12 4 10 6 5 8 2 9 1 10 3 11 4 12 6 14 8 16
REMARK H PARENT 12 5 10 7 4 13 6 15 8 17
REMARK Flexibility Score: inf
ROOT
ATOM      1  C   UNL     1      11.626  -9.708  25.404  1.00  0.00     0.181 C 
ENDROOT
BRANCH   1   2
ATOM      2  C   UNL     1      10.737  -8.702  26.191  1.00  0.00     0.171 C 
BRANCH   2   3
ATOM      3  C   UNL     1      10.454  -7.376  25.453  1.00  0.00     0.190 C 
BRANCH   3   4
ATOM      4  O   UNL     1       9.555  -7.584  24.402  1.00  0.00    -0.394 OA
ATOM      5  H   UNL     1       8.993  -6.767  24.351  1.00  0.00     0.210 HD
ENDBRANCH   3   4
ENDBRANCH   2   3
BRANCH   2   6
ATOM      6  O   UNL     1      11.319  -8.438  27.445  1.00  0.00    -0.388 OA
ATOM      7  H   UNL     1      12.232  -8.827  27.442  1.00  0.00     0.211 HD
ENDBRANCH   2   6
ENDBRANCH   1   2
BRANCH   1   8
ATOM      8  C   UNL     1      12.104 -10.934  26.237  1.00  0.00     0.214 C 
BRANCH   8   9
ATOM      9  C   UNL     1      12.477 -12.164  25.427  1.00  0.00     0.189 C 
ATOM     10  O   UNL     1      12.988 -12.015  24.328  1.00  0.00    -0.294 OA
BRANCH   9  11
ATOM     11  C   UNL     1      12.167 -13.564  25.884  1.00  0.00     0.234 C 
BRANCH  11  12
ATOM     12  O   UNL     1      12.109 -13.594  27.283  1.00  0.00    -0.388 OA
ATOM     13  H   UNL     1      12.916 -13.114  27.603  1.00  0.00     0.211 HD
ENDBRANCH  11  12
ENDBRANCH   9  11
ENDBRANCH   8   9
BRANCH   8  14
ATOM     14  O   UNL     1      13.171 -10.581  27.084  1.00  0.00    -0.382 OA
ATOM     15  H   UNL     1      14.001 -10.981  26.717  1.00  0.00     0.211 HD
ENDBRANCH   8  14
ENDBRANCH   1   8
BRANCH   1  16
ATOM     16  O   UNL     1      10.989 -10.122  24.220  1.00  0.00    -0.387 OA
ATOM     17  H   UNL     1      10.709 -11.065  24.347  1.00  0.00     0.211 HD
ENDBRANCH   1  16
TORSDOF 10
ENDMDL
MODEL 6
REMARK VINA RESULT:    -4.073      2.381      4.403
REMARK INTER + INTRA:          -6.707
REMARK INTER:                  -5.668
REMARK INTRA:                  -1.039
REMARK UNBOUND:                -0.849
REMARK SMILES O=C(CO)[C@@H](O)[C@@H](O)[C@@H](O)CO
REMARK SMILES IDX 7 1 9 2 11 3 12 4 10 6 5 8 2 9 1 10 3 11 4 12 6 14 8 16
REMARK H PARENT 12 5 10 7 4 13 6 15 8 17
REMARK Flexibility Score: inf
ROOT
ATOM      1  C   UNL     1      11.341  -7.199  25.624  1.00  0.00     0.181 C 
ENDROOT
BRANCH   1   2
ATOM      2  C   UNL     1      11.257  -8.732  25.364  1.00  0.00     0.171 C 
BRANCH   2   3
ATOM      3  C   UNL     1      12.612  -9.470  25.411  1.00  0.00     0.190 C 
BRANCH   3   4
ATOM      4  O   UNL     1      12.841  -9.989  26.690  1.00  0.00    -0.394 OA
ATOM      5  H   UNL     1      12.173 -10.712  26.820  1.00  0.00     0.210 HD
ENDBRANCH   3   4
ENDBRANCH   2   3
BRANCH   2   6
ATOM      6  O   UNL     1      10.625  -8.967  24.129  1.00  0.00    -0.388 OA
ATOM      7  H   UNL     1      10.455  -9.943  24.058  1.00  0.00     0.211 HD
ENDBRANCH   2   6
ENDBRANCH   1   2
BRANCH   1   8
ATOM      8  C   UNL     1      10.005  -6.551  26.094  1.00  0.00     0.214 C 
BRANCH   8   9
ATOM      9  C   UNL     1       9.400  -5.542  25.133  1.00  0.00     0.189 C 
ATOM     10  O   UNL     1       9.799  -4.387  25.160  1.00  0.00    -0.294 OA
BRANCH   9  11
ATOM     11  C   UNL     1       8.267  -5.882  24.203  1.00  0.00     0.234 C 
BRANCH  11  12
ATOM     12  O   UNL     1       8.588  -7.041  23.485  1.00  0.00    -0.388 OA
ATOM     13  H   UNL     1       8.480  -6.810  22.526  1.00  0.00     0.211 HD
ENDBRANCH  11  12
ENDBRANCH   9  11
ENDBRANCH   8   9
BRANCH   8  14
ATOM     14  O   UNL     1       9.053  -7.537  26.410  1.00  0.00    -0.382 OA
ATOM     15  H   UNL     1       8.156  -7.112  26.403  1.00  0.00     0.211 HD
ENDBRANCH   8  14
ENDBRANCH   1   8
BRANCH   1  16
ATOM     16  O   UNL     1      12.388  -6.897  26.514  1.00  0.00    -0.387 OA
ATOM     17  H   UNL     1      13.219  -7.289  26.139  1.00  0.00     0.211 HD
ENDBRANCH   1  16
TORSDOF 10
ENDMDL
MODEL 7
REMARK VINA RESULT:    -4.057      2.010      3.384
REMARK INTER + INTRA:          -6.684
REMARK INTER:                  -5.831
REMARK INTRA:                  -0.853
REMARK UNBOUND:                -0.849
REMARK SMILES O=C(CO)[C@@H](O)[C@@H](O)[C@@H](O)CO
REMARK SMILES IDX 7 1 9 2 11 3 12 4 10 6 5 8 2 9 1 10 3 11 4 12 6 14 8 16
REMARK H PARENT 12 5 10 7 4 13 6 15 8 17
REMARK Flexibility Score: inf
ROOT
ATOM      1  C   UNL     1       9.886  -7.565  26.310  1.00  0.00     0.181 C 
ENDROOT
BRANCH   1   2
ATOM      2  C   UNL     1       9.593  -6.591  25.131  1.00  0.00     0.171 C 
BRANCH   2   3
ATOM      3  C   UNL     1       8.619  -5.442  25.470  1.00  0.00     0.190 C 
BRANCH   3   4
ATOM      4  O   UNL     1       7.327  -5.942  25.673  1.00  0.00    -0.394 OA
ATOM      5  H   UNL     1       7.035  -5.605  26.560  1.00  0.00     0.210 HD
ENDBRANCH   3   4
ENDBRANCH   2   3
BRANCH   2   6
ATOM      6  O   UNL     1       9.111  -7.318  24.027  1.00  0.00    -0.388 OA
ATOM      7  H   UNL     1       8.297  -7.806  24.318  1.00  0.00     0.211 HD
ENDBRANCH   2   6
ENDBRANCH   1   2
BRANCH   1   8
ATOM      8  C   UNL     1      11.349  -8.097  26.358  1.00  0.00     0.214 C 
BRANCH   8   9
ATOM      9  C   UNL     1      11.514  -9.574  26.047  1.00  0.00     0.189 C 
ATOM     10  O   UNL     1      11.444 -10.382  26.961  1.00  0.00    -0.294 OA
BRANCH   9  11
ATOM     11  C   UNL     1      11.843 -10.085  24.670  1.00  0.00     0.234 C 
BRANCH  11  12
ATOM     12  O   UNL     1      10.970  -9.507  23.740  1.00  0.00    -0.388 OA
ATOM     13  H   UNL     1      11.033 -10.063  22.921  1.00  0.00     0.211 HD
ENDBRANCH  11  12
ENDBRANCH   9  11
ENDBRANCH   8   9
BRANCH   8  14
ATOM     14  O   UNL     1      12.186  -7.338  25.519  1.00  0.00    -0.382 OA
ATOM     15  H   UNL     1      13.118  -7.435  25.845  1.00  0.00     0.211 HD
ENDBRANCH   8  14
ENDBRANCH   1   8
BRANCH   1  16
ATOM     16  O   UNL     1       9.519  -6.990  27.540  1.00  0.00    -0.387 OA
ATOM     17  H   UNL     1       8.782  -6.351  27.361  1.00  0.00     0.211 HD
ENDBRANCH   1  16
TORSDOF 10
ENDMDL
MODEL 8
REMARK VINA RESULT:    -4.029      1.410      4.265
REMARK INTER + INTRA:          -6.645
REMARK INTER:                  -5.407
REMARK INTRA:                  -1.238
REMARK UNBOUND:                -0.849
REMARK SMILES O=C(CO)[C@@H](O)[C@@H](O)[C@@H](O)CO
REMARK SMILES IDX 7 1 9 2 11 3 12 4 10 6 5 8 2 9 1 10 3 11 4 12 6 14 8 16
REMARK H PARENT 12 5 10 7 4 13 6 15 8 17
REMARK Flexibility Score: inf
ROOT
ATOM      1  C   UNL     1      10.603  -8.224  27.303  1.00  0.00     0.181 C 
ENDROOT
BRANCH   1   2
ATOM      2  C   UNL     1       9.700  -9.166  28.153  1.00  0.00     0.171 C 
BRANCH   2   3
ATOM      3  C   UNL     1       9.194  -8.554  29.476  1.00  0.00     0.190 C 
BRANCH   3   4
ATOM      4  O   UNL     1       8.293  -7.515  29.220  1.00  0.00    -0.394 OA
ATOM      5  H   UNL     1       7.762  -7.796  28.430  1.00  0.00     0.210 HD
ENDBRANCH   3   4
ENDBRANCH   2   3
BRANCH   2   6
ATOM      6  O   UNL     1      10.385 -10.368  28.412  1.00  0.00    -0.388 OA
ATOM      7  H   UNL     1      11.287 -10.296  28.004  1.00  0.00     0.211 HD
ENDBRANCH   2   6
ENDBRANCH   1   2
BRANCH   1   8
ATOM      8  C   UNL     1       9.955  -7.738  25.973  1.00  0.00     0.214 C 
BRANCH   8   9
ATOM      9  C   UNL     1       9.417  -6.317  25.994  1.00  0.00     0.189 C 
ATOM     10  O   UNL     1       8.364  -6.093  26.570  1.00  0.00    -0.294 OA
BRANCH   9  11
ATOM     11  C   UNL     1      10.084  -5.183  25.263  1.00  0.00     0.234 C 
BRANCH  11  12
ATOM     12  O   UNL     1      11.439  -5.135  25.618  1.00  0.00    -0.388 OA
ATOM     13  H   UNL     1      11.626  -4.193  25.863  1.00  0.00     0.211 HD
ENDBRANCH  11  12
ENDBRANCH   9  11
ENDBRANCH   8   9
BRANCH   8  14
ATOM     14  O   UNL     1      10.845  -7.893  24.894  1.00  0.00    -0.382 OA
ATOM     15  H   UNL     1      10.680  -7.157  24.251  1.00  0.00     0.211 HD
ENDBRANCH   8  14
ENDBRANCH   1   8
BRANCH   1  16
ATOM     16  O   UNL     1      11.055  -7.135  28.071  1.00  0.00    -0.387 OA
ATOM     17  H   UNL     1      11.034  -7.413  29.023  1.00  0.00     0.211 HD
ENDBRANCH   1  16
TORSDOF 10
ENDMDL
MODEL 9
REMARK VINA RESULT:    -3.963      1.436      4.744
REMARK INTER + INTRA:          -6.549
REMARK INTER:                  -5.681
REMARK INTRA:                  -0.868
REMARK UNBOUND:                -0.849
REMARK SMILES O=C(CO)[C@@H](O)[C@@H](O)[C@@H](O)CO
REMARK SMILES IDX 7 1 9 2 11 3 12 4 10 6 5 8 2 9 1 10 3 11 4 12 6 14 8 16
REMARK H PARENT 12 5 10 7 4 13 6 15 8 17
REMARK Flexibility Score: inf
ROOT
ATOM      1  C   UNL     1       9.155  -7.539  27.455  1.00  0.00     0.181 C 
ENDROOT
BRANCH   1   2
ATOM      2  C   UNL     1       8.471  -8.055  28.755  1.00  0.00     0.171 C 
BRANCH   2   3
ATOM      3  C   UNL     1       9.424  -8.738  29.760  1.00  0.00     0.190 C 
BRANCH   3   4
ATOM      4  O   UNL     1      10.185  -7.779  30.439  1.00  0.00    -0.394 OA
ATOM      5  H   UNL     1      10.160  -8.034  31.398  1.00  0.00     0.210 HD
ENDBRANCH   3   4
ENDBRANCH   2   3
BRANCH   2   6
ATOM      6  O   UNL     1       7.422  -8.931  28.420  1.00  0.00    -0.388 OA
ATOM      7  H   UNL     1       6.745  -8.884  29.145  1.00  0.00     0.211 HD
ENDBRANCH   2   6
ENDBRANCH   1   2
BRANCH   1   8
ATOM      8  C   UNL     1       8.428  -6.341  26.777  1.00  0.00     0.214 C 
BRANCH   8   9
ATOM      9  C   UNL     1       9.092  -5.806  25.520  1.00  0.00     0.189 C 
ATOM     10  O   UNL     1      10.188  -5.273  25.611  1.00  0.00    -0.294 OA
BRANCH   9  11
ATOM     11  C   UNL     1       8.421  -5.828  24.172  1.00  0.00     0.234 C 
BRANCH  11  12
ATOM     12  O   UNL     1       8.576  -7.096  23.598  1.00  0.00    -0.388 OA
ATOM     13  H   UNL     1       8.460  -6.972  22.621  1.00  0.00     0.211 HD
ENDBRANCH  11  12
ENDBRANCH   9  11
ENDBRANCH   8   9
BRANCH   8  14
ATOM     14  O   UNL     1       7.084  -6.657  26.507  1.00  0.00    -0.382 OA
ATOM     15  H   UNL     1       7.065  -7.494  25.976  1.00  0.00     0.211 HD
ENDBRANCH   8  14
ENDBRANCH   1   8
BRANCH   1  16
ATOM     16  O   UNL     1      10.510  -7.240  27.686  1.00  0.00    -0.387 OA
ATOM     17  H   UNL     1      10.985  -7.321  26.819  1.00  0.00     0.211 HD
ENDBRANCH   1  16
TORSDOF 10
ENDMDL
