MODEL 1
REMARK VINA RESULT:    -2.684      0.000      0.000
REMARK INTER + INTRA:          -7.087
REMARK INTER:                  -5.195
REMARK INTRA:                  -1.892
REMARK UNBOUND:                -1.892
REMARK SMILES CCCCCCCCCCCCCCCCCC(=O)[O-]
REMARK SMILES IDX 10 1 11 2 12 3 13 4 14 5 15 6 16 7 17 8 18 9 19 10 20 11
REMARK SMILES IDX 9 12 8 13 7 14 6 15 5 16 4 17 3 18 2 19 1 20
REMARK H PARENT
REMARK Flexibility Score: inf
ROOT
ATOM      1  C   UNL     1     -12.699 -22.841  12.347  1.00  0.00     0.000 C 
ENDROOT
BRANCH   1   2
ATOM      2  C   UNL     1     -11.166 -22.910  12.230  1.00  0.00     0.000 C 
BRANCH   2   3
ATOM      3  C   UNL     1     -10.485 -21.597  12.646  1.00  0.00     0.000 C 
BRANCH   3   4
ATOM      4  C   UNL     1      -9.002 -21.791  13.008  1.00  0.00     0.000 C 
BRANCH   4   5
ATOM      5  C   UNL     1      -8.060 -20.914  12.162  1.00  0.00     0.000 C 
BRANCH   5   6
ATOM      6  C   UNL     1      -8.606 -20.527  10.776  1.00  0.00     0.000 C 
BRANCH   6   7
ATOM      7  C   UNL     1      -8.223 -19.099  10.358  1.00  0.00     0.006 C 
BRANCH   7   8
ATOM      8  C   UNL     1      -9.468 -18.222  10.198  1.00  0.00     0.053 C 
BRANCH   8   9
ATOM      9  C   UNL     1      -9.088 -16.852   9.733  1.00  0.00     0.041 C 
ATOM     10  O   UNL     1      -7.913 -16.431   9.897  1.00  0.00    -0.550 OA
ATOM     11  O   UNL     1     -10.017 -16.060   9.071  1.00  0.00    -0.550 OA
ENDBRANCH   8   9
ENDBRANCH   7   8
ENDBRANCH   6   7
ENDBRANCH   5   6
ENDBRANCH   4   5
ENDBRANCH   3   4
ENDBRANCH   2   3
ENDBRANCH   1   2
BRANCH   1  12
ATOM     12  C   UNL     1     -13.196 -23.117  13.775  1.00  0.00     0.000 C 
BRANCH  12  13
ATOM     13  C   UNL     1     -14.061 -21.977  14.330  1.00  0.00    -0.000 C 
BRANCH  13  14
ATOM     14  C   UNL     1     -13.768 -21.742  15.820  1.00  0.00    -0.000 C 
BRANCH  14  15
ATOM     15  C   UNL     1     -12.970 -20.452  16.077  1.00  0.00    -0.000 C 
BRANCH  15  16
ATOM     16  C   UNL     1     -11.439 -20.595  15.959  1.00  0.00    -0.000 C 
BRANCH  16  17
ATOM     17  C   UNL     1     -10.690 -19.304  15.583  1.00  0.00    -0.000 C 
BRANCH  17  18
ATOM     18  C   UNL     1     -11.563 -18.048  15.718  1.00  0.00    -0.000 C 
BRANCH  18  19
ATOM     19  C   UNL     1     -11.240 -17.034  14.615  1.00  0.00    -0.003 C 
ATOM     20  C   UNL     1      -9.998 -17.448  13.832  1.00  0.00     0.004 C 
ENDBRANCH  18  19
ENDBRANCH  17  18
ENDBRANCH  16  17
ENDBRANCH  15  16
ENDBRANCH  14  15
ENDBRANCH  13  14
ENDBRANCH  12  13
ENDBRANCH   1  12
TORSDOF 16
ENDMDL
MODEL 2
REMARK VINA RESULT:    -2.303      2.041      4.787
REMARK INTER + INTRA:          -6.349
REMARK INTER:                  -4.855
REMARK INTRA:                  -1.494
REMARK UNBOUND:                -1.892
REMARK SMILES CCCCCCCCCCCCCCCCCC(=O)[O-]
REMARK SMILES IDX 10 1 11 2 12 3 13 4 14 5 15 6 16 7 17 8 18 9 19 10 20 11
REMARK SMILES IDX 9 12 8 13 7 14 6 15 5 16 4 17 3 18 2 19 1 20
REMARK H PARENT
REMARK Flexibility Score: inf
ROOT
ATOM      1  C   UNL     1     -13.720 -22.396  13.476  1.00  0.00     0.000 C 
ENDROOT
BRANCH   1   2
ATOM      2  C   UNL     1     -13.968 -23.125  14.809  1.00  0.00     0.000 C 
BRANCH   2   3
ATOM      3  C   UNL     1     -13.127 -22.550  15.959  1.00  0.00     0.000 C 
BRANCH   3   4
ATOM      4  C   UNL     1     -13.262 -21.022  16.082  1.00  0.00     0.000 C 
BRANCH   4   5
ATOM      5  C   UNL     1     -12.098 -20.263  15.418  1.00  0.00     0.000 C 
BRANCH   5   6
ATOM      6  C   UNL     1     -10.739 -20.413  16.125  1.00  0.00     0.000 C 
BRANCH   6   7
ATOM      7  C   UNL     1      -9.730 -19.326  15.723  1.00  0.00     0.006 C 
BRANCH   7   8
ATOM      8  C   UNL     1     -10.261 -18.492  14.553  1.00  0.00     0.053 C 
BRANCH   8   9
ATOM      9  C   UNL     1     -10.375 -17.052  14.945  1.00  0.00     0.041 C 
ATOM     10  O   UNL     1      -9.341 -16.341  15.049  1.00  0.00    -0.550 OA
ATOM     11  O   UNL     1     -11.626 -16.483  15.142  1.00  0.00    -0.550 OA
ENDBRANCH   8   9
ENDBRANCH   7   8
ENDBRANCH   6   7
ENDBRANCH   5   6
ENDBRANCH   4   5
ENDBRANCH   3   4
ENDBRANCH   2   3
ENDBRANCH   1   2
BRANCH   1  12
ATOM     12  C   UNL     1     -12.558 -23.008  12.676  1.00  0.00     0.000 C 
BRANCH  12  13
ATOM     13  C   UNL     1     -11.210 -22.880  13.400  1.00  0.00    -0.000 C 
BRANCH  13  14
ATOM     14  C   UNL     1     -10.053 -22.798  12.394  1.00  0.00    -0.000 C 
BRANCH  14  15
ATOM     15  C   UNL     1      -8.867 -21.964  12.911  1.00  0.00    -0.000 C 
BRANCH  15  16
ATOM     16  C   UNL     1      -8.647 -20.620  12.187  1.00  0.00    -0.000 C 
BRANCH  16  17
ATOM     17  C   UNL     1      -9.723 -20.257  11.148  1.00  0.00    -0.000 C 
BRANCH  17  18
ATOM     18  C   UNL     1      -9.882 -18.741  10.959  1.00  0.00    -0.000 C 
BRANCH  18  19
ATOM     19  C   UNL     1      -9.270 -18.287   9.628  1.00  0.00    -0.003 C 
ATOM     20  C   UNL     1      -8.654 -16.897   9.750  1.00  0.00     0.004 C 
ENDBRANCH  18  19
ENDBRANCH  17  18
ENDBRANCH  16  17
ENDBRANCH  15  16
ENDBRANCH  14  15
ENDBRANCH  13  14
ENDBRANCH  12  13
ENDBRANCH   1  12
TORSDOF 16
ENDMDL
MODEL 3
REMARK VINA RESULT:    -2.226      1.240      4.077
REMARK INTER + INTRA:          -6.200
REMARK INTER:                  -4.280
REMARK INTRA:                  -1.920
REMARK UNBOUND:                -1.892
REMARK SMILES CCCCCCCCCCCCCCCCCC(=O)[O-]
REMARK SMILES IDX 10 1 11 2 12 3 13 4 14 5 15 6 16 7 17 8 18 9 19 10 20 11
REMARK SMILES IDX 9 12 8 13 7 14 6 15 5 16 4 17 3 18 2 19 1 20
REMARK H PARENT
REMARK Flexibility Score: inf
ROOT
ATOM      1  C   UNL     1     -10.247 -17.037  13.697  1.00  0.00     0.000 C 
ENDROOT
BRANCH   1   2
ATOM      2  C   UNL     1      -9.038 -16.777  14.612  1.00  0.00     0.000 C 
BRANCH   2   3
ATOM      3  C   UNL     1      -7.878 -17.748  14.343  1.00  0.00     0.000 C 
BRANCH   3   4
ATOM      4  C   UNL     1      -8.301 -19.222  14.468  1.00  0.00     0.000 C 
BRANCH   4   5
ATOM      5  C   UNL     1      -8.017 -20.036  13.191  1.00  0.00     0.000 C 
BRANCH   5   6
ATOM      6  C   UNL     1      -7.934 -19.205  11.898  1.00  0.00     0.000 C 
BRANCH   6   7
ATOM      7  C   UNL     1      -8.951 -19.648  10.834  1.00  0.00     0.006 C 
BRANCH   7   8
ATOM      8  C   UNL     1      -8.763 -18.859   9.535  1.00  0.00     0.053 C 
BRANCH   8   9
ATOM      9  C   UNL     1      -8.973 -17.397   9.775  1.00  0.00     0.041 C 
ATOM     10  O   UNL     1     -10.122 -16.959  10.047  1.00  0.00    -0.550 OA
ATOM     11  O   UNL     1      -7.893 -16.525   9.749  1.00  0.00    -0.550 OA
ENDBRANCH   8   9
ENDBRANCH   7   8
ENDBRANCH   6   7
ENDBRANCH   5   6
ENDBRANCH   4   5
ENDBRANCH   3   4
ENDBRANCH   2   3
ENDBRANCH   1   2
BRANCH   1  12
ATOM     12  C   UNL     1     -11.578 -17.050  14.465  1.00  0.00     0.000 C 
BRANCH  12  13
ATOM     13  C   UNL     1     -11.404 -17.424  15.944  1.00  0.00    -0.000 C 
BRANCH  13  14
ATOM     14  C   UNL     1     -11.324 -18.948  16.118  1.00  0.00    -0.000 C 
BRANCH  14  15
ATOM     15  C   UNL     1     -12.298 -19.708  15.201  1.00  0.00    -0.000 C 
BRANCH  15  16
ATOM     16  C   UNL     1     -13.089 -20.843  15.884  1.00  0.00    -0.000 C 
BRANCH  16  17
ATOM     17  C   UNL     1     -12.967 -22.221  15.208  1.00  0.00    -0.000 C 
BRANCH  17  18
ATOM     18  C   UNL     1     -12.380 -22.140  13.791  1.00  0.00    -0.000 C 
BRANCH  18  19
ATOM     19  C   UNL     1     -11.042 -22.884  13.708  1.00  0.00    -0.003 C 
ATOM     20  C   UNL     1     -10.505 -22.895  12.280  1.00  0.00     0.004 C 
ENDBRANCH  18  19
ENDBRANCH  17  18
ENDBRANCH  16  17
ENDBRANCH  15  16
ENDBRANCH  14  15
ENDBRANCH  13  14
ENDBRANCH  12  13
ENDBRANCH   1  12
TORSDOF 16
ENDMDL
MODEL 4
REMARK VINA RESULT:    -2.198      3.514      6.010
REMARK INTER + INTRA:          -6.146
REMARK INTER:                  -4.599
REMARK INTRA:                  -1.548
REMARK UNBOUND:                -1.892
REMARK SMILES CCCCCCCCCCCCCCCCCC(=O)[O-]
REMARK SMILES IDX 10 1 11 2 12 3 13 4 14 5 15 6 16 7 17 8 18 9 19 10 20 11
REMARK SMILES IDX 9 12 8 13 7 14 6 15 5 16 4 17 3 18 2 19 1 20
REMARK H PARENT
REMARK Flexibility Score: inf
ROOT
ATOM      1  C   UNL     1      -9.012 -20.239  12.152  1.00  0.00     0.000 C 
ENDROOT
BRANCH   1   2
ATOM      2  C   UNL     1      -9.052 -21.754  11.889  1.00  0.00     0.000 C 
BRANCH   2   3
ATOM      3  C   UNL     1      -9.296 -22.567  13.170  1.00  0.00     0.000 C 
BRANCH   3   4
ATOM      4  C   UNL     1      -9.124 -21.724  14.445  1.00  0.00     0.000 C 
BRANCH   4   5
ATOM      5  C   UNL     1      -9.838 -22.334  15.666  1.00  0.00     0.000 C 
BRANCH   5   6
ATOM      6  C   UNL     1     -11.326 -22.662  15.450  1.00  0.00     0.000 C 
BRANCH   6   7
ATOM      7  C   UNL     1     -12.268 -21.650  16.119  1.00  0.00     0.006 C 
BRANCH   7   8
ATOM      8  C   UNL     1     -13.386 -21.226  15.163  1.00  0.00     0.053 C 
BRANCH   8   9
ATOM      9  C   UNL     1     -14.305 -22.376  14.889  1.00  0.00     0.041 C 
ATOM     10  O   UNL     1     -15.210 -22.672  15.714  1.00  0.00    -0.550 OA
ATOM     11  O   UNL     1     -14.198 -23.084  13.701  1.00  0.00    -0.550 OA
ENDBRANCH   8   9
ENDBRANCH   7   8
ENDBRANCH   6   7
ENDBRANCH   5   6
ENDBRANCH   4   5
ENDBRANCH   3   4
ENDBRANCH   2   3
ENDBRANCH   1   2
BRANCH   1  12
ATOM     12  C   UNL     1      -9.799 -19.436  11.104  1.00  0.00     0.000 C 
BRANCH  12  13
ATOM     13  C   UNL     1      -9.738 -17.922  11.351  1.00  0.00    -0.000 C 
BRANCH  13  14
ATOM     14  C   UNL     1      -8.299 -17.471  11.642  1.00  0.00    -0.000 C 
BRANCH  14  15
ATOM     15  C   UNL     1      -7.875 -17.721  13.100  1.00  0.00    -0.000 C 
BRANCH  15  16
ATOM     16  C   UNL     1      -8.028 -16.510  14.042  1.00  0.00    -0.000 C 
BRANCH  16  17
ATOM     17  C   UNL     1      -8.909 -16.755  15.280  1.00  0.00    -0.000 C 
BRANCH  17  18
ATOM     18  C   UNL     1      -9.506 -18.169  15.317  1.00  0.00    -0.000 C 
BRANCH  18  19
ATOM     19  C   UNL     1     -11.036 -18.118  15.391  1.00  0.00    -0.003 C 
ATOM     20  C   UNL     1     -11.562 -16.745  14.983  1.00  0.00     0.004 C 
ENDBRANCH  18  19
ENDBRANCH  17  18
ENDBRANCH  16  17
ENDBRANCH  15  16
ENDBRANCH  14  15
ENDBRANCH  13  14
ENDBRANCH  12  13
ENDBRANCH   1  12
TORSDOF 16
ENDMDL
MODEL 5
REMARK VINA RESULT:    -2.069      3.243      6.149
REMARK INTER + INTRA:          -5.896
REMARK INTER:                  -4.372
REMARK INTRA:                  -1.524
REMARK UNBOUND:                -1.892
REMARK SMILES CCCCCCCCCCCCCCCCCC(=O)[O-]
REMARK SMILES IDX 10 1 11 2 12 3 13 4 14 5 15 6 16 7 17 8 18 9 19 10 20 11
REMARK SMILES IDX 9 12 8 13 7 14 6 15 5 16 4 17 3 18 2 19 1 20
REMARK H PARENT
REMARK Flexibility Score: inf
ROOT
ATOM      1  C   UNL     1     -11.745 -18.023  15.392  1.00  0.00     0.000 C 
ENDROOT
BRANCH   1   2
ATOM      2  C   UNL     1     -11.063 -19.192  16.125  1.00  0.00     0.000 C 
BRANCH   2   3
ATOM      3  C   UNL     1     -10.377 -20.171  15.159  1.00  0.00     0.000 C 
BRANCH   3   4
ATOM      4  C   UNL     1      -9.666 -21.321  15.893  1.00  0.00     0.000 C 
BRANCH   4   5
ATOM      5  C   UNL     1      -9.884 -22.688  15.216  1.00  0.00     0.000 C 
BRANCH   5   6
ATOM      6  C   UNL     1     -10.184 -22.624  13.708  1.00  0.00     0.000 C 
BRANCH   6   7
ATOM      7  C   UNL     1     -11.643 -22.968  13.371  1.00  0.00     0.006 C 
BRANCH   7   8
ATOM      8  C   UNL     1     -12.477 -23.125  14.646  1.00  0.00     0.053 C 
BRANCH   8   9
ATOM      9  C   UNL     1     -13.761 -22.366  14.529  1.00  0.00     0.041 C 
ATOM     10  O   UNL     1     -13.847 -21.194  14.983  1.00  0.00    -0.550 OA
ATOM     11  O   UNL     1     -14.846 -22.931  13.873  1.00  0.00    -0.550 OA
ENDBRANCH   8   9
ENDBRANCH   7   8
ENDBRANCH   6   7
ENDBRANCH   5   6
ENDBRANCH   4   5
ENDBRANCH   3   4
ENDBRANCH   2   3
ENDBRANCH   1   2
BRANCH   1  12
ATOM     12  C   UNL     1     -10.783 -16.858  15.114  1.00  0.00     0.000 C 
BRANCH  12  13
ATOM     13  C   UNL     1      -9.311 -17.244  15.320  1.00  0.00    -0.000 C 
BRANCH  13  14
ATOM     14  C   UNL     1      -8.386 -16.349  14.482  1.00  0.00    -0.000 C 
BRANCH  14  15
ATOM     15  C   UNL     1      -8.183 -16.871  13.049  1.00  0.00    -0.000 C 
BRANCH  15  16
ATOM     16  C   UNL     1      -8.000 -18.397  12.929  1.00  0.00    -0.000 C 
BRANCH  16  17
ATOM     17  C   UNL     1      -9.200 -19.153  12.333  1.00  0.00    -0.000 C 
BRANCH  17  18
ATOM     18  C   UNL     1     -10.023 -18.295  11.362  1.00  0.00    -0.000 C 
BRANCH  18  19
ATOM     19  C   UNL     1      -9.344 -18.214   9.990  1.00  0.00    -0.003 C 
ATOM     20  C   UNL     1      -9.306 -16.778   9.476  1.00  0.00     0.004 C 
ENDBRANCH  18  19
ENDBRANCH  17  18
ENDBRANCH  16  17
ENDBRANCH  15  16
ENDBRANCH  14  15
ENDBRANCH  13  14
ENDBRANCH  12  13
ENDBRANCH   1  12
TORSDOF 16
ENDMDL
MODEL 6
REMARK VINA RESULT:    -1.716      1.715      2.373
REMARK INTER + INTRA:          -5.213
REMARK INTER:                  -3.998
REMARK INTRA:                  -1.215
REMARK UNBOUND:                -1.892
REMARK SMILES CCCCCCCCCCCCCCCCCC(=O)[O-]
REMARK SMILES IDX 10 1 11 2 12 3 13 4 14 5 15 6 16 7 17 8 18 9 19 10 20 11
REMARK SMILES IDX 9 12 8 13 7 14 6 15 5 16 4 17 3 18 2 19 1 20
REMARK H PARENT
REMARK Flexibility Score: inf
ROOT
ATOM      1  C   UNL     1     -10.856 -21.602  12.413  1.00  0.00     0.000 C 
ENDROOT
BRANCH   1   2
ATOM      2  C   UNL     1      -9.973 -22.851  12.241  1.00  0.00     0.000 C 
BRANCH   2   3
ATOM      3  C   UNL     1      -8.482 -22.549  12.455  1.00  0.00     0.000 C 
BRANCH   3   4
ATOM      4  C   UNL     1      -7.913 -21.599  11.387  1.00  0.00     0.000 C 
BRANCH   4   5
ATOM      5  C   UNL     1      -8.015 -20.116  11.792  1.00  0.00     0.000 C 
BRANCH   5   6
ATOM      6  C   UNL     1      -7.875 -19.116  10.630  1.00  0.00     0.000 C 
BRANCH   6   7
ATOM      7  C   UNL     1      -8.776 -19.458   9.433  1.00  0.00     0.006 C 
BRANCH   7   8
ATOM      8  C   UNL     1      -9.783 -18.335   9.167  1.00  0.00     0.053 C 
BRANCH   8   9
ATOM      9  C   UNL     1      -9.439 -17.121   9.972  1.00  0.00     0.041 C 
ATOM     10  O   UNL     1     -10.120 -16.823  10.989  1.00  0.00    -0.550 OA
ATOM     11  O   UNL     1      -8.336 -16.350   9.631  1.00  0.00    -0.550 OA
ENDBRANCH   8   9
ENDBRANCH   7   8
ENDBRANCH   6   7
ENDBRANCH   5   6
ENDBRANCH   4   5
ENDBRANCH   3   4
ENDBRANCH   2   3
ENDBRANCH   1   2
BRANCH   1  12
ATOM     12  C   UNL     1     -10.790 -21.023  13.835  1.00  0.00     0.000 C 
BRANCH  12  13
ATOM     13  C   UNL     1     -10.883 -22.105  14.919  1.00  0.00    -0.000 C 
BRANCH  13  14
ATOM     14  C   UNL     1      -9.818 -21.888  16.005  1.00  0.00    -0.000 C 
BRANCH  14  15
ATOM     15  C   UNL     1      -8.567 -21.163  15.480  1.00  0.00    -0.000 C 
BRANCH  15  16
ATOM     16  C   UNL     1      -8.288 -19.789  16.124  1.00  0.00    -0.000 C 
BRANCH  16  17
ATOM     17  C   UNL     1      -9.372 -18.724  15.882  1.00  0.00    -0.000 C 
BRANCH  17  18
ATOM     18  C   UNL     1      -8.945 -17.660  14.860  1.00  0.00    -0.000 C 
BRANCH  18  19
ATOM     19  C   UNL     1     -10.149 -16.833  14.395  1.00  0.00    -0.003 C 
ATOM     20  C   UNL     1     -11.428 -17.274  15.101  1.00  0.00     0.004 C 
ENDBRANCH  18  19
ENDBRANCH  17  18
ENDBRANCH  16  17
ENDBRANCH  15  16
ENDBRANCH  14  15
ENDBRANCH  13  14
ENDBRANCH  12  13
ENDBRANCH   1  12
TORSDOF 16
ENDMDL
MODEL 7
REMARK VINA RESULT:    -1.682      3.331      5.633
REMARK INTER + INTRA:          -5.147
REMARK INTER:                  -3.469
REMARK INTRA:                  -1.678
REMARK UNBOUND:                -1.892
REMARK SMILES CCCCCCCCCCCCCCCCCC(=O)[O-]
REMARK SMILES IDX 10 1 11 2 12 3 13 4 14 5 15 6 16 7 17 8 18 9 19 10 20 11
REMARK SMILES IDX 9 12 8 13 7 14 6 15 5 16 4 17 3 18 2 19 1 20
REMARK H PARENT
REMARK Flexibility Score: inf
ROOT
ATOM      1  C   UNL     1      -8.726 -18.362  11.307  1.00  0.00     0.000 C 
ENDROOT
BRANCH   1   2
ATOM      2  C   UNL     1      -8.846 -19.783  10.729  1.00  0.00     0.000 C 
BRANCH   2   3
ATOM      3  C   UNL     1      -7.899 -20.780  11.416  1.00  0.00     0.000 C 
BRANCH   3   4
ATOM      4  C   UNL     1      -8.486 -22.200  11.484  1.00  0.00     0.000 C 
BRANCH   4   5
ATOM      5  C   UNL     1      -9.267 -22.463  12.786  1.00  0.00     0.000 C 
BRANCH   5   6
ATOM      6  C   UNL     1     -10.671 -23.062  12.590  1.00  0.00     0.000 C 
BRANCH   6   7
ATOM      7  C   UNL     1     -11.567 -22.909  13.829  1.00  0.00     0.006 C 
BRANCH   7   8
ATOM      8  C   UNL     1     -12.950 -22.378  13.442  1.00  0.00     0.053 C 
BRANCH   8   9
ATOM      9  C   UNL     1     -13.738 -22.028  14.665  1.00  0.00     0.041 C 
ATOM     10  O   UNL     1     -14.694 -22.760  15.033  1.00  0.00    -0.550 OA
ATOM     11  O   UNL     1     -13.384 -20.923  15.427  1.00  0.00    -0.550 OA
ENDBRANCH   8   9
ENDBRANCH   7   8
ENDBRANCH   6   7
ENDBRANCH   5   6
ENDBRANCH   4   5
ENDBRANCH   3   4
ENDBRANCH   2   3
ENDBRANCH   1   2
BRANCH   1  12
ATOM     12  C   UNL     1     -10.061 -17.602  11.289  1.00  0.00     0.000 C 
BRANCH  12  13
ATOM     13  C   UNL     1     -10.318 -16.828  12.590  1.00  0.00    -0.000 C 
BRANCH  13  14
ATOM     14  C   UNL     1     -10.797 -17.770  13.704  1.00  0.00    -0.000 C 
BRANCH  14  15
ATOM     15  C   UNL     1     -10.912 -17.073  15.071  1.00  0.00    -0.000 C 
BRANCH  15  16
ATOM     16  C   UNL     1      -9.572 -16.832  15.797  1.00  0.00    -0.000 C 
BRANCH  16  17
ATOM     17  C   UNL     1      -8.354 -17.528  15.164  1.00  0.00    -0.000 C 
BRANCH  17  18
ATOM     18  C   UNL     1      -7.878 -18.745  15.969  1.00  0.00    -0.000 C 
BRANCH  18  19
ATOM     19  C   UNL     1      -8.122 -20.045  15.194  1.00  0.00    -0.003 C 
ATOM     20  C   UNL     1      -9.180 -20.905  15.879  1.00  0.00     0.004 C 
ENDBRANCH  18  19
ENDBRANCH  17  18
ENDBRANCH  16  17
ENDBRANCH  15  16
ENDBRANCH  14  15
ENDBRANCH  13  14
ENDBRANCH  12  13
ENDBRANCH   1  12
TORSDOF 16
ENDMDL
MODEL 8
REMARK VINA RESULT:    -1.590      2.403      4.947
REMARK INTER + INTRA:          -4.968
REMARK INTER:                  -4.117
REMARK INTRA:                  -0.851
REMARK UNBOUND:                -1.892
REMARK SMILES CCCCCCCCCCCCCCCCCC(=O)[O-]
REMARK SMILES IDX 10 1 11 2 12 3 13 4 14 5 15 6 16 7 17 8 18 9 19 10 20 11
REMARK SMILES IDX 9 12 8 13 7 14 6 15 5 16 4 17 3 18 2 19 1 20
REMARK H PARENT
REMARK Flexibility Score: inf
ROOT
ATOM      1  C   UNL     1     -10.473 -17.096  13.641  1.00  0.00     0.000 C 
ENDROOT
BRANCH   1   2
ATOM      2  C   UNL     1      -9.085 -16.887  14.272  1.00  0.00     0.000 C 
BRANCH   2   3
ATOM      3  C   UNL     1      -7.986 -16.677  13.219  1.00  0.00     0.000 C 
BRANCH   3   4
ATOM      4  C   UNL     1      -7.881 -17.854  12.234  1.00  0.00     0.000 C 
BRANCH   4   5
ATOM      5  C   UNL     1      -8.165 -17.443  10.777  1.00  0.00     0.000 C 
BRANCH   5   6
ATOM      6  C   UNL     1      -8.574 -18.598   9.846  1.00  0.00     0.000 C 
BRANCH   6   7
ATOM      7  C   UNL     1      -8.436 -19.979  10.506  1.00  0.00     0.006 C 
BRANCH   7   8
ATOM      8  C   UNL     1      -9.565 -20.220  11.512  1.00  0.00     0.053 C 
BRANCH   8   9
ATOM      9  C   UNL     1      -9.275 -21.427  12.347  1.00  0.00     0.041 C 
ATOM     10  O   UNL     1      -8.447 -21.358  13.293  1.00  0.00    -0.550 OA
ATOM     11  O   UNL     1      -9.958 -22.613  12.115  1.00  0.00    -0.550 OA
ENDBRANCH   8   9
ENDBRANCH   7   8
ENDBRANCH   6   7
ENDBRANCH   5   6
ENDBRANCH   4   5
ENDBRANCH   3   4
ENDBRANCH   2   3
ENDBRANCH   1   2
BRANCH   1  12
ATOM     12  C   UNL     1     -11.533 -17.517  14.672  1.00  0.00     0.000 C 
BRANCH  12  13
ATOM     13  C   UNL     1     -10.920 -17.901  16.026  1.00  0.00    -0.000 C 
BRANCH  13  14
ATOM     14  C   UNL     1     -10.151 -19.227  15.925  1.00  0.00    -0.000 C 
BRANCH  14  15
ATOM     15  C   UNL     1     -11.071 -20.435  15.674  1.00  0.00    -0.000 C 
BRANCH  15  16
ATOM     16  C   UNL     1     -10.501 -21.795  16.125  1.00  0.00    -0.000 C 
BRANCH  16  17
ATOM     17  C   UNL     1     -11.016 -23.011  15.334  1.00  0.00    -0.000 C 
BRANCH  17  18
ATOM     18  C   UNL     1     -12.388 -22.766  14.689  1.00  0.00    -0.000 C 
BRANCH  18  19
ATOM     19  C   UNL     1     -13.519 -23.026  15.692  1.00  0.00    -0.003 C 
ATOM     20  C   UNL     1     -14.662 -22.034  15.502  1.00  0.00     0.004 C 
ENDBRANCH  18  19
ENDBRANCH  17  18
ENDBRANCH  16  17
ENDBRANCH  15  16
ENDBRANCH  14  15
ENDBRANCH  13  14
ENDBRANCH  12  13
ENDBRANCH   1  12
TORSDOF 16
ENDMDL
MODEL 9
REMARK VINA RESULT:    -1.537      2.997      5.931
REMARK INTER + INTRA:          -4.867
REMARK INTER:                  -4.031
REMARK INTRA:                  -0.836
REMARK UNBOUND:                -1.892
REMARK SMILES CCCCCCCCCCCCCCCCCC(=O)[O-]
REMARK SMILES IDX 10 1 11 2 12 3 13 4 14 5 15 6 16 7 17 8 18 9 19 10 20 11
REMARK SMILES IDX 9 12 8 13 7 14 6 15 5 16 4 17 3 18 2 19 1 20
REMARK H PARENT
REMARK Flexibility Score: inf
ROOT
ATOM      1  C   UNL     1      -8.803 -19.696  11.568  1.00  0.00     0.000 C 
ENDROOT
BRANCH   1   2
ATOM      2  C   UNL     1      -8.074 -20.955  12.067  1.00  0.00     0.000 C 
BRANCH   2   3
ATOM      3  C   UNL     1      -8.993 -21.884  12.877  1.00  0.00     0.000 C 
BRANCH   3   4
ATOM      4  C   UNL     1      -8.897 -21.633  14.391  1.00  0.00     0.000 C 
BRANCH   4   5
ATOM      5  C   UNL     1     -10.249 -21.254  15.022  1.00  0.00     0.000 C 
BRANCH   5   6
ATOM      6  C   UNL     1     -10.888 -22.349  15.894  1.00  0.00     0.000 C 
BRANCH   6   7
ATOM      7  C   UNL     1     -12.070 -23.050  15.207  1.00  0.00     0.006 C 
BRANCH   7   8
ATOM      8  C   UNL     1     -12.814 -22.086  14.279  1.00  0.00     0.053 C 
BRANCH   8   9
ATOM      9  C   UNL     1     -13.245 -22.788  13.029  1.00  0.00     0.041 C 
ATOM     10  O   UNL     1     -14.448 -23.125  12.875  1.00  0.00    -0.550 OA
ATOM     11  O   UNL     1     -12.329 -23.023  12.013  1.00  0.00    -0.550 OA
ENDBRANCH   8   9
ENDBRANCH   7   8
ENDBRANCH   6   7
ENDBRANCH   5   6
ENDBRANCH   4   5
ENDBRANCH   3   4
ENDBRANCH   2   3
ENDBRANCH   1   2
BRANCH   1  12
ATOM     12  C   UNL     1      -8.550 -19.418  10.077  1.00  0.00     0.000 C 
BRANCH  12  13
ATOM     13  C   UNL     1      -9.717 -18.679   9.407  1.00  0.00    -0.000 C 
BRANCH  13  14
ATOM     14  C   UNL     1      -9.698 -17.186   9.764  1.00  0.00    -0.000 C 
BRANCH  14  15
ATOM     15  C   UNL     1      -9.279 -16.923  11.222  1.00  0.00    -0.000 C 
BRANCH  15  16
ATOM     16  C   UNL     1     -10.445 -16.788  12.223  1.00  0.00    -0.000 C 
BRANCH  16  17
ATOM     17  C   UNL     1     -10.088 -17.112  13.685  1.00  0.00    -0.000 C 
BRANCH  17  18
ATOM     18  C   UNL     1      -8.574 -17.193  13.926  1.00  0.00    -0.000 C 
BRANCH  18  19
ATOM     19  C   UNL     1      -8.264 -17.384  15.415  1.00  0.00    -0.003 C 
ATOM     20  C   UNL     1      -9.393 -18.129  16.122  1.00  0.00     0.004 C 
ENDBRANCH  18  19
ENDBRANCH  17  18
ENDBRANCH  16  17
ENDBRANCH  15  16
ENDBRANCH  14  15
ENDBRANCH  13  14
ENDBRANCH  12  13
ENDBRANCH   1  12
TORSDOF 16
ENDMDL
