MODEL 1
REMARK VINA RESULT:    -6.408      0.000      0.000
REMARK INTER + INTRA:          -7.006
REMARK INTER:                  -6.970
REMARK INTRA:                  -0.036
REMARK UNBOUND:                -0.036
REMARK SMILES O=C([O-])c1ccc(O)cc1
REMARK SMILES IDX 7 1 6 2 9 3 5 4 10 5 4 6 8 7 2 9 1 10 3 11
REMARK H PARENT 8 8
REMARK Flexibility Score: inf
ROOT
ATOM      1  C   UNL     1      33.086  26.634  15.664  1.00  0.00     0.115 A 
ATOM      2  C   UNL     1      33.633  25.381  15.970  1.00  0.00     0.047 A 
ATOM      3  C   UNL     1      32.905  27.578  16.679  1.00  0.00     0.047 A 
ATOM      4  C   UNL     1      33.999  25.077  17.286  1.00  0.00     0.014 A 
ATOM      5  C   UNL     1      33.269  27.277  17.995  1.00  0.00     0.014 A 
ATOM      6  C   UNL     1      33.819  26.023  18.313  1.00  0.00    -0.003 A 
ENDROOT
BRANCH   1   7
ATOM      7  O   UNL     1      32.719  26.947  14.357  1.00  0.00    -0.508 OA
ATOM      8  H   UNL     1      32.060  26.377  13.841  1.00  0.00     0.293 HD
ENDBRANCH   1   7
BRANCH   6   9
ATOM      9  C   UNL     1      34.204  25.706  19.706  1.00  0.00     0.071 C 
ATOM     10  O   UNL     1      34.806  24.633  19.976  1.00  0.00    -0.545 OA
ATOM     11  O   UNL     1      33.905  26.590  20.736  1.00  0.00    -0.545 OA
ENDBRANCH   6   9
TORSDOF 2
ENDMDL
MODEL 2
REMARK VINA RESULT:    -6.405      0.079      1.534
REMARK INTER + INTRA:          -7.002
REMARK INTER:                  -6.966
REMARK INTRA:                  -0.036
REMARK UNBOUND:                -0.036
REMARK SMILES O=C([O-])c1ccc(O)cc1
REMARK SMILES IDX 7 1 6 2 9 3 5 4 10 5 4 6 8 7 2 9 1 10 3 11
REMARK H PARENT 8 8
REMARK Flexibility Score: inf
ROOT
ATOM      1  C   UNL     1      33.105  26.630  15.701  1.00  0.00     0.115 A 
ATOM      2  C   UNL     1      32.925  27.558  16.735  1.00  0.00     0.047 A 
ATOM      3  C   UNL     1      33.660  25.378  15.983  1.00  0.00     0.047 A 
ATOM      4  C   UNL     1      33.298  27.233  18.044  1.00  0.00     0.014 A 
ATOM      5  C   UNL     1      34.033  25.050  17.290  1.00  0.00     0.014 A 
ATOM      6  C   UNL     1      33.857  25.975  18.334  1.00  0.00    -0.003 A 
ENDROOT
BRANCH   1   7
ATOM      7  O   UNL     1      32.738  26.942  14.394  1.00  0.00    -0.508 OA
ATOM      8  H   UNL     1      33.276  27.592  13.834  1.00  0.00     0.293 HD
ENDBRANCH   1   7
BRANCH   6   9
ATOM      9  C   UNL     1      34.253  25.626  19.716  1.00  0.00     0.071 C 
ATOM     10  O   UNL     1      34.803  24.520  19.965  1.00  0.00    -0.545 OA
ATOM     11  O   UNL     1      34.024  26.514  20.760  1.00  0.00    -0.545 OA
ENDBRANCH   6   9
TORSDOF 2
ENDMDL
MODEL 3
REMARK VINA RESULT:    -6.262      2.027      4.224
REMARK INTER + INTRA:          -6.847
REMARK INTER:                  -6.817
REMARK INTRA:                  -0.030
REMARK UNBOUND:                -0.036
REMARK SMILES O=C([O-])c1ccc(O)cc1
REMARK SMILES IDX 7 1 6 2 9 3 5 4 10 5 4 6 8 7 2 9 1 10 3 11
REMARK H PARENT 8 8
REMARK Flexibility Score: inf
ROOT
ATOM      1  C   UNL     1      34.076  26.972  21.070  1.00  0.00     0.115 A 
ATOM      2  C   UNL     1      34.853  25.814  20.941  1.00  0.00     0.047 A 
ATOM      3  C   UNL     1      33.201  27.338  20.042  1.00  0.00     0.047 A 
ATOM      4  C   UNL     1      34.752  25.025  19.789  1.00  0.00     0.014 A 
ATOM      5  C   UNL     1      33.098  26.552  18.891  1.00  0.00     0.014 A 
ATOM      6  C   UNL     1      33.874  25.387  18.752  1.00  0.00    -0.003 A 
ENDROOT
BRANCH   1   7
ATOM      7  O   UNL     1      34.168  27.765  22.211  1.00  0.00    -0.508 OA
ATOM      8  H   UNL     1      33.465  27.728  22.940  1.00  0.00     0.293 HD
ENDBRANCH   1   7
BRANCH   6   9
ATOM      9  C   UNL     1      33.763  24.558  17.532  1.00  0.00     0.071 C 
ATOM     10  O   UNL     1      33.595  23.312  17.618  1.00  0.00    -0.545 OA
ATOM     11  O   UNL     1      33.845  25.141  16.273  1.00  0.00    -0.545 OA
ENDBRANCH   6   9
TORSDOF 2
ENDMDL
MODEL 4
REMARK VINA RESULT:    -6.096      1.106      4.314
REMARK INTER + INTRA:          -6.667
REMARK INTER:                  -6.632
REMARK INTRA:                  -0.035
REMARK UNBOUND:                -0.036
REMARK SMILES O=C([O-])c1ccc(O)cc1
REMARK SMILES IDX 7 1 6 2 9 3 5 4 10 5 4 6 8 7 2 9 1 10 3 11
REMARK H PARENT 8 8
REMARK Flexibility Score: inf
ROOT
ATOM      1  C   UNL     1      34.086  24.923  18.825  1.00  0.00     0.115 A 
ATOM      2  C   UNL     1      33.767  26.262  19.088  1.00  0.00     0.047 A 
ATOM      3  C   UNL     1      33.986  24.431  17.521  1.00  0.00     0.047 A 
ATOM      4  C   UNL     1      33.352  27.103  18.050  1.00  0.00     0.014 A 
ATOM      5  C   UNL     1      33.572  25.268  16.480  1.00  0.00     0.014 A 
ATOM      6  C   UNL     1      33.249  26.613  16.734  1.00  0.00    -0.003 A 
ENDROOT
BRANCH   1   7
ATOM      7  O   UNL     1      34.500  24.077  19.851  1.00  0.00    -0.508 OA
ATOM      8  H   UNL     1      34.040  23.192  20.027  1.00  0.00     0.293 HD
ENDBRANCH   1   7
BRANCH   6   9
ATOM      9  C   UNL     1      32.811  27.497  15.632  1.00  0.00     0.071 C 
ATOM     10  O   UNL     1      32.377  27.010  14.554  1.00  0.00    -0.545 OA
ATOM     11  O   UNL     1      32.871  28.879  15.771  1.00  0.00    -0.545 OA
ENDBRANCH   6   9
TORSDOF 2
ENDMDL
MODEL 5
REMARK VINA RESULT:    -6.045      1.019      1.534
REMARK INTER + INTRA:          -6.610
REMARK INTER:                  -6.575
REMARK INTRA:                  -0.036
REMARK UNBOUND:                -0.036
REMARK SMILES O=C([O-])c1ccc(O)cc1
REMARK SMILES IDX 7 1 6 2 9 3 5 4 10 5 4 6 8 7 2 9 1 10 3 11
REMARK H PARENT 8 8
REMARK Flexibility Score: inf
ROOT
ATOM      1  C   UNL     1      33.320  26.075  16.572  1.00  0.00     0.115 A 
ATOM      2  C   UNL     1      33.865  24.974  17.246  1.00  0.00     0.047 A 
ATOM      3  C   UNL     1      33.066  27.258  17.272  1.00  0.00     0.047 A 
ATOM      4  C   UNL     1      34.155  25.058  18.612  1.00  0.00     0.014 A 
ATOM      5  C   UNL     1      33.354  27.346  18.637  1.00  0.00     0.014 A 
ATOM      6  C   UNL     1      33.901  26.246  19.322  1.00  0.00    -0.003 A 
ENDROOT
BRANCH   1   7
ATOM      7  O   UNL     1      33.028  26.002  15.212  1.00  0.00    -0.508 OA
ATOM      8  H   UNL     1      32.909  26.836  14.651  1.00  0.00     0.293 HD
ENDBRANCH   1   7
BRANCH   6   9
ATOM      9  C   UNL     1      34.205  26.341  20.767  1.00  0.00     0.071 C 
ATOM     10  O   UNL     1      33.798  27.324  21.443  1.00  0.00    -0.545 OA
ATOM     11  O   UNL     1      34.943  25.348  21.398  1.00  0.00    -0.545 OA
ENDBRANCH   6   9
TORSDOF 2
ENDMDL
MODEL 6
REMARK VINA RESULT:    -6.039      1.437      4.069
REMARK INTER + INTRA:          -6.604
REMARK INTER:                  -6.570
REMARK INTRA:                  -0.034
REMARK UNBOUND:                -0.036
REMARK SMILES O=C([O-])c1ccc(O)cc1
REMARK SMILES IDX 7 1 6 2 9 3 5 4 10 5 4 6 8 7 2 9 1 10 3 11
REMARK H PARENT 8 8
REMARK Flexibility Score: inf
ROOT
ATOM      1  C   UNL     1      33.278  27.396  19.849  1.00  0.00     0.115 A 
ATOM      2  C   UNL     1      33.667  26.102  19.476  1.00  0.00     0.047 A 
ATOM      3  C   UNL     1      32.901  28.316  18.866  1.00  0.00     0.047 A 
ATOM      4  C   UNL     1      33.677  25.733  18.126  1.00  0.00     0.014 A 
ATOM      5  C   UNL     1      32.909  27.950  17.517  1.00  0.00     0.014 A 
ATOM      6  C   UNL     1      33.298  26.655  17.133  1.00  0.00    -0.003 A 
ENDROOT
BRANCH   1   7
ATOM      7  O   UNL     1      33.265  27.774  21.189  1.00  0.00    -0.508 OA
ATOM      8  H   UNL     1      33.432  27.105  21.930  1.00  0.00     0.293 HD
ENDBRANCH   1   7
BRANCH   6   9
ATOM      9  C   UNL     1      33.307  26.270  15.704  1.00  0.00     0.071 C 
ATOM     10  O   UNL     1      34.065  25.351  15.293  1.00  0.00    -0.545 OA
ATOM     11  O   UNL     1      32.478  26.918  14.796  1.00  0.00    -0.545 OA
ENDBRANCH   6   9
TORSDOF 2
ENDMDL
MODEL 7
REMARK VINA RESULT:    -6.018      2.039      2.888
REMARK INTER + INTRA:          -6.581
REMARK INTER:                  -6.548
REMARK INTRA:                  -0.034
REMARK UNBOUND:                -0.036
REMARK SMILES O=C([O-])c1ccc(O)cc1
REMARK SMILES IDX 7 1 6 2 9 3 5 4 10 5 4 6 8 7 2 9 1 10 3 11
REMARK H PARENT 8 8
REMARK Flexibility Score: inf
ROOT
ATOM      1  C   UNL     1      33.891  25.139  17.848  1.00  0.00     0.115 A 
ATOM      2  C   UNL     1      34.415  24.843  19.113  1.00  0.00     0.047 A 
ATOM      3  C   UNL     1      33.318  26.392  17.611  1.00  0.00     0.047 A 
ATOM      4  C   UNL     1      34.366  25.798  20.135  1.00  0.00     0.014 A 
ATOM      5  C   UNL     1      33.268  27.349  18.629  1.00  0.00     0.014 A 
ATOM      6  C   UNL     1      33.791  27.061  19.902  1.00  0.00    -0.003 A 
ENDROOT
BRANCH   1   7
ATOM      7  O   UNL     1      33.935  24.196  16.823  1.00  0.00    -0.508 OA
ATOM      8  H   UNL     1      34.813  23.882  16.430  1.00  0.00     0.293 HD
ENDBRANCH   1   7
BRANCH   6   9
ATOM      9  C   UNL     1      33.736  28.075  20.979  1.00  0.00     0.071 C 
ATOM     10  O   UNL     1      33.760  29.304  20.703  1.00  0.00    -0.545 OA
ATOM     11  O   UNL     1      33.657  27.684  22.310  1.00  0.00    -0.545 OA
ENDBRANCH   6   9
TORSDOF 2
ENDMDL
MODEL 8
REMARK VINA RESULT:    -6.016      2.033      3.063
REMARK INTER + INTRA:          -6.580
REMARK INTER:                  -6.546
REMARK INTRA:                  -0.034
REMARK UNBOUND:                -0.036
REMARK SMILES O=C([O-])c1ccc(O)cc1
REMARK SMILES IDX 7 1 6 2 9 3 5 4 10 5 4 6 8 7 2 9 1 10 3 11
REMARK H PARENT 8 8
REMARK Flexibility Score: inf
ROOT
ATOM      1  C   UNL     1      33.881  25.082  17.789  1.00  0.00     0.115 A 
ATOM      2  C   UNL     1      33.284  26.325  17.544  1.00  0.00     0.047 A 
ATOM      3  C   UNL     1      34.409  24.804  19.053  1.00  0.00     0.047 A 
ATOM      4  C   UNL     1      33.215  27.284  18.561  1.00  0.00     0.014 A 
ATOM      5  C   UNL     1      34.342  25.759  20.071  1.00  0.00     0.014 A 
ATOM      6  C   UNL     1      33.744  27.010  19.836  1.00  0.00    -0.003 A 
ENDROOT
BRANCH   1   7
ATOM      7  O   UNL     1      33.955  24.120  16.784  1.00  0.00    -0.508 OA
ATOM      8  H   UNL     1      34.580  24.226  15.994  1.00  0.00     0.293 HD
ENDBRANCH   1   7
BRANCH   6   9
ATOM      9  C   UNL     1      33.675  28.020  20.914  1.00  0.00     0.071 C 
ATOM     10  O   UNL     1      33.665  29.250  20.641  1.00  0.00    -0.545 OA
ATOM     11  O   UNL     1      33.618  27.626  22.246  1.00  0.00    -0.545 OA
ENDBRANCH   6   9
TORSDOF 2
ENDMDL
MODEL 9
REMARK VINA RESULT:    -5.984      2.171      3.845
REMARK INTER + INTRA:          -6.545
REMARK INTER:                  -6.515
REMARK INTRA:                  -0.030
REMARK UNBOUND:                -0.036
REMARK SMILES O=C([O-])c1ccc(O)cc1
REMARK SMILES IDX 7 1 6 2 9 3 5 4 10 5 4 6 8 7 2 9 1 10 3 11
REMARK H PARENT 8 8
REMARK Flexibility Score: inf
ROOT
ATOM      1  C   UNL     1      33.611  25.069  17.023  1.00  0.00     0.115 A 
ATOM      2  C   UNL     1      33.543  25.847  18.186  1.00  0.00     0.047 A 
ATOM      3  C   UNL     1      33.335  25.651  15.783  1.00  0.00     0.047 A 
ATOM      4  C   UNL     1      33.201  27.202  18.107  1.00  0.00     0.014 A 
ATOM      5  C   UNL     1      32.993  27.005  15.699  1.00  0.00     0.014 A 
ATOM      6  C   UNL     1      32.922  27.794  16.861  1.00  0.00    -0.003 A 
ENDROOT
BRANCH   1   7
ATOM      7  O   UNL     1      33.950  23.720  17.091  1.00  0.00    -0.508 OA
ATOM      8  H   UNL     1      33.352  23.003  16.699  1.00  0.00     0.293 HD
ENDBRANCH   1   7
BRANCH   6   9
ATOM      9  C   UNL     1      32.560  29.226  16.770  1.00  0.00     0.071 C 
ATOM     10  O   UNL     1      33.183  29.996  15.991  1.00  0.00    -0.545 OA
ATOM     11  O   UNL     1      31.527  29.741  17.544  1.00  0.00    -0.545 OA
ENDBRANCH   6   9
TORSDOF 2
ENDMDL
