MODEL 1
REMARK VINA RESULT:    -3.540      0.000      0.000
REMARK INTER + INTRA:          -5.601
REMARK INTER:                  -5.195
REMARK INTRA:                  -0.406
REMARK UNBOUND:                -0.406
REMARK SMILES O=C([O-])CCCCCCCC(=O)[O-]
REMARK SMILES IDX 7 1 6 2 5 3 4 4 2 5 1 6 3 7 8 8 9 9 10 10 11 11 12 12 13 13
REMARK H PARENT
REMARK Flexibility Score: inf
ROOT
ATOM      1  C   UNL     1       7.078   5.989  34.351  1.00  0.00     0.000 C 
ENDROOT
BRANCH   1   2
ATOM      2  C   UNL     1       6.931   4.829  35.351  1.00  0.00     0.000 C 
BRANCH   2   3
ATOM      3  C   UNL     1       7.750   5.045  36.637  1.00  0.00     0.006 C 
BRANCH   3   4
ATOM      4  C   UNL     1       9.204   5.479  36.394  1.00  0.00     0.053 C 
BRANCH   4   5
ATOM      5  C   UNL     1      10.040   4.358  35.857  1.00  0.00     0.041 C 
ATOM      6  O   UNL     1      10.777   4.541  34.853  1.00  0.00    -0.550 OA
ATOM      7  O   UNL     1       9.978   3.102  36.445  1.00  0.00    -0.550 OA
ENDBRANCH   4   5
ENDBRANCH   3   4
ENDBRANCH   2   3
ENDBRANCH   1   2
BRANCH   1   8
ATOM      8  C   UNL     1       5.999   7.067  34.533  1.00  0.00     0.000 C 
BRANCH   8   9
ATOM      9  C   UNL     1       6.554   8.360  35.153  1.00  0.00     0.006 C 
BRANCH   9  10
ATOM     10  C   UNL     1       5.936   9.617  34.524  1.00  0.00     0.053 C 
BRANCH  10  11
ATOM     11  C   UNL     1       6.589   9.968  33.222  1.00  0.00     0.041 C 
ATOM     12  O   UNL     1       6.156  10.931  32.536  1.00  0.00    -0.550 OA
ATOM     13  O   UNL     1       7.657   9.213  32.753  1.00  0.00    -0.550 OA
ENDBRANCH  10  11
ENDBRANCH   9  10
ENDBRANCH   8   9
ENDBRANCH   1   8
TORSDOF 8
ENDMDL
MODEL 2
REMARK VINA RESULT:    -3.149      1.075      6.267
REMARK INTER + INTRA:          -5.028
REMARK INTER:                  -4.657
REMARK INTRA:                  -0.372
REMARK UNBOUND:                -0.406
REMARK SMILES O=C([O-])CCCCCCCC(=O)[O-]
REMARK SMILES IDX 7 1 6 2 5 3 4 4 2 5 1 6 3 7 8 8 9 9 10 10 11 11 12 12 13 13
REMARK H PARENT
REMARK Flexibility Score: inf
ROOT
ATOM      1  C   UNL     1       6.177   5.458  34.122  1.00  0.00     0.000 C 
ENDROOT
BRANCH   1   2
ATOM      2  C   UNL     1       7.215   6.594  34.153  1.00  0.00     0.000 C 
BRANCH   2   3
ATOM      3  C   UNL     1       6.718   7.872  33.453  1.00  0.00     0.006 C 
BRANCH   3   4
ATOM      4  C   UNL     1       6.220   8.964  34.413  1.00  0.00     0.053 C 
BRANCH   4   5
ATOM      5  C   UNL     1       6.236  10.319  33.775  1.00  0.00     0.041 C 
ATOM      6  O   UNL     1       6.605  10.452  32.579  1.00  0.00    -0.550 OA
ATOM      7  O   UNL     1       5.875  11.439  34.513  1.00  0.00    -0.550 OA
ENDBRANCH   4   5
ENDBRANCH   3   4
ENDBRANCH   2   3
ENDBRANCH   1   2
BRANCH   1   8
ATOM      8  C   UNL     1       6.439   4.388  35.193  1.00  0.00     0.000 C 
BRANCH   8   9
ATOM      9  C   UNL     1       7.612   4.754  36.118  1.00  0.00     0.006 C 
BRANCH   9  10
ATOM     10  C   UNL     1       8.509   3.546  36.421  1.00  0.00     0.053 C 
BRANCH  10  11
ATOM     11  C   UNL     1       9.944   3.819  36.086  1.00  0.00     0.041 C 
ATOM     12  O   UNL     1      10.856   3.105  36.579  1.00  0.00    -0.550 OA
ATOM     13  O   UNL     1      10.274   4.880  35.251  1.00  0.00    -0.550 OA
ENDBRANCH  10  11
ENDBRANCH   9  10
ENDBRANCH   8   9
ENDBRANCH   1   8
TORSDOF 8
ENDMDL
MODEL 3
REMARK VINA RESULT:    -2.827     22.270     24.546
REMARK INTER + INTRA:          -4.555
REMARK INTER:                  -4.160
REMARK INTRA:                  -0.395
REMARK UNBOUND:                -0.406
REMARK SMILES O=C([O-])CCCCCCCC(=O)[O-]
REMARK SMILES IDX 7 1 6 2 5 3 4 4 2 5 1 6 3 7 8 8 9 9 10 10 11 11 12 12 13 13
REMARK H PARENT
REMARK Flexibility Score: inf
ROOT
ATOM      1  C   UNL     1      21.176  20.679  20.655  1.00  0.00     0.000 C 
ENDROOT
BRANCH   1   2
ATOM      2  C   UNL     1      19.748  21.108  21.036  1.00  0.00     0.000 C 
BRANCH   2   3
ATOM      3  C   UNL     1      18.783  21.093  19.837  1.00  0.00     0.006 C 
BRANCH   3   4
ATOM      4  C   UNL     1      19.005  19.926  18.863  1.00  0.00     0.053 C 
BRANCH   4   5
ATOM      5  C   UNL     1      18.039  18.806  19.101  1.00  0.00     0.041 C 
ATOM      6  O   UNL     1      17.075  18.960  19.896  1.00  0.00    -0.550 OA
ATOM      7  O   UNL     1      18.224  17.582  18.472  1.00  0.00    -0.550 OA
ENDBRANCH   4   5
ENDBRANCH   3   4
ENDBRANCH   2   3
ENDBRANCH   1   2
BRANCH   1   8
ATOM      8  C   UNL     1      22.176  21.844  20.702  1.00  0.00     0.000 C 
BRANCH   8   9
ATOM      9  C   UNL     1      23.630  21.382  20.508  1.00  0.00     0.006 C 
BRANCH   9  10
ATOM     10  C   UNL     1      23.719  19.907  20.094  1.00  0.00     0.053 C 
BRANCH  10  11
ATOM     11  C   UNL     1      24.974  19.261  20.595  1.00  0.00     0.041 C 
ATOM     12  O   UNL     1      25.641  19.803  21.515  1.00  0.00    -0.550 OA
ATOM     13  O   UNL     1      25.423  18.076  20.026  1.00  0.00    -0.550 OA
ENDBRANCH  10  11
ENDBRANCH   9  10
ENDBRANCH   8   9
ENDBRANCH   1   8
TORSDOF 8
ENDMDL
MODEL 4
REMARK VINA RESULT:    -2.757     22.355     24.235
REMARK INTER + INTRA:          -4.452
REMARK INTER:                  -4.100
REMARK INTRA:                  -0.352
REMARK UNBOUND:                -0.406
REMARK SMILES O=C([O-])CCCCCCCC(=O)[O-]
REMARK SMILES IDX 7 1 6 2 5 3 4 4 2 5 1 6 3 7 8 8 9 9 10 10 11 11 12 12 13 13
REMARK H PARENT
REMARK Flexibility Score: inf
ROOT
ATOM      1  C   UNL     1      21.282  20.658  20.603  1.00  0.00     0.000 C 
ENDROOT
BRANCH   1   2
ATOM      2  C   UNL     1      22.286  21.823  20.601  1.00  0.00     0.000 C 
BRANCH   2   3
ATOM      3  C   UNL     1      23.750  21.347  20.591  1.00  0.00     0.006 C 
BRANCH   3   4
ATOM      4  C   UNL     1      23.953  19.942  20.000  1.00  0.00     0.053 C 
BRANCH   4   5
ATOM      5  C   UNL     1      25.089  19.219  20.655  1.00  0.00     0.041 C 
ATOM      6  O   UNL     1      25.729  19.761  21.594  1.00  0.00    -0.550 OA
ATOM      7  O   UNL     1      25.463  17.959  20.206  1.00  0.00    -0.550 OA
ENDBRANCH   4   5
ENDBRANCH   3   4
ENDBRANCH   2   3
ENDBRANCH   1   2
BRANCH   1   8
ATOM      8  C   UNL     1      19.889  21.079  21.096  1.00  0.00     0.000 C 
BRANCH   8   9
ATOM      9  C   UNL     1      18.827  21.017  19.986  1.00  0.00     0.006 C 
BRANCH   9  10
ATOM     10  C   UNL     1      19.082  19.867  19.002  1.00  0.00     0.053 C 
BRANCH  10  11
ATOM     11  C   UNL     1      18.000  18.833  19.059  1.00  0.00     0.041 C 
ATOM     12  O   UNL     1      18.218  17.665  18.645  1.00  0.00    -0.550 OA
ATOM     13  O   UNL     1      16.741  19.169  19.543  1.00  0.00    -0.550 OA
ENDBRANCH  10  11
ENDBRANCH   9  10
ENDBRANCH   8   9
ENDBRANCH   1   8
TORSDOF 8
ENDMDL
MODEL 5
REMARK VINA RESULT:    -2.748     22.228     24.134
REMARK INTER + INTRA:          -4.439
REMARK INTER:                  -4.035
REMARK INTRA:                  -0.405
REMARK UNBOUND:                -0.406
REMARK SMILES O=C([O-])CCCCCCCC(=O)[O-]
REMARK SMILES IDX 7 1 6 2 5 3 4 4 2 5 1 6 3 7 8 8 9 9 10 10 11 11 12 12 13 13
REMARK H PARENT
REMARK Flexibility Score: inf
ROOT
ATOM      1  C   UNL     1      19.397  20.468  20.081  1.00  0.00     0.000 C 
ENDROOT
BRANCH   1   2
ATOM      2  C   UNL     1      18.250  21.023  19.219  1.00  0.00     0.000 C 
BRANCH   2   3
ATOM      3  C   UNL     1      17.290  19.924  18.727  1.00  0.00     0.006 C 
BRANCH   3   4
ATOM      4  C   UNL     1      17.717  18.497  19.107  1.00  0.00     0.053 C 
BRANCH   4   5
ATOM      5  C   UNL     1      18.260  17.744  17.932  1.00  0.00     0.041 C 
ATOM      6  O   UNL     1      18.569  18.356  16.875  1.00  0.00    -0.550 OA
ATOM      7  O   UNL     1      18.393  16.363  17.992  1.00  0.00    -0.550 OA
ENDBRANCH   4   5
ENDBRANCH   3   4
ENDBRANCH   2   3
ENDBRANCH   1   2
BRANCH   1   8
ATOM      8  C   UNL     1      19.795  21.420  21.219  1.00  0.00     0.000 C 
BRANCH   8   9
ATOM      9  C   UNL     1      21.209  21.997  21.038  1.00  0.00     0.006 C 
BRANCH   9  10
ATOM     10  C   UNL     1      21.977  21.306  19.903  1.00  0.00     0.053 C 
BRANCH  10  11
ATOM     11  C   UNL     1      23.338  20.859  20.342  1.00  0.00     0.041 C 
ATOM     12  O   UNL     1      23.773  19.727  20.002  1.00  0.00    -0.550 OA
ATOM     13  O   UNL     1      24.113  21.680  21.151  1.00  0.00    -0.550 OA
ENDBRANCH  10  11
ENDBRANCH   9  10
ENDBRANCH   8   9
ENDBRANCH   1   8
TORSDOF 8
ENDMDL
MODEL 6
REMARK VINA RESULT:    -2.705     20.555     22.141
REMARK INTER + INTRA:          -4.377
REMARK INTER:                  -3.678
REMARK INTRA:                  -0.699
REMARK UNBOUND:                -0.406
REMARK SMILES O=C([O-])CCCCCCCC(=O)[O-]
REMARK SMILES IDX 7 1 6 2 5 3 4 4 2 5 1 6 3 7 8 8 9 9 10 10 11 11 12 12 13 13
REMARK H PARENT
REMARK Flexibility Score: inf
ROOT
ATOM      1  C   UNL     1      20.073   3.599  19.488  1.00  0.00     0.000 C 
ENDROOT
BRANCH   1   2
ATOM      2  C   UNL     1      20.805   3.038  18.257  1.00  0.00     0.000 C 
BRANCH   2   3
ATOM      3  C   UNL     1      21.120   4.120  17.209  1.00  0.00     0.006 C 
BRANCH   3   4
ATOM      4  C   UNL     1      21.113   5.554  17.761  1.00  0.00     0.053 C 
BRANCH   4   5
ATOM      5  C   UNL     1      22.383   6.282  17.445  1.00  0.00     0.041 C 
ATOM      6  O   UNL     1      23.496   5.717  17.613  1.00  0.00    -0.550 OA
ATOM      7  O   UNL     1      22.339   7.596  16.997  1.00  0.00    -0.550 OA
ENDBRANCH   4   5
ENDBRANCH   3   4
ENDBRANCH   2   3
ENDBRANCH   1   2
BRANCH   1   8
ATOM      8  C   UNL     1      20.861   3.390  20.791  1.00  0.00     0.000 C 
BRANCH   8   9
ATOM      9  C   UNL     1      22.374   3.257  20.550  1.00  0.00     0.006 C 
BRANCH   9  10
ATOM     10  C   UNL     1      23.130   4.549  20.887  1.00  0.00     0.053 C 
BRANCH  10  11
ATOM     11  C   UNL     1      24.594   4.302  21.090  1.00  0.00     0.041 C 
ATOM     12  O   UNL     1      25.019   3.887  22.200  1.00  0.00    -0.550 OA
ATOM     13  O   UNL     1      25.492   4.558  20.061  1.00  0.00    -0.550 OA
ENDBRANCH  10  11
ENDBRANCH   9  10
ENDBRANCH   8   9
ENDBRANCH   1   8
TORSDOF 8
ENDMDL
MODEL 7
REMARK VINA RESULT:    -2.697     20.506     21.646
REMARK INTER + INTRA:          -4.365
REMARK INTER:                  -3.654
REMARK INTRA:                  -0.711
REMARK UNBOUND:                -0.406
REMARK SMILES O=C([O-])CCCCCCCC(=O)[O-]
REMARK SMILES IDX 7 1 6 2 5 3 4 4 2 5 1 6 3 7 8 8 9 9 10 10 11 11 12 12 13 13
REMARK H PARENT
REMARK Flexibility Score: inf
ROOT
ATOM      1  C   UNL     1      19.932   3.634  19.347  1.00  0.00     0.000 C 
ENDROOT
BRANCH   1   2
ATOM      2  C   UNL     1      20.656   3.405  20.686  1.00  0.00     0.000 C 
BRANCH   2   3
ATOM      3  C   UNL     1      22.183   3.298  20.525  1.00  0.00     0.006 C 
BRANCH   3   4
ATOM      4  C   UNL     1      22.949   4.572  20.914  1.00  0.00     0.053 C 
BRANCH   4   5
ATOM      5  C   UNL     1      24.404   4.301  21.146  1.00  0.00     0.041 C 
ATOM      6  O   UNL     1      24.871   4.305  22.316  1.00  0.00    -0.550 OA
ATOM      7  O   UNL     1      25.250   4.078  20.068  1.00  0.00    -0.550 OA
ENDBRANCH   4   5
ENDBRANCH   3   4
ENDBRANCH   2   3
ENDBRANCH   1   2
BRANCH   1   8
ATOM      8  C   UNL     1      20.690   3.031  18.155  1.00  0.00     0.000 C 
BRANCH   8   9
ATOM      9  C   UNL     1      21.053   4.082  17.093  1.00  0.00     0.006 C 
BRANCH   9  10
ATOM     10  C   UNL     1      21.057   5.507  17.665  1.00  0.00     0.053 C 
BRANCH  10  11
ATOM     11  C   UNL     1      22.371   6.193  17.443  1.00  0.00     0.041 C 
ATOM     12  O   UNL     1      22.404   7.408  17.119  1.00  0.00    -0.550 OA
ATOM     13  O   UNL     1      23.557   5.480  17.566  1.00  0.00    -0.550 OA
ENDBRANCH  10  11
ENDBRANCH   9  10
ENDBRANCH   8   9
ENDBRANCH   1   8
TORSDOF 8
ENDMDL
MODEL 8
REMARK VINA RESULT:    -2.553     22.304     24.332
REMARK INTER + INTRA:          -4.153
REMARK INTER:                  -3.637
REMARK INTRA:                  -0.516
REMARK UNBOUND:                -0.406
REMARK SMILES O=C([O-])CCCCCCCC(=O)[O-]
REMARK SMILES IDX 7 1 6 2 5 3 4 4 2 5 1 6 3 7 8 8 9 9 10 10 11 11 12 12 13 13
REMARK H PARENT
REMARK Flexibility Score: inf
ROOT
ATOM      1  C   UNL     1      19.355  21.480  20.878  1.00  0.00     0.000 C 
ENDROOT
BRANCH   1   2
ATOM      2  C   UNL     1      20.673  20.696  20.999  1.00  0.00     0.000 C 
BRANCH   2   3
ATOM      3  C   UNL     1      21.874  21.456  20.406  1.00  0.00     0.006 C 
BRANCH   3   4
ATOM      4  C   UNL     1      22.986  20.548  19.857  1.00  0.00     0.053 C 
BRANCH   4   5
ATOM      5  C   UNL     1      24.331  20.919  20.404  1.00  0.00     0.041 C 
ATOM      6  O   UNL     1      24.423  21.707  21.382  1.00  0.00    -0.550 OA
ATOM      7  O   UNL     1      25.483  20.420  19.812  1.00  0.00    -0.550 OA
ENDBRANCH   4   5
ENDBRANCH   3   4
ENDBRANCH   2   3
ENDBRANCH   1   2
BRANCH   1   8
ATOM      8  C   UNL     1      19.090  21.973  19.447  1.00  0.00     0.000 C 
BRANCH   8   9
ATOM      9  C   UNL     1      18.018  21.139  18.724  1.00  0.00     0.006 C 
BRANCH   9  10
ATOM     10  C   UNL     1      18.582  19.822  18.175  1.00  0.00     0.053 C 
BRANCH  10  11
ATOM     11  C   UNL     1      17.981  18.631  18.858  1.00  0.00     0.041 C 
ATOM     12  O   UNL     1      17.250  18.784  19.871  1.00  0.00    -0.550 OA
ATOM     13  O   UNL     1      18.254  17.351  18.391  1.00  0.00    -0.550 OA
ENDBRANCH  10  11
ENDBRANCH   9  10
ENDBRANCH   8   9
ENDBRANCH   1   8
TORSDOF 8
ENDMDL
