MODEL 1
REMARK VINA RESULT:    -5.796      0.000      0.000
REMARK INTER + INTRA:          -7.137
REMARK INTER:                  -6.813
REMARK INTRA:                  -0.324
REMARK UNBOUND:                -0.324
REMARK SMILES O=c1c(O)c(-c2ccc(O)c(O)c2)oc2cc(O)ccc12
REMARK SMILES IDX 5 1 3 2 2 3 1 4 21 5 15 6 14 7 16 8 17 9 19 10 20 11 6 12
REMARK SMILES IDX 7 13 8 14 9 15 13 16 11 17 10 18 12 20 4 22 18 24
REMARK H PARENT 10 19 12 21 4 23 18 25
REMARK Flexibility Score: inf
ROOT
ATOM      1  C   UNL     1      33.164  24.502  37.084  1.00  0.00     0.180 A 
ATOM      2  C   UNL     1      33.094  23.396  36.210  1.00  0.00     0.208 A 
ATOM      3  C   UNL     1      32.597  22.178  36.700  1.00  0.00     0.235 A 
ATOM      4  O   UNL     1      32.535  21.172  35.941  1.00  0.00    -0.285 OA
ATOM      5  C   UNL     1      32.164  22.095  38.033  1.00  0.00     0.069 A 
ATOM      6  C   UNL     1      32.244  23.253  38.836  1.00  0.00     0.142 A 
ATOM      7  O   UNL     1      32.729  24.384  38.336  1.00  0.00    -0.452 OA
ATOM      8  C   UNL     1      31.813  23.213  40.166  1.00  0.00     0.094 A 
ATOM      9  C   UNL     1      31.304  22.028  40.707  1.00  0.00     0.119 A 
ATOM     10  C   UNL     1      31.223  20.876  39.914  1.00  0.00     0.047 A 
ATOM     11  C   UNL     1      31.650  20.906  38.583  1.00  0.00     0.020 A 
ENDROOT
BRANCH   1  12
ATOM     12  C   UNL     1      33.694  25.814  36.649  1.00  0.00     0.025 A 
ATOM     13  C   UNL     1      35.057  26.133  36.777  1.00  0.00     0.016 A 
ATOM     14  C   UNL     1      35.529  27.386  36.382  1.00  0.00     0.051 A 
ATOM     15  C   UNL     1      34.647  28.344  35.865  1.00  0.00     0.157 A 
ATOM     16  C   UNL     1      32.810  26.785  36.150  1.00  0.00     0.062 A 
ATOM     17  C   UNL     1      33.280  28.041  35.753  1.00  0.00     0.158 A 
BRANCH  15  18
ATOM     18  O   UNL     1      35.123  29.593  35.471  1.00  0.00    -0.504 OA
ATOM     19  H   UNL     1      34.809  30.446  35.918  1.00  0.00     0.293 HD
ENDBRANCH  15  18
BRANCH  17  20
ATOM     20  O   UNL     1      32.375  28.975  35.249  1.00  0.00    -0.504 OA
ATOM     21  H   UNL     1      32.667  29.742  34.656  1.00  0.00     0.293 HD
ENDBRANCH  17  20
ENDBRANCH   1  12
BRANCH   2  22
ATOM     22  O   UNL     1      33.487  23.522  34.875  1.00  0.00    -0.502 OA
ATOM     23  H   UNL     1      33.578  24.422  34.420  1.00  0.00     0.293 HD
ENDBRANCH   2  22
BRANCH   9  24
ATOM     24  O   UNL     1      30.879  22.006  42.034  1.00  0.00    -0.508 OA
ATOM     25  H   UNL     1      30.947  22.826  42.626  1.00  0.00     0.293 HD
ENDBRANCH   9  24
TORSDOF 5
ENDMDL
MODEL 2
REMARK VINA RESULT:    -5.135      1.528      2.014
REMARK INTER + INTRA:          -6.359
REMARK INTER:                  -6.303
REMARK INTRA:                  -0.056
REMARK UNBOUND:                -0.324
REMARK SMILES O=c1c(O)c(-c2ccc(O)c(O)c2)oc2cc(O)ccc12
REMARK SMILES IDX 5 1 3 2 2 3 1 4 21 5 15 6 14 7 16 8 17 9 19 10 20 11 6 12
REMARK SMILES IDX 7 13 8 14 9 15 13 16 11 17 10 18 12 20 4 22 18 24
REMARK H PARENT 10 19 12 21 4 23 18 25
REMARK Flexibility Score: inf
ROOT
ATOM      1  C   UNL     1      33.735  24.771  37.511  1.00  0.00     0.180 A 
ATOM      2  C   UNL     1      34.766  23.847  37.239  1.00  0.00     0.208 A 
ATOM      3  C   UNL     1      34.777  22.624  37.929  1.00  0.00     0.235 A 
ATOM      4  O   UNL     1      35.694  21.785  37.711  1.00  0.00    -0.285 OA
ATOM      5  C   UNL     1      33.757  22.343  38.851  1.00  0.00     0.069 A 
ATOM      6  C   UNL     1      32.748  23.310  39.049  1.00  0.00     0.142 A 
ATOM      7  O   UNL     1      32.779  24.459  38.383  1.00  0.00    -0.452 OA
ATOM      8  C   UNL     1      31.709  23.062  39.953  1.00  0.00     0.094 A 
ATOM      9  C   UNL     1      31.665  21.860  40.665  1.00  0.00     0.119 A 
ATOM     10  C   UNL     1      32.665  20.897  40.473  1.00  0.00     0.047 A 
ATOM     11  C   UNL     1      33.707  21.134  39.571  1.00  0.00     0.020 A 
ENDROOT
BRANCH   1  12
ATOM     12  C   UNL     1      33.665  26.089  36.840  1.00  0.00     0.025 A 
ATOM     13  C   UNL     1      32.547  26.463  36.075  1.00  0.00     0.016 A 
ATOM     14  C   UNL     1      32.514  27.702  35.432  1.00  0.00     0.051 A 
ATOM     15  C   UNL     1      33.601  28.581  35.532  1.00  0.00     0.157 A 
ATOM     16  C   UNL     1      34.762  26.963  36.920  1.00  0.00     0.062 A 
ATOM     17  C   UNL     1      34.731  28.206  36.277  1.00  0.00     0.158 A 
BRANCH  15  18
ATOM     18  O   UNL     1      33.564  29.817  34.890  1.00  0.00    -0.504 OA
ATOM     19  H   UNL     1      32.806  30.070  34.267  1.00  0.00     0.293 HD
ENDBRANCH  15  18
BRANCH  17  20
ATOM     20  O   UNL     1      35.833  29.054  36.390  1.00  0.00    -0.504 OA
ATOM     21  H   UNL     1      36.599  28.859  37.022  1.00  0.00     0.293 HD
ENDBRANCH  17  20
ENDBRANCH   1  12
BRANCH   2  22
ATOM     22  O   UNL     1      35.740  24.134  36.280  1.00  0.00    -0.502 OA
ATOM     23  H   UNL     1      35.505  24.428  35.340  1.00  0.00     0.293 HD
ENDBRANCH   2  22
BRANCH   9  24
ATOM     24  O   UNL     1      30.623  21.630  41.561  1.00  0.00    -0.508 OA
ATOM     25  H   UNL     1      29.667  21.524  41.245  1.00  0.00     0.293 HD
ENDBRANCH   9  24
TORSDOF 5
ENDMDL
MODEL 3
REMARK VINA RESULT:    -3.275      1.667      6.728
REMARK INTER + INTRA:          -4.173
REMARK INTER:                  -4.251
REMARK INTRA:                   0.078
REMARK UNBOUND:                -0.324
REMARK SMILES O=c1c(O)c(-c2ccc(O)c(O)c2)oc2cc(O)ccc12
REMARK SMILES IDX 5 1 3 2 2 3 1 4 21 5 15 6 14 7 16 8 17 9 19 10 20 11 6 12
REMARK SMILES IDX 7 13 8 14 9 15 13 16 11 17 10 18 12 20 4 22 18 24
REMARK H PARENT 10 19 12 21 4 23 18 25
REMARK Flexibility Score: inf
ROOT
ATOM      1  C   UNL     1      33.845  24.337  37.577  1.00  0.00     0.180 A 
ATOM      2  C   UNL     1      34.643  23.644  36.643  1.00  0.00     0.208 A 
ATOM      3  C   UNL     1      35.409  24.383  35.727  1.00  0.00     0.235 A 
ATOM      4  O   UNL     1      36.122  23.786  34.875  1.00  0.00    -0.285 OA
ATOM      5  C   UNL     1      35.376  25.786  35.775  1.00  0.00     0.069 A 
ATOM      6  C   UNL     1      34.570  26.404  36.754  1.00  0.00     0.142 A 
ATOM      7  O   UNL     1      33.855  25.669  37.598  1.00  0.00    -0.452 OA
ATOM      8  C   UNL     1      34.521  27.800  36.840  1.00  0.00     0.094 A 
ATOM      9  C   UNL     1      35.265  28.588  35.957  1.00  0.00     0.119 A 
ATOM     10  C   UNL     1      36.065  27.979  34.981  1.00  0.00     0.047 A 
ATOM     11  C   UNL     1      36.123  26.585  34.888  1.00  0.00     0.020 A 
ENDROOT
BRANCH   1  12
ATOM     12  C   UNL     1      32.996  23.631  38.563  1.00  0.00     0.025 A 
ATOM     13  C   UNL     1      31.665  24.017  38.794  1.00  0.00     0.016 A 
ATOM     14  C   UNL     1      30.891  23.350  39.746  1.00  0.00     0.051 A 
ATOM     15  C   UNL     1      31.438  22.296  40.491  1.00  0.00     0.157 A 
ATOM     16  C   UNL     1      33.547  22.588  39.326  1.00  0.00     0.062 A 
ATOM     17  C   UNL     1      32.774  21.917  40.281  1.00  0.00     0.158 A 
BRANCH  15  18
ATOM     18  O   UNL     1      30.662  21.632  41.439  1.00  0.00    -0.504 OA
ATOM     19  H   UNL     1      31.069  20.971  42.089  1.00  0.00     0.293 HD
ENDBRANCH  15  18
BRANCH  17  20
ATOM     20  O   UNL     1      33.351  20.878  41.011  1.00  0.00    -0.504 OA
ATOM     21  H   UNL     1      33.398  20.892  42.022  1.00  0.00     0.293 HD
ENDBRANCH  17  20
ENDBRANCH   1  12
BRANCH   2  22
ATOM     22  O   UNL     1      34.693  22.248  36.652  1.00  0.00    -0.502 OA
ATOM     23  H   UNL     1      35.236  21.721  35.979  1.00  0.00     0.293 HD
ENDBRANCH   2  22
BRANCH   9  24
ATOM     24  O   UNL     1      35.203  29.977  36.056  1.00  0.00    -0.508 OA
ATOM     25  H   UNL     1      35.926  30.568  35.664  1.00  0.00     0.293 HD
ENDBRANCH   9  24
TORSDOF 5
ENDMDL
