MODEL 1
REMARK VINA RESULT:    -3.282      0.000      0.000
REMARK INTER + INTRA:         -13.320
REMARK INTER:                  -8.270
REMARK INTRA:                  -5.051
REMARK UNBOUND:                -5.051
REMARK SMILES CCCCCCCCCCCCCCCCCCCCCCCCCCCC(=O)[O-]
REMARK SMILES IDX 15 1 16 2 17 3 18 4 19 5 20 6 21 7 22 8 23 9 24 10 25 11
REMARK SMILES IDX 26 12 27 13 28 14 29 15 30 16 14 17 13 18 12 19 11 20 10 21
REMARK SMILES IDX 9 22 8 23 7 24 6 25 5 26 4 27 3 28 2 29 1 30
REMARK H PARENT
REMARK Flexibility Score: inf
ROOT
ATOM      1  C   UNL     1       5.253   1.488 -10.149  1.00  0.00     0.000 C 
ENDROOT
BRANCH   1   2
ATOM      2  C   UNL     1       4.023   2.164 -10.791  1.00  0.00     0.000 C 
BRANCH   2   3
ATOM      3  C   UNL     1       3.564   3.469 -10.114  1.00  0.00     0.000 C 
BRANCH   3   4
ATOM      4  C   UNL     1       4.045   4.761 -10.805  1.00  0.00     0.000 C 
BRANCH   4   5
ATOM      5  C   UNL     1       4.981   5.620  -9.929  1.00  0.00     0.000 C 
BRANCH   5   6
ATOM      6  C   UNL     1       6.320   5.924 -10.624  1.00  0.00     0.000 C 
BRANCH   6   7
ATOM      7  C   UNL     1       7.396   4.863 -10.339  1.00  0.00     0.000 C 
BRANCH   7   8
ATOM      8  C   UNL     1       8.559   5.413  -9.494  1.00  0.00     0.000 C 
BRANCH   8   9
ATOM      9  C   UNL     1       8.975   6.839  -9.902  1.00  0.00     0.000 C 
BRANCH   9  10
ATOM     10  C   UNL     1       9.137   7.836  -8.739  1.00  0.00     0.000 C 
BRANCH  10  11
ATOM     11  C   UNL     1       7.969   7.787  -7.738  1.00  0.00     0.000 C 
BRANCH  11  12
ATOM     12  C   UNL     1       6.983   8.951  -7.929  1.00  0.00     0.006 C 
BRANCH  12  13
ATOM     13  C   UNL     1       7.684  10.317  -7.918  1.00  0.00     0.053 C 
BRANCH  13  14
ATOM     14  C   UNL     1       7.398  11.067  -9.181  1.00  0.00     0.041 C 
ATOM     15  O   UNL     1       7.136  10.445 -10.246  1.00  0.00    -0.550 OA
ATOM     16  O   UNL     1       7.398  12.456  -9.179  1.00  0.00    -0.550 OA
ENDBRANCH  13  14
ENDBRANCH  12  13
ENDBRANCH  11  12
ENDBRANCH  10  11
ENDBRANCH   9  10
ENDBRANCH   8   9
ENDBRANCH   7   8
ENDBRANCH   6   7
ENDBRANCH   5   6
ENDBRANCH   4   5
ENDBRANCH   3   4
ENDBRANCH   2   3
ENDBRANCH   1   2
BRANCH   1  17
ATOM     17  C   UNL     1       6.454   1.287 -11.090  1.00  0.00     0.000 C 
BRANCH  17  18
ATOM     18  C   UNL     1       7.578   0.452 -10.458  1.00  0.00     0.000 C 
BRANCH  18  19
ATOM     19  C   UNL     1       8.953   1.075 -10.747  1.00  0.00     0.000 C 
BRANCH  19  20
ATOM     20  C   UNL     1       9.897   0.999  -9.528  1.00  0.00     0.000 C 
BRANCH  20  21
ATOM     21  C   UNL     1      10.101   2.349  -8.815  1.00  0.00     0.000 C 
BRANCH  21  22
ATOM     22  C   UNL     1       9.462   2.451  -7.418  1.00  0.00    -0.000 C 
BRANCH  22  23
ATOM     23  C   UNL     1       8.759   1.152  -6.988  1.00  0.00    -0.000 C 
BRANCH  23  24
ATOM     24  C   UNL     1       7.244   1.338  -6.798  1.00  0.00    -0.000 C 
BRANCH  24  25
ATOM     25  C   UNL     1       6.689   2.534  -7.585  1.00  0.00    -0.000 C 
BRANCH  25  26
ATOM     26  C   UNL     1       5.867   3.457  -6.674  1.00  0.00    -0.000 C 
BRANCH  26  27
ATOM     27  C   UNL     1       6.487   4.856  -6.528  1.00  0.00    -0.000 C 
BRANCH  27  28
ATOM     28  C   UNL     1       6.909   5.167  -5.082  1.00  0.00    -0.000 C 
BRANCH  28  29
ATOM     29  C   UNL     1       7.069   3.899  -4.230  1.00  0.00    -0.003 C 
ATOM     30  C   UNL     1       8.528   3.463  -4.085  1.00  0.00     0.004 C 
ENDBRANCH  28  29
ENDBRANCH  27  28
ENDBRANCH  26  27
ENDBRANCH  25  26
ENDBRANCH  24  25
ENDBRANCH  23  24
ENDBRANCH  22  23
ENDBRANCH  21  22
ENDBRANCH  20  21
ENDBRANCH  19  20
ENDBRANCH  18  19
ENDBRANCH  17  18
ENDBRANCH   1  17
TORSDOF 26
ENDMDL
MODEL 2
REMARK VINA RESULT:    -3.175      3.523      7.627
REMARK INTER + INTRA:         -13.052
REMARK INTER:                  -8.751
REMARK INTRA:                  -4.302
REMARK UNBOUND:                -5.051
REMARK SMILES CCCCCCCCCCCCCCCCCCCCCCCCCCCC(=O)[O-]
REMARK SMILES IDX 15 1 16 2 17 3 18 4 19 5 20 6 21 7 22 8 23 9 24 10 25 11
REMARK SMILES IDX 26 12 27 13 28 14 29 15 30 16 14 17 13 18 12 19 11 20 10 21
REMARK SMILES IDX 9 22 8 23 7 24 6 25 5 26 4 27 3 28 2 29 1 30
REMARK H PARENT
REMARK Flexibility Score: inf
ROOT
ATOM      1  C   UNL     1       6.710   4.903  -5.615  1.00  0.00     0.000 C 
ENDROOT
BRANCH   1   2
ATOM      2  C   UNL     1       7.813   3.865  -5.914  1.00  0.00     0.000 C 
BRANCH   2   3
ATOM      3  C   UNL     1       8.079   2.849  -4.787  1.00  0.00     0.000 C 
BRANCH   3   4
ATOM      4  C   UNL     1       8.667   1.503  -5.255  1.00  0.00     0.000 C 
BRANCH   4   5
ATOM      5  C   UNL     1       8.494   1.244  -6.766  1.00  0.00     0.000 C 
BRANCH   5   6
ATOM      6  C   UNL     1       9.838   1.207  -7.513  1.00  0.00     0.000 C 
BRANCH   6   7
ATOM      7  C   UNL     1       9.922   2.246  -8.644  1.00  0.00     0.000 C 
BRANCH   7   8
ATOM      8  C   UNL     1       9.986   1.598 -10.039  1.00  0.00     0.000 C 
BRANCH   8   9
ATOM      9  C   UNL     1       8.942   2.171 -11.016  1.00  0.00     0.000 C 
BRANCH   9  10
ATOM     10  C   UNL     1       8.059   3.299 -10.449  1.00  0.00     0.000 C 
BRANCH  10  11
ATOM     11  C   UNL     1       6.589   2.881 -10.272  1.00  0.00     0.000 C 
BRANCH  11  12
ATOM     12  C   UNL     1       6.355   1.400 -10.612  1.00  0.00     0.006 C 
BRANCH  12  13
ATOM     13  C   UNL     1       5.940   0.578  -9.384  1.00  0.00     0.053 C 
BRANCH  13  14
ATOM     14  C   UNL     1       5.107  -0.598  -9.792  1.00  0.00     0.041 C 
ATOM     15  O   UNL     1       3.889  -0.446 -10.081  1.00  0.00    -0.550 OA
ATOM     16  O   UNL     1       5.681  -1.859  -9.875  1.00  0.00    -0.550 OA
ENDBRANCH  13  14
ENDBRANCH  12  13
ENDBRANCH  11  12
ENDBRANCH  10  11
ENDBRANCH   9  10
ENDBRANCH   8   9
ENDBRANCH   7   8
ENDBRANCH   6   7
ENDBRANCH   5   6
ENDBRANCH   4   5
ENDBRANCH   3   4
ENDBRANCH   2   3
ENDBRANCH   1   2
BRANCH   1  17
ATOM     17  C   UNL     1       6.633   6.079  -6.603  1.00  0.00     0.000 C 
BRANCH  17  18
ATOM     18  C   UNL     1       6.364   5.633  -8.049  1.00  0.00     0.000 C 
BRANCH  18  19
ATOM     19  C   UNL     1       5.936   6.824  -8.920  1.00  0.00     0.000 C 
BRANCH  19  20
ATOM     20  C   UNL     1       6.266   6.606 -10.412  1.00  0.00     0.000 C 
BRANCH  20  21
ATOM     21  C   UNL     1       6.784   7.870 -11.125  1.00  0.00     0.000 C 
BRANCH  21  22
ATOM     22  C   UNL     1       8.313   8.046 -11.110  1.00  0.00    -0.000 C 
BRANCH  22  23
ATOM     23  C   UNL     1       9.041   6.882 -10.415  1.00  0.00    -0.000 C 
BRANCH  23  24
ATOM     24  C   UNL     1       9.676   7.300  -9.078  1.00  0.00    -0.000 C 
BRANCH  24  25
ATOM     25  C   UNL     1       9.475   8.790  -8.765  1.00  0.00    -0.000 C 
BRANCH  25  26
ATOM     26  C   UNL     1       8.630   8.974  -7.496  1.00  0.00    -0.000 C 
BRANCH  26  27
ATOM     27  C   UNL     1       7.888  10.320  -7.465  1.00  0.00    -0.000 C 
BRANCH  27  28
ATOM     28  C   UNL     1       7.302  10.703  -8.834  1.00  0.00    -0.000 C 
BRANCH  28  29
ATOM     29  C   UNL     1       7.847  12.042  -9.354  1.00  0.00    -0.003 C 
ATOM     30  C   UNL     1       8.697  12.778  -8.316  1.00  0.00     0.004 C 
ENDBRANCH  28  29
ENDBRANCH  27  28
ENDBRANCH  26  27
ENDBRANCH  25  26
ENDBRANCH  24  25
ENDBRANCH  23  24
ENDBRANCH  22  23
ENDBRANCH  21  22
ENDBRANCH  20  21
ENDBRANCH  19  20
ENDBRANCH  18  19
ENDBRANCH  17  18
ENDBRANCH   1  17
TORSDOF 26
ENDMDL
MODEL 3
REMARK VINA RESULT:    -3.102      3.536      7.591
REMARK INTER + INTRA:         -12.869
REMARK INTER:                  -8.886
REMARK INTRA:                  -3.983
REMARK UNBOUND:                -5.051
REMARK SMILES CCCCCCCCCCCCCCCCCCCCCCCCCCCC(=O)[O-]
REMARK SMILES IDX 15 1 16 2 17 3 18 4 19 5 20 6 21 7 22 8 23 9 24 10 25 11
REMARK SMILES IDX 26 12 27 13 28 14 29 15 30 16 14 17 13 18 12 19 11 20 10 21
REMARK SMILES IDX 9 22 8 23 7 24 6 25 5 26 4 27 3 28 2 29 1 30
REMARK H PARENT
REMARK Flexibility Score: inf
ROOT
ATOM      1  C   UNL     1       6.392   4.842  -5.539  1.00  0.00     0.000 C 
ENDROOT
BRANCH   1   2
ATOM      2  C   UNL     1       5.669   3.478  -5.545  1.00  0.00     0.000 C 
BRANCH   2   3
ATOM      3  C   UNL     1       6.594   2.246  -5.525  1.00  0.00     0.000 C 
BRANCH   3   4
ATOM      4  C   UNL     1       7.912   2.438  -4.749  1.00  0.00     0.000 C 
BRANCH   4   5
ATOM      5  C   UNL     1       9.023   1.449  -5.161  1.00  0.00     0.000 C 
BRANCH   5   6
ATOM      6  C   UNL     1       9.931   2.012  -6.267  1.00  0.00     0.000 C 
BRANCH   6   7
ATOM      7  C   UNL     1       9.379   1.762  -7.680  1.00  0.00     0.000 C 
BRANCH   7   8
ATOM      8  C   UNL     1       9.818   0.402  -8.253  1.00  0.00     0.000 C 
BRANCH   8   9
ATOM      9  C   UNL     1       9.554   0.275  -9.766  1.00  0.00     0.000 C 
BRANCH   9  10
ATOM     10  C   UNL     1       9.092   1.567 -10.465  1.00  0.00     0.000 C 
BRANCH  10  11
ATOM     11  C   UNL     1       7.709   1.431 -11.125  1.00  0.00     0.000 C 
BRANCH  11  12
ATOM     12  C   UNL     1       6.576   1.300 -10.093  1.00  0.00     0.006 C 
BRANCH  12  13
ATOM     13  C   UNL     1       5.327   0.629 -10.680  1.00  0.00     0.053 C 
BRANCH  13  14
ATOM     14  C   UNL     1       5.197  -0.775 -10.179  1.00  0.00     0.041 C 
ATOM     15  O   UNL     1       5.318  -1.027  -8.949  1.00  0.00    -0.550 OA
ATOM     16  O   UNL     1       4.921  -1.806 -11.067  1.00  0.00    -0.550 OA
ENDBRANCH  13  14
ENDBRANCH  12  13
ENDBRANCH  11  12
ENDBRANCH  10  11
ENDBRANCH   9  10
ENDBRANCH   8   9
ENDBRANCH   7   8
ENDBRANCH   6   7
ENDBRANCH   5   6
ENDBRANCH   4   5
ENDBRANCH   3   4
ENDBRANCH   2   3
ENDBRANCH   1   2
BRANCH   1  17
ATOM     17  C   UNL     1       7.007   5.262  -6.885  1.00  0.00     0.000 C 
BRANCH  17  18
ATOM     18  C   UNL     1       7.195   6.782  -7.011  1.00  0.00     0.000 C 
BRANCH  18  19
ATOM     19  C   UNL     1       5.975   7.432  -7.684  1.00  0.00     0.000 C 
BRANCH  19  20
ATOM     20  C   UNL     1       6.048   7.359  -9.223  1.00  0.00     0.000 C 
BRANCH  20  21
ATOM     21  C   UNL     1       5.240   6.195  -9.829  1.00  0.00     0.000 C 
BRANCH  21  22
ATOM     22  C   UNL     1       5.983   5.373 -10.897  1.00  0.00    -0.000 C 
BRANCH  22  23
ATOM     23  C   UNL     1       7.328   4.818 -10.396  1.00  0.00    -0.000 C 
BRANCH  23  24
ATOM     24  C   UNL     1       8.532   5.487 -11.079  1.00  0.00    -0.000 C 
BRANCH  24  25
ATOM     25  C   UNL     1       9.568   6.014 -10.075  1.00  0.00    -0.000 C 
BRANCH  25  26
ATOM     26  C   UNL     1       9.802   7.519 -10.269  1.00  0.00    -0.000 C 
BRANCH  26  27
ATOM     27  C   UNL     1       9.838   8.292  -8.940  1.00  0.00    -0.000 C 
BRANCH  27  28
ATOM     28  C   UNL     1       9.395   9.756  -9.097  1.00  0.00    -0.000 C 
BRANCH  28  29
ATOM     29  C   UNL     1       8.401  10.190  -8.008  1.00  0.00    -0.003 C 
ATOM     30  C   UNL     1       7.489  11.331  -8.460  1.00  0.00     0.004 C 
ENDBRANCH  28  29
ENDBRANCH  27  28
ENDBRANCH  26  27
ENDBRANCH  25  26
ENDBRANCH  24  25
ENDBRANCH  23  24
ENDBRANCH  22  23
ENDBRANCH  21  22
ENDBRANCH  20  21
ENDBRANCH  19  20
ENDBRANCH  18  19
ENDBRANCH  17  18
ENDBRANCH   1  17
TORSDOF 26
ENDMDL
MODEL 4
REMARK VINA RESULT:    -3.079      1.392      4.331
REMARK INTER + INTRA:         -12.809
REMARK INTER:                  -9.100
REMARK INTRA:                  -3.709
REMARK UNBOUND:                -5.051
REMARK SMILES CCCCCCCCCCCCCCCCCCCCCCCCCCCC(=O)[O-]
REMARK SMILES IDX 15 1 16 2 17 3 18 4 19 5 20 6 21 7 22 8 23 9 24 10 25 11
REMARK SMILES IDX 26 12 27 13 28 14 29 15 30 16 14 17 13 18 12 19 11 20 10 21
REMARK SMILES IDX 9 22 8 23 7 24 6 25 5 26 4 27 3 28 2 29 1 30
REMARK H PARENT
REMARK Flexibility Score: inf
ROOT
ATOM      1  C   UNL     1       7.610   3.292  -4.648  1.00  0.00     0.000 C 
ENDROOT
BRANCH   1   2
ATOM      2  C   UNL     1       6.377   2.923  -5.502  1.00  0.00     0.000 C 
BRANCH   2   3
ATOM      3  C   UNL     1       6.322   3.585  -6.891  1.00  0.00     0.000 C 
BRANCH   3   4
ATOM      4  C   UNL     1       7.200   4.843  -7.046  1.00  0.00     0.000 C 
BRANCH   4   5
ATOM      5  C   UNL     1       6.506   6.143  -6.588  1.00  0.00     0.000 C 
BRANCH   5   6
ATOM      6  C   UNL     1       6.486   7.217  -7.689  1.00  0.00     0.000 C 
BRANCH   6   7
ATOM      7  C   UNL     1       5.645   6.808  -8.909  1.00  0.00     0.000 C 
BRANCH   7   8
ATOM      8  C   UNL     1       6.507   6.530 -10.154  1.00  0.00     0.000 C 
BRANCH   8   9
ATOM      9  C   UNL     1       6.977   7.816 -10.859  1.00  0.00     0.000 C 
BRANCH   9  10
ATOM     10  C   UNL     1       8.485   8.111 -10.755  1.00  0.00     0.000 C 
BRANCH  10  11
ATOM     11  C   UNL     1       8.786   9.514 -10.200  1.00  0.00     0.000 C 
BRANCH  11  12
ATOM     12  C   UNL     1       7.510  10.344  -9.980  1.00  0.00     0.006 C 
BRANCH  12  13
ATOM     13  C   UNL     1       7.592  11.217  -8.720  1.00  0.00     0.053 C 
BRANCH  13  14
ATOM     14  C   UNL     1       7.764  12.658  -9.087  1.00  0.00     0.041 C 
ATOM     15  O   UNL     1       7.826  13.005 -10.298  1.00  0.00    -0.550 OA
ATOM     16  O   UNL     1       7.836  13.624  -8.092  1.00  0.00    -0.550 OA
ENDBRANCH  13  14
ENDBRANCH  12  13
ENDBRANCH  11  12
ENDBRANCH  10  11
ENDBRANCH   9  10
ENDBRANCH   8   9
ENDBRANCH   7   8
ENDBRANCH   6   7
ENDBRANCH   5   6
ENDBRANCH   4   5
ENDBRANCH   3   4
ENDBRANCH   2   3
ENDBRANCH   1   2
BRANCH   1  17
ATOM     17  C   UNL     1       8.882   2.481  -4.951  1.00  0.00     0.000 C 
BRANCH  17  18
ATOM     18  C   UNL     1       8.582   1.067  -5.474  1.00  0.00     0.000 C 
BRANCH  18  19
ATOM     19  C   UNL     1       9.264   0.828  -6.830  1.00  0.00     0.000 C 
BRANCH  19  20
ATOM     20  C   UNL     1       9.713   2.144  -7.499  1.00  0.00     0.000 C 
BRANCH  20  21
ATOM     21  C   UNL     1       9.776   2.070  -9.037  1.00  0.00     0.000 C 
BRANCH  21  22
ATOM     22  C   UNL     1       8.681   2.862  -9.772  1.00  0.00    -0.000 C 
BRANCH  22  23
ATOM     23  C   UNL     1       7.952   2.025 -10.838  1.00  0.00    -0.000 C 
BRANCH  23  24
ATOM     24  C   UNL     1       7.494   0.659 -10.300  1.00  0.00    -0.000 C 
BRANCH  24  25
ATOM     25  C   UNL     1       6.240   0.757  -9.419  1.00  0.00    -0.000 C 
BRANCH  25  26
ATOM     26  C   UNL     1       5.249  -0.368  -9.748  1.00  0.00    -0.000 C 
BRANCH  26  27
ATOM     27  C   UNL     1       3.952   0.150 -10.391  1.00  0.00    -0.000 C 
BRANCH  27  28
ATOM     28  C   UNL     1       4.097   1.576 -10.947  1.00  0.00    -0.000 C 
BRANCH  28  29
ATOM     29  C   UNL     1       3.680   2.650  -9.930  1.00  0.00    -0.003 C 
ATOM     30  C   UNL     1       3.711   4.063 -10.515  1.00  0.00     0.004 C 
ENDBRANCH  28  29
ENDBRANCH  27  28
ENDBRANCH  26  27
ENDBRANCH  25  26
ENDBRANCH  24  25
ENDBRANCH  23  24
ENDBRANCH  22  23
ENDBRANCH  21  22
ENDBRANCH  20  21
ENDBRANCH  19  20
ENDBRANCH  18  19
ENDBRANCH  17  18
ENDBRANCH   1  17
TORSDOF 26
ENDMDL
MODEL 5
REMARK VINA RESULT:    -3.062      1.164      4.213
REMARK INTER + INTRA:         -12.766
REMARK INTER:                  -8.624
REMARK INTRA:                  -4.142
REMARK UNBOUND:                -5.051
REMARK SMILES CCCCCCCCCCCCCCCCCCCCCCCCCCCC(=O)[O-]
REMARK SMILES IDX 15 1 16 2 17 3 18 4 19 5 20 6 21 7 22 8 23 9 24 10 25 11
REMARK SMILES IDX 26 12 27 13 28 14 29 15 30 16 14 17 13 18 12 19 11 20 10 21
REMARK SMILES IDX 9 22 8 23 7 24 6 25 5 26 4 27 3 28 2 29 1 30
REMARK H PARENT
REMARK Flexibility Score: inf
ROOT
ATOM      1  C   UNL     1       6.628   4.381  -5.715  1.00  0.00     0.000 C 
ENDROOT
BRANCH   1   2
ATOM      2  C   UNL     1       6.395   5.896  -5.902  1.00  0.00     0.000 C 
BRANCH   2   3
ATOM      3  C   UNL     1       6.963   6.490  -7.204  1.00  0.00     0.000 C 
BRANCH   3   4
ATOM      4  C   UNL     1       6.367   5.901  -8.499  1.00  0.00     0.000 C 
BRANCH   4   5
ATOM      5  C   UNL     1       5.554   6.919  -9.325  1.00  0.00     0.000 C 
BRANCH   5   6
ATOM      6  C   UNL     1       5.955   6.925 -10.810  1.00  0.00     0.000 C 
BRANCH   6   7
ATOM      7  C   UNL     1       7.389   6.419 -11.044  1.00  0.00     0.000 C 
BRANCH   7   8
ATOM      8  C   UNL     1       8.420   7.562 -11.081  1.00  0.00     0.000 C 
BRANCH   8   9
ATOM      9  C   UNL     1       9.455   7.474  -9.944  1.00  0.00     0.000 C 
BRANCH   9  10
ATOM     10  C   UNL     1       9.780   8.808  -9.245  1.00  0.00     0.000 C 
BRANCH  10  11
ATOM     11  C   UNL     1       9.297   8.854  -7.785  1.00  0.00     0.000 C 
BRANCH  11  12
ATOM     12  C   UNL     1       8.505  10.134  -7.469  1.00  0.00     0.006 C 
BRANCH  12  13
ATOM     13  C   UNL     1       7.138  10.161  -8.167  1.00  0.00     0.053 C 
BRANCH  13  14
ATOM     14  C   UNL     1       7.162  11.096  -9.337  1.00  0.00     0.041 C 
ATOM     15  O   UNL     1       7.687  12.238  -9.229  1.00  0.00    -0.550 OA
ATOM     16  O   UNL     1       6.623  10.700 -10.553  1.00  0.00    -0.550 OA
ENDBRANCH  13  14
ENDBRANCH  12  13
ENDBRANCH  11  12
ENDBRANCH  10  11
ENDBRANCH   9  10
ENDBRANCH   8   9
ENDBRANCH   7   8
ENDBRANCH   6   7
ENDBRANCH   5   6
ENDBRANCH   4   5
ENDBRANCH   3   4
ENDBRANCH   2   3
ENDBRANCH   1   2
BRANCH   1  17
ATOM     17  C   UNL     1       7.423   3.992  -4.456  1.00  0.00     0.000 C 
BRANCH  17  18
ATOM     18  C   UNL     1       8.429   2.858  -4.707  1.00  0.00     0.000 C 
BRANCH  18  19
ATOM     19  C   UNL     1       7.790   1.732  -5.535  1.00  0.00     0.000 C 
BRANCH  19  20
ATOM     20  C   UNL     1       8.653   1.340  -6.753  1.00  0.00     0.000 C 
BRANCH  20  21
ATOM     21  C   UNL     1       9.506   2.496  -7.308  1.00  0.00     0.000 C 
BRANCH  21  22
ATOM     22  C   UNL     1       9.777   2.437  -8.822  1.00  0.00    -0.000 C 
BRANCH  22  23
ATOM     23  C   UNL     1       8.900   3.415  -9.624  1.00  0.00    -0.000 C 
BRANCH  23  24
ATOM     24  C   UNL     1       8.126   2.719 -10.755  1.00  0.00    -0.000 C 
BRANCH  24  25
ATOM     25  C   UNL     1       7.755   1.268 -10.416  1.00  0.00    -0.000 C 
BRANCH  25  26
ATOM     26  C   UNL     1       6.457   0.854 -11.123  1.00  0.00    -0.000 C 
BRANCH  26  27
ATOM     27  C   UNL     1       5.349   0.441 -10.140  1.00  0.00    -0.000 C 
BRANCH  27  28
ATOM     28  C   UNL     1       4.194   1.455 -10.092  1.00  0.00    -0.000 C 
BRANCH  28  29
ATOM     29  C   UNL     1       4.689   2.910 -10.058  1.00  0.00    -0.003 C 
ATOM     30  C   UNL     1       3.545   3.924 -10.078  1.00  0.00     0.004 C 
ENDBRANCH  28  29
ENDBRANCH  27  28
ENDBRANCH  26  27
ENDBRANCH  25  26
ENDBRANCH  24  25
ENDBRANCH  23  24
ENDBRANCH  22  23
ENDBRANCH  21  22
ENDBRANCH  20  21
ENDBRANCH  19  20
ENDBRANCH  18  19
ENDBRANCH  17  18
ENDBRANCH   1  17
TORSDOF 26
ENDMDL
MODEL 6
REMARK VINA RESULT:    -3.045      1.563      4.350
REMARK INTER + INTRA:         -12.724
REMARK INTER:                  -8.862
REMARK INTRA:                  -3.862
REMARK UNBOUND:                -5.051
REMARK SMILES CCCCCCCCCCCCCCCCCCCCCCCCCCCC(=O)[O-]
REMARK SMILES IDX 15 1 16 2 17 3 18 4 19 5 20 6 21 7 22 8 23 9 24 10 25 11
REMARK SMILES IDX 26 12 27 13 28 14 29 15 30 16 14 17 13 18 12 19 11 20 10 21
REMARK SMILES IDX 9 22 8 23 7 24 6 25 5 26 4 27 3 28 2 29 1 30
REMARK H PARENT
REMARK Flexibility Score: inf
ROOT
ATOM      1  C   UNL     1       6.892   3.006  -5.650  1.00  0.00     0.000 C 
ENDROOT
BRANCH   1   2
ATOM      2  C   UNL     1       6.278   4.413  -5.816  1.00  0.00     0.000 C 
BRANCH   2   3
ATOM      3  C   UNL     1       6.681   5.156  -7.103  1.00  0.00     0.000 C 
BRANCH   3   4
ATOM      4  C   UNL     1       6.205   4.493  -8.411  1.00  0.00     0.000 C 
BRANCH   4   5
ATOM      5  C   UNL     1       5.460   5.457  -9.358  1.00  0.00     0.000 C 
BRANCH   5   6
ATOM      6  C   UNL     1       5.880   5.278 -10.827  1.00  0.00     0.000 C 
BRANCH   6   7
ATOM      7  C   UNL     1       7.128   4.394 -10.989  1.00  0.00     0.000 C 
BRANCH   7   8
ATOM      8  C   UNL     1       8.422   5.217 -11.118  1.00  0.00     0.000 C 
BRANCH   8   9
ATOM      9  C   UNL     1       9.284   5.186  -9.842  1.00  0.00     0.000 C 
BRANCH   9  10
ATOM     10  C   UNL     1       9.663   6.565  -9.269  1.00  0.00     0.000 C 
BRANCH  10  11
ATOM     11  C   UNL     1       8.480   7.549  -9.240  1.00  0.00     0.000 C 
BRANCH  11  12
ATOM     12  C   UNL     1       8.409   8.420 -10.505  1.00  0.00     0.006 C 
BRANCH  12  13
ATOM     13  C   UNL     1       8.602   9.911 -10.199  1.00  0.00     0.053 C 
BRANCH  13  14
ATOM     14  C   UNL     1       7.279  10.595 -10.051  1.00  0.00     0.041 C 
ATOM     15  O   UNL     1       7.050  11.330  -9.051  1.00  0.00    -0.550 OA
ATOM     16  O   UNL     1       6.304  10.440 -11.026  1.00  0.00    -0.550 OA
ENDBRANCH  13  14
ENDBRANCH  12  13
ENDBRANCH  11  12
ENDBRANCH  10  11
ENDBRANCH   9  10
ENDBRANCH   8   9
ENDBRANCH   7   8
ENDBRANCH   6   7
ENDBRANCH   5   6
ENDBRANCH   4   5
ENDBRANCH   3   4
ENDBRANCH   2   3
ENDBRANCH   1   2
BRANCH   1  17
ATOM     17  C   UNL     1       8.085   2.923  -4.681  1.00  0.00     0.000 C 
BRANCH  17  18
ATOM     18  C   UNL     1       9.382   2.461  -5.363  1.00  0.00     0.000 C 
BRANCH  18  19
ATOM     19  C   UNL     1       9.320   0.963  -5.703  1.00  0.00     0.000 C 
BRANCH  19  20
ATOM     20  C   UNL     1       9.825   0.666  -7.130  1.00  0.00     0.000 C 
BRANCH  20  21
ATOM     21  C   UNL     1       9.604   1.824  -8.122  1.00  0.00     0.000 C 
BRANCH  21  22
ATOM     22  C   UNL     1       9.831   1.467  -9.601  1.00  0.00    -0.000 C 
BRANCH  22  23
ATOM     23  C   UNL     1       8.522   1.417 -10.410  1.00  0.00    -0.000 C 
BRANCH  23  24
ATOM     24  C   UNL     1       7.547   0.351  -9.886  1.00  0.00    -0.000 C 
BRANCH  24  25
ATOM     25  C   UNL     1       6.364   0.956  -9.115  1.00  0.00    -0.000 C 
BRANCH  25  26
ATOM     26  C   UNL     1       5.255   1.405 -10.077  1.00  0.00    -0.000 C 
BRANCH  26  27
ATOM     27  C   UNL     1       4.826   0.295 -11.050  1.00  0.00    -0.000 C 
BRANCH  27  28
ATOM     28  C   UNL     1       3.648  -0.536 -10.516  1.00  0.00    -0.000 C 
BRANCH  28  29
ATOM     29  C   UNL     1       4.106  -1.697  -9.618  1.00  0.00    -0.003 C 
ATOM     30  C   UNL     1       5.046  -2.665 -10.337  1.00  0.00     0.004 C 
ENDBRANCH  28  29
ENDBRANCH  27  28
ENDBRANCH  26  27
ENDBRANCH  25  26
ENDBRANCH  24  25
ENDBRANCH  23  24
ENDBRANCH  22  23
ENDBRANCH  21  22
ENDBRANCH  20  21
ENDBRANCH  19  20
ENDBRANCH  18  19
ENDBRANCH  17  18
ENDBRANCH   1  17
TORSDOF 26
ENDMDL
MODEL 7
REMARK VINA RESULT:    -2.934      2.583      5.410
REMARK INTER + INTRA:         -12.444
REMARK INTER:                  -9.108
REMARK INTRA:                  -3.336
REMARK UNBOUND:                -5.051
REMARK SMILES CCCCCCCCCCCCCCCCCCCCCCCCCCCC(=O)[O-]
REMARK SMILES IDX 15 1 16 2 17 3 18 4 19 5 20 6 21 7 22 8 23 9 24 10 25 11
REMARK SMILES IDX 26 12 27 13 28 14 29 15 30 16 14 17 13 18 12 19 11 20 10 21
REMARK SMILES IDX 9 22 8 23 7 24 6 25 5 26 4 27 3 28 2 29 1 30
REMARK H PARENT
REMARK Flexibility Score: inf
ROOT
ATOM      1  C   UNL     1       6.509   2.663  -6.214  1.00  0.00     0.000 C 
ENDROOT
BRANCH   1   2
ATOM      2  C   UNL     1       7.179   3.237  -4.947  1.00  0.00     0.000 C 
BRANCH   2   3
ATOM      3  C   UNL     1       7.064   4.764  -4.780  1.00  0.00     0.000 C 
BRANCH   3   4
ATOM      4  C   UNL     1       6.242   5.475  -5.873  1.00  0.00     0.000 C 
BRANCH   4   5
ATOM      5  C   UNL     1       7.097   6.000  -7.047  1.00  0.00     0.000 C 
BRANCH   5   6
ATOM      6  C   UNL     1       6.467   7.226  -7.729  1.00  0.00     0.000 C 
BRANCH   6   7
ATOM      7  C   UNL     1       5.923   6.916  -9.134  1.00  0.00     0.000 C 
BRANCH   7   8
ATOM      8  C   UNL     1       6.780   7.539 -10.250  1.00  0.00     0.000 C 
BRANCH   8   9
ATOM      9  C   UNL     1       8.062   6.738 -10.542  1.00  0.00     0.000 C 
BRANCH   9  10
ATOM     10  C   UNL     1       9.371   7.548 -10.491  1.00  0.00     0.000 C 
BRANCH  10  11
ATOM     11  C   UNL     1       9.546   8.324  -9.174  1.00  0.00     0.000 C 
BRANCH  11  12
ATOM     12  C   UNL     1       9.313   9.834  -9.347  1.00  0.00     0.006 C 
BRANCH  12  13
ATOM     13  C   UNL     1       8.301  10.388  -8.334  1.00  0.00     0.053 C 
BRANCH  13  14
ATOM     14  C   UNL     1       7.538  11.533  -8.923  1.00  0.00     0.041 C 
ATOM     15  O   UNL     1       6.705  11.335  -9.849  1.00  0.00    -0.550 OA
ATOM     16  O   UNL     1       7.729  12.819  -8.435  1.00  0.00    -0.550 OA
ENDBRANCH  13  14
ENDBRANCH  12  13
ENDBRANCH  11  12
ENDBRANCH  10  11
ENDBRANCH   9  10
ENDBRANCH   8   9
ENDBRANCH   7   8
ENDBRANCH   6   7
ENDBRANCH   5   6
ENDBRANCH   4   5
ENDBRANCH   3   4
ENDBRANCH   2   3
ENDBRANCH   1   2
BRANCH   1  17
ATOM     17  C   UNL     1       7.141   1.370  -6.759  1.00  0.00     0.000 C 
BRANCH  17  18
ATOM     18  C   UNL     1       7.554   1.479  -8.235  1.00  0.00     0.000 C 
BRANCH  18  19
ATOM     19  C   UNL     1       7.699   2.950  -8.657  1.00  0.00     0.000 C 
BRANCH  19  20
ATOM     20  C   UNL     1       7.223   3.193 -10.104  1.00  0.00     0.000 C 
BRANCH  20  21
ATOM     21  C   UNL     1       5.735   3.579 -10.212  1.00  0.00     0.000 C 
BRANCH  21  22
ATOM     22  C   UNL     1       4.865   2.599 -11.019  1.00  0.00    -0.000 C 
BRANCH  22  23
ATOM     23  C   UNL     1       3.859   1.833 -10.141  1.00  0.00    -0.000 C 
BRANCH  23  24
ATOM     24  C   UNL     1       3.817   0.331 -10.470  1.00  0.00    -0.000 C 
BRANCH  24  25
ATOM     25  C   UNL     1       5.038  -0.430  -9.932  1.00  0.00    -0.000 C 
BRANCH  25  26
ATOM     26  C   UNL     1       5.154  -1.813 -10.587  1.00  0.00    -0.000 C 
BRANCH  26  27
ATOM     27  C   UNL     1       3.791  -2.390 -11.006  1.00  0.00    -0.000 C 
BRANCH  27  28
ATOM     28  C   UNL     1       3.181  -3.304  -9.931  1.00  0.00    -0.000 C 
BRANCH  28  29
ATOM     29  C   UNL     1       2.968  -4.741 -10.431  1.00  0.00    -0.003 C 
ATOM     30  C   UNL     1       3.652  -5.784  -9.546  1.00  0.00     0.004 C 
ENDBRANCH  28  29
ENDBRANCH  27  28
ENDBRANCH  26  27
ENDBRANCH  25  26
ENDBRANCH  24  25
ENDBRANCH  23  24
ENDBRANCH  22  23
ENDBRANCH  21  22
ENDBRANCH  20  21
ENDBRANCH  19  20
ENDBRANCH  18  19
ENDBRANCH  17  18
ENDBRANCH   1  17
TORSDOF 26
ENDMDL
MODEL 8
REMARK VINA RESULT:    -2.930      2.606      6.330
REMARK INTER + INTRA:         -12.433
REMARK INTER:                  -8.950
REMARK INTRA:                  -3.484
REMARK UNBOUND:                -5.051
REMARK SMILES CCCCCCCCCCCCCCCCCCCCCCCCCCCC(=O)[O-]
REMARK SMILES IDX 15 1 16 2 17 3 18 4 19 5 20 6 21 7 22 8 23 9 24 10 25 11
REMARK SMILES IDX 26 12 27 13 28 14 29 15 30 16 14 17 13 18 12 19 11 20 10 21
REMARK SMILES IDX 9 22 8 23 7 24 6 25 5 26 4 27 3 28 2 29 1 30
REMARK H PARENT
REMARK Flexibility Score: inf
ROOT
ATOM      1  C   UNL     1       7.000   6.114  -5.946  1.00  0.00     0.000 C 
ENDROOT
BRANCH   1   2
ATOM      2  C   UNL     1       6.302   4.792  -5.561  1.00  0.00     0.000 C 
BRANCH   2   3
ATOM      3  C   UNL     1       7.189   3.774  -4.820  1.00  0.00     0.000 C 
BRANCH   3   4
ATOM      4  C   UNL     1       7.514   2.496  -5.619  1.00  0.00     0.000 C 
BRANCH   4   5
ATOM      5  C   UNL     1       8.625   2.691  -6.673  1.00  0.00     0.000 C 
BRANCH   5   6
ATOM      6  C   UNL     1       8.941   1.396  -7.439  1.00  0.00     0.000 C 
BRANCH   6   7
ATOM      7  C   UNL     1       8.409   1.409  -8.882  1.00  0.00     0.000 C 
BRANCH   7   8
ATOM      8  C   UNL     1       9.526   1.225  -9.925  1.00  0.00     0.000 C 
BRANCH   8   9
ATOM      9  C   UNL     1       9.391   2.182 -11.125  1.00  0.00     0.000 C 
BRANCH   9  10
ATOM     10  C   UNL     1      10.069   3.554 -10.952  1.00  0.00     0.000 C 
BRANCH  10  11
ATOM     11  C   UNL     1       9.066   4.689 -10.678  1.00  0.00     0.000 C 
BRANCH  11  12
ATOM     12  C   UNL     1       9.684   5.834  -9.859  1.00  0.00     0.006 C 
BRANCH  12  13
ATOM     13  C   UNL     1       9.088   7.200 -10.223  1.00  0.00     0.053 C 
BRANCH  13  14
ATOM     14  C   UNL     1       9.478   8.233  -9.211  1.00  0.00     0.041 C 
ATOM     15  O   UNL     1       9.695   7.901  -8.014  1.00  0.00    -0.550 OA
ATOM     16  O   UNL     1       9.621   9.560  -9.593  1.00  0.00    -0.550 OA
ENDBRANCH  13  14
ENDBRANCH  12  13
ENDBRANCH  11  12
ENDBRANCH  10  11
ENDBRANCH   9  10
ENDBRANCH   8   9
ENDBRANCH   7   8
ENDBRANCH   6   7
ENDBRANCH   5   6
ENDBRANCH   4   5
ENDBRANCH   3   4
ENDBRANCH   2   3
ENDBRANCH   1   2
BRANCH   1  17
ATOM     17  C   UNL     1       6.477   6.780  -7.230  1.00  0.00     0.000 C 
BRANCH  17  18
ATOM     18  C   UNL     1       6.354   5.801  -8.408  1.00  0.00     0.000 C 
BRANCH  18  19
ATOM     19  C   UNL     1       5.256   6.252  -9.384  1.00  0.00     0.000 C 
BRANCH  19  20
ATOM     20  C   UNL     1       4.758   5.097 -10.278  1.00  0.00     0.000 C 
BRANCH  20  21
ATOM     21  C   UNL     1       5.356   3.725  -9.912  1.00  0.00     0.000 C 
BRANCH  21  22
ATOM     22  C   UNL     1       5.792   2.864 -11.110  1.00  0.00    -0.000 C 
BRANCH  22  23
ATOM     23  C   UNL     1       5.338   1.398 -10.988  1.00  0.00    -0.000 C 
BRANCH  23  24
ATOM     24  C   UNL     1       3.807   1.255 -10.977  1.00  0.00    -0.000 C 
BRANCH  24  25
ATOM     25  C   UNL     1       3.347  -0.210 -11.028  1.00  0.00    -0.000 C 
BRANCH  25  26
ATOM     26  C   UNL     1       4.549  -1.164 -10.974  1.00  0.00    -0.000 C 
BRANCH  26  27
ATOM     27  C   UNL     1       4.216  -2.504 -10.300  1.00  0.00    -0.000 C 
BRANCH  27  28
ATOM     28  C   UNL     1       4.917  -3.695 -10.975  1.00  0.00    -0.000 C 
BRANCH  28  29
ATOM     29  C   UNL     1       5.305  -4.795  -9.974  1.00  0.00    -0.003 C 
ATOM     30  C   UNL     1       4.119  -5.670  -9.568  1.00  0.00     0.004 C 
ENDBRANCH  28  29
ENDBRANCH  27  28
ENDBRANCH  26  27
ENDBRANCH  25  26
ENDBRANCH  24  25
ENDBRANCH  23  24
ENDBRANCH  22  23
ENDBRANCH  21  22
ENDBRANCH  20  21
ENDBRANCH  19  20
ENDBRANCH  18  19
ENDBRANCH  17  18
ENDBRANCH   1  17
TORSDOF 26
ENDMDL
MODEL 9
REMARK VINA RESULT:    -2.867      1.253      4.129
REMARK INTER + INTRA:         -12.275
REMARK INTER:                  -8.758
REMARK INTRA:                  -3.516
REMARK UNBOUND:                -5.051
REMARK SMILES CCCCCCCCCCCCCCCCCCCCCCCCCCCC(=O)[O-]
REMARK SMILES IDX 15 1 16 2 17 3 18 4 19 5 20 6 21 7 22 8 23 9 24 10 25 11
REMARK SMILES IDX 26 12 27 13 28 14 29 15 30 16 14 17 13 18 12 19 11 20 10 21
REMARK SMILES IDX 9 22 8 23 7 24 6 25 5 26 4 27 3 28 2 29 1 30
REMARK H PARENT
REMARK Flexibility Score: inf
ROOT
ATOM      1  C   UNL     1       6.480   3.216  -6.849  1.00  0.00     0.000 C 
ENDROOT
BRANCH   1   2
ATOM      2  C   UNL     1       6.935   4.218  -7.931  1.00  0.00     0.000 C 
BRANCH   2   3
ATOM      3  C   UNL     1       6.230   5.587  -7.894  1.00  0.00     0.000 C 
BRANCH   3   4
ATOM      4  C   UNL     1       5.620   6.038  -9.236  1.00  0.00     0.000 C 
BRANCH   4   5
ATOM      5  C   UNL     1       6.286   5.388 -10.468  1.00  0.00     0.000 C 
BRANCH   5   6
ATOM      6  C   UNL     1       7.330   6.307 -11.125  1.00  0.00     0.000 C 
BRANCH   6   7
ATOM      7  C   UNL     1       8.745   6.108 -10.555  1.00  0.00     0.000 C 
BRANCH   7   8
ATOM      8  C   UNL     1       9.391   7.430 -10.103  1.00  0.00     0.000 C 
BRANCH   8   9
ATOM      9  C   UNL     1       8.750   8.006  -8.826  1.00  0.00     0.000 C 
BRANCH   9  10
ATOM     10  C   UNL     1       7.717   9.126  -9.054  1.00  0.00     0.000 C 
BRANCH  10  11
ATOM     11  C   UNL     1       7.488   9.995  -7.805  1.00  0.00     0.000 C 
BRANCH  11  12
ATOM     12  C   UNL     1       8.605  11.030  -7.596  1.00  0.00     0.006 C 
BRANCH  12  13
ATOM     13  C   UNL     1       9.039  11.693  -8.911  1.00  0.00     0.053 C 
BRANCH  13  14
ATOM     14  C   UNL     1       8.202  12.901  -9.194  1.00  0.00     0.041 C 
ATOM     15  O   UNL     1       7.817  13.148 -10.369  1.00  0.00    -0.550 OA
ATOM     16  O   UNL     1       7.829  13.746  -8.157  1.00  0.00    -0.550 OA
ENDBRANCH  13  14
ENDBRANCH  12  13
ENDBRANCH  11  12
ENDBRANCH  10  11
ENDBRANCH   9  10
ENDBRANCH   8   9
ENDBRANCH   7   8
ENDBRANCH   6   7
ENDBRANCH   5   6
ENDBRANCH   4   5
ENDBRANCH   3   4
ENDBRANCH   2   3
ENDBRANCH   1   2
BRANCH   1  17
ATOM     17  C   UNL     1       6.128   3.839  -5.487  1.00  0.00     0.000 C 
BRANCH  17  18
ATOM     18  C   UNL     1       7.327   3.906  -4.528  1.00  0.00     0.000 C 
BRANCH  18  19
ATOM     19  C   UNL     1       8.569   3.256  -5.157  1.00  0.00     0.000 C 
BRANCH  19  20
ATOM     20  C   UNL     1       9.024   1.998  -4.388  1.00  0.00     0.000 C 
BRANCH  20  21
ATOM     21  C   UNL     1       8.942   0.701  -5.215  1.00  0.00     0.000 C 
BRANCH  21  22
ATOM     22  C   UNL     1      10.000   0.567  -6.325  1.00  0.00    -0.000 C 
BRANCH  22  23
ATOM     23  C   UNL     1       9.693   1.444  -7.551  1.00  0.00    -0.000 C 
BRANCH  23  24
ATOM     24  C   UNL     1       9.667   0.637  -8.860  1.00  0.00    -0.000 C 
BRANCH  24  25
ATOM     25  C   UNL     1       9.427   1.517 -10.096  1.00  0.00    -0.000 C 
BRANCH  25  26
ATOM     26  C   UNL     1       8.221   1.013 -10.902  1.00  0.00    -0.000 C 
BRANCH  26  27
ATOM     27  C   UNL     1       7.013   1.959 -10.820  1.00  0.00    -0.000 C 
BRANCH  27  28
ATOM     28  C   UNL     1       5.906   1.426  -9.895  1.00  0.00    -0.000 C 
BRANCH  28  29
ATOM     29  C   UNL     1       4.505   1.573 -10.508  1.00  0.00    -0.003 C 
ATOM     30  C   UNL     1       3.746   2.785  -9.966  1.00  0.00     0.004 C 
ENDBRANCH  28  29
ENDBRANCH  27  28
ENDBRANCH  26  27
ENDBRANCH  25  26
ENDBRANCH  24  25
ENDBRANCH  23  24
ENDBRANCH  22  23
ENDBRANCH  21  22
ENDBRANCH  20  21
ENDBRANCH  19  20
ENDBRANCH  18  19
ENDBRANCH  17  18
ENDBRANCH   1  17
TORSDOF 26
ENDMDL
