MODEL 1
REMARK VINA RESULT:    -5.744      0.000      0.000
REMARK INTER + INTRA:         -17.918
REMARK INTER:                 -14.475
REMARK INTRA:                  -3.443
REMARK UNBOUND:                -3.443
REMARK SMILES CCCCCCCCCCCCCCCCCCCCCCCCCCCC(=O)[O-]
REMARK SMILES IDX 15 1 16 2 17 3 18 4 19 5 20 6 21 7 22 8 23 9 24 10 25 11
REMARK SMILES IDX 26 12 27 13 28 14 29 15 30 16 14 17 13 18 12 19 11 20 10 21
REMARK SMILES IDX 9 22 8 23 7 24 6 25 5 26 4 27 3 28 2 29 1 30
REMARK H PARENT
REMARK Flexibility Score: inf
ROOT
ATOM      1  C   UNL     1      90.203 326.546 201.893  1.00  0.00     0.000 C 
ENDROOT
BRANCH   1   2
ATOM      2  C   UNL     1      89.079 326.443 202.940  1.00  0.00     0.000 C 
BRANCH   2   3
ATOM      3  C   UNL     1      89.199 327.430 204.118  1.00  0.00     0.000 C 
BRANCH   3   4
ATOM      4  C   UNL     1      90.484 327.301 204.963  1.00  0.00     0.000 C 
BRANCH   4   5
ATOM      5  C   UNL     1      90.335 326.485 206.261  1.00  0.00     0.000 C 
BRANCH   5   6
ATOM      6  C   UNL     1      88.897 326.494 206.811  1.00  0.00     0.000 C 
BRANCH   6   7
ATOM      7  C   UNL     1      88.218 325.114 206.733  1.00  0.00     0.000 C 
BRANCH   7   8
ATOM      8  C   UNL     1      86.758 325.128 206.247  1.00  0.00     0.000 C 
BRANCH   8   9
ATOM      9  C   UNL     1      86.559 324.379 204.918  1.00  0.00     0.000 C 
BRANCH   9  10
ATOM     10  C   UNL     1      87.496 323.168 204.784  1.00  0.00     0.000 C 
BRANCH  10  11
ATOM     11  C   UNL     1      87.947 322.928 203.332  1.00  0.00     0.000 C 
BRANCH  11  12
ATOM     12  C   UNL     1      86.997 323.563 202.301  1.00  0.00     0.006 C 
BRANCH  12  13
ATOM     13  C   UNL     1      85.989 322.581 201.683  1.00  0.00     0.053 C 
BRANCH  13  14
ATOM     14  C   UNL     1      86.625 321.696 200.654  1.00  0.00     0.041 C 
ATOM     15  O   UNL     1      87.178 322.198 199.639  1.00  0.00    -0.550 OA
ATOM     16  O   UNL     1      86.593 320.315 200.808  1.00  0.00    -0.550 OA
ENDBRANCH  13  14
ENDBRANCH  12  13
ENDBRANCH  11  12
ENDBRANCH  10  11
ENDBRANCH   9  10
ENDBRANCH   8   9
ENDBRANCH   7   8
ENDBRANCH   6   7
ENDBRANCH   5   6
ENDBRANCH   4   5
ENDBRANCH   3   4
ENDBRANCH   2   3
ENDBRANCH   1   2
BRANCH   1  17
ATOM     17  C   UNL     1      89.676 326.479 200.449  1.00  0.00     0.000 C 
BRANCH  17  18
ATOM     18  C   UNL     1      89.540 325.029 199.939  1.00  0.00     0.000 C 
BRANCH  18  19
ATOM     19  C   UNL     1      88.946 324.922 198.524  1.00  0.00     0.000 C 
BRANCH  19  20
ATOM     20  C   UNL     1      88.592 326.291 197.920  1.00  0.00     0.000 C 
BRANCH  20  21
ATOM     21  C   UNL     1      87.937 326.184 196.532  1.00  0.00     0.000 C 
BRANCH  21  22
ATOM     22  C   UNL     1      88.879 326.487 195.352  1.00  0.00    -0.000 C 
BRANCH  22  23
ATOM     23  C   UNL     1      88.168 326.421 193.988  1.00  0.00    -0.000 C 
BRANCH  23  24
ATOM     24  C   UNL     1      86.817 325.695 194.063  1.00  0.00    -0.000 C 
BRANCH  24  25
ATOM     25  C   UNL     1      86.610 324.718 192.893  1.00  0.00    -0.000 C 
BRANCH  25  26
ATOM     26  C   UNL     1      87.903 324.470 192.100  1.00  0.00    -0.000 C 
BRANCH  26  27
ATOM     27  C   UNL     1      88.175 322.973 191.877  1.00  0.00    -0.000 C 
BRANCH  27  28
ATOM     28  C   UNL     1      87.826 322.160 193.129  1.00  0.00    -0.000 C 
BRANCH  28  29
ATOM     29  C   UNL     1      89.062 321.964 194.018  1.00  0.00    -0.003 C 
ATOM     30  C   UNL     1      88.986 322.837 195.268  1.00  0.00     0.004 C 
ENDBRANCH  28  29
ENDBRANCH  27  28
ENDBRANCH  26  27
ENDBRANCH  25  26
ENDBRANCH  24  25
ENDBRANCH  23  24
ENDBRANCH  22  23
ENDBRANCH  21  22
ENDBRANCH  20  21
ENDBRANCH  19  20
ENDBRANCH  18  19
ENDBRANCH  17  18
ENDBRANCH   1  17
TORSDOF 26
ENDMDL
MODEL 2
REMARK VINA RESULT:    -5.716      3.466     10.845
REMARK INTER + INTRA:         -17.846
REMARK INTER:                 -15.400
REMARK INTRA:                  -2.446
REMARK UNBOUND:                -3.443
REMARK SMILES CCCCCCCCCCCCCCCCCCCCCCCCCCCC(=O)[O-]
REMARK SMILES IDX 15 1 16 2 17 3 18 4 19 5 20 6 21 7 22 8 23 9 24 10 25 11
REMARK SMILES IDX 26 12 27 13 28 14 29 15 30 16 14 17 13 18 12 19 11 20 10 21
REMARK SMILES IDX 9 22 8 23 7 24 6 25 5 26 4 27 3 28 2 29 1 30
REMARK H PARENT
REMARK Flexibility Score: inf
ROOT
ATOM      1  C   UNL     1      89.470 325.834 199.505  1.00  0.00     0.000 C 
ENDROOT
BRANCH   1   2
ATOM      2  C   UNL     1      88.755 325.930 198.145  1.00  0.00     0.000 C 
BRANCH   2   3
ATOM      3  C   UNL     1      88.902 324.687 197.247  1.00  0.00     0.000 C 
BRANCH   3   4
ATOM      4  C   UNL     1      88.966 324.969 195.730  1.00  0.00     0.000 C 
BRANCH   4   5
ATOM      5  C   UNL     1      88.785 326.446 195.331  1.00  0.00     0.000 C 
BRANCH   5   6
ATOM      6  C   UNL     1      87.731 326.642 194.226  1.00  0.00     0.000 C 
BRANCH   6   7
ATOM      7  C   UNL     1      86.454 325.816 194.464  1.00  0.00     0.000 C 
BRANCH   7   8
ATOM      8  C   UNL     1      85.993 324.962 193.270  1.00  0.00     0.000 C 
BRANCH   8   9
ATOM      9  C   UNL     1      86.606 323.551 193.266  1.00  0.00     0.000 C 
BRANCH   9  10
ATOM     10  C   UNL     1      88.011 323.527 192.644  1.00  0.00     0.000 C 
BRANCH  10  11
ATOM     11  C   UNL     1      88.058 324.214 191.267  1.00  0.00     0.000 C 
BRANCH  11  12
ATOM     12  C   UNL     1      88.341 323.227 190.119  1.00  0.00     0.006 C 
BRANCH  12  13
ATOM     13  C   UNL     1      89.308 323.762 189.051  1.00  0.00     0.053 C 
BRANCH  13  14
ATOM     14  C   UNL     1      90.209 322.688 188.519  1.00  0.00     0.041 C 
ATOM     15  O   UNL     1      89.727 321.589 188.132  1.00  0.00    -0.550 OA
ATOM     16  O   UNL     1      91.582 322.895 188.465  1.00  0.00    -0.550 OA
ENDBRANCH  13  14
ENDBRANCH  12  13
ENDBRANCH  11  12
ENDBRANCH  10  11
ENDBRANCH   9  10
ENDBRANCH   8   9
ENDBRANCH   7   8
ENDBRANCH   6   7
ENDBRANCH   5   6
ENDBRANCH   4   5
ENDBRANCH   3   4
ENDBRANCH   2   3
ENDBRANCH   1   2
BRANCH   1  17
ATOM     17  C   UNL     1      88.495 325.907 200.693  1.00  0.00     0.000 C 
BRANCH  17  18
ATOM     18  C   UNL     1      89.179 326.398 201.986  1.00  0.00     0.000 C 
BRANCH  18  19
ATOM     19  C   UNL     1      90.673 326.722 201.813  1.00  0.00     0.000 C 
BRANCH  19  20
ATOM     20  C   UNL     1      91.303 327.325 203.080  1.00  0.00     0.000 C 
BRANCH  20  21
ATOM     21  C   UNL     1      92.489 326.500 203.611  1.00  0.00     0.000 C 
BRANCH  21  22
ATOM     22  C   UNL     1      92.470 326.251 205.130  1.00  0.00    -0.000 C 
BRANCH  22  23
ATOM     23  C   UNL     1      91.165 325.590 205.610  1.00  0.00    -0.000 C 
BRANCH  23  24
ATOM     24  C   UNL     1      90.397 326.463 206.613  1.00  0.00    -0.000 C 
BRANCH  24  25
ATOM     25  C   UNL     1      88.952 326.740 206.164  1.00  0.00    -0.000 C 
BRANCH  25  26
ATOM     26  C   UNL     1      87.915 326.063 207.075  1.00  0.00    -0.000 C 
BRANCH  26  27
ATOM     27  C   UNL     1      86.935 325.177 206.289  1.00  0.00    -0.000 C 
BRANCH  27  28
ATOM     28  C   UNL     1      87.537 324.752 204.945  1.00  0.00    -0.000 C 
BRANCH  28  29
ATOM     29  C   UNL     1      86.817 323.516 204.388  1.00  0.00    -0.003 C 
ATOM     30  C   UNL     1      86.554 323.658 202.891  1.00  0.00     0.004 C 
ENDBRANCH  28  29
ENDBRANCH  27  28
ENDBRANCH  26  27
ENDBRANCH  25  26
ENDBRANCH  24  25
ENDBRANCH  23  24
ENDBRANCH  22  23
ENDBRANCH  21  22
ENDBRANCH  20  21
ENDBRANCH  19  20
ENDBRANCH  18  19
ENDBRANCH  17  18
ENDBRANCH   1  17
TORSDOF 26
ENDMDL
MODEL 3
REMARK VINA RESULT:    -5.679      2.794      9.461
REMARK INTER + INTRA:         -17.753
REMARK INTER:                 -14.528
REMARK INTRA:                  -3.225
REMARK UNBOUND:                -3.443
REMARK SMILES CCCCCCCCCCCCCCCCCCCCCCCCCCCC(=O)[O-]
REMARK SMILES IDX 15 1 16 2 17 3 18 4 19 5 20 6 21 7 22 8 23 9 24 10 25 11
REMARK SMILES IDX 26 12 27 13 28 14 29 15 30 16 14 17 13 18 12 19 11 20 10 21
REMARK SMILES IDX 9 22 8 23 7 24 6 25 5 26 4 27 3 28 2 29 1 30
REMARK H PARENT
REMARK Flexibility Score: inf
ROOT
ATOM      1  C   UNL     1      90.976 325.389 201.350  1.00  0.00     0.000 C 
ENDROOT
BRANCH   1   2
ATOM      2  C   UNL     1      90.456 324.846 200.006  1.00  0.00     0.000 C 
BRANCH   2   3
ATOM      3  C   UNL     1      89.281 325.638 199.399  1.00  0.00     0.000 C 
BRANCH   3   4
ATOM      4  C   UNL     1      88.757 325.112 198.045  1.00  0.00     0.000 C 
BRANCH   4   5
ATOM      5  C   UNL     1      88.101 326.173 197.141  1.00  0.00     0.000 C 
BRANCH   5   6
ATOM      6  C   UNL     1      88.975 326.551 195.931  1.00  0.00     0.000 C 
BRANCH   6   7
ATOM      7  C   UNL     1      88.400 326.044 194.596  1.00  0.00     0.000 C 
BRANCH   7   8
ATOM      8  C   UNL     1      87.015 326.602 194.223  1.00  0.00     0.000 C 
BRANCH   8   9
ATOM      9  C   UNL     1      85.990 325.502 193.900  1.00  0.00     0.000 C 
BRANCH   9  10
ATOM     10  C   UNL     1      86.447 324.117 194.388  1.00  0.00     0.000 C 
BRANCH  10  11
ATOM     11  C   UNL     1      86.643 323.119 193.231  1.00  0.00     0.000 C 
BRANCH  11  12
ATOM     12  C   UNL     1      86.661 323.803 191.852  1.00  0.00     0.006 C 
BRANCH  12  13
ATOM     13  C   UNL     1      88.069 324.037 191.282  1.00  0.00     0.053 C 
BRANCH  13  14
ATOM     14  C   UNL     1      88.441 323.006 190.260  1.00  0.00     0.041 C 
ATOM     15  O   UNL     1      88.251 323.231 189.034  1.00  0.00    -0.550 OA
ATOM     16  O   UNL     1      88.984 321.792 190.661  1.00  0.00    -0.550 OA
ENDBRANCH  13  14
ENDBRANCH  12  13
ENDBRANCH  11  12
ENDBRANCH  10  11
ENDBRANCH   9  10
ENDBRANCH   8   9
ENDBRANCH   7   8
ENDBRANCH   6   7
ENDBRANCH   5   6
ENDBRANCH   4   5
ENDBRANCH   3   4
ENDBRANCH   2   3
ENDBRANCH   1   2
BRANCH   1  17
ATOM     17  C   UNL     1      90.586 326.858 201.587  1.00  0.00     0.000 C 
BRANCH  17  18
ATOM     18  C   UNL     1      90.670 327.256 203.075  1.00  0.00     0.000 C 
BRANCH  18  19
ATOM     19  C   UNL     1      89.355 327.055 203.847  1.00  0.00     0.000 C 
BRANCH  19  20
ATOM     20  C   UNL     1      89.499 327.327 205.354  1.00  0.00     0.000 C 
BRANCH  20  21
ATOM     21  C   UNL     1      89.286 326.068 206.214  1.00  0.00     0.000 C 
BRANCH  21  22
ATOM     22  C   UNL     1      87.890 325.956 206.853  1.00  0.00    -0.000 C 
BRANCH  22  23
ATOM     23  C   UNL     1      86.907 325.134 205.999  1.00  0.00    -0.000 C 
BRANCH  23  24
ATOM     24  C   UNL     1      87.175 323.624 206.082  1.00  0.00    -0.000 C 
BRANCH  24  25
ATOM     25  C   UNL     1      87.244 322.963 204.695  1.00  0.00    -0.000 C 
BRANCH  25  26
ATOM     26  C   UNL     1      88.143 323.739 203.719  1.00  0.00    -0.000 C 
BRANCH  26  27
ATOM     27  C   UNL     1      87.468 323.966 202.356  1.00  0.00    -0.000 C 
BRANCH  27  28
ATOM     28  C   UNL     1      86.290 323.004 202.161  1.00  0.00    -0.000 C 
BRANCH  28  29
ATOM     29  C   UNL     1      86.318 322.381 200.759  1.00  0.00    -0.003 C 
ATOM     30  C   UNL     1      87.747 322.256 200.239  1.00  0.00     0.004 C 
ENDBRANCH  28  29
ENDBRANCH  27  28
ENDBRANCH  26  27
ENDBRANCH  25  26
ENDBRANCH  24  25
ENDBRANCH  23  24
ENDBRANCH  22  23
ENDBRANCH  21  22
ENDBRANCH  20  21
ENDBRANCH  19  20
ENDBRANCH  18  19
ENDBRANCH  17  18
ENDBRANCH   1  17
TORSDOF 26
ENDMDL
MODEL 4
REMARK VINA RESULT:    -5.673      2.516      4.126
REMARK INTER + INTRA:         -17.739
REMARK INTER:                 -13.995
REMARK INTRA:                  -3.744
REMARK UNBOUND:                -3.443
REMARK SMILES CCCCCCCCCCCCCCCCCCCCCCCCCCCC(=O)[O-]
REMARK SMILES IDX 15 1 16 2 17 3 18 4 19 5 20 6 21 7 22 8 23 9 24 10 25 11
REMARK SMILES IDX 26 12 27 13 28 14 29 15 30 16 14 17 13 18 12 19 11 20 10 21
REMARK SMILES IDX 9 22 8 23 7 24 6 25 5 26 4 27 3 28 2 29 1 30
REMARK H PARENT
REMARK Flexibility Score: inf
ROOT
ATOM      1  C   UNL     1      89.056 324.212 202.577  1.00  0.00     0.000 C 
ENDROOT
BRANCH   1   2
ATOM      2  C   UNL     1      88.294 323.440 203.670  1.00  0.00     0.000 C 
BRANCH   2   3
ATOM      3  C   UNL     1      86.795 323.781 203.780  1.00  0.00     0.000 C 
BRANCH   3   4
ATOM      4  C   UNL     1      86.311 324.191 205.187  1.00  0.00     0.000 C 
BRANCH   4   5
ATOM      5  C   UNL     1      87.428 324.433 206.220  1.00  0.00     0.000 C 
BRANCH   5   6
ATOM      6  C   UNL     1      87.449 325.877 206.753  1.00  0.00     0.000 C 
BRANCH   6   7
ATOM      7  C   UNL     1      88.839 326.531 206.657  1.00  0.00     0.000 C 
BRANCH   7   8
ATOM      8  C   UNL     1      89.206 327.092 205.271  1.00  0.00     0.000 C 
BRANCH   8   9
ATOM      9  C   UNL     1      90.591 326.632 204.784  1.00  0.00     0.000 C 
BRANCH   9  10
ATOM     10  C   UNL     1      91.113 327.486 203.617  1.00  0.00     0.000 C 
BRANCH  10  11
ATOM     11  C   UNL     1      92.448 326.966 203.056  1.00  0.00     0.000 C 
BRANCH  11  12
ATOM     12  C   UNL     1      92.448 325.443 202.834  1.00  0.00     0.006 C 
BRANCH  12  13
ATOM     13  C   UNL     1      92.543 325.019 201.360  1.00  0.00     0.053 C 
BRANCH  13  14
ATOM     14  C   UNL     1      93.918 324.547 200.998  1.00  0.00     0.041 C 
ATOM     15  O   UNL     1      94.774 324.335 201.898  1.00  0.00    -0.550 OA
ATOM     16  O   UNL     1      94.259 324.356 199.664  1.00  0.00    -0.550 OA
ENDBRANCH  13  14
ENDBRANCH  12  13
ENDBRANCH  11  12
ENDBRANCH  10  11
ENDBRANCH   9  10
ENDBRANCH   8   9
ENDBRANCH   7   8
ENDBRANCH   6   7
ENDBRANCH   5   6
ENDBRANCH   4   5
ENDBRANCH   3   4
ENDBRANCH   2   3
ENDBRANCH   1   2
BRANCH   1  17
ATOM     17  C   UNL     1      88.129 325.085 201.714  1.00  0.00     0.000 C 
BRANCH  17  18
ATOM     18  C   UNL     1      88.744 326.466 201.403  1.00  0.00     0.000 C 
BRANCH  18  19
ATOM     19  C   UNL     1      89.566 326.501 200.104  1.00  0.00     0.000 C 
BRANCH  19  20
ATOM     20  C   UNL     1      88.880 325.762 198.942  1.00  0.00     0.000 C 
BRANCH  20  21
ATOM     21  C   UNL     1      88.487 326.697 197.785  1.00  0.00     0.000 C 
BRANCH  21  22
ATOM     22  C   UNL     1      88.280 325.992 196.432  1.00  0.00    -0.000 C 
BRANCH  22  23
ATOM     23  C   UNL     1      86.856 326.171 195.877  1.00  0.00    -0.000 C 
BRANCH  23  24
ATOM     24  C   UNL     1      86.844 326.482 194.372  1.00  0.00    -0.000 C 
BRANCH  24  25
ATOM     25  C   UNL     1      88.132 326.023 193.668  1.00  0.00    -0.000 C 
BRANCH  25  26
ATOM     26  C   UNL     1      87.867 324.951 192.600  1.00  0.00    -0.000 C 
BRANCH  26  27
ATOM     27  C   UNL     1      88.314 323.551 193.051  1.00  0.00    -0.000 C 
BRANCH  27  28
ATOM     28  C   UNL     1      87.192 322.836 193.813  1.00  0.00    -0.000 C 
BRANCH  28  29
ATOM     29  C   UNL     1      87.619 322.526 195.255  1.00  0.00    -0.003 C 
ATOM     30  C   UNL     1      89.134 322.620 195.413  1.00  0.00     0.004 C 
ENDBRANCH  28  29
ENDBRANCH  27  28
ENDBRANCH  26  27
ENDBRANCH  25  26
ENDBRANCH  24  25
ENDBRANCH  23  24
ENDBRANCH  22  23
ENDBRANCH  21  22
ENDBRANCH  20  21
ENDBRANCH  19  20
ENDBRANCH  18  19
ENDBRANCH  17  18
ENDBRANCH   1  17
TORSDOF 26
ENDMDL
MODEL 5
REMARK VINA RESULT:    -5.671      3.081     10.100
REMARK INTER + INTRA:         -17.734
REMARK INTER:                 -14.141
REMARK INTRA:                  -3.592
REMARK UNBOUND:                -3.443
REMARK SMILES CCCCCCCCCCCCCCCCCCCCCCCCCCCC(=O)[O-]
REMARK SMILES IDX 15 1 16 2 17 3 18 4 19 5 20 6 21 7 22 8 23 9 24 10 25 11
REMARK SMILES IDX 26 12 27 13 28 14 29 15 30 16 14 17 13 18 12 19 11 20 10 21
REMARK SMILES IDX 9 22 8 23 7 24 6 25 5 26 4 27 3 28 2 29 1 30
REMARK H PARENT
REMARK Flexibility Score: inf
ROOT
ATOM      1  C   UNL     1      88.352 325.038 201.635  1.00  0.00     0.000 C 
ENDROOT
BRANCH   1   2
ATOM      2  C   UNL     1      89.328 324.155 200.835  1.00  0.00     0.000 C 
BRANCH   2   3
ATOM      3  C   UNL     1      88.894 323.858 199.386  1.00  0.00     0.000 C 
BRANCH   3   4
ATOM      4  C   UNL     1      89.488 324.793 198.311  1.00  0.00     0.000 C 
BRANCH   4   5
ATOM      5  C   UNL     1      88.799 326.165 198.185  1.00  0.00     0.000 C 
BRANCH   5   6
ATOM      6  C   UNL     1      87.994 326.312 196.881  1.00  0.00     0.000 C 
BRANCH   6   7
ATOM      7  C   UNL     1      88.872 326.201 195.620  1.00  0.00     0.000 C 
BRANCH   7   8
ATOM      8  C   UNL     1      88.181 326.596 194.303  1.00  0.00     0.000 C 
BRANCH   8   9
ATOM      9  C   UNL     1      86.728 326.098 194.212  1.00  0.00     0.000 C 
BRANCH   9  10
ATOM     10  C   UNL     1      86.548 325.018 193.134  1.00  0.00     0.000 C 
BRANCH  10  11
ATOM     11  C   UNL     1      87.859 324.700 192.392  1.00  0.00     0.000 C 
BRANCH  11  12
ATOM     12  C   UNL     1      87.722 323.511 191.425  1.00  0.00     0.006 C 
BRANCH  12  13
ATOM     13  C   UNL     1      88.596 323.617 190.165  1.00  0.00     0.053 C 
BRANCH  13  14
ATOM     14  C   UNL     1      88.882 322.274 189.563  1.00  0.00     0.041 C 
ATOM     15  O   UNL     1      89.545 322.185 188.495  1.00  0.00    -0.550 OA
ATOM     16  O   UNL     1      88.404 321.122 190.175  1.00  0.00    -0.550 OA
ENDBRANCH  13  14
ENDBRANCH  12  13
ENDBRANCH  11  12
ENDBRANCH  10  11
ENDBRANCH   9  10
ENDBRANCH   8   9
ENDBRANCH   7   8
ENDBRANCH   6   7
ENDBRANCH   5   6
ENDBRANCH   4   5
ENDBRANCH   3   4
ENDBRANCH   2   3
ENDBRANCH   1   2
BRANCH   1  17
ATOM     17  C   UNL     1      89.012 326.324 202.162  1.00  0.00     0.000 C 
BRANCH  17  18
ATOM     18  C   UNL     1      90.453 326.503 201.638  1.00  0.00     0.000 C 
BRANCH  18  19
ATOM     19  C   UNL     1      91.409 327.144 202.659  1.00  0.00     0.000 C 
BRANCH  19  20
ATOM     20  C   UNL     1      90.693 327.604 203.940  1.00  0.00     0.000 C 
BRANCH  20  21
ATOM     21  C   UNL     1      91.408 327.148 205.224  1.00  0.00     0.000 C 
BRANCH  21  22
ATOM     22  C   UNL     1      90.469 326.805 206.395  1.00  0.00    -0.000 C 
BRANCH  22  23
ATOM     23  C   UNL     1      88.982 326.982 206.039  1.00  0.00    -0.000 C 
BRANCH  23  24
ATOM     24  C   UNL     1      88.048 326.327 207.068  1.00  0.00    -0.000 C 
BRANCH  24  25
ATOM     25  C   UNL     1      87.031 325.376 206.416  1.00  0.00    -0.000 C 
BRANCH  25  26
ATOM     26  C   UNL     1      87.633 324.589 205.241  1.00  0.00    -0.000 C 
BRANCH  26  27
ATOM     27  C   UNL     1      88.296 323.278 205.693  1.00  0.00    -0.000 C 
BRANCH  27  28
ATOM     28  C   UNL     1      89.822 323.365 205.574  1.00  0.00    -0.000 C 
BRANCH  28  29
ATOM     29  C   UNL     1      90.284 322.993 204.159  1.00  0.00    -0.003 C 
ATOM     30  C   UNL     1      91.632 323.631 203.832  1.00  0.00     0.004 C 
ENDBRANCH  28  29
ENDBRANCH  27  28
ENDBRANCH  26  27
ENDBRANCH  25  26
ENDBRANCH  24  25
ENDBRANCH  23  24
ENDBRANCH  22  23
ENDBRANCH  21  22
ENDBRANCH  20  21
ENDBRANCH  19  20
ENDBRANCH  18  19
ENDBRANCH  17  18
ENDBRANCH   1  17
TORSDOF 26
ENDMDL
MODEL 6
REMARK VINA RESULT:    -5.661      1.831      9.539
REMARK INTER + INTRA:         -17.709
REMARK INTER:                 -14.248
REMARK INTRA:                  -3.461
REMARK UNBOUND:                -3.443
REMARK SMILES CCCCCCCCCCCCCCCCCCCCCCCCCCCC(=O)[O-]
REMARK SMILES IDX 15 1 16 2 17 3 18 4 19 5 20 6 21 7 22 8 23 9 24 10 25 11
REMARK SMILES IDX 26 12 27 13 28 14 29 15 30 16 14 17 13 18 12 19 11 20 10 21
REMARK SMILES IDX 9 22 8 23 7 24 6 25 5 26 4 27 3 28 2 29 1 30
REMARK H PARENT
REMARK Flexibility Score: inf
ROOT
ATOM      1  C   UNL     1      88.419 326.553 197.737  1.00  0.00     0.000 C 
ENDROOT
BRANCH   1   2
ATOM      2  C   UNL     1      87.850 325.706 196.584  1.00  0.00     0.000 C 
BRANCH   2   3
ATOM      3  C   UNL     1      86.637 326.326 195.862  1.00  0.00     0.000 C 
BRANCH   3   4
ATOM      4  C   UNL     1      86.802 326.521 194.339  1.00  0.00     0.000 C 
BRANCH   4   5
ATOM      5  C   UNL     1      88.135 326.017 193.755  1.00  0.00     0.000 C 
BRANCH   5   6
ATOM      6  C   UNL     1      87.942 325.053 192.570  1.00  0.00     0.000 C 
BRANCH   6   7
ATOM      7  C   UNL     1      88.175 323.580 192.953  1.00  0.00     0.000 C 
BRANCH   7   8
ATOM      8  C   UNL     1      87.121 322.973 193.896  1.00  0.00     0.000 C 
BRANCH   8   9
ATOM      9  C   UNL     1      87.731 322.054 194.969  1.00  0.00     0.000 C 
BRANCH   9  10
ATOM     10  C   UNL     1      89.217 322.358 195.220  1.00  0.00     0.000 C 
BRANCH  10  11
ATOM     11  C   UNL     1      89.514 322.668 196.699  1.00  0.00     0.000 C 
BRANCH  11  12
ATOM     12  C   UNL     1      90.984 322.413 197.077  1.00  0.00     0.006 C 
BRANCH  12  13
ATOM     13  C   UNL     1      91.669 323.594 197.783  1.00  0.00     0.053 C 
BRANCH  13  14
ATOM     14  C   UNL     1      91.900 323.322 199.239  1.00  0.00     0.041 C 
ATOM     15  O   UNL     1      91.689 322.173 199.711  1.00  0.00    -0.550 OA
ATOM     16  O   UNL     1      92.335 324.342 200.076  1.00  0.00    -0.550 OA
ENDBRANCH  13  14
ENDBRANCH  12  13
ENDBRANCH  11  12
ENDBRANCH  10  11
ENDBRANCH   9  10
ENDBRANCH   8   9
ENDBRANCH   7   8
ENDBRANCH   6   7
ENDBRANCH   5   6
ENDBRANCH   4   5
ENDBRANCH   3   4
ENDBRANCH   2   3
ENDBRANCH   1   2
BRANCH   1  17
ATOM     17  C   UNL     1      88.898 325.695 198.921  1.00  0.00     0.000 C 
BRANCH  17  18
ATOM     18  C   UNL     1      89.604 326.534 200.007  1.00  0.00     0.000 C 
BRANCH  18  19
ATOM     19  C   UNL     1      88.970 326.402 201.403  1.00  0.00     0.000 C 
BRANCH  19  20
ATOM     20  C   UNL     1      90.008 326.138 202.507  1.00  0.00     0.000 C 
BRANCH  20  21
ATOM     21  C   UNL     1      90.124 327.297 203.512  1.00  0.00     0.000 C 
BRANCH  21  22
ATOM     22  C   UNL     1      89.104 327.251 204.665  1.00  0.00    -0.000 C 
BRANCH  22  23
ATOM     23  C   UNL     1      89.549 326.335 205.819  1.00  0.00    -0.000 C 
BRANCH  23  24
ATOM     24  C   UNL     1      88.596 326.398 207.022  1.00  0.00    -0.000 C 
BRANCH  24  25
ATOM     25  C   UNL     1      87.233 325.750 206.727  1.00  0.00    -0.000 C 
BRANCH  25  26
ATOM     26  C   UNL     1      87.365 324.287 206.274  1.00  0.00    -0.000 C 
BRANCH  26  27
ATOM     27  C   UNL     1      86.512 323.978 205.033  1.00  0.00    -0.000 C 
BRANCH  27  28
ATOM     28  C   UNL     1      87.390 323.840 203.784  1.00  0.00    -0.000 C 
BRANCH  28  29
ATOM     29  C   UNL     1      86.531 323.772 202.514  1.00  0.00    -0.003 C 
ATOM     30  C   UNL     1      87.296 323.122 201.364  1.00  0.00     0.004 C 
ENDBRANCH  28  29
ENDBRANCH  27  28
ENDBRANCH  26  27
ENDBRANCH  25  26
ENDBRANCH  24  25
ENDBRANCH  23  24
ENDBRANCH  22  23
ENDBRANCH  21  22
ENDBRANCH  20  21
ENDBRANCH  19  20
ENDBRANCH  18  19
ENDBRANCH  17  18
ENDBRANCH   1  17
TORSDOF 26
ENDMDL
MODEL 7
REMARK VINA RESULT:    -5.595      2.716      4.445
REMARK INTER + INTRA:         -17.543
REMARK INTER:                 -14.007
REMARK INTRA:                  -3.535
REMARK UNBOUND:                -3.443
REMARK SMILES CCCCCCCCCCCCCCCCCCCCCCCCCCCC(=O)[O-]
REMARK SMILES IDX 15 1 16 2 17 3 18 4 19 5 20 6 21 7 22 8 23 9 24 10 25 11
REMARK SMILES IDX 26 12 27 13 28 14 29 15 30 16 14 17 13 18 12 19 11 20 10 21
REMARK SMILES IDX 9 22 8 23 7 24 6 25 5 26 4 27 3 28 2 29 1 30
REMARK H PARENT
REMARK Flexibility Score: inf
ROOT
ATOM      1  C   UNL     1      88.497 325.936 201.121  1.00  0.00     0.000 C 
ENDROOT
BRANCH   1   2
ATOM      2  C   UNL     1      88.689 324.519 201.690  1.00  0.00     0.000 C 
BRANCH   2   3
ATOM      3  C   UNL     1      87.407 323.664 201.747  1.00  0.00     0.000 C 
BRANCH   3   4
ATOM      4  C   UNL     1      86.638 323.712 203.085  1.00  0.00     0.000 C 
BRANCH   4   5
ATOM      5  C   UNL     1      87.380 323.101 204.289  1.00  0.00     0.000 C 
BRANCH   5   6
ATOM      6  C   UNL     1      86.704 323.422 205.634  1.00  0.00     0.000 C 
BRANCH   6   7
ATOM      7  C   UNL     1      86.778 324.915 206.000  1.00  0.00     0.000 C 
BRANCH   7   8
ATOM      8  C   UNL     1      87.987 325.321 206.862  1.00  0.00     0.000 C 
BRANCH   8   9
ATOM      9  C   UNL     1      88.733 326.549 206.313  1.00  0.00     0.000 C 
BRANCH   9  10
ATOM     10  C   UNL     1      88.870 326.513 204.783  1.00  0.00     0.000 C 
BRANCH  10  11
ATOM     11  C   UNL     1      89.728 327.670 204.239  1.00  0.00     0.000 C 
BRANCH  11  12
ATOM     12  C   UNL     1      90.999 327.183 203.521  1.00  0.00     0.006 C 
BRANCH  12  13
ATOM     13  C   UNL     1      92.072 326.606 204.458  1.00  0.00     0.053 C 
BRANCH  13  14
ATOM     14  C   UNL     1      93.458 326.835 203.935  1.00  0.00     0.041 C 
ATOM     15  O   UNL     1      94.452 326.728 204.703  1.00  0.00    -0.550 OA
ATOM     16  O   UNL     1      93.650 327.180 202.603  1.00  0.00    -0.550 OA
ENDBRANCH  13  14
ENDBRANCH  12  13
ENDBRANCH  11  12
ENDBRANCH  10  11
ENDBRANCH   9  10
ENDBRANCH   8   9
ENDBRANCH   7   8
ENDBRANCH   6   7
ENDBRANCH   5   6
ENDBRANCH   4   5
ENDBRANCH   3   4
ENDBRANCH   2   3
ENDBRANCH   1   2
BRANCH   1  17
ATOM     17  C   UNL     1      89.665 326.377 200.223  1.00  0.00     0.000 C 
BRANCH  17  18
ATOM     18  C   UNL     1      89.185 326.966 198.879  1.00  0.00     0.000 C 
BRANCH  18  19
ATOM     19  C   UNL     1      88.520 325.934 197.953  1.00  0.00     0.000 C 
BRANCH  19  20
ATOM     20  C   UNL     1      88.303 326.465 196.526  1.00  0.00     0.000 C 
BRANCH  20  21
ATOM     21  C   UNL     1      86.863 326.266 196.023  1.00  0.00     0.000 C 
BRANCH  21  22
ATOM     22  C   UNL     1      86.684 326.431 194.503  1.00  0.00    -0.000 C 
BRANCH  22  23
ATOM     23  C   UNL     1      88.011 326.316 193.730  1.00  0.00    -0.000 C 
BRANCH  23  24
ATOM     24  C   UNL     1      88.067 325.066 192.839  1.00  0.00    -0.000 C 
BRANCH  24  25
ATOM     25  C   UNL     1      86.913 324.090 193.123  1.00  0.00    -0.000 C 
BRANCH  25  26
ATOM     26  C   UNL     1      87.298 323.007 194.144  1.00  0.00    -0.000 C 
BRANCH  26  27
ATOM     27  C   UNL     1      88.821 322.860 194.295  1.00  0.00    -0.000 C 
BRANCH  27  28
ATOM     28  C   UNL     1      89.231 322.889 195.772  1.00  0.00    -0.000 C 
BRANCH  28  29
ATOM     29  C   UNL     1      88.036 322.564 196.679  1.00  0.00    -0.003 C 
ATOM     30  C   UNL     1      88.492 322.263 198.104  1.00  0.00     0.004 C 
ENDBRANCH  28  29
ENDBRANCH  27  28
ENDBRANCH  26  27
ENDBRANCH  25  26
ENDBRANCH  24  25
ENDBRANCH  23  24
ENDBRANCH  22  23
ENDBRANCH  21  22
ENDBRANCH  20  21
ENDBRANCH  19  20
ENDBRANCH  18  19
ENDBRANCH  17  18
ENDBRANCH   1  17
TORSDOF 26
ENDMDL
MODEL 8
REMARK VINA RESULT:    -5.584      2.526      4.352
REMARK INTER + INTRA:         -17.515
REMARK INTER:                 -15.003
REMARK INTRA:                  -2.512
REMARK UNBOUND:                -3.443
REMARK SMILES CCCCCCCCCCCCCCCCCCCCCCCCCCCC(=O)[O-]
REMARK SMILES IDX 15 1 16 2 17 3 18 4 19 5 20 6 21 7 22 8 23 9 24 10 25 11
REMARK SMILES IDX 26 12 27 13 28 14 29 15 30 16 14 17 13 18 12 19 11 20 10 21
REMARK SMILES IDX 9 22 8 23 7 24 6 25 5 26 4 27 3 28 2 29 1 30
REMARK H PARENT
REMARK Flexibility Score: inf
ROOT
ATOM      1  C   UNL     1      89.340 326.486 200.096  1.00  0.00     0.000 C 
ENDROOT
BRANCH   1   2
ATOM      2  C   UNL     1      88.529 326.150 201.362  1.00  0.00     0.000 C 
BRANCH   2   3
ATOM      3  C   UNL     1      88.629 324.683 201.824  1.00  0.00     0.000 C 
BRANCH   3   4
ATOM      4  C   UNL     1      87.489 324.201 202.747  1.00  0.00     0.000 C 
BRANCH   4   5
ATOM      5  C   UNL     1      87.933 323.733 204.146  1.00  0.00     0.000 C 
BRANCH   5   6
ATOM      6  C   UNL     1      86.843 323.925 205.216  1.00  0.00     0.000 C 
BRANCH   6   7
ATOM      7  C   UNL     1      87.045 325.202 206.053  1.00  0.00     0.000 C 
BRANCH   7   8
ATOM      8  C   UNL     1      88.234 325.165 207.029  1.00  0.00     0.000 C 
BRANCH   8   9
ATOM      9  C   UNL     1      89.374 326.116 206.626  1.00  0.00     0.000 C 
BRANCH   9  10
ATOM     10  C   UNL     1      88.884 327.268 205.733  1.00  0.00     0.000 C 
BRANCH  10  11
ATOM     11  C   UNL     1      89.602 327.305 204.371  1.00  0.00     0.000 C 
BRANCH  11  12
ATOM     12  C   UNL     1      91.119 327.080 204.492  1.00  0.00     0.006 C 
BRANCH  12  13
ATOM     13  C   UNL     1      91.628 325.810 203.791  1.00  0.00     0.053 C 
BRANCH  13  14
ATOM     14  C   UNL     1      92.420 326.127 202.559  1.00  0.00     0.041 C 
ATOM     15  O   UNL     1      93.208 327.111 202.546  1.00  0.00    -0.550 OA
ATOM     16  O   UNL     1      92.278 325.344 201.420  1.00  0.00    -0.550 OA
ENDBRANCH  13  14
ENDBRANCH  12  13
ENDBRANCH  11  12
ENDBRANCH  10  11
ENDBRANCH   9  10
ENDBRANCH   8   9
ENDBRANCH   7   8
ENDBRANCH   6   7
ENDBRANCH   5   6
ENDBRANCH   4   5
ENDBRANCH   3   4
ENDBRANCH   2   3
ENDBRANCH   1   2
BRANCH   1  17
ATOM     17  C   UNL     1      88.908 325.653 198.877  1.00  0.00     0.000 C 
BRANCH  17  18
ATOM     18  C   UNL     1      88.509 326.533 197.675  1.00  0.00     0.000 C 
BRANCH  18  19
ATOM     19  C   UNL     1      87.853 325.751 196.524  1.00  0.00     0.000 C 
BRANCH  19  20
ATOM     20  C   UNL     1      86.617 326.462 195.947  1.00  0.00     0.000 C 
BRANCH  20  21
ATOM     21  C   UNL     1      86.700 326.670 194.425  1.00  0.00     0.000 C 
BRANCH  21  22
ATOM     22  C   UNL     1      88.069 326.335 193.805  1.00  0.00    -0.000 C 
BRANCH  22  23
ATOM     23  C   UNL     1      88.106 324.938 193.160  1.00  0.00    -0.000 C 
BRANCH  23  24
ATOM     24  C   UNL     1      86.703 324.398 192.842  1.00  0.00    -0.000 C 
BRANCH  24  25
ATOM     25  C   UNL     1      86.684 323.518 191.581  1.00  0.00    -0.000 C 
BRANCH  25  26
ATOM     26  C   UNL     1      88.070 322.944 191.245  1.00  0.00    -0.000 C 
BRANCH  26  27
ATOM     27  C   UNL     1      88.564 323.381 189.856  1.00  0.00    -0.000 C 
BRANCH  27  28
ATOM     28  C   UNL     1      87.699 322.768 188.748  1.00  0.00    -0.000 C 
BRANCH  28  29
ATOM     29  C   UNL     1      87.830 321.239 188.734  1.00  0.00    -0.003 C 
ATOM     30  C   UNL     1      86.886 320.614 187.710  1.00  0.00     0.004 C 
ENDBRANCH  28  29
ENDBRANCH  27  28
ENDBRANCH  26  27
ENDBRANCH  25  26
ENDBRANCH  24  25
ENDBRANCH  23  24
ENDBRANCH  22  23
ENDBRANCH  21  22
ENDBRANCH  20  21
ENDBRANCH  19  20
ENDBRANCH  18  19
ENDBRANCH  17  18
ENDBRANCH   1  17
TORSDOF 26
ENDMDL
MODEL 9
REMARK VINA RESULT:    -5.572      1.423      9.246
REMARK INTER + INTRA:         -17.485
REMARK INTER:                 -14.127
REMARK INTRA:                  -3.358
REMARK UNBOUND:                -3.443
REMARK SMILES CCCCCCCCCCCCCCCCCCCCCCCCCCCC(=O)[O-]
REMARK SMILES IDX 15 1 16 2 17 3 18 4 19 5 20 6 21 7 22 8 23 9 24 10 25 11
REMARK SMILES IDX 26 12 27 13 28 14 29 15 30 16 14 17 13 18 12 19 11 20 10 21
REMARK SMILES IDX 9 22 8 23 7 24 6 25 5 26 4 27 3 28 2 29 1 30
REMARK H PARENT
REMARK Flexibility Score: inf
ROOT
ATOM      1  C   UNL     1      88.495 325.966 200.939  1.00  0.00     0.000 C 
ENDROOT
BRANCH   1   2
ATOM      2  C   UNL     1      89.390 325.041 200.094  1.00  0.00     0.000 C 
BRANCH   2   3
ATOM      3  C   UNL     1      88.971 324.906 198.617  1.00  0.00     0.000 C 
BRANCH   3   4
ATOM      4  C   UNL     1      88.509 326.212 197.937  1.00  0.00     0.000 C 
BRANCH   4   5
ATOM      5  C   UNL     1      88.415 326.153 196.400  1.00  0.00     0.000 C 
BRANCH   5   6
ATOM      6  C   UNL     1      86.963 326.107 195.892  1.00  0.00     0.000 C 
BRANCH   6   7
ATOM      7  C   UNL     1      86.849 326.382 194.381  1.00  0.00     0.000 C 
BRANCH   7   8
ATOM      8  C   UNL     1      88.127 326.112 193.567  1.00  0.00     0.000 C 
BRANCH   8   9
ATOM      9  C   UNL     1      87.956 324.987 192.533  1.00  0.00     0.000 C 
BRANCH   9  10
ATOM     10  C   UNL     1      86.592 324.287 192.653  1.00  0.00     0.000 C 
BRANCH  10  11
ATOM     11  C   UNL     1      86.654 322.802 192.248  1.00  0.00     0.000 C 
BRANCH  11  12
ATOM     12  C   UNL     1      86.746 321.858 193.460  1.00  0.00     0.006 C 
BRANCH  12  13
ATOM     13  C   UNL     1      86.649 322.566 194.821  1.00  0.00     0.053 C 
BRANCH  13  14
ATOM     14  C   UNL     1      87.910 322.428 195.618  1.00  0.00     0.041 C 
ATOM     15  O   UNL     1      87.897 321.832 196.729  1.00  0.00    -0.550 OA
ATOM     16  O   UNL     1      89.098 322.970 195.142  1.00  0.00    -0.550 OA
ENDBRANCH  13  14
ENDBRANCH  12  13
ENDBRANCH  11  12
ENDBRANCH  10  11
ENDBRANCH   9  10
ENDBRANCH   8   9
ENDBRANCH   7   8
ENDBRANCH   6   7
ENDBRANCH   5   6
ENDBRANCH   4   5
ENDBRANCH   3   4
ENDBRANCH   2   3
ENDBRANCH   1   2
BRANCH   1  17
ATOM     17  C   UNL     1      89.207 326.493 202.197  1.00  0.00     0.000 C 
BRANCH  17  18
ATOM     18  C   UNL     1      90.712 326.741 201.960  1.00  0.00     0.000 C 
BRANCH  18  19
ATOM     19  C   UNL     1      91.460 327.252 203.204  1.00  0.00     0.000 C 
BRANCH  19  20
ATOM     20  C   UNL     1      90.514 327.613 204.363  1.00  0.00     0.000 C 
BRANCH  20  21
ATOM     21  C   UNL     1      91.035 327.139 205.731  1.00  0.00     0.000 C 
BRANCH  21  22
ATOM     22  C   UNL     1      89.946 326.621 206.688  1.00  0.00    -0.000 C 
BRANCH  22  23
ATOM     23  C   UNL     1      88.972 325.641 206.009  1.00  0.00    -0.000 C 
BRANCH  23  24
ATOM     24  C   UNL     1      87.551 325.729 206.585  1.00  0.00    -0.000 C 
BRANCH  24  25
ATOM     25  C   UNL     1      86.589 324.721 205.933  1.00  0.00    -0.000 C 
BRANCH  25  26
ATOM     26  C   UNL     1      87.287 323.837 204.887  1.00  0.00    -0.000 C 
BRANCH  26  27
ATOM     27  C   UNL     1      86.584 323.880 203.521  1.00  0.00    -0.000 C 
BRANCH  27  28
ATOM     28  C   UNL     1      87.272 322.944 202.520  1.00  0.00    -0.000 C 
BRANCH  28  29
ATOM     29  C   UNL     1      86.268 322.406 201.492  1.00  0.00    -0.003 C 
ATOM     30  C   UNL     1      86.958 322.062 200.174  1.00  0.00     0.004 C 
ENDBRANCH  28  29
ENDBRANCH  27  28
ENDBRANCH  26  27
ENDBRANCH  25  26
ENDBRANCH  24  25
ENDBRANCH  23  24
ENDBRANCH  22  23
ENDBRANCH  21  22
ENDBRANCH  20  21
ENDBRANCH  19  20
ENDBRANCH  18  19
ENDBRANCH  17  18
ENDBRANCH   1  17
TORSDOF 26
ENDMDL
