MODEL 1
REMARK VINA RESULT:    -3.700      0.000      0.000
REMARK INTER + INTRA:          -5.026
REMARK INTER:                  -4.781
REMARK INTRA:                  -0.244
REMARK UNBOUND:                -0.244
REMARK SMILES CCCCCCC(=O)[O-]
REMARK SMILES IDX 5 1 6 2 7 3 8 4 9 5 4 6 3 7 2 8 1 9
REMARK H PARENT
REMARK Flexibility Score: inf
ROOT
ATOM      1  C   UNL     1      28.664  40.702  44.152  1.00  0.00     0.006 C 
ENDROOT
BRANCH   1   2
ATOM      2  C   UNL     1      27.740  41.013  45.335  1.00  0.00     0.053 C 
BRANCH   2   3
ATOM      3  C   UNL     1      27.806  42.468  45.679  1.00  0.00     0.041 C 
ATOM      4  O   UNL     1      27.224  43.317  44.954  1.00  0.00    -0.550 OA
ATOM      5  O   UNL     1      28.549  42.889  46.775  1.00  0.00    -0.550 OA
ENDBRANCH   2   3
ENDBRANCH   1   2
BRANCH   1   6
ATOM      6  C   UNL     1      29.718  39.635  44.489  1.00  0.00     0.000 C 
BRANCH   6   7
ATOM      7  C   UNL     1      29.410  38.896  45.804  1.00  0.00    -0.000 C 
BRANCH   7   8
ATOM      8  C   UNL     1      28.789  37.511  45.568  1.00  0.00    -0.003 C 
ATOM      9  C   UNL     1      29.235  36.881  44.248  1.00  0.00     0.004 C 
ENDBRANCH   7   8
ENDBRANCH   6   7
ENDBRANCH   1   6
TORSDOF 5
ENDMDL
MODEL 2
REMARK VINA RESULT:    -3.682      2.558      4.817
REMARK INTER + INTRA:          -5.003
REMARK INTER:                  -4.778
REMARK INTRA:                  -0.225
REMARK UNBOUND:                -0.244
REMARK SMILES CCCCCCC(=O)[O-]
REMARK SMILES IDX 5 1 6 2 7 3 8 4 9 5 4 6 3 7 2 8 1 9
REMARK H PARENT
REMARK Flexibility Score: inf
ROOT
ATOM      1  C   UNL     1      27.469  40.837  45.491  1.00  0.00     0.006 C 
ENDROOT
BRANCH   1   2
ATOM      2  C   UNL     1      28.198  40.263  44.270  1.00  0.00     0.053 C 
BRANCH   2   3
ATOM      3  C   UNL     1      29.517  39.682  44.676  1.00  0.00     0.041 C 
ATOM      4  O   UNL     1      30.551  39.927  44.002  1.00  0.00    -0.550 OA
ATOM      5  O   UNL     1      29.592  38.832  45.772  1.00  0.00    -0.550 OA
ENDBRANCH   2   3
ENDBRANCH   1   2
BRANCH   1   6
ATOM      6  C   UNL     1      28.042  42.191  45.940  1.00  0.00     0.000 C 
BRANCH   6   7
ATOM      7  C   UNL     1      27.356  43.381  45.246  1.00  0.00    -0.000 C 
BRANCH   7   8
ATOM      8  C   UNL     1      25.999  43.726  45.877  1.00  0.00    -0.003 C 
ATOM      9  C   UNL     1      26.047  43.753  47.404  1.00  0.00     0.004 C 
ENDBRANCH   7   8
ENDBRANCH   6   7
ENDBRANCH   1   6
TORSDOF 5
ENDMDL
MODEL 3
REMARK VINA RESULT:    -3.643      1.150      1.577
REMARK INTER + INTRA:          -4.952
REMARK INTER:                  -4.798
REMARK INTRA:                  -0.154
REMARK UNBOUND:                -0.244
REMARK SMILES CCCCCCC(=O)[O-]
REMARK SMILES IDX 5 1 6 2 7 3 8 4 9 5 4 6 3 7 2 8 1 9
REMARK H PARENT
REMARK Flexibility Score: inf
ROOT
ATOM      1  C   UNL     1      27.946  41.223  45.078  1.00  0.00     0.006 C 
ENDROOT
BRANCH   1   2
ATOM      2  C   UNL     1      27.635  42.721  44.973  1.00  0.00     0.053 C 
BRANCH   2   3
ATOM      3  C   UNL     1      26.620  43.115  46.000  1.00  0.00     0.041 C 
ATOM      4  O   UNL     1      26.019  44.218  45.906  1.00  0.00    -0.550 OA
ATOM      5  O   UNL     1      26.373  42.286  47.087  1.00  0.00    -0.550 OA
ENDBRANCH   2   3
ENDBRANCH   1   2
BRANCH   1   6
ATOM      6  C   UNL     1      28.872  40.733  43.952  1.00  0.00     0.000 C 
BRANCH   6   7
ATOM      7  C   UNL     1      29.954  39.762  44.459  1.00  0.00    -0.000 C 
BRANCH   7   8
ATOM      8  C   UNL     1      29.390  38.702  45.417  1.00  0.00    -0.003 C 
ATOM      9  C   UNL     1      29.036  37.394  44.709  1.00  0.00     0.004 C 
ENDBRANCH   7   8
ENDBRANCH   6   7
ENDBRANCH   1   6
TORSDOF 5
ENDMDL
MODEL 4
REMARK VINA RESULT:    -3.594     11.443     12.516
REMARK INTER + INTRA:          -4.889
REMARK INTER:                  -4.594
REMARK INTRA:                  -0.295
REMARK UNBOUND:                -0.244
REMARK SMILES CCCCCCC(=O)[O-]
REMARK SMILES IDX 5 1 6 2 7 3 8 4 9 5 4 6 3 7 2 8 1 9
REMARK H PARENT
REMARK Flexibility Score: inf
ROOT
ATOM      1  C   UNL     1      20.932  32.153  44.372  1.00  0.00     0.006 C 
ENDROOT
BRANCH   1   2
ATOM      2  C   UNL     1      19.512  31.847  43.880  1.00  0.00     0.053 C 
BRANCH   2   3
ATOM      3  C   UNL     1      18.784  31.004  44.880  1.00  0.00     0.041 C 
ATOM      4  O   UNL     1      18.408  31.501  45.973  1.00  0.00    -0.550 OA
ATOM      5  O   UNL     1      18.565  29.656  44.622  1.00  0.00    -0.550 OA
ENDBRANCH   2   3
ENDBRANCH   1   2
BRANCH   1   6
ATOM      6  C   UNL     1      21.280  33.647  44.281  1.00  0.00     0.000 C 
BRANCH   6   7
ATOM      7  C   UNL     1      20.126  34.551  44.752  1.00  0.00    -0.000 C 
BRANCH   7   8
ATOM      8  C   UNL     1      20.058  34.669  46.282  1.00  0.00    -0.003 C 
ATOM      9  C   UNL     1      18.946  35.605  46.753  1.00  0.00     0.004 C 
ENDBRANCH   7   8
ENDBRANCH   6   7
ENDBRANCH   1   6
TORSDOF 5
ENDMDL
MODEL 5
REMARK VINA RESULT:    -3.559      1.586      2.322
REMARK INTER + INTRA:          -4.844
REMARK INTER:                  -4.506
REMARK INTRA:                  -0.338
REMARK UNBOUND:                -0.244
REMARK SMILES CCCCCCC(=O)[O-]
REMARK SMILES IDX 5 1 6 2 7 3 8 4 9 5 4 6 3 7 2 8 1 9
REMARK H PARENT
REMARK Flexibility Score: inf
ROOT
ATOM      1  C   UNL     1      26.887  40.426  45.911  1.00  0.00     0.006 C 
ENDROOT
BRANCH   1   2
ATOM      2  C   UNL     1      27.191  41.782  46.558  1.00  0.00     0.053 C 
BRANCH   2   3
ATOM      3  C   UNL     1      27.027  42.885  45.560  1.00  0.00     0.041 C 
ATOM      4  O   UNL     1      27.730  42.903  44.516  1.00  0.00    -0.550 OA
ATOM      5  O   UNL     1      26.131  43.917  45.807  1.00  0.00    -0.550 OA
ENDBRANCH   2   3
ENDBRANCH   1   2
BRANCH   1   6
ATOM      6  C   UNL     1      28.071  39.448  46.005  1.00  0.00     0.000 C 
BRANCH   6   7
ATOM      7  C   UNL     1      28.728  39.184  44.638  1.00  0.00    -0.000 C 
BRANCH   7   8
ATOM      8  C   UNL     1      30.130  39.801  44.532  1.00  0.00    -0.003 C 
ATOM      9  C   UNL     1      30.739  40.124  45.896  1.00  0.00     0.004 C 
ENDBRANCH   7   8
ENDBRANCH   6   7
ENDBRANCH   1   6
TORSDOF 5
ENDMDL
MODEL 6
REMARK VINA RESULT:    -3.549     11.654     12.652
REMARK INTER + INTRA:          -4.830
REMARK INTER:                  -4.428
REMARK INTRA:                  -0.402
REMARK UNBOUND:                -0.244
REMARK SMILES CCCCCCC(=O)[O-]
REMARK SMILES IDX 5 1 6 2 7 3 8 4 9 5 4 6 3 7 2 8 1 9
REMARK H PARENT
REMARK Flexibility Score: inf
ROOT
ATOM      1  C   UNL     1      18.302  33.254  44.937  1.00  0.00     0.006 C 
ENDROOT
BRANCH   1   2
ATOM      2  C   UNL     1      18.124  32.054  45.876  1.00  0.00     0.053 C 
BRANCH   2   3
ATOM      3  C   UNL     1      18.689  30.817  45.253  1.00  0.00     0.041 C 
ATOM      4  O   UNL     1      19.054  29.853  45.976  1.00  0.00    -0.550 OA
ATOM      5  O   UNL     1      18.858  30.748  43.875  1.00  0.00    -0.550 OA
ENDBRANCH   2   3
ENDBRANCH   1   2
BRANCH   1   6
ATOM      6  C   UNL     1      19.274  34.304  45.498  1.00  0.00     0.000 C 
BRANCH   6   7
ATOM      7  C   UNL     1      20.436  34.606  44.535  1.00  0.00    -0.000 C 
BRANCH   7   8
ATOM      8  C   UNL     1      21.280  33.361  44.223  1.00  0.00    -0.003 C 
ATOM      9  C   UNL     1      21.934  32.763  45.468  1.00  0.00     0.004 C 
ENDBRANCH   7   8
ENDBRANCH   6   7
ENDBRANCH   1   6
TORSDOF 5
ENDMDL
MODEL 7
REMARK VINA RESULT:    -3.488      1.260      2.062
REMARK INTER + INTRA:          -4.752
REMARK INTER:                  -4.392
REMARK INTRA:                  -0.360
REMARK UNBOUND:                -0.244
REMARK SMILES CCCCCCC(=O)[O-]
REMARK SMILES IDX 5 1 6 2 7 3 8 4 9 5 4 6 3 7 2 8 1 9
REMARK H PARENT
REMARK Flexibility Score: inf
ROOT
ATOM      1  C   UNL     1      28.506  40.518  44.218  1.00  0.00     0.006 C 
ENDROOT
BRANCH   1   2
ATOM      2  C   UNL     1      27.588  40.964  45.362  1.00  0.00     0.053 C 
BRANCH   2   3
ATOM      3  C   UNL     1      27.832  42.403  45.696  1.00  0.00     0.041 C 
ATOM      4  O   UNL     1      28.284  42.723  46.826  1.00  0.00    -0.550 OA
ATOM      5  O   UNL     1      27.515  43.392  44.773  1.00  0.00    -0.550 OA
ENDBRANCH   2   3
ENDBRANCH   1   2
BRANCH   1   6
ATOM      6  C   UNL     1      29.543  39.474  44.665  1.00  0.00     0.000 C 
BRANCH   6   7
ATOM      7  C   UNL     1      30.778  40.114  45.324  1.00  0.00    -0.000 C 
BRANCH   7   8
ATOM      8  C   UNL     1      30.843  39.847  46.835  1.00  0.00    -0.003 C 
ATOM      9  C   UNL     1      29.939  38.694  47.271  1.00  0.00     0.004 C 
ENDBRANCH   7   8
ENDBRANCH   6   7
ENDBRANCH   1   6
TORSDOF 5
ENDMDL
MODEL 8
REMARK VINA RESULT:    -3.458     12.546     13.682
REMARK INTER + INTRA:          -4.713
REMARK INTER:                  -4.420
REMARK INTRA:                  -0.293
REMARK UNBOUND:                -0.244
REMARK SMILES CCCCCCC(=O)[O-]
REMARK SMILES IDX 5 1 6 2 7 3 8 4 9 5 4 6 3 7 2 8 1 9
REMARK H PARENT
REMARK Flexibility Score: inf
ROOT
ATOM      1  C   UNL     1      18.632  29.575  45.139  1.00  0.00     0.006 C 
ENDROOT
BRANCH   1   2
ATOM      2  C   UNL     1      18.247  30.364  46.397  1.00  0.00     0.053 C 
BRANCH   2   3
ATOM      3  C   UNL     1      19.279  30.178  47.465  1.00  0.00     0.041 C 
ATOM      4  O   UNL     1      20.411  30.717  47.353  1.00  0.00    -0.550 OA
ATOM      5  O   UNL     1      19.004  29.370  48.561  1.00  0.00    -0.550 OA
ENDBRANCH   2   3
ENDBRANCH   1   2
BRANCH   1   6
ATOM      6  C   UNL     1      18.648  30.451  43.875  1.00  0.00     0.000 C 
BRANCH   6   7
ATOM      7  C   UNL     1      19.157  31.877  44.152  1.00  0.00    -0.000 C 
BRANCH   7   8
ATOM      8  C   UNL     1      20.677  32.005  43.968  1.00  0.00    -0.003 C 
ATOM      9  C   UNL     1      21.190  33.415  44.255  1.00  0.00     0.004 C 
ENDBRANCH   7   8
ENDBRANCH   6   7
ENDBRANCH   1   6
TORSDOF 5
ENDMDL
MODEL 9
REMARK VINA RESULT:    -3.387     17.226     18.125
REMARK INTER + INTRA:          -4.621
REMARK INTER:                  -4.255
REMARK INTRA:                  -0.366
REMARK UNBOUND:                -0.244
REMARK SMILES CCCCCCC(=O)[O-]
REMARK SMILES IDX 5 1 6 2 7 3 8 4 9 5 4 6 3 7 2 8 1 9
REMARK H PARENT
REMARK Flexibility Score: inf
ROOT
ATOM      1  C   UNL     1      29.847  43.730  62.763  1.00  0.00     0.006 C 
ENDROOT
BRANCH   1   2
ATOM      2  C   UNL     1      29.543  45.229  62.662  1.00  0.00     0.053 C 
BRANCH   2   3
ATOM      3  C   UNL     1      28.070  45.471  62.763  1.00  0.00     0.041 C 
ATOM      4  O   UNL     1      27.627  46.380  63.512  1.00  0.00    -0.550 OA
ATOM      5  O   UNL     1      27.184  44.659  62.065  1.00  0.00    -0.550 OA
ENDBRANCH   2   3
ENDBRANCH   1   2
BRANCH   1   6
ATOM      6  C   UNL     1      29.449  43.137  64.125  1.00  0.00     0.000 C 
BRANCH   6   7
ATOM      7  C   UNL     1      28.743  41.776  63.992  1.00  0.00    -0.000 C 
BRANCH   7   8
ATOM      8  C   UNL     1      28.526  41.367  62.527  1.00  0.00    -0.003 C 
ATOM      9  C   UNL     1      27.056  41.110  62.198  1.00  0.00     0.004 C 
ENDBRANCH   7   8
ENDBRANCH   6   7
ENDBRANCH   1   6
TORSDOF 5
ENDMDL
