MODEL 1
REMARK VINA RESULT:    -4.457      0.000      0.000
REMARK INTER + INTRA:          -7.147
REMARK INTER:                  -6.802
REMARK INTRA:                  -0.345
REMARK UNBOUND:                -0.345
REMARK SMILES CCCCCCCCCCC(=O)[O-]
REMARK SMILES IDX 7 1 8 2 9 3 10 4 11 5 12 6 13 7 6 8 5 9 4 10 3 11 2 12 1 13
REMARK H PARENT
REMARK Flexibility Score: inf
ROOT
ATOM      1  C   UNL     1       0.173   0.579  -0.785  1.00  0.00     0.000 C 
ENDROOT
BRANCH   1   2
ATOM      2  C   UNL     1       1.529   0.531  -1.510  1.00  0.00     0.000 C 
BRANCH   2   3
ATOM      3  C   UNL     1       2.634   1.273  -0.741  1.00  0.00     0.006 C 
BRANCH   3   4
ATOM      4  C   UNL     1       2.987   2.627  -1.371  1.00  0.00     0.053 C 
BRANCH   4   5
ATOM      5  C   UNL     1       2.584   3.745  -0.463  1.00  0.00     0.041 C 
ATOM      6  O   UNL     1       1.380   3.881  -0.120  1.00  0.00    -0.550 OA
ATOM      7  O   UNL     1       3.546   4.609   0.047  1.00  0.00    -0.550 OA
ENDBRANCH   4   5
ENDBRANCH   3   4
ENDBRANCH   2   3
ENDBRANCH   1   2
BRANCH   1   8
ATOM      8  C   UNL     1      -0.565  -0.769  -0.823  1.00  0.00     0.000 C 
BRANCH   8   9
ATOM      9  C   UNL     1      -1.856  -0.716  -1.655  1.00  0.00    -0.000 C 
BRANCH   9  10
ATOM     10  C   UNL     1      -2.979  -1.511  -0.979  1.00  0.00    -0.000 C 
BRANCH  10  11
ATOM     11  C   UNL     1      -3.020  -2.957  -1.497  1.00  0.00    -0.000 C 
BRANCH  11  12
ATOM     12  C   UNL     1      -2.969  -3.992  -0.363  1.00  0.00    -0.003 C 
ATOM     13  C   UNL     1      -2.582  -5.387  -0.852  1.00  0.00     0.004 C 
ENDBRANCH  11  12
ENDBRANCH  10  11
ENDBRANCH   9  10
ENDBRANCH   8   9
ENDBRANCH   1   8
TORSDOF 9
ENDMDL
MODEL 2
REMARK VINA RESULT:    -4.415      3.838      7.622
REMARK INTER + INTRA:          -7.082
REMARK INTER:                  -6.641
REMARK INTRA:                  -0.441
REMARK UNBOUND:                -0.345
REMARK SMILES CCCCCCCCCCC(=O)[O-]
REMARK SMILES IDX 7 1 8 2 9 3 10 4 11 5 12 6 13 7 6 8 5 9 4 10 3 11 2 12 1 13
REMARK H PARENT
REMARK Flexibility Score: inf
ROOT
ATOM      1  C   UNL     1      -0.469  -1.143  -1.100  1.00  0.00     0.000 C 
ENDROOT
BRANCH   1   2
ATOM      2  C   UNL     1      -1.912  -0.767  -1.479  1.00  0.00     0.000 C 
BRANCH   2   3
ATOM      3  C   UNL     1      -2.955  -1.653  -0.777  1.00  0.00     0.006 C 
BRANCH   3   4
ATOM      4  C   UNL     1      -3.192  -2.981  -1.509  1.00  0.00     0.053 C 
BRANCH   4   5
ATOM      5  C   UNL     1      -2.846  -4.134  -0.620  1.00  0.00     0.041 C 
ATOM      6  O   UNL     1      -1.640  -4.413  -0.385  1.00  0.00    -0.550 OA
ATOM      7  O   UNL     1      -3.854  -4.870  -0.011  1.00  0.00    -0.550 OA
ENDBRANCH   4   5
ENDBRANCH   3   4
ENDBRANCH   2   3
ENDBRANCH   1   2
BRANCH   1   8
ATOM      8  C   UNL     1       0.215  -0.066  -0.242  1.00  0.00     0.000 C 
BRANCH   8   9
ATOM      9  C   UNL     1       0.610   1.178  -1.053  1.00  0.00    -0.000 C 
BRANCH   9  10
ATOM     10  C   UNL     1       2.030   1.039  -1.615  1.00  0.00    -0.000 C 
BRANCH  10  11
ATOM     11  C   UNL     1       2.937   2.169  -1.104  1.00  0.00    -0.000 C 
BRANCH  11  12
ATOM     12  C   UNL     1       2.153   3.277  -0.386  1.00  0.00    -0.003 C 
ATOM     13  C   UNL     1       2.867   4.628  -0.425  1.00  0.00     0.004 C 
ENDBRANCH  11  12
ENDBRANCH  10  11
ENDBRANCH   9  10
ENDBRANCH   8   9
ENDBRANCH   1   8
TORSDOF 9
ENDMDL
MODEL 3
REMARK VINA RESULT:    -4.335      1.238      1.995
REMARK INTER + INTRA:          -6.960
REMARK INTER:                  -6.355
REMARK INTRA:                  -0.605
REMARK UNBOUND:                -0.345
REMARK SMILES CCCCCCCCCCC(=O)[O-]
REMARK SMILES IDX 7 1 8 2 9 3 10 4 11 5 12 6 13 7 6 8 5 9 4 10 3 11 2 12 1 13
REMARK H PARENT
REMARK Flexibility Score: inf
ROOT
ATOM      1  C   UNL     1      -0.523  -1.262  -0.963  1.00  0.00     0.000 C 
ENDROOT
BRANCH   1   2
ATOM      2  C   UNL     1       0.095  -0.151  -0.097  1.00  0.00     0.000 C 
BRANCH   2   3
ATOM      3  C   UNL     1       0.427   1.112  -0.908  1.00  0.00     0.006 C 
BRANCH   3   4
ATOM      4  C   UNL     1       1.798   1.033  -1.592  1.00  0.00     0.053 C 
BRANCH   4   5
ATOM      5  C   UNL     1       2.795   1.873  -0.859  1.00  0.00     0.041 C 
ATOM      6  O   UNL     1       3.764   1.332  -0.263  1.00  0.00    -0.550 OA
ATOM      7  O   UNL     1       2.685   3.258  -0.875  1.00  0.00    -0.550 OA
ENDBRANCH   4   5
ENDBRANCH   3   4
ENDBRANCH   2   3
ENDBRANCH   1   2
BRANCH   1   8
ATOM      8  C   UNL     1      -1.838  -0.828  -1.631  1.00  0.00     0.000 C 
BRANCH   8   9
ATOM      9  C   UNL     1      -3.072  -1.498  -1.005  1.00  0.00    -0.000 C 
BRANCH   9  10
ATOM     10  C   UNL     1      -3.246  -2.928  -1.531  1.00  0.00    -0.000 C 
BRANCH  10  11
ATOM     11  C   UNL     1      -3.175  -3.949  -0.386  1.00  0.00    -0.000 C 
BRANCH  11  12
ATOM     12  C   UNL     1      -2.261  -5.139  -0.711  1.00  0.00    -0.003 C 
ATOM     13  C   UNL     1      -0.787  -4.845  -0.437  1.00  0.00     0.004 C 
ENDBRANCH  11  12
ENDBRANCH  10  11
ENDBRANCH   9  10
ENDBRANCH   8   9
ENDBRANCH   1   8
TORSDOF 9
ENDMDL
MODEL 4
REMARK VINA RESULT:    -4.012      3.650      7.123
REMARK INTER + INTRA:          -6.467
REMARK INTER:                  -5.727
REMARK INTRA:                  -0.740
REMARK UNBOUND:                -0.345
REMARK SMILES CCCCCCCCCCC(=O)[O-]
REMARK SMILES IDX 7 1 8 2 9 3 10 4 11 5 12 6 13 7 6 8 5 9 4 10 3 11 2 12 1 13
REMARK H PARENT
REMARK Flexibility Score: inf
ROOT
ATOM      1  C   UNL     1       0.033   0.952  -0.820  1.00  0.00     0.000 C 
ENDROOT
BRANCH   1   2
ATOM      2  C   UNL     1      -0.119  -0.361  -0.033  1.00  0.00     0.000 C 
BRANCH   2   3
ATOM      3  C   UNL     1      -0.581  -1.529  -0.919  1.00  0.00     0.006 C 
BRANCH   3   4
ATOM      4  C   UNL     1      -1.945  -1.273  -1.572  1.00  0.00     0.053 C 
BRANCH   4   5
ATOM      5  C   UNL     1      -2.998  -2.118  -0.926  1.00  0.00     0.041 C 
ATOM      6  O   UNL     1      -4.009  -1.580  -0.402  1.00  0.00    -0.550 OA
ATOM      7  O   UNL     1      -2.889  -3.503  -0.948  1.00  0.00    -0.550 OA
ENDBRANCH   4   5
ENDBRANCH   3   4
ENDBRANCH   2   3
ENDBRANCH   1   2
BRANCH   1   8
ATOM      8  C   UNL     1       1.152   0.884  -1.872  1.00  0.00     0.000 C 
BRANCH   8   9
ATOM      9  C   UNL     1       2.529   0.591  -1.257  1.00  0.00    -0.000 C 
BRANCH   9  10
ATOM     10  C   UNL     1       2.979   1.739  -0.345  1.00  0.00    -0.000 C 
BRANCH  10  11
ATOM     11  C   UNL     1       3.027   3.067  -1.115  1.00  0.00    -0.000 C 
BRANCH  11  12
ATOM     12  C   UNL     1       2.688   4.276  -0.229  1.00  0.00    -0.003 C 
ATOM     13  C   UNL     1       1.205   4.641  -0.270  1.00  0.00     0.004 C 
ENDBRANCH  11  12
ENDBRANCH  10  11
ENDBRANCH   9  10
ENDBRANCH   8   9
ENDBRANCH   1   8
TORSDOF 9
ENDMDL
MODEL 5
REMARK VINA RESULT:    -2.711      1.126      2.137
REMARK INTER + INTRA:          -4.481
REMARK INTER:                  -4.402
REMARK INTRA:                  -0.079
REMARK UNBOUND:                -0.345
REMARK SMILES CCCCCCCCCCC(=O)[O-]
REMARK SMILES IDX 7 1 8 2 9 3 10 4 11 5 12 6 13 7 6 8 5 9 4 10 3 11 2 12 1 13
REMARK H PARENT
REMARK Flexibility Score: inf
ROOT
ATOM      1  C   UNL     1       2.355   0.767  -1.186  1.00  0.00     0.000 C 
ENDROOT
BRANCH   1   2
ATOM      2  C   UNL     1       2.528   2.292  -1.298  1.00  0.00     0.000 C 
BRANCH   2   3
ATOM      3  C   UNL     1       1.524   3.064  -0.427  1.00  0.00     0.006 C 
BRANCH   3   4
ATOM      4  C   UNL     1       1.472   4.559  -0.768  1.00  0.00     0.053 C 
BRANCH   4   5
ATOM      5  C   UNL     1       2.790   5.205  -0.483  1.00  0.00     0.041 C 
ATOM      6  O   UNL     1       3.039   6.359  -0.922  1.00  0.00    -0.550 OA
ATOM      7  O   UNL     1       3.727   4.554   0.311  1.00  0.00    -0.550 OA
ENDBRANCH   4   5
ENDBRANCH   3   4
ENDBRANCH   2   3
ENDBRANCH   1   2
BRANCH   1   8
ATOM      8  C   UNL     1       0.958   0.298  -1.623  1.00  0.00     0.000 C 
BRANCH   8   9
ATOM      9  C   UNL     1       0.173  -0.373  -0.485  1.00  0.00    -0.000 C 
BRANCH   9  10
ATOM     10  C   UNL     1      -0.675  -1.536  -1.013  1.00  0.00    -0.000 C 
BRANCH  10  11
ATOM     11  C   UNL     1      -2.087  -1.062  -1.388  1.00  0.00    -0.000 C 
BRANCH  11  12
ATOM     12  C   UNL     1      -3.109  -2.209  -1.410  1.00  0.00    -0.003 C 
ATOM     13  C   UNL     1      -2.605  -3.464  -0.697  1.00  0.00     0.004 C 
ENDBRANCH  11  12
ENDBRANCH  10  11
ENDBRANCH   9  10
ENDBRANCH   8   9
ENDBRANCH   1   8
TORSDOF 9
ENDMDL
MODEL 6
REMARK VINA RESULT:    -2.685     13.287     14.779
REMARK INTER + INTRA:          -4.442
REMARK INTER:                  -4.236
REMARK INTRA:                  -0.207
REMARK UNBOUND:                -0.345
REMARK SMILES CCCCCCCCCCC(=O)[O-]
REMARK SMILES IDX 7 1 8 2 9 3 10 4 11 5 12 6 13 7 6 8 5 9 4 10 3 11 2 12 1 13
REMARK H PARENT
REMARK Flexibility Score: inf
ROOT
ATOM      1  C   UNL     1      -8.575  -4.324   7.835  1.00  0.00     0.000 C 
ENDROOT
BRANCH   1   2
ATOM      2  C   UNL     1      -9.005  -2.849   7.761  1.00  0.00     0.000 C 
BRANCH   2   3
ATOM      3  C   UNL     1     -10.066  -2.491   8.814  1.00  0.00     0.006 C 
BRANCH   3   4
ATOM      4  C   UNL     1      -9.456  -1.904  10.094  1.00  0.00     0.053 C 
BRANCH   4   5
ATOM      5  C   UNL     1      -9.110  -0.463   9.893  1.00  0.00     0.041 C 
ATOM      6  O   UNL     1      -7.905  -0.098   9.863  1.00  0.00    -0.550 OA
ATOM      7  O   UNL     1     -10.118   0.472   9.688  1.00  0.00    -0.550 OA
ENDBRANCH   4   5
ENDBRANCH   3   4
ENDBRANCH   2   3
ENDBRANCH   1   2
BRANCH   1   8
ATOM      8  C   UNL     1      -9.739  -5.261   8.195  1.00  0.00     0.000 C 
BRANCH   8   9
ATOM      9  C   UNL     1      -9.846  -5.521   9.706  1.00  0.00    -0.000 C 
BRANCH   9  10
ATOM     10  C   UNL     1     -10.123  -7.003   9.991  1.00  0.00    -0.000 C 
BRANCH  10  11
ATOM     11  C   UNL     1      -9.839  -7.863   8.751  1.00  0.00    -0.000 C 
BRANCH  11  12
ATOM     12  C   UNL     1     -10.017  -9.365   9.021  1.00  0.00    -0.003 C 
ATOM     13  C   UNL     1      -8.929  -9.936   9.931  1.00  0.00     0.004 C 
ENDBRANCH  11  12
ENDBRANCH  10  11
ENDBRANCH   9  10
ENDBRANCH   8   9
ENDBRANCH   1   8
TORSDOF 9
ENDMDL
MODEL 7
REMARK VINA RESULT:    -2.138     12.832     14.429
REMARK INTER + INTRA:          -3.607
REMARK INTER:                  -4.161
REMARK INTRA:                   0.553
REMARK UNBOUND:                -0.345
REMARK SMILES CCCCCCCCCCC(=O)[O-]
REMARK SMILES IDX 7 1 8 2 9 3 10 4 11 5 12 6 13 7 6 8 5 9 4 10 3 11 2 12 1 13
REMARK H PARENT
REMARK Flexibility Score: inf
ROOT
ATOM      1  C   UNL     1       7.828   4.847   8.198  1.00  0.00     0.000 C 
ENDROOT
BRANCH   1   2
ATOM      2  C   UNL     1       9.179   5.482   8.570  1.00  0.00     0.000 C 
BRANCH   2   3
ATOM      3  C   UNL     1       9.183   6.067   9.992  1.00  0.00     0.006 C 
BRANCH   3   4
ATOM      4  C   UNL     1      10.096   7.292  10.125  1.00  0.00     0.053 C 
BRANCH   4   5
ATOM      5  C   UNL     1       9.451   8.493   9.508  1.00  0.00     0.041 C 
ATOM      6  O   UNL     1       9.936   9.008   8.466  1.00  0.00    -0.550 OA
ATOM      7  O   UNL     1       8.284   9.013  10.054  1.00  0.00    -0.550 OA
ENDBRANCH   4   5
ENDBRANCH   3   4
ENDBRANCH   2   3
ENDBRANCH   1   2
BRANCH   1   8
ATOM      8  C   UNL     1       7.963   3.767   7.111  1.00  0.00     0.000 C 
BRANCH   8   9
ATOM      9  C   UNL     1       8.867   2.601   7.540  1.00  0.00    -0.000 C 
BRANCH   9  10
ATOM     10  C   UNL     1       9.430   2.832   8.948  1.00  0.00    -0.000 C 
BRANCH  10  11
ATOM     11  C   UNL     1      10.027   1.538   9.521  1.00  0.00    -0.000 C 
BRANCH  11  12
ATOM     12  C   UNL     1       9.145   0.310   9.248  1.00  0.00    -0.003 C 
ATOM     13  C   UNL     1       9.524  -0.893  10.111  1.00  0.00     0.004 C 
ENDBRANCH  11  12
ENDBRANCH  10  11
ENDBRANCH   9  10
ENDBRANCH   8   9
ENDBRANCH   1   8
TORSDOF 9
ENDMDL
