MODEL 1
REMARK VINA RESULT:    -3.724      0.000      0.000
REMARK INTER + INTRA:          -4.398
REMARK INTER:                  -4.377
REMARK INTRA:                  -0.021
REMARK UNBOUND:                -0.021
REMARK SMILES CCCCC(=O)[O-]
REMARK SMILES IDX 4 1 5 2 6 3 7 4 3 5 2 6 1 7
REMARK H PARENT
REMARK Flexibility Score: inf
ROOT
ATOM      1  C   UNL     1      52.684 -41.666  -1.891  1.00  0.00     0.053 C 
ENDROOT
BRANCH   1   2
ATOM      2  C   UNL     1      54.033 -41.020  -1.871  1.00  0.00     0.041 C 
ATOM      3  O   UNL     1      54.138 -39.770  -1.981  1.00  0.00    -0.550 OA
ATOM      4  O   UNL     1      55.178 -41.801  -1.780  1.00  0.00    -0.550 OA
ENDBRANCH   1   2
BRANCH   1   5
ATOM      5  C   UNL     1      51.716 -40.857  -2.760  1.00  0.00     0.006 C 
BRANCH   5   6
ATOM      6  C   UNL     1      50.703 -41.776  -3.455  1.00  0.00    -0.003 C 
ATOM      7  C   UNL     1      49.271 -41.363  -3.130  1.00  0.00     0.004 C 
ENDBRANCH   5   6
ENDBRANCH   1   5
TORSDOF 3
ENDMDL
MODEL 2
REMARK VINA RESULT:    -3.520      2.777      4.160
REMARK INTER + INTRA:          -4.158
REMARK INTER:                  -4.118
REMARK INTRA:                  -0.039
REMARK UNBOUND:                -0.021
REMARK SMILES CCCCC(=O)[O-]
REMARK SMILES IDX 4 1 5 2 6 3 7 4 3 5 2 6 1 7
REMARK H PARENT
REMARK Flexibility Score: inf
ROOT
ATOM      1  C   UNL     1      51.753 -40.479  -2.964  1.00  0.00     0.053 C 
ENDROOT
BRANCH   1   2
ATOM      2  C   UNL     1      50.641 -41.152  -3.703  1.00  0.00     0.041 C 
ATOM      3  O   UNL     1      50.183 -42.252  -3.294  1.00  0.00    -0.550 OA
ATOM      4  O   UNL     1      50.142 -40.592  -4.872  1.00  0.00    -0.550 OA
ENDBRANCH   1   2
BRANCH   1   5
ATOM      5  C   UNL     1      52.536 -41.497  -2.131  1.00  0.00     0.006 C 
BRANCH   5   6
ATOM      6  C   UNL     1      53.966 -41.007  -1.866  1.00  0.00    -0.003 C 
ATOM      7  C   UNL     1      54.083 -39.503  -2.093  1.00  0.00     0.004 C 
ENDBRANCH   5   6
ENDBRANCH   1   5
TORSDOF 3
ENDMDL
MODEL 3
REMARK VINA RESULT:    -3.385      1.677      2.304
REMARK INTER + INTRA:          -4.000
REMARK INTER:                  -3.951
REMARK INTRA:                  -0.048
REMARK UNBOUND:                -0.021
REMARK SMILES CCCCC(=O)[O-]
REMARK SMILES IDX 4 1 5 2 6 3 7 4 3 5 2 6 1 7
REMARK H PARENT
REMARK Flexibility Score: inf
ROOT
ATOM      1  C   UNL     1      50.947 -42.084  -3.333  1.00  0.00     0.053 C 
ENDROOT
BRANCH   1   2
ATOM      2  C   UNL     1      51.930 -41.195  -2.641  1.00  0.00     0.041 C 
ATOM      3  O   UNL     1      52.020 -39.980  -2.961  1.00  0.00    -0.550 OA
ATOM      4  O   UNL     1      52.783 -41.716  -1.677  1.00  0.00    -0.550 OA
ENDBRANCH   1   2
BRANCH   1   5
ATOM      5  C   UNL     1      49.540 -41.483  -3.264  1.00  0.00     0.006 C 
BRANCH   5   6
ATOM      6  C   UNL     1      49.055 -41.059  -4.656  1.00  0.00    -0.003 C 
ATOM      7  C   UNL     1      47.722 -40.322  -4.574  1.00  0.00     0.004 C 
ENDBRANCH   5   6
ENDBRANCH   1   5
TORSDOF 3
ENDMDL
MODEL 4
REMARK VINA RESULT:    -3.384      1.060      1.446
REMARK INTER + INTRA:          -3.999
REMARK INTER:                  -3.974
REMARK INTRA:                  -0.025
REMARK UNBOUND:                -0.021
REMARK SMILES CCCCC(=O)[O-]
REMARK SMILES IDX 4 1 5 2 6 3 7 4 3 5 2 6 1 7
REMARK H PARENT
REMARK Flexibility Score: inf
ROOT
ATOM      1  C   UNL     1      51.681 -40.531  -2.963  1.00  0.00     0.053 C 
ENDROOT
BRANCH   1   2
ATOM      2  C   UNL     1      52.969 -40.784  -2.246  1.00  0.00     0.041 C 
ATOM      3  O   UNL     1      53.792 -39.847  -2.073  1.00  0.00    -0.550 OA
ATOM      4  O   UNL     1      53.284 -42.065  -1.811  1.00  0.00    -0.550 OA
ENDBRANCH   1   2
BRANCH   1   5
ATOM      5  C   UNL     1      50.961 -41.852  -3.252  1.00  0.00     0.006 C 
BRANCH   5   6
ATOM      6  C   UNL     1      49.445 -41.639  -3.358  1.00  0.00    -0.003 C 
ATOM      7  C   UNL     1      49.061 -41.084  -4.726  1.00  0.00     0.004 C 
ENDBRANCH   5   6
ENDBRANCH   1   5
TORSDOF 3
ENDMDL
MODEL 5
REMARK VINA RESULT:    -3.341      2.485      3.401
REMARK INTER + INTRA:          -3.948
REMARK INTER:                  -3.886
REMARK INTRA:                  -0.062
REMARK UNBOUND:                -0.021
REMARK SMILES CCCCC(=O)[O-]
REMARK SMILES IDX 4 1 5 2 6 3 7 4 3 5 2 6 1 7
REMARK H PARENT
REMARK Flexibility Score: inf
ROOT
ATOM      1  C   UNL     1      49.394 -41.693  -3.505  1.00  0.00     0.053 C 
ENDROOT
BRANCH   1   2
ATOM      2  C   UNL     1      50.849 -41.492  -3.223  1.00  0.00     0.041 C 
ATOM      3  O   UNL     1      51.331 -40.329  -3.181  1.00  0.00    -0.550 OA
ATOM      4  O   UNL     1      51.684 -42.588  -3.056  1.00  0.00    -0.550 OA
ENDBRANCH   1   2
BRANCH   1   5
ATOM      5  C   UNL     1      49.011 -41.044  -4.839  1.00  0.00     0.006 C 
BRANCH   5   6
ATOM      6  C   UNL     1      47.902 -40.003  -4.645  1.00  0.00    -0.003 C 
ATOM      7  C   UNL     1      46.796 -40.538  -3.740  1.00  0.00     0.004 C 
ENDBRANCH   5   6
ENDBRANCH   1   5
TORSDOF 3
ENDMDL
MODEL 6
REMARK VINA RESULT:    -3.186      3.250      4.150
REMARK INTER + INTRA:          -3.765
REMARK INTER:                  -3.729
REMARK INTRA:                  -0.036
REMARK UNBOUND:                -0.021
REMARK SMILES CCCCC(=O)[O-]
REMARK SMILES IDX 4 1 5 2 6 3 7 4 3 5 2 6 1 7
REMARK H PARENT
REMARK Flexibility Score: inf
ROOT
ATOM      1  C   UNL     1      52.037 -39.682  -3.201  1.00  0.00     0.053 C 
ENDROOT
BRANCH   1   2
ATOM      2  C   UNL     1      51.256 -38.589  -3.856  1.00  0.00     0.041 C 
ATOM      3  O   UNL     1      50.962 -37.547  -3.213  1.00  0.00    -0.550 OA
ATOM      4  O   UNL     1      50.808 -38.739  -5.162  1.00  0.00    -0.550 OA
ENDBRANCH   1   2
BRANCH   1   5
ATOM      5  C   UNL     1      53.358 -39.139  -2.647  1.00  0.00     0.006 C 
BRANCH   5   6
ATOM      6  C   UNL     1      54.167 -40.251  -1.967  1.00  0.00    -0.003 C 
ATOM      7  C   UNL     1      53.335 -41.520  -1.809  1.00  0.00     0.004 C 
ENDBRANCH   5   6
ENDBRANCH   1   5
TORSDOF 3
ENDMDL
MODEL 7
REMARK VINA RESULT:    -3.165     11.637     12.137
REMARK INTER + INTRA:          -3.741
REMARK INTER:                  -3.681
REMARK INTRA:                  -0.060
REMARK UNBOUND:                -0.021
REMARK SMILES CCCCC(=O)[O-]
REMARK SMILES IDX 4 1 5 2 6 3 7 4 3 5 2 6 1 7
REMARK H PARENT
REMARK Flexibility Score: inf
ROOT
ATOM      1  C   UNL     1      51.765 -37.645   8.971  1.00  0.00     0.053 C 
ENDROOT
BRANCH   1   2
ATOM      2  C   UNL     1      51.145 -36.320   9.282  1.00  0.00     0.041 C 
ATOM      3  O   UNL     1      51.025 -35.942  10.477  1.00  0.00    -0.550 OA
ATOM      4  O   UNL     1      50.654 -35.523   8.256  1.00  0.00    -0.550 OA
ENDBRANCH   1   2
BRANCH   1   5
ATOM      5  C   UNL     1      50.909 -38.414   7.961  1.00  0.00     0.006 C 
BRANCH   5   6
ATOM      6  C   UNL     1      49.849 -39.263   8.673  1.00  0.00    -0.003 C 
ATOM      7  C   UNL     1      49.733 -40.645   8.038  1.00  0.00     0.004 C 
ENDBRANCH   5   6
ENDBRANCH   1   5
TORSDOF 3
ENDMDL
MODEL 8
REMARK VINA RESULT:    -3.118     13.270     13.858
REMARK INTER + INTRA:          -3.686
REMARK INTER:                  -3.646
REMARK INTRA:                  -0.039
REMARK UNBOUND:                -0.021
REMARK SMILES CCCCC(=O)[O-]
REMARK SMILES IDX 4 1 5 2 6 3 7 4 3 5 2 6 1 7
REMARK H PARENT
REMARK Flexibility Score: inf
ROOT
ATOM      1  C   UNL     1      50.568 -35.237   9.366  1.00  0.00     0.053 C 
ENDROOT
BRANCH   1   2
ATOM      2  C   UNL     1      50.747 -34.164  10.392  1.00  0.00     0.041 C 
ATOM      3  O   UNL     1      51.874 -33.975  10.921  1.00  0.00    -0.550 OA
ATOM      4  O   UNL     1      49.660 -33.403  10.801  1.00  0.00    -0.550 OA
ENDBRANCH   1   2
BRANCH   1   5
ATOM      5  C   UNL     1      50.802 -36.617   9.987  1.00  0.00     0.006 C 
BRANCH   5   6
ATOM      6  C   UNL     1      51.787 -37.438   9.146  1.00  0.00    -0.003 C 
ATOM      7  C   UNL     1      51.054 -38.288   8.113  1.00  0.00     0.004 C 
ENDBRANCH   5   6
ENDBRANCH   1   5
TORSDOF 3
ENDMDL
MODEL 9
REMARK VINA RESULT:    -3.100     11.076     11.476
REMARK INTER + INTRA:          -3.664
REMARK INTER:                  -3.624
REMARK INTRA:                  -0.041
REMARK UNBOUND:                -0.021
REMARK SMILES CCCCC(=O)[O-]
REMARK SMILES IDX 4 1 5 2 6 3 7 4 3 5 2 6 1 7
REMARK H PARENT
REMARK Flexibility Score: inf
ROOT
ATOM      1  C   UNL     1      50.937 -38.719   7.748  1.00  0.00     0.053 C 
ENDROOT
BRANCH   1   2
ATOM      2  C   UNL     1      51.129 -37.525   8.629  1.00  0.00     0.041 C 
ATOM      3  O   UNL     1      50.585 -36.428   8.335  1.00  0.00    -0.550 OA
ATOM      4  O   UNL     1      51.947 -37.609   9.747  1.00  0.00    -0.550 OA
ENDBRANCH   1   2
BRANCH   1   5
ATOM      5  C   UNL     1      49.563 -39.350   7.994  1.00  0.00     0.006 C 
BRANCH   5   6
ATOM      6  C   UNL     1      49.694 -40.662   8.778  1.00  0.00    -0.003 C 
ATOM      7  C   UNL     1      49.690 -41.866   7.841  1.00  0.00     0.004 C 
ENDBRANCH   5   6
ENDBRANCH   1   5
TORSDOF 3
ENDMDL
