MODEL 1
REMARK VINA RESULT:    -7.315      0.000      0.000
REMARK INTER + INTRA:         -10.835
REMARK INTER:                  -9.666
REMARK INTRA:                  -1.168
REMARK UNBOUND:                -1.168
REMARK SMILES CC[C@@H](C=C[C@H](C)[C@@H]1CC[C@H]2C3=CC[C@H]4C[C@@H](O)CC[C@@]4(C)[C@@H]3CC[C@]21C)C(C)C
REMARK SMILES IDX 6 1 7 2 5 3 4 4 3 5 2 6 1 7 28 8 29 9 30 10 8 11 9 12 26 13
REMARK SMILES IDX 10 14 11 15 25 16 27 17 12 18 24 19 23 20 13 21 21 22 14 23
REMARK SMILES IDX 15 24 20 25 22 26 16 27 19 28 17 29 18 30
REMARK H PARENT 18 31
REMARK Flexibility Score: inf
ROOT
ATOM      1  C   UNL     1     182.042 182.042 184.805  1.00  0.00     0.012 C 
ATOM      2  C   UNL     1     183.532 182.286 184.478  1.00  0.00     0.012 C 
ENDROOT
BRANCH   1   3
ATOM      3  C   UNL     1     181.180 183.228 184.368  1.00  0.00    -0.028 C 
ATOM      4  C   UNL     1     181.301 183.849 183.172  1.00  0.00    -0.027 C 
BRANCH   4   5
ATOM      5  C   UNL     1     180.390 184.997 182.783  1.00  0.00     0.014 C 
BRANCH   5   6
ATOM      6  C   UNL     1     178.981 184.729 183.363  1.00  0.00     0.004 C 
ATOM      7  C   UNL     1     178.180 183.720 182.538  1.00  0.00     0.004 C 
ENDBRANCH   5   6
BRANCH   5   8
ATOM      8  C   UNL     1     180.418 185.260 181.247  1.00  0.00    -0.011 C 
ATOM      9  C   UNL     1     180.877 186.692 180.928  1.00  0.00     0.008 C 
ATOM     10  C   UNL     1     181.256 184.246 180.456  1.00  0.00     0.008 C 
ENDBRANCH   5   8
ENDBRANCH   4   5
ENDBRANCH   1   3
BRANCH   1  11
ATOM     11  C   UNL     1     181.586 180.664 184.199  1.00  0.00     0.002 C 
ATOM     12  C   UNL     1     180.096 180.564 183.850  1.00  0.00     0.005 C 
ATOM     13  C   UNL     1     181.930 179.354 184.974  1.00  0.00    -0.023 C 
ATOM     14  C   UNL     1     179.801 179.080 183.681  1.00  0.00     0.009 C 
ATOM     15  C   UNL     1     180.900 178.305 184.440  1.00  0.00     0.021 C 
ATOM     16  C   UNL     1     183.411 178.904 184.731  1.00  0.00     0.008 C 
ATOM     17  C   UNL     1     181.729 179.508 186.505  1.00  0.00     0.012 C 
ATOM     18  C   UNL     1     181.550 177.281 183.525  1.00  0.00    -0.067 C 
ATOM     19  C   UNL     1     183.748 178.407 183.296  1.00  0.00     0.009 C 
ATOM     20  C   UNL     1     182.547 177.811 182.523  1.00  0.00     0.021 C 
ATOM     21  C   UNL     1     181.384 175.963 183.758  1.00  0.00    -0.027 C 
ATOM     22  C   UNL     1     182.881 176.773 181.387  1.00  0.00    -0.023 C 
ATOM     23  C   UNL     1     182.096 174.883 182.993  1.00  0.00     0.031 C 
ATOM     24  C   UNL     1     183.194 175.378 182.015  1.00  0.00     0.002 C 
ATOM     25  C   UNL     1     181.655 176.672 180.405  1.00  0.00     0.010 C 
ATOM     26  C   UNL     1     184.105 177.280 180.576  1.00  0.00     0.012 C 
ATOM     27  C   UNL     1     183.488 174.295 180.946  1.00  0.00     0.036 C 
ATOM     28  C   UNL     1     181.362 175.276 179.820  1.00  0.00     0.032 C 
ATOM     29  C   UNL     1     182.609 174.386 179.669  1.00  0.00     0.114 C 
BRANCH  29  30
ATOM     30  O   UNL     1     182.239 173.103 179.243  1.00  0.00    -0.393 OA
ATOM     31  H   UNL     1     183.071 172.583 179.089  1.00  0.00     0.210 HD
ENDBRANCH  29  30
ENDBRANCH   1  11
TORSDOF 6
ENDMDL
MODEL 2
REMARK VINA RESULT:    -7.216      1.715      3.481
REMARK INTER + INTRA:         -10.704
REMARK INTER:                  -9.519
REMARK INTRA:                  -1.185
REMARK UNBOUND:                -1.168
REMARK SMILES CC[C@@H](C=C[C@H](C)[C@@H]1CC[C@H]2C3=CC[C@H]4C[C@@H](O)CC[C@@]4(C)[C@@H]3CC[C@]21C)C(C)C
REMARK SMILES IDX 6 1 7 2 5 3 4 4 3 5 2 6 1 7 28 8 29 9 30 10 8 11 9 12 26 13
REMARK SMILES IDX 10 14 11 15 25 16 27 17 12 18 24 19 23 20 13 21 21 22 14 23
REMARK SMILES IDX 15 24 20 25 22 26 16 27 19 28 17 29 18 30
REMARK H PARENT 18 31
REMARK Flexibility Score: inf
ROOT
ATOM      1  C   UNL     1     181.470 184.714 183.240  1.00  0.00     0.012 C 
ATOM      2  C   UNL     1     183.008 184.820 183.337  1.00  0.00     0.012 C 
ENDROOT
BRANCH   1   3
ATOM      3  C   UNL     1     180.902 185.782 182.304  1.00  0.00    -0.028 C 
ATOM      4  C   UNL     1     181.569 186.902 181.942  1.00  0.00    -0.027 C 
BRANCH   4   5
ATOM      5  C   UNL     1     180.963 187.906 180.980  1.00  0.00     0.014 C 
BRANCH   5   6
ATOM      6  C   UNL     1     181.728 187.827 179.637  1.00  0.00     0.004 C 
ATOM      7  C   UNL     1     183.149 187.285 179.792  1.00  0.00     0.004 C 
ENDBRANCH   5   6
BRANCH   5   8
ATOM      8  C   UNL     1     180.896 189.333 181.603  1.00  0.00    -0.011 C 
ATOM      9  C   UNL     1     181.973 189.529 182.683  1.00  0.00     0.008 C 
ATOM     10  C   UNL     1     180.967 190.468 180.571  1.00  0.00     0.008 C 
ENDBRANCH   5   8
ENDBRANCH   4   5
ENDBRANCH   1   3
BRANCH   1  11
ATOM     11  C   UNL     1     181.065 183.245 182.851  1.00  0.00     0.002 C 
ATOM     12  C   UNL     1     180.065 183.126 181.694  1.00  0.00     0.005 C 
ATOM     13  C   UNL     1     180.537 182.293 183.970  1.00  0.00    -0.023 C 
ATOM     14  C   UNL     1     179.512 181.708 181.759  1.00  0.00     0.009 C 
ATOM     15  C   UNL     1     179.734 181.195 183.197  1.00  0.00     0.021 C 
ATOM     16  C   UNL     1     181.706 181.683 184.817  1.00  0.00     0.008 C 
ATOM     17  C   UNL     1     179.572 183.014 184.947  1.00  0.00     0.012 C 
ATOM     18  C   UNL     1     180.465 179.863 183.174  1.00  0.00    -0.067 C 
ATOM     19  C   UNL     1     182.628 180.671 184.081  1.00  0.00     0.009 C 
ATOM     20  C   UNL     1     181.951 179.915 182.912  1.00  0.00     0.021 C 
ATOM     21  C   UNL     1     179.838 178.739 183.575  1.00  0.00    -0.027 C 
ATOM     22  C   UNL     1     182.553 178.511 182.532  1.00  0.00    -0.023 C 
ATOM     23  C   UNL     1     180.518 177.406 183.715  1.00  0.00     0.031 C 
ATOM     24  C   UNL     1     182.060 177.429 183.543  1.00  0.00     0.002 C 
ATOM     25  C   UNL     1     182.112 178.140 181.067  1.00  0.00     0.010 C 
ATOM     26  C   UNL     1     184.105 178.597 182.558  1.00  0.00     0.012 C 
ATOM     27  C   UNL     1     182.581 176.010 183.199  1.00  0.00     0.036 C 
ATOM     28  C   UNL     1     181.817 176.650 180.800  1.00  0.00     0.032 C 
ATOM     29  C   UNL     1     182.629 175.684 181.682  1.00  0.00     0.114 C 
BRANCH  29  30
ATOM     30  O   UNL     1     182.217 174.363 181.457  1.00  0.00    -0.393 OA
ATOM     31  H   UNL     1     181.567 174.372 180.706  1.00  0.00     0.210 HD
ENDBRANCH  29  30
ENDBRANCH   1  11
TORSDOF 6
ENDMDL
MODEL 3
REMARK VINA RESULT:    -7.211      3.269      9.036
REMARK INTER + INTRA:         -10.698
REMARK INTER:                  -9.456
REMARK INTRA:                  -1.242
REMARK UNBOUND:                -1.168
REMARK SMILES CC[C@@H](C=C[C@H](C)[C@@H]1CC[C@H]2C3=CC[C@H]4C[C@@H](O)CC[C@@]4(C)[C@@H]3CC[C@]21C)C(C)C
REMARK SMILES IDX 6 1 7 2 5 3 4 4 3 5 2 6 1 7 28 8 29 9 30 10 8 11 9 12 26 13
REMARK SMILES IDX 10 14 11 15 25 16 27 17 12 18 24 19 23 20 13 21 21 22 14 23
REMARK SMILES IDX 15 24 20 25 22 26 16 27 19 28 17 29 18 30
REMARK H PARENT 18 31
REMARK Flexibility Score: inf
ROOT
ATOM      1  C   UNL     1     184.462 173.956 182.030  1.00  0.00     0.012 C 
ATOM      2  C   UNL     1     185.042 173.508 183.389  1.00  0.00     0.012 C 
ENDROOT
BRANCH   1   3
ATOM      3  C   UNL     1     184.071 172.752 181.172  1.00  0.00    -0.028 C 
ATOM      4  C   UNL     1     184.477 172.571 179.895  1.00  0.00    -0.027 C 
BRANCH   4   5
ATOM      5  C   UNL     1     184.083 171.334 179.109  1.00  0.00     0.014 C 
BRANCH   5   6
ATOM      6  C   UNL     1     185.281 170.907 178.227  1.00  0.00     0.004 C 
ATOM      7  C   UNL     1     186.621 171.426 178.749  1.00  0.00     0.004 C 
ENDBRANCH   5   6
BRANCH   5   8
ATOM      8  C   UNL     1     182.750 171.545 178.331  1.00  0.00    -0.011 C 
ATOM      9  C   UNL     1     181.548 170.984 179.109  1.00  0.00     0.008 C 
ATOM     10  C   UNL     1     182.487 173.004 177.929  1.00  0.00     0.008 C 
ENDBRANCH   5   8
ENDBRANCH   4   5
ENDBRANCH   1   3
BRANCH   1  11
ATOM     11  C   UNL     1     183.289 174.978 182.267  1.00  0.00     0.002 C 
ATOM     12  C   UNL     1     181.879 174.375 182.229  1.00  0.00     0.005 C 
ATOM     13  C   UNL     1     183.227 176.264 181.386  1.00  0.00    -0.023 C 
ATOM     14  C   UNL     1     180.923 175.550 182.068  1.00  0.00     0.009 C 
ATOM     15  C   UNL     1     181.733 176.722 181.473  1.00  0.00     0.021 C 
ATOM     16  C   UNL     1     184.213 177.370 181.895  1.00  0.00     0.008 C 
ATOM     17  C   UNL     1     183.568 175.975 179.900  1.00  0.00     0.012 C 
ATOM     18  C   UNL     1     181.566 177.966 182.329  1.00  0.00    -0.067 C 
ATOM     19  C   UNL     1     183.863 178.021 183.263  1.00  0.00     0.009 C 
ATOM     20  C   UNL     1     182.356 178.009 183.615  1.00  0.00     0.021 C 
ATOM     21  C   UNL     1     180.910 179.039 181.845  1.00  0.00    -0.027 C 
ATOM     22  C   UNL     1     181.850 179.124 184.605  1.00  0.00    -0.023 C 
ATOM     23  C   UNL     1     180.814 180.355 182.563  1.00  0.00     0.031 C 
ATOM     24  C   UNL     1     181.682 180.476 183.843  1.00  0.00     0.002 C 
ATOM     25  C   UNL     1     180.481 178.671 185.236  1.00  0.00     0.010 C 
ATOM     26  C   UNL     1     182.879 179.287 185.759  1.00  0.00     0.012 C 
ATOM     27  C   UNL     1     181.141 181.609 184.752  1.00  0.00     0.036 C 
ATOM     28  C   UNL     1     179.445 179.785 185.488  1.00  0.00     0.032 C 
ATOM     29  C   UNL     1     180.065 181.163 185.779  1.00  0.00     0.114 C 
BRANCH  29  30
ATOM     30  O   UNL     1     179.060 182.135 185.881  1.00  0.00    -0.393 OA
ATOM     31  H   UNL     1     179.167 182.762 185.118  1.00  0.00     0.210 HD
ENDBRANCH  29  30
ENDBRANCH   1  11
TORSDOF 6
ENDMDL
MODEL 4
REMARK VINA RESULT:    -7.142      3.100      6.319
REMARK INTER + INTRA:         -10.606
REMARK INTER:                  -9.601
REMARK INTRA:                  -1.004
REMARK UNBOUND:                -1.168
REMARK SMILES CC[C@@H](C=C[C@H](C)[C@@H]1CC[C@H]2C3=CC[C@H]4C[C@@H](O)CC[C@@]4(C)[C@@H]3CC[C@]21C)C(C)C
REMARK SMILES IDX 6 1 7 2 5 3 4 4 3 5 2 6 1 7 28 8 29 9 30 10 8 11 9 12 26 13
REMARK SMILES IDX 10 14 11 15 25 16 27 17 12 18 24 19 23 20 13 21 21 22 14 23
REMARK SMILES IDX 15 24 20 25 22 26 16 27 19 28 17 29 18 30
REMARK H PARENT 18 31
REMARK Flexibility Score: inf
ROOT
ATOM      1  C   UNL     1     182.851 176.170 182.761  1.00  0.00     0.012 C 
ATOM      2  C   UNL     1     183.704 177.260 182.075  1.00  0.00     0.012 C 
ENDROOT
BRANCH   1   3
ATOM      3  C   UNL     1     181.624 176.778 183.443  1.00  0.00    -0.028 C 
ATOM      4  C   UNL     1     181.419 178.108 183.581  1.00  0.00    -0.027 C 
BRANCH   4   5
ATOM      5  C   UNL     1     180.161 178.649 184.235  1.00  0.00     0.014 C 
BRANCH   5   6
ATOM      6  C   UNL     1     179.535 179.712 183.301  1.00  0.00     0.004 C 
ATOM      7  C   UNL     1     180.415 180.034 182.092  1.00  0.00     0.004 C 
ENDBRANCH   5   6
BRANCH   5   8
ATOM      8  C   UNL     1     180.436 179.145 185.687  1.00  0.00    -0.011 C 
ATOM      9  C   UNL     1     181.937 179.376 185.930  1.00  0.00     0.008 C 
ATOM     10  C   UNL     1     179.636 180.395 186.081  1.00  0.00     0.008 C 
ENDBRANCH   5   8
ENDBRANCH   4   5
ENDBRANCH   1   3
BRANCH   1  11
ATOM     11  C   UNL     1     182.508 175.037 181.725  1.00  0.00     0.002 C 
ATOM     12  C   UNL     1     181.234 174.239 182.026  1.00  0.00     0.005 C 
ATOM     13  C   UNL     1     183.603 173.978 181.384  1.00  0.00    -0.023 C 
ATOM     14  C   UNL     1     181.314 172.979 181.174  1.00  0.00     0.009 C 
ATOM     15  C   UNL     1     182.801 172.758 180.822  1.00  0.00     0.021 C 
ATOM     16  C   UNL     1     184.644 174.526 180.350  1.00  0.00     0.008 C 
ATOM     17  C   UNL     1     184.385 173.517 182.642  1.00  0.00     0.012 C 
ATOM     18  C   UNL     1     182.969 172.607 179.320  1.00  0.00    -0.067 C 
ATOM     19  C   UNL     1     184.114 174.769 178.908  1.00  0.00     0.009 C 
ATOM     20  C   UNL     1     182.915 173.878 178.505  1.00  0.00     0.021 C 
ATOM     21  C   UNL     1     183.352 171.425 178.796  1.00  0.00    -0.027 C 
ATOM     22  C   UNL     1     182.718 173.608 176.967  1.00  0.00    -0.023 C 
ATOM     23  C   UNL     1     183.675 171.220 177.343  1.00  0.00     0.031 C 
ATOM     24  C   UNL     1     183.720 172.512 176.486  1.00  0.00     0.002 C 
ATOM     25  C   UNL     1     181.234 173.151 176.709  1.00  0.00     0.010 C 
ATOM     26  C   UNL     1     182.955 174.928 176.183  1.00  0.00     0.012 C 
ATOM     27  C   UNL     1     183.548 172.164 174.985  1.00  0.00     0.036 C 
ATOM     28  C   UNL     1     181.028 172.087 175.612  1.00  0.00     0.032 C 
ATOM     29  C   UNL     1     182.077 172.138 174.487  1.00  0.00     0.114 C 
BRANCH  29  30
ATOM     30  O   UNL     1     181.886 171.071 173.598  1.00  0.00    -0.393 OA
ATOM     31  H   UNL     1     182.307 171.317 172.733  1.00  0.00     0.210 HD
ENDBRANCH  29  30
ENDBRANCH   1  11
TORSDOF 6
ENDMDL
MODEL 5
REMARK VINA RESULT:    -7.025      2.858      5.944
REMARK INTER + INTRA:         -10.452
REMARK INTER:                  -9.287
REMARK INTRA:                  -1.166
REMARK UNBOUND:                -1.168
REMARK SMILES CC[C@@H](C=C[C@H](C)[C@@H]1CC[C@H]2C3=CC[C@H]4C[C@@H](O)CC[C@@]4(C)[C@@H]3CC[C@]21C)C(C)C
REMARK SMILES IDX 6 1 7 2 5 3 4 4 3 5 2 6 1 7 28 8 29 9 30 10 8 11 9 12 26 13
REMARK SMILES IDX 10 14 11 15 25 16 27 17 12 18 24 19 23 20 13 21 21 22 14 23
REMARK SMILES IDX 15 24 20 25 22 26 16 27 19 28 17 29 18 30
REMARK H PARENT 18 31
REMARK Flexibility Score: inf
ROOT
ATOM      1  C   UNL     1     183.671 176.737 182.157  1.00  0.00     0.012 C 
ATOM      2  C   UNL     1     184.465 177.490 181.067  1.00  0.00     0.012 C 
ENDROOT
BRANCH   1   3
ATOM      3  C   UNL     1     182.938 177.712 183.080  1.00  0.00    -0.028 C 
ATOM      4  C   UNL     1     182.316 178.834 182.651  1.00  0.00    -0.027 C 
BRANCH   4   5
ATOM      5  C   UNL     1     181.575 179.743 183.614  1.00  0.00     0.014 C 
BRANCH   5   6
ATOM      6  C   UNL     1     181.140 178.910 184.844  1.00  0.00     0.004 C 
ATOM      7  C   UNL     1     181.685 179.463 186.161  1.00  0.00     0.004 C 
ENDBRANCH   5   6
BRANCH   5   8
ATOM      8  C   UNL     1     180.415 180.507 182.908  1.00  0.00    -0.011 C 
ATOM      9  C   UNL     1     180.379 180.209 181.400  1.00  0.00     0.008 C 
ATOM     10  C   UNL     1     179.033 180.259 183.531  1.00  0.00     0.008 C 
ENDBRANCH   5   8
ENDBRANCH   4   5
ENDBRANCH   1   3
BRANCH   1  11
ATOM     11  C   UNL     1     182.732 175.669 181.484  1.00  0.00     0.002 C 
ATOM     12  C   UNL     1     181.347 175.518 182.126  1.00  0.00     0.005 C 
ATOM     13  C   UNL     1     183.270 174.218 181.286  1.00  0.00    -0.023 C 
ATOM     14  C   UNL     1     180.785 174.200 181.610  1.00  0.00     0.009 C 
ATOM     15  C   UNL     1     181.981 173.342 181.145  1.00  0.00     0.021 C 
ATOM     16  C   UNL     1     184.199 174.106 180.029  1.00  0.00     0.008 C 
ATOM     17  C   UNL     1     184.075 173.717 182.514  1.00  0.00     0.012 C 
ATOM     18  C   UNL     1     181.765 172.868 179.718  1.00  0.00    -0.067 C 
ATOM     19  C   UNL     1     183.505 174.276 178.648  1.00  0.00     0.009 C 
ATOM     20  C   UNL     1     182.008 173.883 178.627  1.00  0.00     0.021 C 
ATOM     21  C   UNL     1     181.575 171.558 179.461  1.00  0.00    -0.027 C 
ATOM     22  C   UNL     1     181.410 173.442 177.239  1.00  0.00    -0.023 C 
ATOM     23  C   UNL     1     181.490 170.981 178.076  1.00  0.00     0.031 C 
ATOM     24  C   UNL     1     181.820 171.969 176.926  1.00  0.00     0.002 C 
ATOM     25  C   UNL     1     179.842 173.579 177.286  1.00  0.00     0.010 C 
ATOM     26  C   UNL     1     181.941 174.391 176.129  1.00  0.00     0.012 C 
ATOM     27  C   UNL     1     181.225 171.455 175.591  1.00  0.00     0.036 C 
ATOM     28  C   UNL     1     179.040 172.509 176.520  1.00  0.00     0.032 C 
ATOM     29  C   UNL     1     179.776 171.930 175.298  1.00  0.00     0.114 C 
BRANCH  29  30
ATOM     30  O   UNL     1     179.029 170.888 174.732  1.00  0.00    -0.393 OA
ATOM     31  H   UNL     1     179.529 170.042 174.879  1.00  0.00     0.210 HD
ENDBRANCH  29  30
ENDBRANCH   1  11
TORSDOF 6
ENDMDL
MODEL 6
REMARK VINA RESULT:    -7.017      3.381      8.995
REMARK INTER + INTRA:         -10.441
REMARK INTER:                  -9.218
REMARK INTRA:                  -1.222
REMARK UNBOUND:                -1.168
REMARK SMILES CC[C@@H](C=C[C@H](C)[C@@H]1CC[C@H]2C3=CC[C@H]4C[C@@H](O)CC[C@@]4(C)[C@@H]3CC[C@]21C)C(C)C
REMARK SMILES IDX 6 1 7 2 5 3 4 4 3 5 2 6 1 7 28 8 29 9 30 10 8 11 9 12 26 13
REMARK SMILES IDX 10 14 11 15 25 16 27 17 12 18 24 19 23 20 13 21 21 22 14 23
REMARK SMILES IDX 15 24 20 25 22 26 16 27 19 28 17 29 18 30
REMARK H PARENT 18 31
REMARK Flexibility Score: inf
ROOT
ATOM      1  C   UNL     1     184.270 175.282 179.927  1.00  0.00     0.012 C 
ATOM      2  C   UNL     1     185.703 175.859 179.888  1.00  0.00     0.012 C 
ENDROOT
BRANCH   1   3
ATOM      3  C   UNL     1     184.284 173.761 179.771  1.00  0.00    -0.028 C 
ATOM      4  C   UNL     1     183.517 173.086 178.884  1.00  0.00    -0.027 C 
BRANCH   4   5
ATOM      5  C   UNL     1     183.604 171.577 178.753  1.00  0.00     0.014 C 
BRANCH   5   6
ATOM      6  C   UNL     1     184.205 171.235 177.368  1.00  0.00     0.004 C 
ATOM      7  C   UNL     1     184.404 172.468 176.485  1.00  0.00     0.004 C 
ENDBRANCH   5   6
BRANCH   5   8
ATOM      8  C   UNL     1     182.236 170.892 179.052  1.00  0.00    -0.011 C 
ATOM      9  C   UNL     1     181.619 171.414 180.360  1.00  0.00     0.008 C 
ATOM     10  C   UNL     1     181.221 171.001 177.905  1.00  0.00     0.008 C 
ENDBRANCH   5   8
ENDBRANCH   4   5
ENDBRANCH   1   3
BRANCH   1  11
ATOM     11  C   UNL     1     183.533 175.784 181.223  1.00  0.00     0.002 C 
ATOM     12  C   UNL     1     183.475 174.773 182.375  1.00  0.00     0.005 C 
ATOM     13  C   UNL     1     182.089 176.360 181.088  1.00  0.00    -0.023 C 
ATOM     14  C   UNL     1     182.404 175.283 183.329  1.00  0.00     0.009 C 
ATOM     15  C   UNL     1     181.482 176.223 182.524  1.00  0.00     0.021 C 
ATOM     16  C   UNL     1     182.097 177.845 180.590  1.00  0.00     0.008 C 
ATOM     17  C   UNL     1     181.218 175.536 180.103  1.00  0.00     0.012 C 
ATOM     18  C   UNL     1     181.360 177.566 183.222  1.00  0.00    -0.067 C 
ATOM     19  C   UNL     1     182.663 178.898 181.585  1.00  0.00     0.009 C 
ATOM     20  C   UNL     1     182.530 178.510 183.077  1.00  0.00     0.021 C 
ATOM     21  C   UNL     1     180.182 177.948 183.756  1.00  0.00    -0.027 C 
ATOM     22  C   UNL     1     182.493 179.692 184.116  1.00  0.00    -0.023 C 
ATOM     23  C   UNL     1     179.931 179.308 184.342  1.00  0.00     0.031 C 
ATOM     24  C   UNL     1     181.072 180.339 184.137  1.00  0.00     0.002 C 
ATOM     25  C   UNL     1     182.868 179.138 185.541  1.00  0.00     0.010 C 
ATOM     26  C   UNL     1     183.556 180.753 183.720  1.00  0.00     0.012 C 
ATOM     27  C   UNL     1     180.954 181.484 185.175  1.00  0.00     0.036 C 
ATOM     28  C   UNL     1     182.125 179.770 186.736  1.00  0.00     0.032 C 
ATOM     29  C   UNL     1     181.707 181.234 186.509  1.00  0.00     0.114 C 
BRANCH  29  30
ATOM     30  O   UNL     1     180.941 181.691 187.591  1.00  0.00    -0.393 OA
ATOM     31  H   UNL     1     180.131 181.120 187.651  1.00  0.00     0.210 HD
ENDBRANCH  29  30
ENDBRANCH   1  11
TORSDOF 6
ENDMDL
MODEL 7
REMARK VINA RESULT:    -6.995      3.485      8.581
REMARK INTER + INTRA:         -10.412
REMARK INTER:                  -9.577
REMARK INTRA:                  -0.835
REMARK UNBOUND:                -1.168
REMARK SMILES CC[C@@H](C=C[C@H](C)[C@@H]1CC[C@H]2C3=CC[C@H]4C[C@@H](O)CC[C@@]4(C)[C@@H]3CC[C@]21C)C(C)C
REMARK SMILES IDX 6 1 7 2 5 3 4 4 3 5 2 6 1 7 28 8 29 9 30 10 8 11 9 12 26 13
REMARK SMILES IDX 10 14 11 15 25 16 27 17 12 18 24 19 23 20 13 21 21 22 14 23
REMARK SMILES IDX 15 24 20 25 22 26 16 27 19 28 17 29 18 30
REMARK H PARENT 18 31
REMARK Flexibility Score: inf
ROOT
ATOM      1  C   UNL     1     183.607 172.717 178.905  1.00  0.00     0.012 C 
ATOM      2  C   UNL     1     183.911 171.243 179.255  1.00  0.00     0.012 C 
ENDROOT
BRANCH   1   3
ATOM      3  C   UNL     1     182.384 172.826 177.993  1.00  0.00    -0.028 C 
ATOM      4  C   UNL     1     182.286 173.698 176.963  1.00  0.00    -0.027 C 
BRANCH   4   5
ATOM      5  C   UNL     1     181.058 173.731 176.072  1.00  0.00     0.014 C 
BRANCH   5   6
ATOM      6  C   UNL     1     181.052 175.066 175.289  1.00  0.00     0.004 C 
ATOM      7  C   UNL     1     181.982 176.117 175.896  1.00  0.00     0.004 C 
ENDBRANCH   5   6
BRANCH   5   8
ATOM      8  C   UNL     1     179.754 173.447 176.876  1.00  0.00    -0.011 C 
ATOM      9  C   UNL     1     178.744 174.598 176.739  1.00  0.00     0.008 C 
ATOM     10  C   UNL     1     179.085 172.109 176.528  1.00  0.00     0.008 C 
ENDBRANCH   5   8
ENDBRANCH   4   5
ENDBRANCH   1   3
BRANCH   1  11
ATOM     11  C   UNL     1     183.495 173.562 180.227  1.00  0.00     0.002 C 
ATOM     12  C   UNL     1     184.458 173.154 181.348  1.00  0.00     0.005 C 
ATOM     13  C   UNL     1     182.096 173.714 180.902  1.00  0.00    -0.023 C 
ATOM     14  C   UNL     1     183.917 173.791 182.621  1.00  0.00     0.009 C 
ATOM     15  C   UNL     1     182.420 174.083 182.387  1.00  0.00     0.021 C 
ATOM     16  C   UNL     1     181.223 174.809 180.198  1.00  0.00     0.008 C 
ATOM     17  C   UNL     1     181.290 172.388 180.888  1.00  0.00     0.012 C 
ATOM     18  C   UNL     1     182.114 175.539 182.693  1.00  0.00    -0.067 C 
ATOM     19  C   UNL     1     181.708 176.278 180.360  1.00  0.00     0.009 C 
ATOM     20  C   UNL     1     182.524 176.548 181.647  1.00  0.00     0.021 C 
ATOM     21  C   UNL     1     181.334 175.861 183.745  1.00  0.00    -0.027 C 
ATOM     22  C   UNL     1     182.521 178.026 182.191  1.00  0.00    -0.023 C 
ATOM     23  C   UNL     1     180.867 177.258 184.044  1.00  0.00     0.031 C 
ATOM     24  C   UNL     1     181.189 178.311 182.952  1.00  0.00     0.002 C 
ATOM     25  C   UNL     1     183.756 178.226 183.146  1.00  0.00     0.010 C 
ATOM     26  C   UNL     1     182.675 179.009 180.997  1.00  0.00     0.012 C 
ATOM     27  C   UNL     1     181.140 179.739 183.553  1.00  0.00     0.036 C 
ATOM     28  C   UNL     1     183.533 179.141 184.367  1.00  0.00     0.032 C 
ATOM     29  C   UNL     1     182.486 180.246 184.138  1.00  0.00     0.114 C 
BRANCH  29  30
ATOM     30  O   UNL     1     182.262 180.953 185.327  1.00  0.00    -0.393 OA
ATOM     31  H   UNL     1     182.954 181.663 185.392  1.00  0.00     0.210 HD
ENDBRANCH  29  30
ENDBRANCH   1  11
TORSDOF 6
ENDMDL
MODEL 8
REMARK VINA RESULT:    -6.938      3.156      8.661
REMARK INTER + INTRA:         -10.336
REMARK INTER:                  -9.395
REMARK INTRA:                  -0.941
REMARK UNBOUND:                -1.168
REMARK SMILES CC[C@@H](C=C[C@H](C)[C@@H]1CC[C@H]2C3=CC[C@H]4C[C@@H](O)CC[C@@]4(C)[C@@H]3CC[C@]21C)C(C)C
REMARK SMILES IDX 6 1 7 2 5 3 4 4 3 5 2 6 1 7 28 8 29 9 30 10 8 11 9 12 26 13
REMARK SMILES IDX 10 14 11 15 25 16 27 17 12 18 24 19 23 20 13 21 21 22 14 23
REMARK SMILES IDX 15 24 20 25 22 26 16 27 19 28 17 29 18 30
REMARK H PARENT 18 31
REMARK Flexibility Score: inf
ROOT
ATOM      1  C   UNL     1     181.772 174.536 180.467  1.00  0.00     0.012 C 
ATOM      2  C   UNL     1     180.902 173.865 181.552  1.00  0.00     0.012 C 
ENDROOT
BRANCH   1   3
ATOM      3  C   UNL     1     181.189 174.305 179.072  1.00  0.00    -0.028 C 
ATOM      4  C   UNL     1     181.771 173.527 178.130  1.00  0.00    -0.027 C 
BRANCH   4   5
ATOM      5  C   UNL     1     181.122 173.308 176.776  1.00  0.00     0.014 C 
BRANCH   5   6
ATOM      6  C   UNL     1     180.160 174.487 176.492  1.00  0.00     0.004 C 
ATOM      7  C   UNL     1     180.738 175.502 175.505  1.00  0.00     0.004 C 
ENDBRANCH   5   6
BRANCH   5   8
ATOM      8  C   UNL     1     180.464 171.899 176.673  1.00  0.00    -0.011 C 
ATOM      9  C   UNL     1     181.162 170.883 177.594  1.00  0.00     0.008 C 
ATOM     10  C   UNL     1     178.951 171.896 176.931  1.00  0.00     0.008 C 
ENDBRANCH   5   8
ENDBRANCH   4   5
ENDBRANCH   1   3
BRANCH   1  11
ATOM     11  C   UNL     1     181.987 176.053 180.825  1.00  0.00     0.002 C 
ATOM     12  C   UNL     1     182.482 176.933 179.671  1.00  0.00     0.005 C 
ATOM     13  C   UNL     1     182.883 176.413 182.050  1.00  0.00    -0.023 C 
ATOM     14  C   UNL     1     183.003 178.213 180.311  1.00  0.00     0.009 C 
ATOM     15  C   UNL     1     183.328 177.890 181.785  1.00  0.00     0.021 C 
ATOM     16  C   UNL     1     182.107 176.265 183.404  1.00  0.00     0.008 C 
ATOM     17  C   UNL     1     184.151 175.523 182.133  1.00  0.00     0.012 C 
ATOM     18  C   UNL     1     182.626 178.872 182.707  1.00  0.00    -0.067 C 
ATOM     19  C   UNL     1     180.966 177.291 183.654  1.00  0.00     0.009 C 
ATOM     20  C   UNL     1     181.150 178.648 182.932  1.00  0.00     0.021 C 
ATOM     21  C   UNL     1     183.345 179.754 183.431  1.00  0.00    -0.027 C 
ATOM     22  C   UNL     1     180.434 179.895 183.573  1.00  0.00    -0.023 C 
ATOM     23  C   UNL     1     182.751 180.667 184.466  1.00  0.00     0.031 C 
ATOM     24  C   UNL     1     181.257 180.411 184.795  1.00  0.00     0.002 C 
ATOM     25  C   UNL     1     180.293 181.024 182.486  1.00  0.00     0.010 C 
ATOM     26  C   UNL     1     179.005 179.485 184.027  1.00  0.00     0.012 C 
ATOM     27  C   UNL     1     180.629 181.670 185.447  1.00  0.00     0.036 C 
ATOM     28  C   UNL     1     180.451 182.475 182.984  1.00  0.00     0.032 C 
ATOM     29  C   UNL     1     180.015 182.685 184.445  1.00  0.00     0.114 C 
BRANCH  29  30
ATOM     30  O   UNL     1     180.299 183.997 184.850  1.00  0.00    -0.393 OA
ATOM     31  H   UNL     1     181.093 183.965 185.446  1.00  0.00     0.210 HD
ENDBRANCH  29  30
ENDBRANCH   1  11
TORSDOF 6
ENDMDL
MODEL 9
REMARK VINA RESULT:    -6.898      3.535      9.532
REMARK INTER + INTRA:         -10.284
REMARK INTER:                  -9.097
REMARK INTRA:                  -1.186
REMARK UNBOUND:                -1.168
REMARK SMILES CC[C@@H](C=C[C@H](C)[C@@H]1CC[C@H]2C3=CC[C@H]4C[C@@H](O)CC[C@@]4(C)[C@@H]3CC[C@]21C)C(C)C
REMARK SMILES IDX 6 1 7 2 5 3 4 4 3 5 2 6 1 7 28 8 29 9 30 10 8 11 9 12 26 13
REMARK SMILES IDX 10 14 11 15 25 16 27 17 12 18 24 19 23 20 13 21 21 22 14 23
REMARK SMILES IDX 15 24 20 25 22 26 16 27 19 28 17 29 18 30
REMARK H PARENT 18 31
REMARK Flexibility Score: inf
ROOT
ATOM      1  C   UNL     1     183.744 172.782 179.238  1.00  0.00     0.012 C 
ATOM      2  C   UNL     1     183.569 173.669 177.984  1.00  0.00     0.012 C 
ENDROOT
BRANCH   1   3
ATOM      3  C   UNL     1     185.064 172.011 179.188  1.00  0.00    -0.028 C 
ATOM      4  C   UNL     1     186.215 172.516 178.687  1.00  0.00    -0.027 C 
BRANCH   4   5
ATOM      5  C   UNL     1     187.501 171.712 178.701  1.00  0.00     0.014 C 
BRANCH   5   6
ATOM      6  C   UNL     1     188.432 172.287 179.795  1.00  0.00     0.004 C 
ATOM      7  C   UNL     1     187.933 173.617 180.363  1.00  0.00     0.004 C 
ENDBRANCH   5   6
BRANCH   5   8
ATOM      8  C   UNL     1     188.144 171.628 177.283  1.00  0.00    -0.011 C 
ATOM      9  C   UNL     1     187.073 171.559 176.182  1.00  0.00     0.008 C 
ATOM     10  C   UNL     1     189.141 172.757 176.983  1.00  0.00     0.008 C 
ENDBRANCH   5   8
ENDBRANCH   4   5
ENDBRANCH   1   3
BRANCH   1  11
ATOM     11  C   UNL     1     183.564 173.657 180.532  1.00  0.00     0.002 C 
ATOM     12  C   UNL     1     184.446 173.255 181.721  1.00  0.00     0.005 C 
ATOM     13  C   UNL     1     182.128 173.849 181.113  1.00  0.00    -0.023 C 
ATOM     14  C   UNL     1     183.838 173.929 182.944  1.00  0.00     0.009 C 
ATOM     15  C   UNL     1     182.364 174.244 182.609  1.00  0.00     0.021 C 
ATOM     16  C   UNL     1     181.324 174.945 180.333  1.00  0.00     0.008 C 
ATOM     17  C   UNL     1     181.299 172.538 181.074  1.00  0.00     0.012 C 
ATOM     18  C   UNL     1     182.068 175.711 182.865  1.00  0.00    -0.067 C 
ATOM     19  C   UNL     1     181.826 176.407 180.496  1.00  0.00     0.009 C 
ATOM     20  C   UNL     1     182.564 176.690 181.827  1.00  0.00     0.021 C 
ATOM     21  C   UNL     1     181.229 176.070 183.858  1.00  0.00    -0.027 C 
ATOM     22  C   UNL     1     182.556 178.179 182.340  1.00  0.00    -0.023 C 
ATOM     23  C   UNL     1     180.772 177.481 184.098  1.00  0.00     0.031 C 
ATOM     24  C   UNL     1     181.183 178.505 183.008  1.00  0.00     0.002 C 
ATOM     25  C   UNL     1     183.731 178.376 183.368  1.00  0.00     0.010 C 
ATOM     26  C   UNL     1     182.804 179.133 181.138  1.00  0.00     0.012 C 
ATOM     27  C   UNL     1     181.124 179.946 183.576  1.00  0.00     0.036 C 
ATOM     28  C   UNL     1     183.449 179.321 184.553  1.00  0.00     0.032 C 
ATOM     29  C   UNL     1     182.440 180.440 184.236  1.00  0.00     0.114 C 
BRANCH  29  30
ATOM     30  O   UNL     1     182.155 181.177 185.394  1.00  0.00    -0.393 OA
ATOM     31  H   UNL     1     181.710 180.567 186.039  1.00  0.00     0.210 HD
ENDBRANCH  29  30
ENDBRANCH   1  11
TORSDOF 6
ENDMDL
