MODEL 1
REMARK VINA RESULT:    -3.060      0.000      0.000
REMARK INTER + INTRA:          -3.256
REMARK INTER:                  -3.239
REMARK INTRA:                  -0.016
REMARK UNBOUND:                -0.016
REMARK SMILES O=Cc1ccco1
REMARK SMILES IDX 5 1 6 2 7 3 3 4 4 5 2 6 1 7
REMARK H PARENT
REMARK Flexibility Score: inf
ROOT
ATOM      1  C   UNL     1     176.263 175.666 183.238  1.00  0.00     0.043 A 
ATOM      2  C   UNL     1     176.788 174.858 182.249  1.00  0.00     0.196 A 
ATOM      3  O   UNL     1     177.188 175.598 181.239  1.00  0.00    -0.462 OA
ATOM      4  C   UNL     1     176.947 176.858 181.525  1.00  0.00     0.166 A 
ATOM      5  C   UNL     1     176.366 176.959 182.772  1.00  0.00     0.054 A 
ENDROOT
BRANCH   4   6
ATOM      6  C   UNL     1     177.259 177.978 180.636  1.00  0.00     0.298 C 
ATOM      7  O   UNL     1     177.725 177.765 179.487  1.00  0.00    -0.294 OA
ENDBRANCH   4   6
TORSDOF 1
ENDMDL
MODEL 2
REMARK VINA RESULT:    -3.038     16.093     16.593
REMARK INTER + INTRA:          -3.232
REMARK INTER:                  -3.217
REMARK INTRA:                  -0.014
REMARK UNBOUND:                -0.016
REMARK SMILES O=Cc1ccco1
REMARK SMILES IDX 5 1 6 2 7 3 3 4 4 5 2 6 1 7
REMARK H PARENT
REMARK Flexibility Score: inf
ROOT
ATOM      1  C   UNL     1     161.619 176.938 182.225  1.00  0.00     0.043 A 
ATOM      2  C   UNL     1     161.511 177.120 180.861  1.00  0.00     0.196 A 
ATOM      3  O   UNL     1     160.859 176.111 180.329  1.00  0.00    -0.462 OA
ATOM      4  C   UNL     1     160.535 175.274 181.288  1.00  0.00     0.166 A 
ATOM      5  C   UNL     1     160.988 175.744 182.503  1.00  0.00     0.054 A 
ENDROOT
BRANCH   4   6
ATOM      6  C   UNL     1     159.797 174.027 181.078  1.00  0.00     0.298 C 
ATOM      7  O   UNL     1     158.843 173.985 180.261  1.00  0.00    -0.294 OA
ENDBRANCH   4   6
TORSDOF 1
ENDMDL
MODEL 3
REMARK VINA RESULT:    -3.003      1.365      1.470
REMARK INTER + INTRA:          -3.194
REMARK INTER:                  -3.183
REMARK INTRA:                  -0.011
REMARK UNBOUND:                -0.016
REMARK SMILES O=Cc1ccco1
REMARK SMILES IDX 5 1 6 2 7 3 3 4 4 5 2 6 1 7
REMARK H PARENT
REMARK Flexibility Score: inf
ROOT
ATOM      1  C   UNL     1     176.019 176.517 183.274  1.00  0.00     0.043 A 
ATOM      2  C   UNL     1     174.887 176.529 182.484  1.00  0.00     0.196 A 
ATOM      3  O   UNL     1     175.171 177.049 181.311  1.00  0.00    -0.462 OA
ATOM      4  C   UNL     1     176.443 177.378 181.299  1.00  0.00     0.166 A 
ATOM      5  C   UNL     1     177.027 177.065 182.509  1.00  0.00     0.054 A 
ENDROOT
BRANCH   4   6
ATOM      6  C   UNL     1     177.126 177.987 180.156  1.00  0.00     0.298 C 
ATOM      7  O   UNL     1     177.547 177.269 179.214  1.00  0.00    -0.294 OA
ENDBRANCH   4   6
TORSDOF 1
ENDMDL
MODEL 4
REMARK VINA RESULT:    -3.003      1.229      2.887
REMARK INTER + INTRA:          -3.194
REMARK INTER:                  -3.183
REMARK INTRA:                  -0.011
REMARK UNBOUND:                -0.016
REMARK SMILES O=Cc1ccco1
REMARK SMILES IDX 5 1 6 2 7 3 3 4 4 5 2 6 1 7
REMARK H PARENT
REMARK Flexibility Score: inf
ROOT
ATOM      1  C   UNL     1     176.607 177.236 182.589  1.00  0.00     0.043 A 
ATOM      2  C   UNL     1     177.022 177.382 181.280  1.00  0.00     0.196 A 
ATOM      3  O   UNL     1     177.228 176.200 180.746  1.00  0.00    -0.462 OA
ATOM      4  C   UNL     1     176.966 175.283 181.650  1.00  0.00     0.166 A 
ATOM      5  C   UNL     1     176.570 175.879 182.830  1.00  0.00     0.054 A 
ENDROOT
BRANCH   4   6
ATOM      6  C   UNL     1     177.083 173.842 181.420  1.00  0.00     0.298 C 
ATOM      7  O   UNL     1     178.125 173.228 181.764  1.00  0.00    -0.294 OA
ENDBRANCH   4   6
TORSDOF 1
ENDMDL
MODEL 5
REMARK VINA RESULT:    -2.969      1.966      2.241
REMARK INTER + INTRA:          -3.158
REMARK INTER:                  -3.143
REMARK INTRA:                  -0.016
REMARK UNBOUND:                -0.016
REMARK SMILES O=Cc1ccco1
REMARK SMILES IDX 5 1 6 2 7 3 3 4 4 5 2 6 1 7
REMARK H PARENT
REMARK Flexibility Score: inf
ROOT
ATOM      1  C   UNL     1     176.728 176.781 182.745  1.00  0.00     0.043 A 
ATOM      2  C   UNL     1     175.358 176.641 182.842  1.00  0.00     0.196 A 
ATOM      3  O   UNL     1     174.805 176.882 181.675  1.00  0.00    -0.462 OA
ATOM      4  C   UNL     1     175.755 177.175 180.816  1.00  0.00     0.166 A 
ATOM      5  C   UNL     1     176.987 177.126 181.435  1.00  0.00     0.054 A 
ENDROOT
BRANCH   4   6
ATOM      6  C   UNL     1     175.522 177.502 179.408  1.00  0.00     0.298 C 
ATOM      7  O   UNL     1     174.384 177.876 179.025  1.00  0.00    -0.294 OA
ENDBRANCH   4   6
TORSDOF 1
ENDMDL
MODEL 6
REMARK VINA RESULT:    -2.933      2.455      2.857
REMARK INTER + INTRA:          -3.121
REMARK INTER:                  -3.108
REMARK INTRA:                  -0.012
REMARK UNBOUND:                -0.016
REMARK SMILES O=Cc1ccco1
REMARK SMILES IDX 5 1 6 2 7 3 3 4 4 5 2 6 1 7
REMARK H PARENT
REMARK Flexibility Score: inf
ROOT
ATOM      1  C   UNL     1     176.732 176.921 182.893  1.00  0.00     0.043 A 
ATOM      2  C   UNL     1     177.063 177.344 181.622  1.00  0.00     0.196 A 
ATOM      3  O   UNL     1     176.007 177.280 180.844  1.00  0.00    -0.462 OA
ATOM      4  C   UNL     1     174.995 176.832 181.552  1.00  0.00     0.166 A 
ATOM      5  C   UNL     1     175.394 176.589 182.851  1.00  0.00     0.054 A 
ENDROOT
BRANCH   4   6
ATOM      6  C   UNL     1     173.646 176.627 181.024  1.00  0.00     0.298 C 
ATOM      7  O   UNL     1     172.947 177.611 180.671  1.00  0.00    -0.294 OA
ENDBRANCH   4   6
TORSDOF 1
ENDMDL
MODEL 7
REMARK VINA RESULT:    -2.926     22.358     22.644
REMARK INTER + INTRA:          -3.113
REMARK INTER:                  -3.102
REMARK INTRA:                  -0.011
REMARK UNBOUND:                -0.016
REMARK SMILES O=Cc1ccco1
REMARK SMILES IDX 5 1 6 2 7 3 3 4 4 5 2 6 1 7
REMARK H PARENT
REMARK Flexibility Score: inf
ROOT
ATOM      1  C   UNL     1     157.945 164.121 182.570  1.00  0.00     0.043 A 
ATOM      2  C   UNL     1     157.875 164.667 181.304  1.00  0.00     0.196 A 
ATOM      3  O   UNL     1     158.611 163.961 180.476  1.00  0.00    -0.462 OA
ATOM      4  C   UNL     1     159.161 162.974 181.146  1.00  0.00     0.166 A 
ATOM      5  C   UNL     1     158.776 163.025 182.469  1.00  0.00     0.054 A 
ENDROOT
BRANCH   4   6
ATOM      6  C   UNL     1     160.051 161.972 180.556  1.00  0.00     0.298 C 
ATOM      7  O   UNL     1     159.574 160.982 179.945  1.00  0.00    -0.294 OA
ENDBRANCH   4   6
TORSDOF 1
ENDMDL
MODEL 8
REMARK VINA RESULT:    -2.883      3.992      4.337
REMARK INTER + INTRA:          -3.068
REMARK INTER:                  -3.052
REMARK INTRA:                  -0.016
REMARK UNBOUND:                -0.016
REMARK SMILES O=Cc1ccco1
REMARK SMILES IDX 5 1 6 2 7 3 3 4 4 5 2 6 1 7
REMARK H PARENT
REMARK Flexibility Score: inf
ROOT
ATOM      1  C   UNL     1     175.005 176.633 182.184  1.00  0.00     0.043 A 
ATOM      2  C   UNL     1     174.935 176.943 180.840  1.00  0.00     0.196 A 
ATOM      3  O   UNL     1     173.727 177.370 180.547  1.00  0.00    -0.462 OA
ATOM      4  C   UNL     1     173.002 177.353 181.642  1.00  0.00     0.166 A 
ATOM      5  C   UNL     1     173.755 176.897 182.704  1.00  0.00     0.054 A 
ENDROOT
BRANCH   4   6
ATOM      6  C   UNL     1     171.598 177.762 181.707  1.00  0.00     0.298 C 
ATOM      7  O   UNL     1     170.995 178.125 180.664  1.00  0.00    -0.294 OA
ENDBRANCH   4   6
TORSDOF 1
ENDMDL
MODEL 9
REMARK VINA RESULT:    -2.808     15.624     15.893
REMARK INTER + INTRA:          -2.989
REMARK INTER:                  -2.974
REMARK INTRA:                  -0.015
REMARK UNBOUND:                -0.016
REMARK SMILES O=Cc1ccco1
REMARK SMILES IDX 5 1 6 2 7 3 3 4 4 5 2 6 1 7
REMARK H PARENT
REMARK Flexibility Score: inf
ROOT
ATOM      1  C   UNL     1     161.728 176.946 182.611  1.00  0.00     0.043 A 
ATOM      2  C   UNL     1     160.870 175.891 182.374  1.00  0.00     0.196 A 
ATOM      3  O   UNL     1     160.613 175.809 181.088  1.00  0.00    -0.462 OA
ATOM      4  C   UNL     1     161.267 176.767 180.471  1.00  0.00     0.166 A 
ATOM      5  C   UNL     1     161.986 177.514 181.382  1.00  0.00     0.054 A 
ENDROOT
BRANCH   4   6
ATOM      6  C   UNL     1     161.228 176.994 179.026  1.00  0.00     0.298 C 
ATOM      7  O   UNL     1     160.218 176.653 178.359  1.00  0.00    -0.294 OA
ENDBRANCH   4   6
TORSDOF 1
ENDMDL
