MODEL 1
REMARK VINA RESULT:    -3.716      0.000      0.000
REMARK INTER + INTRA:          -4.431
REMARK INTER:                  -4.259
REMARK INTRA:                  -0.173
REMARK UNBOUND:                -0.173
REMARK SMILES CC=Cc1ccc(O)c(OC)c1
REMARK SMILES IDX 4 1 12 2 9 3 7 4 6 5 5 6 3 7 1 8 2 9 10 10 11 11 8 12
REMARK H PARENT 8 13
REMARK Flexibility Score: inf
ROOT
ATOM      1  C   UNL     1      13.286   3.529  -2.374  1.00  0.00    -0.022 A 
ATOM      2  C   UNL     1      12.823   4.610  -1.596  1.00  0.00     0.058 A 
ATOM      3  C   UNL     1      11.458   4.960  -1.594  1.00  0.00     0.161 A 
ATOM      4  C   UNL     1      10.554   4.216  -2.365  1.00  0.00     0.157 A 
ATOM      5  C   UNL     1      11.008   3.131  -3.125  1.00  0.00     0.051 A 
ATOM      6  C   UNL     1      12.360   2.788  -3.125  1.00  0.00     0.012 A 
ENDROOT
BRANCH   1   7
ATOM      7  C   UNL     1      14.711   3.118  -2.401  1.00  0.00     0.003 C 
ATOM      8  C   UNL     1      16.612   1.598  -2.013  1.00  0.00     0.035 C 
ATOM      9  C   UNL     1      15.155   1.932  -1.969  1.00  0.00    -0.030 C 
ENDBRANCH   1   7
BRANCH   3  10
ATOM     10  O   UNL     1      10.961   6.034  -0.838  1.00  0.00    -0.493 OA
ATOM     11  C   UNL     1      10.989   7.396  -1.253  1.00  0.00     0.278 C 
ENDBRANCH   3  10
BRANCH   4  12
ATOM     12  O   UNL     1       9.205   4.560  -2.368  1.00  0.00    -0.504 OA
ATOM     13  H   UNL     1       8.826   5.233  -1.710  1.00  0.00     0.293 HD
ENDBRANCH   4  12
TORSDOF 3
ENDMDL
MODEL 2
REMARK VINA RESULT:    -3.546      1.983      2.883
REMARK INTER + INTRA:          -4.236
REMARK INTER:                  -4.073
REMARK INTRA:                  -0.164
REMARK UNBOUND:                -0.173
REMARK SMILES CC=Cc1ccc(O)c(OC)c1
REMARK SMILES IDX 4 1 12 2 9 3 7 4 6 5 5 6 3 7 1 8 2 9 10 10 11 11 8 12
REMARK H PARENT 8 13
REMARK Flexibility Score: inf
ROOT
ATOM      1  C   UNL     1      12.698   5.106  -1.328  1.00  0.00    -0.022 A 
ATOM      2  C   UNL     1      12.888   6.187  -2.214  1.00  0.00     0.058 A 
ATOM      3  C   UNL     1      11.968   7.254  -2.251  1.00  0.00     0.161 A 
ATOM      4  C   UNL     1      10.863   7.241  -1.390  1.00  0.00     0.157 A 
ATOM      5  C   UNL     1      10.681   6.177  -0.497  1.00  0.00     0.051 A 
ATOM      6  C   UNL     1      11.594   5.123  -0.463  1.00  0.00     0.012 A 
ENDROOT
BRANCH   1   7
ATOM      7  C   UNL     1      13.645   3.966  -1.248  1.00  0.00     0.003 C 
ATOM      8  C   UNL     1      15.098   2.193  -2.151  1.00  0.00     0.035 C 
ATOM      9  C   UNL     1      14.162   3.347  -2.315  1.00  0.00    -0.030 C 
ENDBRANCH   1   7
BRANCH   3  10
ATOM     10  O   UNL     1      12.119   8.344  -3.124  1.00  0.00    -0.493 OA
ATOM     11  C   UNL     1      13.053   9.403  -2.938  1.00  0.00     0.278 C 
ENDBRANCH   3  10
BRANCH   4  12
ATOM     12  O   UNL     1       9.949   8.292  -1.424  1.00  0.00    -0.504 OA
ATOM     13  H   UNL     1       9.073   8.252  -0.916  1.00  0.00     0.293 HD
ENDBRANCH   4  12
TORSDOF 3
ENDMDL
MODEL 3
REMARK VINA RESULT:    -3.479      1.660      2.512
REMARK INTER + INTRA:          -4.160
REMARK INTER:                  -3.970
REMARK INTRA:                  -0.190
REMARK UNBOUND:                -0.173
REMARK SMILES CC=Cc1ccc(O)c(OC)c1
REMARK SMILES IDX 4 1 12 2 9 3 7 4 6 5 5 6 3 7 1 8 2 9 10 10 11 11 8 12
REMARK H PARENT 8 13
REMARK Flexibility Score: inf
ROOT
ATOM      1  C   UNL     1      11.464   5.087  -1.513  1.00  0.00    -0.022 A 
ATOM      2  C   UNL     1      10.966   6.356  -1.149  1.00  0.00     0.058 A 
ATOM      3  C   UNL     1       9.727   6.810  -1.644  1.00  0.00     0.161 A 
ATOM      4  C   UNL     1       8.981   5.984  -2.496  1.00  0.00     0.157 A 
ATOM      5  C   UNL     1       9.464   4.717  -2.846  1.00  0.00     0.051 A 
ATOM      6  C   UNL     1      10.692   4.272  -2.354  1.00  0.00     0.012 A 
ENDROOT
BRANCH   1   7
ATOM      7  C   UNL     1      12.758   4.564  -1.011  1.00  0.00     0.003 C 
ATOM      8  C   UNL     1      14.886   3.331  -1.161  1.00  0.00     0.035 C 
ATOM      9  C   UNL     1      13.606   3.837  -1.747  1.00  0.00    -0.030 C 
ENDBRANCH   1   7
BRANCH   3  10
ATOM     10  O   UNL     1       9.202   8.069  -1.309  1.00  0.00    -0.493 OA
ATOM     11  C   UNL     1       9.615   9.298  -1.897  1.00  0.00     0.278 C 
ENDBRANCH   3  10
BRANCH   4  12
ATOM     12  O   UNL     1       7.757   6.430  -2.989  1.00  0.00    -0.504 OA
ATOM     13  H   UNL     1       7.526   6.365  -3.974  1.00  0.00     0.293 HD
ENDBRANCH   4  12
TORSDOF 3
ENDMDL
MODEL 4
REMARK VINA RESULT:    -3.309      1.600      2.967
REMARK INTER + INTRA:          -3.965
REMARK INTER:                  -3.772
REMARK INTRA:                  -0.193
REMARK UNBOUND:                -0.173
REMARK SMILES CC=Cc1ccc(O)c(OC)c1
REMARK SMILES IDX 4 1 12 2 9 3 7 4 6 5 5 6 3 7 1 8 2 9 10 10 11 11 8 12
REMARK H PARENT 8 13
REMARK Flexibility Score: inf
ROOT
ATOM      1  C   UNL     1      11.748   4.523  -2.022  1.00  0.00    -0.022 A 
ATOM      2  C   UNL     1      10.561   4.683  -2.767  1.00  0.00     0.058 A 
ATOM      3  C   UNL     1       9.617   5.668  -2.411  1.00  0.00     0.161 A 
ATOM      4  C   UNL     1       9.871   6.500  -1.312  1.00  0.00     0.157 A 
ATOM      5  C   UNL     1      11.056   6.355  -0.581  1.00  0.00     0.051 A 
ATOM      6  C   UNL     1      11.988   5.379  -0.937  1.00  0.00     0.012 A 
ENDROOT
BRANCH   1   7
ATOM      7  C   UNL     1      12.773   3.508  -2.365  1.00  0.00     0.003 C 
ATOM      8  C   UNL     1      15.011   2.476  -2.310  1.00  0.00     0.035 C 
ATOM      9  C   UNL     1      14.029   3.529  -1.904  1.00  0.00    -0.030 C 
ENDBRANCH   1   7
BRANCH   3  10
ATOM     10  O   UNL     1       8.422   5.853  -3.124  1.00  0.00    -0.493 OA
ATOM     11  C   UNL     1       7.258   5.047  -2.971  1.00  0.00     0.278 C 
ENDBRANCH   3  10
BRANCH   4  12
ATOM     12  O   UNL     1       8.940   7.472  -0.955  1.00  0.00    -0.504 OA
ATOM     13  H   UNL     1       8.424   7.420  -0.084  1.00  0.00     0.293 HD
ENDBRANCH   4  12
TORSDOF 3
ENDMDL
MODEL 5
REMARK VINA RESULT:    -3.244     10.773     12.624
REMARK INTER + INTRA:          -3.890
REMARK INTER:                  -3.745
REMARK INTRA:                  -0.145
REMARK UNBOUND:                -0.173
REMARK SMILES CC=Cc1ccc(O)c(OC)c1
REMARK SMILES IDX 4 1 12 2 9 3 7 4 6 5 5 6 3 7 1 8 2 9 10 10 11 11 8 12
REMARK H PARENT 8 13
REMARK Flexibility Score: inf
ROOT
ATOM      1  C   UNL     1      13.548  16.173  -0.658  1.00  0.00    -0.022 A 
ATOM      2  C   UNL     1      12.171  16.055  -0.940  1.00  0.00     0.058 A 
ATOM      3  C   UNL     1      11.216  16.705  -0.133  1.00  0.00     0.161 A 
ATOM      4  C   UNL     1      11.644  17.483   0.951  1.00  0.00     0.157 A 
ATOM      5  C   UNL     1      13.011  17.616   1.223  1.00  0.00     0.051 A 
ATOM      6  C   UNL     1      13.954  16.971   0.422  1.00  0.00     0.012 A 
ENDROOT
BRANCH   1   7
ATOM      7  C   UNL     1      14.590  15.515  -1.485  1.00  0.00     0.003 C 
ATOM      8  C   UNL     1      15.578  13.681  -2.801  1.00  0.00     0.035 C 
ATOM      9  C   UNL     1      14.474  14.282  -1.990  1.00  0.00    -0.030 C 
ENDBRANCH   1   7
BRANCH   3  10
ATOM     10  O   UNL     1       9.836  16.607  -0.378  1.00  0.00    -0.493 OA
ATOM     11  C   UNL     1       9.202  15.482  -0.978  1.00  0.00     0.278 C 
ENDBRANCH   3  10
BRANCH   4  12
ATOM     12  O   UNL     1      10.703  18.125   1.753  1.00  0.00    -0.504 OA
ATOM     13  H   UNL     1       9.783  17.730   1.913  1.00  0.00     0.293 HD
ENDBRANCH   4  12
TORSDOF 3
ENDMDL
MODEL 6
REMARK VINA RESULT:    -3.172      2.788      4.314
REMARK INTER + INTRA:          -3.808
REMARK INTER:                  -3.616
REMARK INTRA:                  -0.193
REMARK UNBOUND:                -0.173
REMARK SMILES CC=Cc1ccc(O)c(OC)c1
REMARK SMILES IDX 4 1 12 2 9 3 7 4 6 5 5 6 3 7 1 8 2 9 10 10 11 11 8 12
REMARK H PARENT 8 13
REMARK Flexibility Score: inf
ROOT
ATOM      1  C   UNL     1      11.383   6.906  -1.797  1.00  0.00    -0.022 A 
ATOM      2  C   UNL     1      11.525   8.293  -2.013  1.00  0.00     0.058 A 
ATOM      3  C   UNL     1      10.411   9.151  -1.921  1.00  0.00     0.161 A 
ATOM      4  C   UNL     1       9.155   8.618  -1.601  1.00  0.00     0.157 A 
ATOM      5  C   UNL     1       9.014   7.244  -1.369  1.00  0.00     0.051 A 
ATOM      6  C   UNL     1      10.119   6.398  -1.462  1.00  0.00     0.012 A 
ENDROOT
BRANCH   1   7
ATOM      7  C   UNL     1      12.528   5.966  -1.874  1.00  0.00     0.003 C 
ATOM      8  C   UNL     1      13.761   3.892  -1.374  1.00  0.00     0.035 C 
ATOM      9  C   UNL     1      12.561   4.777  -1.261  1.00  0.00    -0.030 C 
ENDBRANCH   1   7
BRANCH   3  10
ATOM     10  O   UNL     1      10.512  10.535  -2.135  1.00  0.00    -0.493 OA
ATOM     11  C   UNL     1      11.018  11.465  -1.182  1.00  0.00     0.278 C 
ENDBRANCH   3  10
BRANCH   4  12
ATOM     12  O   UNL     1       8.051   9.462  -1.511  1.00  0.00    -0.504 OA
ATOM     13  H   UNL     1       8.104  10.359  -1.041  1.00  0.00     0.293 HD
ENDBRANCH   4  12
TORSDOF 3
ENDMDL
MODEL 7
REMARK VINA RESULT:    -3.142      9.370     10.636
REMARK INTER + INTRA:          -3.774
REMARK INTER:                  -3.592
REMARK INTRA:                  -0.182
REMARK UNBOUND:                -0.173
REMARK SMILES CC=Cc1ccc(O)c(OC)c1
REMARK SMILES IDX 4 1 12 2 9 3 7 4 6 5 5 6 3 7 1 8 2 9 10 10 11 11 8 12
REMARK H PARENT 8 13
REMARK Flexibility Score: inf
ROOT
ATOM      1  C   UNL     1      11.668  14.310  -1.246  1.00  0.00    -0.022 A 
ATOM      2  C   UNL     1      10.544  15.162  -1.227  1.00  0.00     0.058 A 
ATOM      3  C   UNL     1       9.275  14.668  -0.862  1.00  0.00     0.161 A 
ATOM      4  C   UNL     1       9.138  13.319  -0.505  1.00  0.00     0.157 A 
ATOM      5  C   UNL     1      10.255  12.476  -0.506  1.00  0.00     0.051 A 
ATOM      6  C   UNL     1      11.509  12.969  -0.868  1.00  0.00     0.012 A 
ENDROOT
BRANCH   1   7
ATOM      7  C   UNL     1      13.024  14.787  -1.614  1.00  0.00     0.003 C 
ATOM      8  C   UNL     1      15.267  14.605  -2.617  1.00  0.00     0.035 C 
ATOM      9  C   UNL     1      13.912  14.058  -2.299  1.00  0.00    -0.030 C 
ENDBRANCH   1   7
BRANCH   3  10
ATOM     10  O   UNL     1       8.132  15.483  -0.838  1.00  0.00    -0.493 OA
ATOM     11  C   UNL     1       8.030  16.709  -0.120  1.00  0.00     0.278 C 
ENDBRANCH   3  10
BRANCH   4  12
ATOM     12  O   UNL     1       7.886  12.826  -0.146  1.00  0.00    -0.504 OA
ATOM     13  H   UNL     1       7.503  12.973   0.781  1.00  0.00     0.293 HD
ENDBRANCH   4  12
TORSDOF 3
ENDMDL
