MODEL 1
REMARK VINA RESULT:    -4.213      0.000      0.000
REMARK INTER + INTRA:          -5.685
REMARK INTER:                  -5.198
REMARK INTRA:                  -0.487
REMARK UNBOUND:                -0.487
REMARK SMILES C=CC[C@@H](C)C(=O)CC
REMARK SMILES IDX 4 1 5 2 6 3 7 4 8 5 9 6 3 7 2 8 1 9
REMARK H PARENT
REMARK Flexibility Score: inf
ROOT
ATOM      1  C   UNL     1     -12.355 -17.389  31.335  1.00  0.00     0.057 C 
ATOM      2  C   UNL     1     -13.180 -18.591  31.819  1.00  0.00     0.016 C 
ENDROOT
BRANCH   1   3
ATOM      3  C   UNL     1     -12.593 -17.140  29.860  1.00  0.00     0.135 C 
ATOM      4  O   UNL     1     -13.252 -17.948  29.221  1.00  0.00    -0.299 OA
BRANCH   3   5
ATOM      5  C   UNL     1     -12.064 -15.913  29.158  1.00  0.00     0.072 C 
ATOM      6  C   UNL     1     -13.188 -15.165  28.449  1.00  0.00     0.012 C 
ENDBRANCH   3   5
ENDBRANCH   1   3
BRANCH   1   7
ATOM      7  C   UNL     1     -12.650 -16.117  32.158  1.00  0.00     0.038 C 
BRANCH   7   8
ATOM      8  C   UNL     1     -14.128 -15.881  32.335  1.00  0.00    -0.034 C 
ATOM      9  C   UNL     1     -14.710 -14.741  31.953  1.00  0.00     0.004 C 
ENDBRANCH   7   8
ENDBRANCH   1   7
TORSDOF 4
ENDMDL
MODEL 2
REMARK VINA RESULT:    -4.202      1.048      2.851
REMARK INTER + INTRA:          -5.672
REMARK INTER:                  -5.474
REMARK INTRA:                  -0.198
REMARK UNBOUND:                -0.487
REMARK SMILES C=CC[C@@H](C)C(=O)CC
REMARK SMILES IDX 4 1 5 2 6 3 7 4 8 5 9 6 3 7 2 8 1 9
REMARK H PARENT
REMARK Flexibility Score: inf
ROOT
ATOM      1  C   UNL     1     -12.923 -16.546  30.113  1.00  0.00     0.057 C 
ATOM      2  C   UNL     1     -11.756 -15.922  29.332  1.00  0.00     0.016 C 
ENDROOT
BRANCH   1   3
ATOM      3  C   UNL     1     -12.712 -18.037  30.284  1.00  0.00     0.135 C 
ATOM      4  O   UNL     1     -12.274 -18.685  29.344  1.00  0.00    -0.299 OA
BRANCH   3   5
ATOM      5  C   UNL     1     -13.002 -18.744  31.585  1.00  0.00     0.072 C 
ATOM      6  C   UNL     1     -12.654 -20.226  31.488  1.00  0.00     0.012 C 
ENDBRANCH   3   5
ENDBRANCH   1   3
BRANCH   1   7
ATOM      7  C   UNL     1     -13.132 -15.865  31.483  1.00  0.00     0.038 C 
BRANCH   7   8
ATOM      8  C   UNL     1     -14.396 -15.047  31.527  1.00  0.00    -0.034 C 
ATOM      9  C   UNL     1     -15.096 -14.893  32.654  1.00  0.00     0.004 C 
ENDBRANCH   7   8
ENDBRANCH   1   7
TORSDOF 4
ENDMDL
MODEL 3
REMARK VINA RESULT:    -4.183      1.641      2.225
REMARK INTER + INTRA:          -5.649
REMARK INTER:                  -5.442
REMARK INTRA:                  -0.207
REMARK UNBOUND:                -0.487
REMARK SMILES C=CC[C@@H](C)C(=O)CC
REMARK SMILES IDX 4 1 5 2 6 3 7 4 8 5 9 6 3 7 2 8 1 9
REMARK H PARENT
REMARK Flexibility Score: inf
ROOT
ATOM      1  C   UNL     1     -12.601 -17.303  30.699  1.00  0.00     0.057 C 
ATOM      2  C   UNL     1     -13.023 -18.157  31.905  1.00  0.00     0.016 C 
ENDROOT
BRANCH   1   3
ATOM      3  C   UNL     1     -12.871 -18.042  29.404  1.00  0.00     0.135 C 
ATOM      4  O   UNL     1     -13.096 -17.398  28.390  1.00  0.00    -0.299 OA
BRANCH   3   5
ATOM      5  C   UNL     1     -12.847 -19.549  29.321  1.00  0.00     0.072 C 
ATOM      6  C   UNL     1     -14.105 -20.076  28.638  1.00  0.00     0.012 C 
ENDBRANCH   3   5
ENDBRANCH   1   3
BRANCH   1   7
ATOM      7  C   UNL     1     -13.296 -15.925  30.696  1.00  0.00     0.038 C 
BRANCH   7   8
ATOM      8  C   UNL     1     -13.912 -15.592  32.030  1.00  0.00    -0.034 C 
ATOM      9  C   UNL     1     -14.840 -14.641  32.160  1.00  0.00     0.004 C 
ENDBRANCH   7   8
ENDBRANCH   1   7
TORSDOF 4
ENDMDL
MODEL 4
REMARK VINA RESULT:    -4.113      2.258      3.519
REMARK INTER + INTRA:          -5.562
REMARK INTER:                  -5.194
REMARK INTRA:                  -0.368
REMARK UNBOUND:                -0.487
REMARK SMILES C=CC[C@@H](C)C(=O)CC
REMARK SMILES IDX 4 1 5 2 6 3 7 4 8 5 9 6 3 7 2 8 1 9
REMARK H PARENT
REMARK Flexibility Score: inf
ROOT
ATOM      1  C   UNL     1     -12.940 -17.310  29.625  1.00  0.00     0.057 C 
ATOM      2  C   UNL     1     -12.897 -16.559  30.965  1.00  0.00     0.016 C 
ENDROOT
BRANCH   1   3
ATOM      3  C   UNL     1     -12.341 -16.463  28.521  1.00  0.00     0.135 C 
ATOM      4  O   UNL     1     -11.546 -15.582  28.815  1.00  0.00    -0.299 OA
BRANCH   3   5
ATOM      5  C   UNL     1     -12.674 -16.689  27.066  1.00  0.00     0.072 C 
ATOM      6  C   UNL     1     -11.437 -17.116  26.284  1.00  0.00     0.012 C 
ENDBRANCH   3   5
ENDBRANCH   1   3
BRANCH   1   7
ATOM      7  C   UNL     1     -12.233 -18.679  29.708  1.00  0.00     0.038 C 
BRANCH   7   8
ATOM      8  C   UNL     1     -13.203 -19.829  29.626  1.00  0.00    -0.034 C 
ATOM      9  C   UNL     1     -14.059 -19.957  28.609  1.00  0.00     0.004 C 
ENDBRANCH   7   8
ENDBRANCH   1   7
TORSDOF 4
ENDMDL
MODEL 5
REMARK VINA RESULT:    -4.065      1.958      2.769
REMARK INTER + INTRA:          -5.502
REMARK INTER:                  -5.308
REMARK INTRA:                  -0.194
REMARK UNBOUND:                -0.487
REMARK SMILES C=CC[C@@H](C)C(=O)CC
REMARK SMILES IDX 4 1 5 2 6 3 7 4 8 5 9 6 3 7 2 8 1 9
REMARK H PARENT
REMARK Flexibility Score: inf
ROOT
ATOM      1  C   UNL     1     -12.167 -15.716  29.203  1.00  0.00     0.057 C 
ATOM      2  C   UNL     1     -10.650 -15.652  29.433  1.00  0.00     0.016 C 
ENDROOT
BRANCH   1   3
ATOM      3  C   UNL     1     -12.474 -16.302  27.840  1.00  0.00     0.135 C 
ATOM      4  O   UNL     1     -13.441 -15.886  27.219  1.00  0.00    -0.299 OA
BRANCH   3   5
ATOM      5  C   UNL     1     -11.609 -17.369  27.212  1.00  0.00     0.072 C 
ATOM      6  C   UNL     1     -11.260 -17.008  25.772  1.00  0.00     0.012 C 
ENDBRANCH   3   5
ENDBRANCH   1   3
BRANCH   1   7
ATOM      7  C   UNL     1     -12.887 -16.510  30.314  1.00  0.00     0.038 C 
BRANCH   7   8
ATOM      8  C   UNL     1     -13.747 -15.628  31.181  1.00  0.00    -0.034 C 
ATOM      9  C   UNL     1     -13.658 -15.649  32.514  1.00  0.00     0.004 C 
ENDBRANCH   7   8
ENDBRANCH   1   7
TORSDOF 4
ENDMDL
MODEL 6
REMARK VINA RESULT:    -4.042      1.663      2.907
REMARK INTER + INTRA:          -5.475
REMARK INTER:                  -5.101
REMARK INTRA:                  -0.374
REMARK UNBOUND:                -0.487
REMARK SMILES C=CC[C@@H](C)C(=O)CC
REMARK SMILES IDX 4 1 5 2 6 3 7 4 8 5 9 6 3 7 2 8 1 9
REMARK H PARENT
REMARK Flexibility Score: inf
ROOT
ATOM      1  C   UNL     1     -12.906 -17.009  31.240  1.00  0.00     0.057 C 
ATOM      2  C   UNL     1     -13.715 -16.114  32.192  1.00  0.00     0.016 C 
ENDROOT
BRANCH   1   3
ATOM      3  C   UNL     1     -11.698 -16.265  30.709  1.00  0.00     0.135 C 
ATOM      4  O   UNL     1     -10.816 -15.934  31.488  1.00  0.00    -0.299 OA
BRANCH   3   5
ATOM      5  C   UNL     1     -11.536 -15.941  29.243  1.00  0.00     0.072 C 
ATOM      6  C   UNL     1     -12.879 -15.586  28.613  1.00  0.00     0.012 C 
ENDBRANCH   3   5
ENDBRANCH   1   3
BRANCH   1   7
ATOM      7  C   UNL     1     -12.480 -18.331  31.913  1.00  0.00     0.038 C 
BRANCH   7   8
ATOM      8  C   UNL     1     -13.145 -19.530  31.288  1.00  0.00    -0.034 C 
ATOM      9  C   UNL     1     -13.215 -19.686  29.963  1.00  0.00     0.004 C 
ENDBRANCH   7   8
ENDBRANCH   1   7
TORSDOF 4
ENDMDL
MODEL 7
REMARK VINA RESULT:    -4.039      1.680      3.638
REMARK INTER + INTRA:          -5.470
REMARK INTER:                  -5.118
REMARK INTRA:                  -0.352
REMARK UNBOUND:                -0.487
REMARK SMILES C=CC[C@@H](C)C(=O)CC
REMARK SMILES IDX 4 1 5 2 6 3 7 4 8 5 9 6 3 7 2 8 1 9
REMARK H PARENT
REMARK Flexibility Score: inf
ROOT
ATOM      1  C   UNL     1     -11.829 -16.482  30.361  1.00  0.00     0.057 C 
ATOM      2  C   UNL     1     -13.214 -16.165  30.946  1.00  0.00     0.016 C 
ENDROOT
BRANCH   1   3
ATOM      3  C   UNL     1     -11.614 -17.980  30.287  1.00  0.00     0.135 C 
ATOM      4  O   UNL     1     -10.485 -18.425  30.436  1.00  0.00    -0.299 OA
BRANCH   3   5
ATOM      5  C   UNL     1     -12.753 -18.945  30.061  1.00  0.00     0.072 C 
ATOM      6  C   UNL     1     -12.869 -19.931  31.219  1.00  0.00     0.012 C 
ENDBRANCH   3   5
ENDBRANCH   1   3
BRANCH   1   7
ATOM      7  C   UNL     1     -11.626 -15.833  28.975  1.00  0.00     0.038 C 
BRANCH   7   8
ATOM      8  C   UNL     1     -12.920 -15.685  28.218  1.00  0.00    -0.034 C 
ATOM      9  C   UNL     1     -13.170 -16.384  27.107  1.00  0.00     0.004 C 
ENDBRANCH   7   8
ENDBRANCH   1   7
TORSDOF 4
ENDMDL
MODEL 8
REMARK VINA RESULT:    -4.034      1.634      3.290
REMARK INTER + INTRA:          -5.465
REMARK INTER:                  -5.008
REMARK INTRA:                  -0.456
REMARK UNBOUND:                -0.487
REMARK SMILES C=CC[C@@H](C)C(=O)CC
REMARK SMILES IDX 4 1 5 2 6 3 7 4 8 5 9 6 3 7 2 8 1 9
REMARK H PARENT
REMARK Flexibility Score: inf
ROOT
ATOM      1  C   UNL     1     -12.751 -17.002  31.201  1.00  0.00     0.057 C 
ATOM      2  C   UNL     1     -12.936 -18.476  31.593  1.00  0.00     0.016 C 
ENDROOT
BRANCH   1   3
ATOM      3  C   UNL     1     -12.699 -16.126  32.436  1.00  0.00     0.135 C 
ATOM      4  O   UNL     1     -11.618 -15.903  32.960  1.00  0.00    -0.299 OA
BRANCH   3   5
ATOM      5  C   UNL     1     -13.939 -15.498  33.027  1.00  0.00     0.072 C 
ATOM      6  C   UNL     1     -14.718 -14.729  31.965  1.00  0.00     0.012 C 
ENDBRANCH   3   5
ENDBRANCH   1   3
BRANCH   1   7
ATOM      7  C   UNL     1     -11.496 -16.789  30.328  1.00  0.00     0.038 C 
BRANCH   7   8
ATOM      8  C   UNL     1     -11.709 -15.741  29.267  1.00  0.00    -0.034 C 
ATOM      9  C   UNL     1     -12.902 -15.547  28.698  1.00  0.00     0.004 C 
ENDBRANCH   7   8
ENDBRANCH   1   7
TORSDOF 4
ENDMDL
MODEL 9
REMARK VINA RESULT:    -3.992      1.842      3.790
REMARK INTER + INTRA:          -5.413
REMARK INTER:                  -4.976
REMARK INTRA:                  -0.437
REMARK UNBOUND:                -0.487
REMARK SMILES C=CC[C@@H](C)C(=O)CC
REMARK SMILES IDX 4 1 5 2 6 3 7 4 8 5 9 6 3 7 2 8 1 9
REMARK H PARENT
REMARK Flexibility Score: inf
ROOT
ATOM      1  C   UNL     1     -12.185 -17.362  28.680  1.00  0.00     0.057 C 
ATOM      2  C   UNL     1     -11.759 -17.122  27.224  1.00  0.00     0.016 C 
ENDROOT
BRANCH   1   3
ATOM      3  C   UNL     1     -12.813 -16.113  29.264  1.00  0.00     0.135 C 
ATOM      4  O   UNL     1     -12.964 -15.135  28.547  1.00  0.00    -0.299 OA
BRANCH   3   5
ATOM      5  C   UNL     1     -13.282 -16.046  30.697  1.00  0.00     0.072 C 
ATOM      6  C   UNL     1     -12.118 -16.251  31.661  1.00  0.00     0.012 C 
ENDBRANCH   3   5
ENDBRANCH   1   3
BRANCH   1   7
ATOM      7  C   UNL     1     -13.143 -18.566  28.810  1.00  0.00     0.038 C 
BRANCH   7   8
ATOM      8  C   UNL     1     -12.597 -19.635  29.721  1.00  0.00    -0.034 C 
ATOM      9  C   UNL     1     -13.105 -19.851  30.937  1.00  0.00     0.004 C 
ENDBRANCH   7   8
ENDBRANCH   1   7
TORSDOF 4
ENDMDL
