MODEL 1
REMARK VINA RESULT:    -5.063      0.000      0.000
REMARK INTER + INTRA:         -10.605
REMARK INTER:                  -9.354
REMARK INTRA:                  -1.251
REMARK UNBOUND:                -1.251
REMARK SMILES CCCCCCCCCCCCCCCCO
REMARK SMILES IDX 9 1 8 2 7 3 6 4 5 5 4 6 3 7 2 8 1 9 10 10 11 11 12 12 13 13
REMARK SMILES IDX 14 14 15 15 16 16 17 17
REMARK H PARENT 17 18
REMARK Flexibility Score: inf
ROOT
ATOM      1  C   UNL     1      19.770   0.432 -20.260  1.00  0.00     0.000 C 
ENDROOT
BRANCH   1   2
ATOM      2  C   UNL     1      20.832   0.549 -19.161  1.00  0.00    -0.000 C 
BRANCH   2   3
ATOM      3  C   UNL     1      21.235  -0.832 -18.632  1.00  0.00    -0.000 C 
BRANCH   3   4
ATOM      4  C   UNL     1      20.020  -1.762 -18.532  1.00  0.00    -0.000 C 
BRANCH   4   5
ATOM      5  C   UNL     1      19.931  -2.402 -17.139  1.00  0.00    -0.000 C 
BRANCH   5   6
ATOM      6  C   UNL     1      20.834  -1.706 -16.109  1.00  0.00    -0.000 C 
BRANCH   6   7
ATOM      7  C   UNL     1      20.036  -0.984 -15.013  1.00  0.00    -0.000 C 
BRANCH   7   8
ATOM      8  C   UNL     1      19.927   0.516 -15.312  1.00  0.00    -0.003 C 
ATOM      9  C   UNL     1      18.532   0.880 -15.809  1.00  0.00     0.004 C 
ENDBRANCH   7   8
ENDBRANCH   6   7
ENDBRANCH   5   6
ENDBRANCH   4   5
ENDBRANCH   3   4
ENDBRANCH   2   3
ENDBRANCH   1   2
BRANCH   1  10
ATOM     10  C   UNL     1      20.408   0.542 -21.653  1.00  0.00     0.000 C 
BRANCH  10  11
ATOM     11  C   UNL     1      19.416   1.031 -22.722  1.00  0.00     0.000 C 
BRANCH  11  12
ATOM     12  C   UNL     1      18.002   1.250 -22.163  1.00  0.00     0.000 C 
BRANCH  12  13
ATOM     13  C   UNL     1      16.989   1.449 -23.301  1.00  0.00     0.000 C 
BRANCH  13  14
ATOM     14  C   UNL     1      16.408   0.123 -23.815  1.00  0.00     0.002 C 
BRANCH  14  15
ATOM     15  C   UNL     1      15.882   0.225 -25.256  1.00  0.00     0.028 C 
BRANCH  15  16
ATOM     16  C   UNL     1      16.229   1.577 -25.891  1.00  0.00     0.156 C 
BRANCH  16  17
ATOM     17  O   UNL     1      15.084   2.373 -26.033  1.00  0.00    -0.396 OA
ATOM     18  H   UNL     1      14.315   1.821 -25.731  1.00  0.00     0.210 HD
ENDBRANCH  16  17
ENDBRANCH  15  16
ENDBRANCH  14  15
ENDBRANCH  13  14
ENDBRANCH  12  13
ENDBRANCH  11  12
ENDBRANCH  10  11
ENDBRANCH   1  10
TORSDOF 15
ENDMDL
MODEL 2
REMARK VINA RESULT:    -4.969      3.183      8.100
REMARK INTER + INTRA:         -10.432
REMARK INTER:                  -8.645
REMARK INTRA:                  -1.787
REMARK UNBOUND:                -1.251
REMARK SMILES CCCCCCCCCCCCCCCCO
REMARK SMILES IDX 9 1 8 2 7 3 6 4 5 5 4 6 3 7 2 8 1 9 10 10 11 11 12 12 13 13
REMARK SMILES IDX 14 14 15 15 16 16 17 17
REMARK H PARENT 17 18
REMARK Flexibility Score: inf
ROOT
ATOM      1  C   UNL     1      16.775   0.073 -23.205  1.00  0.00     0.000 C 
ENDROOT
BRANCH   1   2
ATOM      2  C   UNL     1      16.168   0.095 -24.612  1.00  0.00    -0.000 C 
BRANCH   2   3
ATOM      3  C   UNL     1      16.279   1.490 -25.240  1.00  0.00    -0.000 C 
BRANCH   3   4
ATOM      4  C   UNL     1      17.240   1.484 -26.434  1.00  0.00    -0.000 C 
BRANCH   4   5
ATOM      5  C   UNL     1      17.458   0.058 -26.958  1.00  0.00    -0.000 C 
BRANCH   5   6
ATOM      6  C   UNL     1      18.932  -0.240 -27.272  1.00  0.00    -0.000 C 
BRANCH   6   7
ATOM      7  C   UNL     1      19.484  -1.421 -26.462  1.00  0.00    -0.000 C 
BRANCH   7   8
ATOM      8  C   UNL     1      19.758  -1.011 -25.010  1.00  0.00    -0.003 C 
ATOM      9  C   UNL     1      20.767   0.131 -24.940  1.00  0.00     0.004 C 
ENDBRANCH   7   8
ENDBRANCH   6   7
ENDBRANCH   5   6
ENDBRANCH   4   5
ENDBRANCH   3   4
ENDBRANCH   2   3
ENDBRANCH   1   2
BRANCH   1  10
ATOM     10  C   UNL     1      17.172   1.488 -22.756  1.00  0.00     0.000 C 
BRANCH  10  11
ATOM     11  C   UNL     1      18.612   1.559 -22.222  1.00  0.00     0.000 C 
BRANCH  11  12
ATOM     12  C   UNL     1      19.071   0.242 -21.579  1.00  0.00     0.000 C 
BRANCH  12  13
ATOM     13  C   UNL     1      20.339   0.456 -20.737  1.00  0.00     0.000 C 
BRANCH  13  14
ATOM     14  C   UNL     1      20.125   0.129 -19.251  1.00  0.00     0.002 C 
BRANCH  14  15
ATOM     15  C   UNL     1      20.399  -1.348 -18.924  1.00  0.00     0.028 C 
BRANCH  15  16
ATOM     16  C   UNL     1      19.623  -1.807 -17.683  1.00  0.00     0.156 C 
BRANCH  16  17
ATOM     17  O   UNL     1      19.097  -3.093 -17.868  1.00  0.00    -0.396 OA
ATOM     18  H   UNL     1      18.469  -3.254 -17.115  1.00  0.00     0.210 HD
ENDBRANCH  16  17
ENDBRANCH  15  16
ENDBRANCH  14  15
ENDBRANCH  13  14
ENDBRANCH  12  13
ENDBRANCH  11  12
ENDBRANCH  10  11
ENDBRANCH   1  10
TORSDOF 15
ENDMDL
MODEL 3
REMARK VINA RESULT:    -4.952      2.844      8.003
REMARK INTER + INTRA:         -10.400
REMARK INTER:                  -9.406
REMARK INTRA:                  -0.995
REMARK UNBOUND:                -1.251
REMARK SMILES CCCCCCCCCCCCCCCCO
REMARK SMILES IDX 9 1 8 2 7 3 6 4 5 5 4 6 3 7 2 8 1 9 10 10 11 11 12 12 13 13
REMARK SMILES IDX 14 14 15 15 16 16 17 17
REMARK H PARENT 17 18
REMARK Flexibility Score: inf
ROOT
ATOM      1  C   UNL     1      20.933   0.377 -19.040  1.00  0.00     0.000 C 
ENDROOT
BRANCH   1   2
ATOM      2  C   UNL     1      19.749   0.153 -19.986  1.00  0.00    -0.000 C 
BRANCH   2   3
ATOM      3  C   UNL     1      20.076   0.635 -21.405  1.00  0.00    -0.000 C 
BRANCH   3   4
ATOM      4  C   UNL     1      18.844   1.253 -22.076  1.00  0.00    -0.000 C 
BRANCH   4   5
ATOM      5  C   UNL     1      17.864   0.164 -22.537  1.00  0.00    -0.000 C 
BRANCH   5   6
ATOM      6  C   UNL     1      16.694   0.730 -23.357  1.00  0.00    -0.000 C 
BRANCH   6   7
ATOM      7  C   UNL     1      16.255  -0.211 -24.489  1.00  0.00    -0.000 C 
BRANCH   7   8
ATOM      8  C   UNL     1      15.749   0.584 -25.699  1.00  0.00    -0.003 C 
ATOM      9  C   UNL     1      15.888   2.086 -25.469  1.00  0.00     0.004 C 
ENDBRANCH   7   8
ENDBRANCH   6   7
ENDBRANCH   5   6
ENDBRANCH   4   5
ENDBRANCH   3   4
ENDBRANCH   2   3
ENDBRANCH   1   2
BRANCH   1  10
ATOM     10  C   UNL     1      21.498  -0.962 -18.541  1.00  0.00     0.000 C 
BRANCH  10  11
ATOM     11  C   UNL     1      20.480  -2.110 -18.642  1.00  0.00     0.000 C 
BRANCH  11  12
ATOM     12  C   UNL     1      19.756  -2.379 -17.314  1.00  0.00     0.000 C 
BRANCH  12  13
ATOM     13  C   UNL     1      20.529  -1.766 -16.136  1.00  0.00     0.000 C 
BRANCH  13  14
ATOM     14  C   UNL     1      19.637  -0.905 -15.226  1.00  0.00     0.002 C 
BRANCH  14  15
ATOM     15  C   UNL     1      19.968   0.593 -15.318  1.00  0.00     0.028 C 
BRANCH  15  16
ATOM     16  C   UNL     1      18.701   1.446 -15.453  1.00  0.00     0.156 C 
BRANCH  16  17
ATOM     17  O   UNL     1      17.583   0.767 -14.948  1.00  0.00    -0.396 OA
ATOM     18  H   UNL     1      17.180   1.358 -14.259  1.00  0.00     0.210 HD
ENDBRANCH  16  17
ENDBRANCH  15  16
ENDBRANCH  14  15
ENDBRANCH  13  14
ENDBRANCH  12  13
ENDBRANCH  11  12
ENDBRANCH  10  11
ENDBRANCH   1  10
TORSDOF 15
ENDMDL
MODEL 4
REMARK VINA RESULT:    -4.930      2.896      5.211
REMARK INTER + INTRA:         -10.360
REMARK INTER:                  -8.483
REMARK INTRA:                  -1.877
REMARK UNBOUND:                -1.251
REMARK SMILES CCCCCCCCCCCCCCCCO
REMARK SMILES IDX 9 1 8 2 7 3 6 4 5 5 4 6 3 7 2 8 1 9 10 10 11 11 12 12 13 13
REMARK SMILES IDX 14 14 15 15 16 16 17 17
REMARK H PARENT 17 18
REMARK Flexibility Score: inf
ROOT
ATOM      1  C   UNL     1      16.218   0.084 -24.362  1.00  0.00     0.000 C 
ENDROOT
BRANCH   1   2
ATOM      2  C   UNL     1      16.723   0.304 -22.931  1.00  0.00    -0.000 C 
BRANCH   2   3
ATOM      3  C   UNL     1      17.364   1.688 -22.778  1.00  0.00    -0.000 C 
BRANCH   3   4
ATOM      4  C   UNL     1      18.882   1.577 -22.598  1.00  0.00    -0.000 C 
BRANCH   4   5
ATOM      5  C   UNL     1      19.259   0.266 -21.895  1.00  0.00    -0.000 C 
BRANCH   5   6
ATOM      6  C   UNL     1      20.408   0.441 -20.891  1.00  0.00    -0.000 C 
BRANCH   6   7
ATOM      7  C   UNL     1      19.977   0.165 -19.443  1.00  0.00    -0.000 C 
BRANCH   7   8
ATOM      8  C   UNL     1      20.814  -0.962 -18.826  1.00  0.00    -0.003 C 
ATOM      9  C   UNL     1      19.944  -2.165 -18.471  1.00  0.00     0.004 C 
ENDBRANCH   7   8
ENDBRANCH   6   7
ENDBRANCH   5   6
ENDBRANCH   4   5
ENDBRANCH   3   4
ENDBRANCH   2   3
ENDBRANCH   1   2
BRANCH   1  10
ATOM     10  C   UNL     1      16.143   1.413 -25.128  1.00  0.00     0.000 C 
BRANCH  10  11
ATOM     11  C   UNL     1      17.140   1.482 -26.297  1.00  0.00     0.000 C 
BRANCH  11  12
ATOM     12  C   UNL     1      18.004   0.216 -26.413  1.00  0.00     0.000 C 
BRANCH  12  13
ATOM     13  C   UNL     1      19.482   0.537 -26.144  1.00  0.00     0.000 C 
BRANCH  13  14
ATOM     14  C   UNL     1      20.241  -0.646 -25.520  1.00  0.00     0.002 C 
BRANCH  14  15
ATOM     15  C   UNL     1      19.304  -1.772 -25.054  1.00  0.00     0.028 C 
BRANCH  15  16
ATOM     16  C   UNL     1      19.720  -3.131 -25.630  1.00  0.00     0.156 C 
BRANCH  16  17
ATOM     17  O   UNL     1      21.098  -3.340 -25.476  1.00  0.00    -0.396 OA
ATOM     18  H   UNL     1      21.383  -2.793 -24.697  1.00  0.00     0.210 HD
ENDBRANCH  16  17
ENDBRANCH  15  16
ENDBRANCH  14  15
ENDBRANCH  13  14
ENDBRANCH  12  13
ENDBRANCH  11  12
ENDBRANCH  10  11
ENDBRANCH   1  10
TORSDOF 15
ENDMDL
MODEL 5
REMARK VINA RESULT:    -4.876      4.856      6.961
REMARK INTER + INTRA:         -10.260
REMARK INTER:                  -8.430
REMARK INTRA:                  -1.830
REMARK UNBOUND:                -1.251
REMARK SMILES CCCCCCCCCCCCCCCCO
REMARK SMILES IDX 9 1 8 2 7 3 6 4 5 5 4 6 3 7 2 8 1 9 10 10 11 11 12 12 13 13
REMARK SMILES IDX 14 14 15 15 16 16 17 17
REMARK H PARENT 17 18
REMARK Flexibility Score: inf
ROOT
ATOM      1  C   UNL     1      20.768   0.023 -23.602  1.00  0.00     0.000 C 
ENDROOT
BRANCH   1   2
ATOM      2  C   UNL     1      20.599   1.545 -23.670  1.00  0.00    -0.000 C 
BRANCH   2   3
ATOM      3  C   UNL     1      19.117   1.937 -23.670  1.00  0.00    -0.000 C 
BRANCH   3   4
ATOM      4  C   UNL     1      18.426   1.486 -22.377  1.00  0.00    -0.000 C 
BRANCH   4   5
ATOM      5  C   UNL     1      17.051   0.873 -22.674  1.00  0.00    -0.000 C 
BRANCH   5   6
ATOM      6  C   UNL     1      17.124  -0.286 -23.681  1.00  0.00    -0.000 C 
BRANCH   6   7
ATOM      7  C   UNL     1      15.991  -0.243 -24.717  1.00  0.00    -0.000 C 
BRANCH   7   8
ATOM      8  C   UNL     1      16.448   0.464 -25.999  1.00  0.00    -0.003 C 
ATOM      9  C   UNL     1      16.104   1.950 -25.963  1.00  0.00     0.004 C 
ENDBRANCH   7   8
ENDBRANCH   6   7
ENDBRANCH   5   6
ENDBRANCH   4   5
ENDBRANCH   3   4
ENDBRANCH   2   3
ENDBRANCH   1   2
BRANCH   1  10
ATOM     10  C   UNL     1      21.216  -0.541 -24.959  1.00  0.00     0.000 C 
BRANCH  10  11
ATOM     11  C   UNL     1      20.096  -0.511 -26.013  1.00  0.00     0.000 C 
BRANCH  11  12
ATOM     12  C   UNL     1      19.461  -1.891 -26.241  1.00  0.00     0.000 C 
BRANCH  12  13
ATOM     13  C   UNL     1      20.229  -2.980 -25.477  1.00  0.00     0.000 C 
BRANCH  13  14
ATOM     14  C   UNL     1      19.421  -4.279 -25.325  1.00  0.00     0.002 C 
BRANCH  14  15
ATOM     15  C   UNL     1      18.387  -4.205 -24.191  1.00  0.00     0.028 C 
BRANCH  15  16
ATOM     16  C   UNL     1      17.338  -5.318 -24.307  1.00  0.00     0.156 C 
BRANCH  16  17
ATOM     17  O   UNL     1      16.040  -4.792 -24.257  1.00  0.00    -0.396 OA
ATOM     18  H   UNL     1      15.500  -5.304 -24.915  1.00  0.00     0.210 HD
ENDBRANCH  16  17
ENDBRANCH  15  16
ENDBRANCH  14  15
ENDBRANCH  13  14
ENDBRANCH  12  13
ENDBRANCH  11  12
ENDBRANCH  10  11
ENDBRANCH   1  10
TORSDOF 15
ENDMDL
MODEL 6
REMARK VINA RESULT:    -4.865      5.010      7.953
REMARK INTER + INTRA:         -10.240
REMARK INTER:                  -7.879
REMARK INTRA:                  -2.361
REMARK UNBOUND:                -1.251
REMARK SMILES CCCCCCCCCCCCCCCCO
REMARK SMILES IDX 9 1 8 2 7 3 6 4 5 5 4 6 3 7 2 8 1 9 10 10 11 11 12 12 13 13
REMARK SMILES IDX 14 14 15 15 16 16 17 17
REMARK H PARENT 17 18
REMARK Flexibility Score: inf
ROOT
ATOM      1  C   UNL     1      18.526   1.445 -22.475  1.00  0.00     0.000 C 
ENDROOT
BRANCH   1   2
ATOM      2  C   UNL     1      17.049   1.268 -22.845  1.00  0.00    -0.000 C 
BRANCH   2   3
ATOM      3  C   UNL     1      16.795  -0.114 -23.457  1.00  0.00    -0.000 C 
BRANCH   3   4
ATOM      4  C   UNL     1      16.230   0.005 -24.877  1.00  0.00    -0.000 C 
BRANCH   4   5
ATOM      5  C   UNL     1      16.514   1.394 -25.467  1.00  0.00    -0.000 C 
BRANCH   5   6
ATOM      6  C   UNL     1      17.189   1.325 -26.846  1.00  0.00    -0.000 C 
BRANCH   6   7
ATOM      7  C   UNL     1      17.653  -0.094 -27.208  1.00  0.00    -0.000 C 
BRANCH   7   8
ATOM      8  C   UNL     1      18.445  -0.094 -28.521  1.00  0.00    -0.003 C 
ATOM      9  C   UNL     1      19.407  -1.276 -28.585  1.00  0.00     0.004 C 
ENDBRANCH   7   8
ENDBRANCH   6   7
ENDBRANCH   5   6
ENDBRANCH   4   5
ENDBRANCH   3   4
ENDBRANCH   2   3
ENDBRANCH   1   2
BRANCH   1  10
ATOM     10  C   UNL     1      19.107   2.711 -23.124  1.00  0.00     0.000 C 
BRANCH  10  11
ATOM     11  C   UNL     1      20.043   2.398 -24.303  1.00  0.00     0.000 C 
BRANCH  11  12
ATOM     12  C   UNL     1      20.788   1.066 -24.130  1.00  0.00     0.000 C 
BRANCH  12  13
ATOM     13  C   UNL     1      20.720   0.230 -25.417  1.00  0.00     0.000 C 
BRANCH  13  14
ATOM     14  C   UNL     1      20.964  -1.267 -25.165  1.00  0.00     0.002 C 
BRANCH  14  15
ATOM     15  C   UNL     1      19.659  -2.059 -24.988  1.00  0.00     0.028 C 
BRANCH  15  16
ATOM     16  C   UNL     1      19.861  -3.553 -25.270  1.00  0.00     0.156 C 
BRANCH  16  17
ATOM     17  O   UNL     1      21.162  -3.807 -25.725  1.00  0.00    -0.396 OA
ATOM     18  H   UNL     1      21.093  -4.539 -26.392  1.00  0.00     0.210 HD
ENDBRANCH  16  17
ENDBRANCH  15  16
ENDBRANCH  14  15
ENDBRANCH  13  14
ENDBRANCH  12  13
ENDBRANCH  11  12
ENDBRANCH  10  11
ENDBRANCH   1  10
TORSDOF 15
ENDMDL
MODEL 7
REMARK VINA RESULT:    -4.854      4.459      6.631
REMARK INTER + INTRA:         -10.219
REMARK INTER:                  -8.208
REMARK INTRA:                  -2.010
REMARK UNBOUND:                -1.251
REMARK SMILES CCCCCCCCCCCCCCCCO
REMARK SMILES IDX 9 1 8 2 7 3 6 4 5 5 4 6 3 7 2 8 1 9 10 10 11 11 12 12 13 13
REMARK SMILES IDX 14 14 15 15 16 16 17 17
REMARK H PARENT 17 18
REMARK Flexibility Score: inf
ROOT
ATOM      1  C   UNL     1      16.226   1.442 -25.473  1.00  0.00     0.000 C 
ENDROOT
BRANCH   1   2
ATOM      2  C   UNL     1      16.098   0.041 -24.865  1.00  0.00    -0.000 C 
BRANCH   2   3
ATOM      3  C   UNL     1      16.545   0.031 -23.399  1.00  0.00    -0.000 C 
BRANCH   3   4
ATOM      4  C   UNL     1      17.071   1.407 -22.972  1.00  0.00    -0.000 C 
BRANCH   4   5
ATOM      5  C   UNL     1      18.360   1.271 -22.148  1.00  0.00    -0.000 C 
BRANCH   5   6
ATOM      6  C   UNL     1      19.304   0.191 -22.698  1.00  0.00    -0.000 C 
BRANCH   6   7
ATOM      7  C   UNL     1      20.783   0.587 -22.592  1.00  0.00    -0.000 C 
BRANCH   7   8
ATOM      8  C   UNL     1      21.421   0.705 -23.981  1.00  0.00    -0.003 C 
ATOM      9  C   UNL     1      21.090   2.046 -24.629  1.00  0.00     0.004 C 
ENDBRANCH   7   8
ENDBRANCH   6   7
ENDBRANCH   5   6
ENDBRANCH   4   5
ENDBRANCH   3   4
ENDBRANCH   2   3
ENDBRANCH   1   2
BRANCH   1  10
ATOM     10  C   UNL     1      17.133   1.422 -26.713  1.00  0.00     0.000 C 
BRANCH  10  11
ATOM     11  C   UNL     1      18.335   0.476 -26.554  1.00  0.00     0.000 C 
BRANCH  11  12
ATOM     12  C   UNL     1      18.435  -0.551 -27.693  1.00  0.00     0.000 C 
BRANCH  12  13
ATOM     13  C   UNL     1      19.465  -1.640 -27.358  1.00  0.00     0.000 C 
BRANCH  13  14
ATOM     14  C   UNL     1      19.612  -1.871 -25.846  1.00  0.00     0.002 C 
BRANCH  14  15
ATOM     15  C   UNL     1      20.135  -3.277 -25.509  1.00  0.00     0.028 C 
BRANCH  15  16
ATOM     16  C   UNL     1      19.082  -4.110 -24.767  1.00  0.00     0.156 C 
BRANCH  16  17
ATOM     17  O   UNL     1      17.997  -3.314 -24.375  1.00  0.00    -0.396 OA
ATOM     18  H   UNL     1      17.970  -2.543 -25.000  1.00  0.00     0.210 HD
ENDBRANCH  16  17
ENDBRANCH  15  16
ENDBRANCH  14  15
ENDBRANCH  13  14
ENDBRANCH  12  13
ENDBRANCH  11  12
ENDBRANCH  10  11
ENDBRANCH   1  10
TORSDOF 15
ENDMDL
MODEL 8
REMARK VINA RESULT:    -4.813      3.212      7.315
REMARK INTER + INTRA:         -10.144
REMARK INTER:                  -8.396
REMARK INTRA:                  -1.748
REMARK UNBOUND:                -1.251
REMARK SMILES CCCCCCCCCCCCCCCCO
REMARK SMILES IDX 9 1 8 2 7 3 6 4 5 5 4 6 3 7 2 8 1 9 10 10 11 11 12 12 13 13
REMARK SMILES IDX 14 14 15 15 16 16 17 17
REMARK H PARENT 17 18
REMARK Flexibility Score: inf
ROOT
ATOM      1  C   UNL     1      20.934   0.516 -24.924  1.00  0.00     0.000 C 
ENDROOT
BRANCH   1   2
ATOM      2  C   UNL     1      20.849  -1.015 -24.920  1.00  0.00    -0.000 C 
BRANCH   2   3
ATOM      3  C   UNL     1      19.406  -1.489 -25.130  1.00  0.00    -0.000 C 
BRANCH   3   4
ATOM      4  C   UNL     1      18.630  -1.498 -23.808  1.00  0.00    -0.000 C 
BRANCH   4   5
ATOM      5  C   UNL     1      17.195  -0.990 -24.010  1.00  0.00    -0.000 C 
BRANCH   5   6
ATOM      6  C   UNL     1      16.806   0.103 -23.001  1.00  0.00    -0.000 C 
BRANCH   6   7
ATOM      7  C   UNL     1      16.841   1.511 -23.611  1.00  0.00    -0.000 C 
BRANCH   7   8
ATOM      8  C   UNL     1      16.846   1.446 -25.143  1.00  0.00    -0.003 C 
ATOM      9  C   UNL     1      15.724   2.293 -25.736  1.00  0.00     0.004 C 
ENDBRANCH   7   8
ENDBRANCH   6   7
ENDBRANCH   5   6
ENDBRANCH   4   5
ENDBRANCH   3   4
ENDBRANCH   2   3
ENDBRANCH   1   2
BRANCH   1  10
ATOM     10  C   UNL     1      21.484   1.039 -23.589  1.00  0.00     0.000 C 
BRANCH  10  11
ATOM     11  C   UNL     1      20.376   1.513 -22.634  1.00  0.00     0.000 C 
BRANCH  11  12
ATOM     12  C   UNL     1      20.692   1.211 -21.162  1.00  0.00     0.000 C 
BRANCH  12  13
ATOM     13  C   UNL     1      19.854   0.027 -20.654  1.00  0.00     0.000 C 
BRANCH  13  14
ATOM     14  C   UNL     1      20.248  -0.411 -19.235  1.00  0.00     0.002 C 
BRANCH  14  15
ATOM     15  C   UNL     1      20.125  -1.929 -19.028  1.00  0.00     0.028 C 
BRANCH  15  16
ATOM     16  C   UNL     1      19.614  -2.270 -17.622  1.00  0.00     0.156 C 
BRANCH  16  17
ATOM     17  O   UNL     1      19.033  -3.545 -17.595  1.00  0.00    -0.396 OA
ATOM     18  H   UNL     1      19.700  -4.170 -17.985  1.00  0.00     0.210 HD
ENDBRANCH  16  17
ENDBRANCH  15  16
ENDBRANCH  14  15
ENDBRANCH  13  14
ENDBRANCH  12  13
ENDBRANCH  11  12
ENDBRANCH  10  11
ENDBRANCH   1  10
TORSDOF 15
ENDMDL
MODEL 9
REMARK VINA RESULT:    -4.755      2.698      7.169
REMARK INTER + INTRA:         -10.036
REMARK INTER:                  -8.346
REMARK INTRA:                  -1.691
REMARK UNBOUND:                -1.251
REMARK SMILES CCCCCCCCCCCCCCCCO
REMARK SMILES IDX 9 1 8 2 7 3 6 4 5 5 4 6 3 7 2 8 1 9 10 10 11 11 12 12 13 13
REMARK SMILES IDX 14 14 15 15 16 16 17 17
REMARK H PARENT 17 18
REMARK Flexibility Score: inf
ROOT
ATOM      1  C   UNL     1      20.830  -1.326 -18.619  1.00  0.00     0.000 C 
ENDROOT
BRANCH   1   2
ATOM      2  C   UNL     1      20.025  -0.390 -19.527  1.00  0.00    -0.000 C 
BRANCH   2   3
ATOM      3  C   UNL     1      20.916   0.710 -20.115  1.00  0.00    -0.000 C 
BRANCH   3   4
ATOM      4  C   UNL     1      20.267   1.347 -21.349  1.00  0.00    -0.000 C 
BRANCH   4   5
ATOM      5  C   UNL     1      20.571   0.532 -22.614  1.00  0.00    -0.000 C 
BRANCH   5   6
ATOM      6  C   UNL     1      19.331   0.324 -23.498  1.00  0.00    -0.000 C 
BRANCH   6   7
ATOM      7  C   UNL     1      18.197  -0.408 -22.766  1.00  0.00    -0.000 C 
BRANCH   7   8
ATOM      8  C   UNL     1      16.868   0.340 -22.926  1.00  0.00    -0.003 C 
ATOM      9  C   UNL     1      17.098   1.804 -23.288  1.00  0.00     0.004 C 
ENDBRANCH   7   8
ENDBRANCH   6   7
ENDBRANCH   5   6
ENDBRANCH   4   5
ENDBRANCH   3   4
ENDBRANCH   2   3
ENDBRANCH   1   2
BRANCH   1  10
ATOM     10  C   UNL     1      19.900  -2.265 -17.836  1.00  0.00     0.000 C 
BRANCH  10  11
ATOM     11  C   UNL     1      20.023  -2.088 -16.313  1.00  0.00     0.000 C 
BRANCH  11  12
ATOM     12  C   UNL     1      20.949  -0.925 -15.925  1.00  0.00     0.000 C 
BRANCH  12  13
ATOM     13  C   UNL     1      20.146   0.229 -15.305  1.00  0.00     0.000 C 
BRANCH  13  14
ATOM     14  C   UNL     1      20.477   1.589 -15.939  1.00  0.00     0.002 C 
BRANCH  14  15
ATOM     15  C   UNL     1      19.365   2.096 -16.871  1.00  0.00     0.028 C 
BRANCH  15  16
ATOM     16  C   UNL     1      18.080   1.272 -16.720  1.00  0.00     0.156 C 
BRANCH  16  17
ATOM     17  O   UNL     1      16.995   2.092 -16.381  1.00  0.00    -0.396 OA
ATOM     18  H   UNL     1      16.324   1.508 -15.940  1.00  0.00     0.210 HD
ENDBRANCH  16  17
ENDBRANCH  15  16
ENDBRANCH  14  15
ENDBRANCH  13  14
ENDBRANCH  12  13
ENDBRANCH  11  12
ENDBRANCH  10  11
ENDBRANCH   1  10
TORSDOF 15
ENDMDL
