MODEL 1
REMARK VINA RESULT:    -4.887      0.000      0.000
REMARK INTER + INTRA:          -8.529
REMARK INTER:                  -7.458
REMARK INTRA:                  -1.071
REMARK UNBOUND:                -1.071
REMARK SMILES CCCCCCCCCCC(=O)[O-]
REMARK SMILES IDX 7 1 8 2 9 3 10 4 11 5 12 6 13 7 6 8 5 9 4 10 3 11 2 12 1 13
REMARK H PARENT
REMARK Flexibility Score: inf
ROOT
ATOM      1  C   UNL     1      44.810  58.299  49.538  1.00  0.00     0.000 C 
ENDROOT
BRANCH   1   2
ATOM      2  C   UNL     1      45.304  57.591  48.266  1.00  0.00     0.000 C 
BRANCH   2   3
ATOM      3  C   UNL     1      44.150  57.082  47.382  1.00  0.00     0.006 C 
BRANCH   3   4
ATOM      4  C   UNL     1      43.799  58.008  46.205  1.00  0.00     0.053 C 
BRANCH   4   5
ATOM      5  C   UNL     1      42.686  57.453  45.371  1.00  0.00     0.041 C 
ATOM      6  O   UNL     1      41.500  57.481  45.795  1.00  0.00    -0.550 OA
ATOM      7  O   UNL     1      42.961  56.879  44.136  1.00  0.00    -0.550 OA
ENDBRANCH   4   5
ENDBRANCH   3   4
ENDBRANCH   2   3
ENDBRANCH   1   2
BRANCH   1   8
ATOM      8  C   UNL     1      45.095  59.812  49.526  1.00  0.00     0.000 C 
BRANCH   8   9
ATOM      9  C   UNL     1      44.056  60.635  48.734  1.00  0.00    -0.000 C 
BRANCH   9  10
ATOM     10  C   UNL     1      42.656  60.569  49.372  1.00  0.00    -0.000 C 
BRANCH  10  11
ATOM     11  C   UNL     1      41.660  59.733  48.547  1.00  0.00    -0.000 C 
BRANCH  11  12
ATOM     12  C   UNL     1      41.217  58.418  49.210  1.00  0.00    -0.003 C 
ATOM     13  C   UNL     1      39.866  57.916  48.701  1.00  0.00     0.004 C 
ENDBRANCH  11  12
ENDBRANCH  10  11
ENDBRANCH   9  10
ENDBRANCH   8   9
ENDBRANCH   1   8
TORSDOF 9
ENDMDL
MODEL 2
REMARK VINA RESULT:    -4.826      2.429      5.005
REMARK INTER + INTRA:          -8.435
REMARK INTER:                  -7.342
REMARK INTRA:                  -1.093
REMARK UNBOUND:                -1.071
REMARK SMILES CCCCCCCCCCC(=O)[O-]
REMARK SMILES IDX 7 1 8 2 9 3 10 4 11 5 12 6 13 7 6 8 5 9 4 10 3 11 2 12 1 13
REMARK H PARENT
REMARK Flexibility Score: inf
ROOT
ATOM      1  C   UNL     1      40.693  56.857  47.550  1.00  0.00     0.000 C 
ENDROOT
BRANCH   1   2
ATOM      2  C   UNL     1      40.305  57.978  48.528  1.00  0.00     0.000 C 
BRANCH   2   3
ATOM      3  C   UNL     1      41.531  58.670  49.155  1.00  0.00     0.006 C 
BRANCH   3   4
ATOM      4  C   UNL     1      41.872  60.035  48.535  1.00  0.00     0.053 C 
BRANCH   4   5
ATOM      5  C   UNL     1      42.973  60.728  49.278  1.00  0.00     0.041 C 
ATOM      6  O   UNL     1      42.709  61.684  50.055  1.00  0.00    -0.550 OA
ATOM      7  O   UNL     1      44.293  60.337  49.092  1.00  0.00    -0.550 OA
ENDBRANCH   4   5
ENDBRANCH   3   4
ENDBRANCH   2   3
ENDBRANCH   1   2
BRANCH   1   8
ATOM      8  C   UNL     1      40.519  57.267  46.077  1.00  0.00     0.000 C 
BRANCH   8   9
ATOM      9  C   UNL     1      41.687  58.112  45.524  1.00  0.00    -0.000 C 
BRANCH   9  10
ATOM     10  C   UNL     1      43.015  57.334  45.520  1.00  0.00    -0.000 C 
BRANCH  10  11
ATOM     11  C   UNL     1      44.049  57.908  46.507  1.00  0.00    -0.000 C 
BRANCH  11  12
ATOM     12  C   UNL     1      44.420  56.971  47.670  1.00  0.00    -0.003 C 
ATOM     13  C   UNL     1      45.750  57.333  48.329  1.00  0.00     0.004 C 
ENDBRANCH  11  12
ENDBRANCH  10  11
ENDBRANCH   9  10
ENDBRANCH   8   9
ENDBRANCH   1   8
TORSDOF 9
ENDMDL
MODEL 3
REMARK VINA RESULT:    -4.785      0.898      2.856
REMARK INTER + INTRA:          -8.373
REMARK INTER:                  -7.362
REMARK INTRA:                  -1.011
REMARK UNBOUND:                -1.071
REMARK SMILES CCCCCCCCCCC(=O)[O-]
REMARK SMILES IDX 7 1 8 2 9 3 10 4 11 5 12 6 13 7 6 8 5 9 4 10 3 11 2 12 1 13
REMARK H PARENT
REMARK Flexibility Score: inf
ROOT
ATOM      1  C   UNL     1      42.061  57.818  49.202  1.00  0.00     0.000 C 
ENDROOT
BRANCH   1   2
ATOM      2  C   UNL     1      42.387  56.753  48.142  1.00  0.00     0.000 C 
BRANCH   2   3
ATOM      3  C   UNL     1      43.750  56.988  47.463  1.00  0.00     0.006 C 
BRANCH   3   4
ATOM      4  C   UNL     1      43.694  57.913  46.236  1.00  0.00     0.053 C 
BRANCH   4   5
ATOM      5  C   UNL     1      42.650  57.478  45.255  1.00  0.00     0.041 C 
ATOM      6  O   UNL     1      42.962  56.738  44.283  1.00  0.00    -0.550 OA
ATOM      7  O   UNL     1      41.338  57.912  45.396  1.00  0.00    -0.550 OA
ENDBRANCH   4   5
ENDBRANCH   3   4
ENDBRANCH   2   3
ENDBRANCH   1   2
BRANCH   1   8
ATOM      8  C   UNL     1      41.099  58.900  48.681  1.00  0.00     0.000 C 
BRANCH   8   9
ATOM      9  C   UNL     1      41.813  60.152  48.125  1.00  0.00    -0.000 C 
BRANCH   9  10
ATOM     10  C   UNL     1      41.955  61.258  49.187  1.00  0.00    -0.000 C 
BRANCH  10  11
ATOM     11  C   UNL     1      43.380  61.360  49.760  1.00  0.00    -0.000 C 
BRANCH  11  12
ATOM     12  C   UNL     1      44.455  60.607  48.956  1.00  0.00    -0.003 C 
ATOM     13  C   UNL     1      45.166  59.527  49.771  1.00  0.00     0.004 C 
ENDBRANCH  11  12
ENDBRANCH  10  11
ENDBRANCH   9  10
ENDBRANCH   8   9
ENDBRANCH   1   8
TORSDOF 9
ENDMDL
MODEL 4
REMARK VINA RESULT:    -4.768      2.386      4.155
REMARK INTER + INTRA:          -8.347
REMARK INTER:                  -7.231
REMARK INTRA:                  -1.115
REMARK UNBOUND:                -1.071
REMARK SMILES CCCCCCCCCCC(=O)[O-]
REMARK SMILES IDX 7 1 8 2 9 3 10 4 11 5 12 6 13 7 6 8 5 9 4 10 3 11 2 12 1 13
REMARK H PARENT
REMARK Flexibility Score: inf
ROOT
ATOM      1  C   UNL     1      41.701  58.076  45.577  1.00  0.00     0.000 C 
ENDROOT
BRANCH   1   2
ATOM      2  C   UNL     1      43.141  57.554  45.447  1.00  0.00     0.000 C 
BRANCH   2   3
ATOM      3  C   UNL     1      44.095  58.170  46.489  1.00  0.00     0.006 C 
BRANCH   3   4
ATOM      4  C   UNL     1      44.470  57.223  47.641  1.00  0.00     0.053 C 
BRANCH   4   5
ATOM      5  C   UNL     1      45.449  57.851  48.584  1.00  0.00     0.041 C 
ATOM      6  O   UNL     1      45.208  58.980  49.090  1.00  0.00    -0.550 OA
ATOM      7  O   UNL     1      46.642  57.204  48.882  1.00  0.00    -0.550 OA
ENDBRANCH   4   5
ENDBRANCH   3   4
ENDBRANCH   2   3
ENDBRANCH   1   2
BRANCH   1   8
ATOM      8  C   UNL     1      40.733  57.020  46.139  1.00  0.00     0.000 C 
BRANCH   8   9
ATOM      9  C   UNL     1      40.824  56.845  47.670  1.00  0.00    -0.000 C 
BRANCH   9  10
ATOM     10  C   UNL     1      40.360  58.103  48.427  1.00  0.00    -0.000 C 
BRANCH  10  11
ATOM     11  C   UNL     1      41.514  58.835  49.138  1.00  0.00    -0.000 C 
BRANCH  11  12
ATOM     12  C   UNL     1      41.860  60.216  48.554  1.00  0.00    -0.003 C 
ATOM     13  C   UNL     1      42.618  61.108  49.536  1.00  0.00     0.004 C 
ENDBRANCH  11  12
ENDBRANCH  10  11
ENDBRANCH   9  10
ENDBRANCH   8   9
ENDBRANCH   1   8
TORSDOF 9
ENDMDL
MODEL 5
REMARK VINA RESULT:    -4.766      1.167      3.701
REMARK INTER + INTRA:          -8.345
REMARK INTER:                  -7.281
REMARK INTRA:                  -1.063
REMARK UNBOUND:                -1.071
REMARK SMILES CCCCCCCCCCC(=O)[O-]
REMARK SMILES IDX 7 1 8 2 9 3 10 4 11 5 12 6 13 7 6 8 5 9 4 10 3 11 2 12 1 13
REMARK H PARENT
REMARK Flexibility Score: inf
ROOT
ATOM      1  C   UNL     1      44.223  60.740  48.815  1.00  0.00     0.000 C 
ENDROOT
BRANCH   1   2
ATOM      2  C   UNL     1      42.813  60.723  49.428  1.00  0.00     0.000 C 
BRANCH   2   3
ATOM      3  C   UNL     1      41.793  59.971  48.552  1.00  0.00     0.006 C 
BRANCH   3   4
ATOM      4  C   UNL     1      41.387  58.592  49.098  1.00  0.00     0.053 C 
BRANCH   4   5
ATOM      5  C   UNL     1      40.350  57.934  48.241  1.00  0.00     0.041 C 
ATOM      6  O   UNL     1      39.211  57.672  48.712  1.00  0.00    -0.550 OA
ATOM      7  O   UNL     1      40.650  57.584  46.931  1.00  0.00    -0.550 OA
ENDBRANCH   4   5
ENDBRANCH   3   4
ENDBRANCH   2   3
ENDBRANCH   1   2
BRANCH   1   8
ATOM      8  C   UNL     1      45.230  59.894  49.615  1.00  0.00     0.000 C 
BRANCH   8   9
ATOM      9  C   UNL     1      44.900  58.386  49.633  1.00  0.00    -0.000 C 
BRANCH   9  10
ATOM     10  C   UNL     1      45.437  57.660  48.386  1.00  0.00    -0.000 C 
BRANCH  10  11
ATOM     11  C   UNL     1      44.319  57.205  47.430  1.00  0.00    -0.000 C 
BRANCH  11  12
ATOM     12  C   UNL     1      44.006  58.189  46.289  1.00  0.00    -0.003 C 
ATOM     13  C   UNL     1      43.601  57.492  44.990  1.00  0.00     0.004 C 
ENDBRANCH  11  12
ENDBRANCH  10  11
ENDBRANCH   9  10
ENDBRANCH   8   9
ENDBRANCH   1   8
TORSDOF 9
ENDMDL
MODEL 6
REMARK VINA RESULT:    -4.686      1.793      3.062
REMARK INTER + INTRA:          -8.222
REMARK INTER:                  -7.224
REMARK INTRA:                  -0.998
REMARK UNBOUND:                -1.071
REMARK SMILES CCCCCCCCCCC(=O)[O-]
REMARK SMILES IDX 7 1 8 2 9 3 10 4 11 5 12 6 13 7 6 8 5 9 4 10 3 11 2 12 1 13
REMARK H PARENT
REMARK Flexibility Score: inf
ROOT
ATOM      1  C   UNL     1      44.067  57.220  47.173  1.00  0.00     0.000 C 
ENDROOT
BRANCH   1   2
ATOM      2  C   UNL     1      43.678  58.269  46.119  1.00  0.00     0.000 C 
BRANCH   2   3
ATOM      3  C   UNL     1      42.194  58.674  46.202  1.00  0.00     0.006 C 
BRANCH   3   4
ATOM      4  C   UNL     1      41.212  57.563  45.796  1.00  0.00     0.053 C 
BRANCH   4   5
ATOM      5  C   UNL     1      40.494  56.991  46.979  1.00  0.00     0.041 C 
ATOM      6  O   UNL     1      39.981  55.842  46.915  1.00  0.00    -0.550 OA
ATOM      7  O   UNL     1      40.366  57.737  48.144  1.00  0.00    -0.550 OA
ENDBRANCH   4   5
ENDBRANCH   3   4
ENDBRANCH   2   3
ENDBRANCH   1   2
BRANCH   1   8
ATOM      8  C   UNL     1      43.956  57.753  48.613  1.00  0.00     0.000 C 
BRANCH   8   9
ATOM      9  C   UNL     1      45.295  58.258  49.193  1.00  0.00    -0.000 C 
BRANCH   9  10
ATOM     10  C   UNL     1      45.152  59.637  49.864  1.00  0.00    -0.000 C 
BRANCH  10  11
ATOM     11  C   UNL     1      44.387  60.651  48.993  1.00  0.00    -0.000 C 
BRANCH  11  12
ATOM     12  C   UNL     1      43.135  61.254  49.653  1.00  0.00    -0.003 C 
ATOM     13  C   UNL     1      41.848  60.948  48.886  1.00  0.00     0.004 C 
ENDBRANCH  11  12
ENDBRANCH  10  11
ENDBRANCH   9  10
ENDBRANCH   8   9
ENDBRANCH   1   8
TORSDOF 9
ENDMDL
MODEL 7
REMARK VINA RESULT:    -4.677      2.128      3.868
REMARK INTER + INTRA:          -8.209
REMARK INTER:                  -7.350
REMARK INTRA:                  -0.859
REMARK UNBOUND:                -1.071
REMARK SMILES CCCCCCCCCCC(=O)[O-]
REMARK SMILES IDX 7 1 8 2 9 3 10 4 11 5 12 6 13 7 6 8 5 9 4 10 3 11 2 12 1 13
REMARK H PARENT
REMARK Flexibility Score: inf
ROOT
ATOM      1  C   UNL     1      44.224  56.953  47.413  1.00  0.00     0.000 C 
ENDROOT
BRANCH   1   2
ATOM      2  C   UNL     1      45.239  57.658  48.327  1.00  0.00     0.000 C 
BRANCH   2   3
ATOM      3  C   UNL     1      44.569  58.404  49.497  1.00  0.00     0.006 C 
BRANCH   3   4
ATOM      4  C   UNL     1      44.763  59.929  49.469  1.00  0.00     0.053 C 
BRANCH   4   5
ATOM      5  C   UNL     1      43.493  60.648  49.133  1.00  0.00     0.041 C 
ATOM      6  O   UNL     1      42.949  61.404  49.982  1.00  0.00    -0.550 OA
ATOM      7  O   UNL     1      42.893  60.462  47.894  1.00  0.00    -0.550 OA
ENDBRANCH   4   5
ENDBRANCH   3   4
ENDBRANCH   2   3
ENDBRANCH   1   2
BRANCH   1   8
ATOM      8  C   UNL     1      43.809  57.815  46.208  1.00  0.00     0.000 C 
BRANCH   8   9
ATOM      9  C   UNL     1      42.598  57.256  45.430  1.00  0.00    -0.000 C 
BRANCH   9  10
ATOM     10  C   UNL     1      41.267  57.858  45.917  1.00  0.00    -0.000 C 
BRANCH  10  11
ATOM     11  C   UNL     1      40.510  56.932  46.888  1.00  0.00    -0.000 C 
BRANCH  11  12
ATOM     12  C   UNL     1      39.898  57.639  48.109  1.00  0.00    -0.003 C 
ATOM     13  C   UNL     1      40.936  58.010  49.168  1.00  0.00     0.004 C 
ENDBRANCH  11  12
ENDBRANCH  10  11
ENDBRANCH   9  10
ENDBRANCH   8   9
ENDBRANCH   1   8
TORSDOF 9
ENDMDL
MODEL 8
REMARK VINA RESULT:    -4.612      2.534      4.678
REMARK INTER + INTRA:          -8.109
REMARK INTER:                  -7.164
REMARK INTRA:                  -0.946
REMARK UNBOUND:                -1.071
REMARK SMILES CCCCCCCCCCC(=O)[O-]
REMARK SMILES IDX 7 1 8 2 9 3 10 4 11 5 12 6 13 7 6 8 5 9 4 10 3 11 2 12 1 13
REMARK H PARENT
REMARK Flexibility Score: inf
ROOT
ATOM      1  C   UNL     1      41.247  59.247  48.756  1.00  0.00     0.000 C 
ENDROOT
BRANCH   1   2
ATOM      2  C   UNL     1      42.344  60.236  48.329  1.00  0.00     0.000 C 
BRANCH   2   3
ATOM      3  C   UNL     1      43.299  60.599  49.483  1.00  0.00     0.006 C 
BRANCH   3   4
ATOM      4  C   UNL     1      44.787  60.381  49.164  1.00  0.00     0.053 C 
BRANCH   4   5
ATOM      5  C   UNL     1      45.258  59.025  49.593  1.00  0.00     0.041 C 
ATOM      6  O   UNL     1      45.291  58.074  48.768  1.00  0.00    -0.550 OA
ATOM      7  O   UNL     1      45.634  58.804  50.913  1.00  0.00    -0.550 OA
ENDBRANCH   4   5
ENDBRANCH   3   4
ENDBRANCH   2   3
ENDBRANCH   1   2
BRANCH   1   8
ATOM      8  C   UNL     1      41.800  57.851  49.089  1.00  0.00     0.000 C 
BRANCH   8   9
ATOM      9  C   UNL     1      41.746  56.862  47.905  1.00  0.00    -0.000 C 
BRANCH   9  10
ATOM     10  C   UNL     1      40.711  57.281  46.845  1.00  0.00    -0.000 C 
BRANCH  10  11
ATOM     11  C   UNL     1      41.355  57.698  45.510  1.00  0.00    -0.000 C 
BRANCH  11  12
ATOM     12  C   UNL     1      42.803  57.215  45.313  1.00  0.00    -0.003 C 
ATOM     13  C   UNL     1      43.840  58.301  45.593  1.00  0.00     0.004 C 
ENDBRANCH  11  12
ENDBRANCH  10  11
ENDBRANCH   9  10
ENDBRANCH   8   9
ENDBRANCH   1   8
TORSDOF 9
ENDMDL
MODEL 9
REMARK VINA RESULT:    -4.568      1.105      3.282
REMARK INTER + INTRA:          -8.043
REMARK INTER:                  -6.923
REMARK INTRA:                  -1.120
REMARK UNBOUND:                -1.071
REMARK SMILES CCCCCCCCCCC(=O)[O-]
REMARK SMILES IDX 7 1 8 2 9 3 10 4 11 5 12 6 13 7 6 8 5 9 4 10 3 11 2 12 1 13
REMARK H PARENT
REMARK Flexibility Score: inf
ROOT
ATOM      1  C   UNL     1      41.502  58.236  49.382  1.00  0.00     0.000 C 
ENDROOT
BRANCH   1   2
ATOM      2  C   UNL     1      40.056  57.989  48.921  1.00  0.00     0.000 C 
BRANCH   2   3
ATOM      3  C   UNL     1      39.980  57.242  47.576  1.00  0.00     0.006 C 
BRANCH   3   4
ATOM      4  C   UNL     1      41.340  56.759  47.043  1.00  0.00     0.053 C 
BRANCH   4   5
ATOM      5  C   UNL     1      41.649  57.335  45.696  1.00  0.00     0.041 C 
ATOM      6  O   UNL     1      40.756  57.941  45.045  1.00  0.00    -0.550 OA
ATOM      7  O   UNL     1      42.914  57.178  45.145  1.00  0.00    -0.550 OA
ENDBRANCH   4   5
ENDBRANCH   3   4
ENDBRANCH   2   3
ENDBRANCH   1   2
BRANCH   1   8
ATOM      8  C   UNL     1      41.909  59.718  49.296  1.00  0.00     0.000 C 
BRANCH   8   9
ATOM      9  C   UNL     1      42.330  60.166  47.879  1.00  0.00    -0.000 C 
BRANCH   9  10
ATOM     10  C   UNL     1      43.798  59.818  47.573  1.00  0.00    -0.000 C 
BRANCH  10  11
ATOM     11  C   UNL     1      44.668  59.721  48.840  1.00  0.00    -0.000 C 
BRANCH  11  12
ATOM     12  C   UNL     1      45.304  58.342  49.083  1.00  0.00    -0.003 C 
ATOM     13  C   UNL     1      44.922  57.311  48.021  1.00  0.00     0.004 C 
ENDBRANCH  11  12
ENDBRANCH  10  11
ENDBRANCH   9  10
ENDBRANCH   8   9
ENDBRANCH   1   8
TORSDOF 9
ENDMDL
