MODEL 1
REMARK VINA RESULT:    -3.628      0.000      0.000
REMARK INTER + INTRA:          -3.860
REMARK INTER:                  -3.840
REMARK INTRA:                  -0.020
REMARK UNBOUND:                -0.020
REMARK SMILES O=C([O-])c1cccnc1
REMARK SMILES IDX 4 1 5 2 9 3 6 4 8 5 7 6 2 7 1 8 3 9
REMARK H PARENT
REMARK Flexibility Score: inf
ROOT
ATOM      1  C   UNL     1      -5.114  -3.282  -9.616  1.00  0.00     0.016 A 
ATOM      2  C   UNL     1      -6.508  -3.450  -9.653  1.00  0.00     0.013 A 
ATOM      3  C   UNL     1      -4.594  -1.982  -9.739  1.00  0.00     0.120 A 
ATOM      4  C   UNL     1      -7.344  -2.343  -9.808  1.00  0.00     0.021 A 
ATOM      5  N   UNL     1      -5.431  -0.920  -9.889  1.00  0.00    -0.264 NA
ATOM      6  C   UNL     1      -6.780  -1.072  -9.927  1.00  0.00     0.111 A 
ENDROOT
BRANCH   1   7
ATOM      7  C   UNL     1      -4.219  -4.448  -9.452  1.00  0.00     0.073 C 
ATOM      8  O   UNL     1      -3.210  -4.379  -8.703  1.00  0.00    -0.545 OA
ATOM      9  O   UNL     1      -4.480  -5.636 -10.125  1.00  0.00    -0.545 OA
ENDBRANCH   1   7
TORSDOF 1
ENDMDL
MODEL 2
REMARK VINA RESULT:    -3.297      8.909      9.740
REMARK INTER + INTRA:          -3.510
REMARK INTER:                  -3.494
REMARK INTRA:                  -0.016
REMARK UNBOUND:                -0.020
REMARK SMILES O=C([O-])c1cccnc1
REMARK SMILES IDX 4 1 5 2 9 3 6 4 8 5 7 6 2 7 1 8 3 9
REMARK H PARENT
REMARK Flexibility Score: inf
ROOT
ATOM      1  C   UNL     1      -4.564  -9.783  -2.767  1.00  0.00     0.016 A 
ATOM      2  C   UNL     1      -5.482 -10.843  -2.680  1.00  0.00     0.013 A 
ATOM      3  C   UNL     1      -5.054  -8.497  -3.054  1.00  0.00     0.120 A 
ATOM      4  C   UNL     1      -6.844 -10.609  -2.875  1.00  0.00     0.021 A 
ATOM      5  N   UNL     1      -6.385  -8.296  -3.240  1.00  0.00    -0.264 NA
ATOM      6  C   UNL     1      -7.281  -9.314  -3.158  1.00  0.00     0.111 A 
ENDROOT
BRANCH   1   7
ATOM      7  C   UNL     1      -3.118 -10.020  -2.562  1.00  0.00     0.073 C 
ATOM      8  O   UNL     1      -2.386 -10.377  -3.522  1.00  0.00    -0.545 OA
ATOM      9  O   UNL     1      -2.549  -9.853  -1.305  1.00  0.00    -0.545 OA
ENDBRANCH   1   7
TORSDOF 1
ENDMDL
MODEL 3
REMARK VINA RESULT:    -3.222     15.910     16.850
REMARK INTER + INTRA:          -3.430
REMARK INTER:                  -3.406
REMARK INTRA:                  -0.024
REMARK UNBOUND:                -0.020
REMARK SMILES O=C([O-])c1cccnc1
REMARK SMILES IDX 4 1 5 2 9 3 6 4 8 5 7 6 2 7 1 8 3 9
REMARK H PARENT
REMARK Flexibility Score: inf
ROOT
ATOM      1  C   UNL     1       5.710   8.322  -3.821  1.00  0.00     0.016 A 
ATOM      2  C   UNL     1       6.079   7.724  -5.038  1.00  0.00     0.013 A 
ATOM      3  C   UNL     1       4.429   8.892  -3.718  1.00  0.00     0.120 A 
ATOM      4  C   UNL     1       5.183   7.704  -6.108  1.00  0.00     0.021 A 
ATOM      5  N   UNL     1       3.576   8.860  -4.777  1.00  0.00    -0.264 NA
ATOM      6  C   UNL     1       3.923   8.284  -5.958  1.00  0.00     0.111 A 
ENDROOT
BRANCH   1   7
ATOM      7  C   UNL     1       6.650   8.348  -2.680  1.00  0.00     0.073 C 
ATOM      8  O   UNL     1       7.709   7.668  -2.708  1.00  0.00    -0.545 OA
ATOM      9  O   UNL     1       6.377   9.125  -1.560  1.00  0.00    -0.545 OA
ENDBRANCH   1   7
TORSDOF 1
ENDMDL
MODEL 4
REMARK VINA RESULT:    -3.090     10.387     11.186
REMARK INTER + INTRA:          -3.291
REMARK INTER:                  -3.275
REMARK INTRA:                  -0.016
REMARK UNBOUND:                -0.020
REMARK SMILES O=C([O-])c1cccnc1
REMARK SMILES IDX 4 1 5 2 9 3 6 4 8 5 7 6 2 7 1 8 3 9
REMARK H PARENT
REMARK Flexibility Score: inf
ROOT
ATOM      1  C   UNL     1      -5.692  -8.899  -0.967  1.00  0.00     0.016 A 
ATOM      2  C   UNL     1      -4.985  -9.035   0.239  1.00  0.00     0.013 A 
ATOM      3  C   UNL     1      -7.024  -9.347  -1.015  1.00  0.00     0.120 A 
ATOM      4  C   UNL     1      -5.604  -9.603   1.354  1.00  0.00     0.021 A 
ATOM      5  N   UNL     1      -7.603  -9.897   0.086  1.00  0.00    -0.264 NA
ATOM      6  C   UNL     1      -6.927 -10.033   1.257  1.00  0.00     0.111 A 
ENDROOT
BRANCH   1   7
ATOM      7  C   UNL     1      -5.047  -8.299  -2.155  1.00  0.00     0.073 C 
ATOM      8  O   UNL     1      -5.028  -7.049  -2.309  1.00  0.00    -0.545 OA
ATOM      9  O   UNL     1      -4.453  -9.107  -3.117  1.00  0.00    -0.545 OA
ENDBRANCH   1   7
TORSDOF 1
ENDMDL
MODEL 5
REMARK VINA RESULT:    -3.070     18.313     19.237
REMARK INTER + INTRA:          -3.270
REMARK INTER:                  -3.254
REMARK INTRA:                  -0.016
REMARK UNBOUND:                -0.020
REMARK SMILES O=C([O-])c1cccnc1
REMARK SMILES IDX 4 1 5 2 9 3 6 4 8 5 7 6 2 7 1 8 3 9
REMARK H PARENT
REMARK Flexibility Score: inf
ROOT
ATOM      1  C   UNL     1       0.063  -8.945   7.935  1.00  0.00     0.016 A 
ATOM      2  C   UNL     1      -0.886  -9.972   8.070  1.00  0.00     0.013 A 
ATOM      3  C   UNL     1       0.199  -8.322   6.683  1.00  0.00     0.120 A 
ATOM      4  C   UNL     1      -1.667 -10.352   6.978  1.00  0.00     0.021 A 
ATOM      5  N   UNL     1      -0.574  -8.712   5.634  1.00  0.00    -0.264 NA
ATOM      6  C   UNL     1      -1.494  -9.704   5.754  1.00  0.00     0.111 A 
ENDROOT
BRANCH   1   7
ATOM      7  C   UNL     1       0.896  -8.533   9.086  1.00  0.00     0.073 C 
ATOM      8  O   UNL     1       1.915  -9.199   9.409  1.00  0.00    -0.545 OA
ATOM      9  O   UNL     1       0.564  -7.405   9.828  1.00  0.00    -0.545 OA
ENDBRANCH   1   7
TORSDOF 1
ENDMDL
MODEL 6
REMARK VINA RESULT:    -3.062     16.569     17.493
REMARK INTER + INTRA:          -3.261
REMARK INTER:                  -3.244
REMARK INTRA:                  -0.018
REMARK UNBOUND:                -0.020
REMARK SMILES O=C([O-])c1cccnc1
REMARK SMILES IDX 4 1 5 2 9 3 6 4 8 5 7 6 2 7 1 8 3 9
REMARK H PARENT
REMARK Flexibility Score: inf
ROOT
ATOM      1  C   UNL     1      -2.327  -8.156   6.256  1.00  0.00     0.016 A 
ATOM      2  C   UNL     1      -2.377  -9.447   6.808  1.00  0.00     0.013 A 
ATOM      3  C   UNL     1      -1.072  -7.626   5.909  1.00  0.00     0.120 A 
ATOM      4  C   UNL     1      -1.201 -10.173   7.001  1.00  0.00     0.021 A 
ATOM      5  N   UNL     1       0.059  -8.355   6.107  1.00  0.00    -0.264 NA
ATOM      6  C   UNL     1       0.021  -9.604   6.641  1.00  0.00     0.111 A 
ENDROOT
BRANCH   1   7
ATOM      7  C   UNL     1      -3.567  -7.378   6.047  1.00  0.00     0.073 C 
ATOM      8  O   UNL     1      -3.902  -7.005   4.892  1.00  0.00    -0.545 OA
ATOM      9  O   UNL     1      -4.380  -7.046   7.125  1.00  0.00    -0.545 OA
ENDBRANCH   1   7
TORSDOF 1
ENDMDL
MODEL 7
REMARK VINA RESULT:    -3.017     16.383     17.371
REMARK INTER + INTRA:          -3.214
REMARK INTER:                  -3.194
REMARK INTRA:                  -0.020
REMARK UNBOUND:                -0.020
REMARK SMILES O=C([O-])c1cccnc1
REMARK SMILES IDX 4 1 5 2 9 3 6 4 8 5 7 6 2 7 1 8 3 9
REMARK H PARENT
REMARK Flexibility Score: inf
ROOT
ATOM      1  C   UNL     1      -1.993  -9.986   5.279  1.00  0.00     0.016 A 
ATOM      2  C   UNL     1      -0.661  -9.597   5.062  1.00  0.00     0.013 A 
ATOM      3  C   UNL     1      -2.377 -10.360   6.579  1.00  0.00     0.120 A 
ATOM      4  C   UNL     1       0.247  -9.585   6.122  1.00  0.00     0.021 A 
ATOM      5  N   UNL     1      -1.472 -10.340   7.594  1.00  0.00    -0.264 NA
ATOM      6  C   UNL     1      -0.181  -9.965   7.395  1.00  0.00     0.111 A 
ENDROOT
BRANCH   1   7
ATOM      7  C   UNL     1      -2.964 -10.002   4.164  1.00  0.00     0.073 C 
ATOM      8  O   UNL     1      -4.152  -9.625   4.345  1.00  0.00    -0.545 OA
ATOM      9  O   UNL     1      -2.578 -10.434   2.900  1.00  0.00    -0.545 OA
ENDBRANCH   1   7
TORSDOF 1
ENDMDL
MODEL 8
REMARK VINA RESULT:    -2.665      1.218      1.824
REMARK INTER + INTRA:          -2.841
REMARK INTER:                  -2.823
REMARK INTRA:                  -0.018
REMARK UNBOUND:                -0.020
REMARK SMILES O=C([O-])c1cccnc1
REMARK SMILES IDX 4 1 5 2 9 3 6 4 8 5 7 6 2 7 1 8 3 9
REMARK H PARENT
REMARK Flexibility Score: inf
ROOT
ATOM      1  C   UNL     1      -5.763  -4.100  -9.406  1.00  0.00     0.016 A 
ATOM      2  C   UNL     1      -6.936  -4.786  -9.049  1.00  0.00     0.013 A 
ATOM      3  C   UNL     1      -5.864  -2.743  -9.760  1.00  0.00     0.120 A 
ATOM      4  C   UNL     1      -8.164  -4.122  -9.051  1.00  0.00     0.021 A 
ATOM      5  N   UNL     1      -7.072  -2.120  -9.753  1.00  0.00    -0.264 NA
ATOM      6  C   UNL     1      -8.213  -2.774  -9.410  1.00  0.00     0.111 A 
ENDROOT
BRANCH   1   7
ATOM      7  C   UNL     1      -4.457  -4.793  -9.408  1.00  0.00     0.073 C 
ATOM      8  O   UNL     1      -4.275  -5.813 -10.125  1.00  0.00    -0.545 OA
ATOM      9  O   UNL     1      -3.412  -4.329  -8.617  1.00  0.00    -0.545 OA
ENDBRANCH   1   7
TORSDOF 1
ENDMDL
