MODEL 1
REMARK VINA RESULT:    -4.197      0.000      0.000
REMARK INTER + INTRA:          -5.332
REMARK INTER:                  -5.055
REMARK INTRA:                  -0.277
REMARK UNBOUND:                -0.277
REMARK SMILES O=c1c(O)c(-c2ccc(O)c(O)c2)oc2cc(O)cc(O)c12
REMARK SMILES IDX 5 1 3 2 2 3 1 4 22 5 20 6 19 7 17 8 16 9 15 10 14 11 6 12
REMARK SMILES IDX 7 13 8 14 9 15 13 16 11 17 10 18 12 20 4 22 21 24 18 26
REMARK H PARENT 10 19 12 21 4 23 21 25 18 27
REMARK Flexibility Score: inf
ROOT
ATOM      1  C   UNL     1      20.995  33.851  40.192  1.00  0.00     0.180 A 
ATOM      2  C   UNL     1      21.192  33.481  38.851  1.00  0.00     0.208 A 
ATOM      3  C   UNL     1      20.131  32.896  38.143  1.00  0.00     0.238 A 
ATOM      4  O   UNL     1      20.330  32.517  36.959  1.00  0.00    -0.285 OA
ATOM      5  C   UNL     1      18.881  32.702  38.779  1.00  0.00     0.111 A 
ATOM      6  C   UNL     1      17.725  32.154  38.145  1.00  0.00     0.134 A 
ATOM      7  C   UNL     1      16.581  31.888  38.907  1.00  0.00     0.093 A 
ATOM      8  C   UNL     1      16.529  32.209  40.265  1.00  0.00     0.123 A 
ATOM      9  C   UNL     1      17.632  32.798  40.880  1.00  0.00     0.094 A 
ATOM     10  C   UNL     1      18.801  33.043  40.154  1.00  0.00     0.146 A 
ATOM     11  O   UNL     1      19.832  33.596  40.780  1.00  0.00    -0.452 OA
ENDROOT
BRANCH   1  12
ATOM     12  C   UNL     1      22.058  34.495  40.997  1.00  0.00     0.025 A 
ATOM     13  C   UNL     1      22.815  33.764  41.930  1.00  0.00     0.016 A 
ATOM     14  C   UNL     1      23.830  34.386  42.661  1.00  0.00     0.051 A 
ATOM     15  C   UNL     1      24.112  35.744  42.461  1.00  0.00     0.157 A 
ATOM     16  C   UNL     1      22.360  35.850  40.787  1.00  0.00     0.062 A 
ATOM     17  C   UNL     1      23.378  36.477  41.521  1.00  0.00     0.158 A 
BRANCH  15  18
ATOM     18  O   UNL     1      25.123  36.369  43.190  1.00  0.00    -0.504 OA
ATOM     19  H   UNL     1      26.012  35.915  43.360  1.00  0.00     0.293 HD
ENDBRANCH  15  18
BRANCH  17  20
ATOM     20  O   UNL     1      23.666  37.825  41.320  1.00  0.00    -0.504 OA
ATOM     21  H   UNL     1      23.763  38.214  40.389  1.00  0.00     0.293 HD
ENDBRANCH  17  20
ENDBRANCH   1  12
BRANCH   2  22
ATOM     22  O   UNL     1      22.441  33.661  38.249  1.00  0.00    -0.502 OA
ATOM     23  H   UNL     1      23.110  32.907  38.147  1.00  0.00     0.293 HD
ENDBRANCH   2  22
BRANCH   6  24
ATOM     24  O   UNL     1      17.641  31.884  36.776  1.00  0.00    -0.507 OA
ATOM     25  H   UNL     1      17.657  30.961  36.370  1.00  0.00     0.293 HD
ENDBRANCH   6  24
BRANCH   8  26
ATOM     26  O   UNL     1      15.382  31.954  41.013  1.00  0.00    -0.508 OA
ATOM     27  H   UNL     1      14.496  31.740  40.569  1.00  0.00     0.293 HD
ENDBRANCH   8  26
TORSDOF 6
ENDMDL
MODEL 2
REMARK VINA RESULT:    -4.159      1.403      1.916
REMARK INTER + INTRA:          -5.286
REMARK INTER:                  -5.010
REMARK INTRA:                  -0.277
REMARK UNBOUND:                -0.277
REMARK SMILES O=c1c(O)c(-c2ccc(O)c(O)c2)oc2cc(O)cc(O)c12
REMARK SMILES IDX 5 1 3 2 2 3 1 4 22 5 20 6 19 7 17 8 16 9 15 10 14 11 6 12
REMARK SMILES IDX 7 13 8 14 9 15 13 16 11 17 10 18 12 20 4 22 21 24 18 26
REMARK H PARENT 10 19 12 21 4 23 21 25 18 27
REMARK Flexibility Score: inf
ROOT
ATOM      1  C   UNL     1      21.356  33.585  40.704  1.00  0.00     0.180 A 
ATOM      2  C   UNL     1      21.694  33.513  39.341  1.00  0.00     0.208 A 
ATOM      3  C   UNL     1      20.702  33.169  38.410  1.00  0.00     0.238 A 
ATOM      4  O   UNL     1      21.023  33.053  37.199  1.00  0.00    -0.285 OA
ATOM      5  C   UNL     1      19.380  32.918  38.850  1.00  0.00     0.111 A 
ATOM      6  C   UNL     1      18.286  32.601  37.990  1.00  0.00     0.134 A 
ATOM      7  C   UNL     1      17.051  32.244  38.546  1.00  0.00     0.093 A 
ATOM      8  C   UNL     1      16.853  32.256  39.929  1.00  0.00     0.123 A 
ATOM      9  C   UNL     1      17.899  32.621  40.774  1.00  0.00     0.094 A 
ATOM     10  C   UNL     1      19.153  32.947  40.251  1.00  0.00     0.146 A 
ATOM     11  O   UNL     1      20.124  33.279  41.092  1.00  0.00    -0.452 OA
ENDROOT
BRANCH   1  12
ATOM     12  C   UNL     1      22.342  33.964  41.742  1.00  0.00     0.025 A 
ATOM     13  C   UNL     1      22.333  35.243  42.327  1.00  0.00     0.016 A 
ATOM     14  C   UNL     1      23.257  35.572  43.322  1.00  0.00     0.051 A 
ATOM     15  C   UNL     1      24.193  34.624  43.757  1.00  0.00     0.157 A 
ATOM     16  C   UNL     1      23.269  33.013  42.197  1.00  0.00     0.062 A 
ATOM     17  C   UNL     1      24.197  33.341  43.195  1.00  0.00     0.158 A 
BRANCH  15  18
ATOM     18  O   UNL     1      25.117  34.948  44.749  1.00  0.00    -0.504 OA
ATOM     19  H   UNL     1      25.623  35.825  44.735  1.00  0.00     0.293 HD
ENDBRANCH  15  18
BRANCH  17  20
ATOM     20  O   UNL     1      25.125  32.399  43.635  1.00  0.00    -0.504 OA
ATOM     21  H   UNL     1      24.869  31.665  44.285  1.00  0.00     0.293 HD
ENDBRANCH  17  20
ENDBRANCH   1  12
BRANCH   2  22
ATOM     22  O   UNL     1      23.011  33.743  38.931  1.00  0.00    -0.502 OA
ATOM     23  H   UNL     1      23.628  32.996  38.636  1.00  0.00     0.293 HD
ENDBRANCH   2  22
BRANCH   6  24
ATOM     24  O   UNL     1      18.351  32.650  36.594  1.00  0.00    -0.507 OA
ATOM     25  H   UNL     1      17.964  33.387  36.026  1.00  0.00     0.293 HD
ENDBRANCH   6  24
BRANCH   8  26
ATOM     26  O   UNL     1      15.617  31.914  40.474  1.00  0.00    -0.508 OA
ATOM     27  H   UNL     1      15.421  32.036  41.461  1.00  0.00     0.293 HD
ENDBRANCH   8  26
TORSDOF 6
ENDMDL
MODEL 3
REMARK VINA RESULT:    -4.018      1.870      7.258
REMARK INTER + INTRA:          -5.117
REMARK INTER:                  -4.839
REMARK INTRA:                  -0.277
REMARK UNBOUND:                -0.277
REMARK SMILES O=c1c(O)c(-c2ccc(O)c(O)c2)oc2cc(O)cc(O)c12
REMARK SMILES IDX 5 1 3 2 2 3 1 4 22 5 20 6 19 7 17 8 16 9 15 10 14 11 6 12
REMARK SMILES IDX 7 13 8 14 9 15 13 16 11 17 10 18 12 20 4 22 21 24 18 26
REMARK H PARENT 10 19 12 21 4 23 21 25 18 27
REMARK Flexibility Score: inf
ROOT
ATOM      1  C   UNL     1      22.129  34.173  40.319  1.00  0.00     0.180 A 
ATOM      2  C   UNL     1      22.637  33.228  41.228  1.00  0.00     0.208 A 
ATOM      3  C   UNL     1      23.498  33.660  42.248  1.00  0.00     0.238 A 
ATOM      4  O   UNL     1      23.992  32.801  43.026  1.00  0.00    -0.285 OA
ATOM      5  C   UNL     1      23.828  35.032  42.359  1.00  0.00     0.111 A 
ATOM      6  C   UNL     1      24.660  35.586  43.378  1.00  0.00     0.134 A 
ATOM      7  C   UNL     1      25.024  36.936  43.313  1.00  0.00     0.093 A 
ATOM      8  C   UNL     1      24.535  37.767  42.302  1.00  0.00     0.123 A 
ATOM      9  C   UNL     1      23.676  37.249  41.336  1.00  0.00     0.094 A 
ATOM     10  C   UNL     1      23.323  35.897  41.353  1.00  0.00     0.146 A 
ATOM     11  O   UNL     1      22.510  35.442  40.408  1.00  0.00    -0.452 OA
ENDROOT
BRANCH   1  12
ATOM     12  C   UNL     1      21.197  33.799  39.230  1.00  0.00     0.025 A 
ATOM     13  C   UNL     1      21.643  33.647  37.905  1.00  0.00     0.016 A 
ATOM     14  C   UNL     1      20.751  33.269  36.898  1.00  0.00     0.051 A 
ATOM     15  C   UNL     1      19.406  33.024  37.202  1.00  0.00     0.157 A 
ATOM     16  C   UNL     1      19.852  33.532  39.532  1.00  0.00     0.062 A 
ATOM     17  C   UNL     1      18.956  33.153  38.522  1.00  0.00     0.158 A 
BRANCH  15  18
ATOM     18  O   UNL     1      18.512  32.649  36.200  1.00  0.00    -0.504 OA
ATOM     19  H   UNL     1      18.795  32.045  35.438  1.00  0.00     0.293 HD
ENDBRANCH  15  18
BRANCH  17  20
ATOM     20  O   UNL     1      17.618  32.902  38.823  1.00  0.00    -0.504 OA
ATOM     21  H   UNL     1      17.271  32.949  39.774  1.00  0.00     0.293 HD
ENDBRANCH  17  20
ENDBRANCH   1  12
BRANCH   2  22
ATOM     22  O   UNL     1      22.315  31.875  41.087  1.00  0.00    -0.502 OA
ATOM     23  H   UNL     1      21.537  31.557  40.523  1.00  0.00     0.293 HD
ENDBRANCH   2  22
BRANCH   6  24
ATOM     24  O   UNL     1      25.125  34.866  44.482  1.00  0.00    -0.507 OA
ATOM     25  H   UNL     1      26.046  34.959  44.883  1.00  0.00     0.293 HD
ENDBRANCH   6  24
BRANCH   8  26
ATOM     26  O   UNL     1      24.891  39.113  42.253  1.00  0.00    -0.508 OA
ATOM     27  H   UNL     1      24.193  39.848  42.295  1.00  0.00     0.293 HD
ENDBRANCH   8  26
TORSDOF 6
ENDMDL
MODEL 4
REMARK VINA RESULT:    -3.584      1.543      6.942
REMARK INTER + INTRA:          -4.594
REMARK INTER:                  -4.429
REMARK INTRA:                  -0.165
REMARK UNBOUND:                -0.277
REMARK SMILES O=c1c(O)c(-c2ccc(O)c(O)c2)oc2cc(O)cc(O)c12
REMARK SMILES IDX 5 1 3 2 2 3 1 4 22 5 20 6 19 7 17 8 16 9 15 10 14 11 6 12
REMARK SMILES IDX 7 13 8 14 9 15 13 16 11 17 10 18 12 20 4 22 21 24 18 26
REMARK H PARENT 10 19 12 21 4 23 21 25 18 27
REMARK Flexibility Score: inf
ROOT
ATOM      1  C   UNL     1      21.231  34.399  40.081  1.00  0.00     0.180 A 
ATOM      2  C   UNL     1      21.599  35.729  39.815  1.00  0.00     0.208 A 
ATOM      3  C   UNL     1      22.660  36.299  40.535  1.00  0.00     0.238 A 
ATOM      4  O   UNL     1      22.950  37.507  40.331  1.00  0.00    -0.285 OA
ATOM      5  C   UNL     1      23.352  35.527  41.501  1.00  0.00     0.111 A 
ATOM      6  C   UNL     1      24.468  35.990  42.261  1.00  0.00     0.134 A 
ATOM      7  C   UNL     1      24.991  35.185  43.280  1.00  0.00     0.093 A 
ATOM      8  C   UNL     1      24.479  33.908  43.523  1.00  0.00     0.123 A 
ATOM      9  C   UNL     1      23.429  33.424  42.747  1.00  0.00     0.094 A 
ATOM     10  C   UNL     1      22.862  34.218  41.747  1.00  0.00     0.146 A 
ATOM     11  O   UNL     1      21.855  33.723  41.038  1.00  0.00    -0.452 OA
ENDROOT
BRANCH   1  12
ATOM     12  C   UNL     1      20.139  33.721  39.345  1.00  0.00     0.025 A 
ATOM     13  C   UNL     1      18.946  33.345  39.990  1.00  0.00     0.016 A 
ATOM     14  C   UNL     1      17.919  32.729  39.272  1.00  0.00     0.051 A 
ATOM     15  C   UNL     1      18.061  32.492  37.899  1.00  0.00     0.157 A 
ATOM     16  C   UNL     1      20.267  33.499  37.965  1.00  0.00     0.062 A 
ATOM     17  C   UNL     1      19.236  32.880  37.243  1.00  0.00     0.158 A 
BRANCH  15  18
ATOM     18  O   UNL     1      17.039  31.876  37.178  1.00  0.00    -0.504 OA
ATOM     19  H   UNL     1      16.065  32.009  37.422  1.00  0.00     0.293 HD
ENDBRANCH  15  18
BRANCH  17  20
ATOM     20  O   UNL     1      19.372  32.649  35.875  1.00  0.00    -0.504 OA
ATOM     21  H   UNL     1      19.513  31.716  35.507  1.00  0.00     0.293 HD
ENDBRANCH  17  20
ENDBRANCH   1  12
BRANCH   2  22
ATOM     22  O   UNL     1      20.889  36.480  38.873  1.00  0.00    -0.502 OA
ATOM     23  H   UNL     1      21.037  37.473  38.746  1.00  0.00     0.293 HD
ENDBRANCH   2  22
BRANCH   6  24
ATOM     24  O   UNL     1      25.112  37.210  42.036  1.00  0.00    -0.507 OA
ATOM     25  H   UNL     1      25.876  37.347  41.392  1.00  0.00     0.293 HD
ENDBRANCH   6  24
BRANCH   8  26
ATOM     26  O   UNL     1      25.015  33.107  44.529  1.00  0.00    -0.508 OA
ATOM     27  H   UNL     1      24.873  32.103  44.540  1.00  0.00     0.293 HD
ENDBRANCH   8  26
TORSDOF 6
ENDMDL
MODEL 5
REMARK VINA RESULT:    -2.413      1.357      6.678
REMARK INTER + INTRA:          -3.184
REMARK INTER:                  -3.643
REMARK INTRA:                   0.460
REMARK UNBOUND:                -0.277
REMARK SMILES O=c1c(O)c(-c2ccc(O)c(O)c2)oc2cc(O)cc(O)c12
REMARK SMILES IDX 5 1 3 2 2 3 1 4 22 5 20 6 19 7 17 8 16 9 15 10 14 11 6 12
REMARK SMILES IDX 7 13 8 14 9 15 13 16 11 17 10 18 12 20 4 22 21 24 18 26
REMARK H PARENT 10 19 12 21 4 23 21 25 18 27
REMARK Flexibility Score: inf
ROOT
ATOM      1  C   UNL     1      19.994  33.028  39.993  1.00  0.00     0.180 A 
ATOM      2  C   UNL     1      20.853  32.783  38.907  1.00  0.00     0.208 A 
ATOM      3  C   UNL     1      22.216  33.091  39.035  1.00  0.00     0.238 A 
ATOM      4  O   UNL     1      22.970  32.921  38.042  1.00  0.00    -0.285 OA
ATOM      5  C   UNL     1      22.707  33.625  40.251  1.00  0.00     0.111 A 
ATOM      6  C   UNL     1      24.077  33.937  40.505  1.00  0.00     0.134 A 
ATOM      7  C   UNL     1      24.428  34.582  41.698  1.00  0.00     0.093 A 
ATOM      8  C   UNL     1      23.469  34.867  42.672  1.00  0.00     0.123 A 
ATOM      9  C   UNL     1      22.139  34.513  42.459  1.00  0.00     0.094 A 
ATOM     10  C   UNL     1      21.751  33.902  41.264  1.00  0.00     0.146 A 
ATOM     11  O   UNL     1      20.472  33.591  41.096  1.00  0.00    -0.452 OA
ENDROOT
BRANCH   1  12
ATOM     12  C   UNL     1      18.549  32.707  39.942  1.00  0.00     0.025 A 
ATOM     13  C   UNL     1      17.774  32.633  41.114  1.00  0.00     0.016 A 
ATOM     14  C   UNL     1      16.408  32.353  41.042  1.00  0.00     0.051 A 
ATOM     15  C   UNL     1      15.793  32.156  39.799  1.00  0.00     0.157 A 
ATOM     16  C   UNL     1      17.922  32.529  38.699  1.00  0.00     0.062 A 
ATOM     17  C   UNL     1      16.550  32.247  38.624  1.00  0.00     0.158 A 
BRANCH  15  18
ATOM     18  O   UNL     1      14.429  31.875  39.722  1.00  0.00    -0.504 OA
ATOM     19  H   UNL     1      13.930  31.912  38.842  1.00  0.00     0.293 HD
ENDBRANCH  15  18
BRANCH  17  20
ATOM     20  O   UNL     1      15.934  32.058  37.389  1.00  0.00    -0.504 OA
ATOM     21  H   UNL     1      14.928  31.965  37.307  1.00  0.00     0.293 HD
ENDBRANCH  17  20
ENDBRANCH   1  12
BRANCH   2  22
ATOM     22  O   UNL     1      20.344  32.276  37.708  1.00  0.00    -0.502 OA
ATOM     23  H   UNL     1      19.561  32.702  37.227  1.00  0.00     0.293 HD
ENDBRANCH   2  22
BRANCH   6  24
ATOM     24  O   UNL     1      25.125  33.611  39.639  1.00  0.00    -0.507 OA
ATOM     25  H   UNL     1      25.641  32.745  39.661  1.00  0.00     0.293 HD
ENDBRANCH   6  24
BRANCH   8  26
ATOM     26  O   UNL     1      23.830  35.496  43.862  1.00  0.00    -0.508 OA
ATOM     27  H   UNL     1      24.640  35.198  44.395  1.00  0.00     0.293 HD
ENDBRANCH   8  26
TORSDOF 6
ENDMDL
MODEL 6
REMARK VINA RESULT:    -2.259      2.287      7.115
REMARK INTER + INTRA:          -2.998
REMARK INTER:                  -3.329
REMARK INTRA:                   0.331
REMARK UNBOUND:                -0.277
REMARK SMILES O=c1c(O)c(-c2ccc(O)c(O)c2)oc2cc(O)cc(O)c12
REMARK SMILES IDX 5 1 3 2 2 3 1 4 22 5 20 6 19 7 17 8 16 9 15 10 14 11 6 12
REMARK SMILES IDX 7 13 8 14 9 15 13 16 11 17 10 18 12 20 4 22 21 24 18 26
REMARK H PARENT 10 19 12 21 4 23 21 25 18 27
REMARK Flexibility Score: inf
ROOT
ATOM      1  C   UNL     1      16.726  32.601  40.121  1.00  0.00     0.180 A 
ATOM      2  C   UNL     1      17.012  32.243  38.792  1.00  0.00     0.208 A 
ATOM      3  C   UNL     1      18.349  32.221  38.366  1.00  0.00     0.238 A 
ATOM      4  O   UNL     1      18.596  31.953  37.161  1.00  0.00    -0.285 OA
ATOM      5  C   UNL     1      19.385  32.541  39.277  1.00  0.00     0.111 A 
ATOM      6  C   UNL     1      20.778  32.513  38.964  1.00  0.00     0.134 A 
ATOM      7  C   UNL     1      21.706  32.974  39.906  1.00  0.00     0.093 A 
ATOM      8  C   UNL     1      21.297  33.402  41.171  1.00  0.00     0.123 A 
ATOM      9  C   UNL     1      19.945  33.378  41.506  1.00  0.00     0.094 A 
ATOM     10  C   UNL     1      18.992  32.957  40.576  1.00  0.00     0.146 A 
ATOM     11  O   UNL     1      17.713  32.960  40.932  1.00  0.00    -0.452 OA
ENDROOT
BRANCH   1  12
ATOM     12  C   UNL     1      15.343  32.624  40.650  1.00  0.00     0.025 A 
ATOM     13  C   UNL     1      14.316  31.875  40.048  1.00  0.00     0.016 A 
ATOM     14  C   UNL     1      13.024  31.892  40.579  1.00  0.00     0.051 A 
ATOM     15  C   UNL     1      12.742  32.645  41.726  1.00  0.00     0.157 A 
ATOM     16  C   UNL     1      15.059  33.360  41.812  1.00  0.00     0.062 A 
ATOM     17  C   UNL     1      13.762  33.378  42.345  1.00  0.00     0.158 A 
BRANCH  15  18
ATOM     18  O   UNL     1      11.454  32.666  42.258  1.00  0.00    -0.504 OA
ATOM     19  H   UNL     1      11.264  32.338  43.197  1.00  0.00     0.293 HD
ENDBRANCH  15  18
BRANCH  17  20
ATOM     20  O   UNL     1      13.480  34.122  43.490  1.00  0.00    -0.504 OA
ATOM     21  H   UNL     1      14.196  34.332  44.175  1.00  0.00     0.293 HD
ENDBRANCH  17  20
ENDBRANCH   1  12
BRANCH   2  22
ATOM     22  O   UNL     1      15.974  31.952  37.903  1.00  0.00    -0.502 OA
ATOM     23  H   UNL     1      15.993  31.148  37.288  1.00  0.00     0.293 HD
ENDBRANCH   2  22
BRANCH   6  24
ATOM     24  O   UNL     1      21.297  32.017  37.765  1.00  0.00    -0.507 OA
ATOM     25  H   UNL     1      21.040  31.136  37.347  1.00  0.00     0.293 HD
ENDBRANCH   6  24
BRANCH   8  26
ATOM     26  O   UNL     1      22.229  33.846  42.107  1.00  0.00    -0.508 OA
ATOM     27  H   UNL     1      22.371  33.359  42.985  1.00  0.00     0.293 HD
ENDBRANCH   8  26
TORSDOF 6
ENDMDL
MODEL 7
REMARK VINA RESULT:    -2.170      3.015      5.468
REMARK INTER + INTRA:          -2.891
REMARK INTER:                  -3.135
REMARK INTRA:                   0.244
REMARK UNBOUND:                -0.277
REMARK SMILES O=c1c(O)c(-c2ccc(O)c(O)c2)oc2cc(O)cc(O)c12
REMARK SMILES IDX 5 1 3 2 2 3 1 4 22 5 20 6 19 7 17 8 16 9 15 10 14 11 6 12
REMARK SMILES IDX 7 13 8 14 9 15 13 16 11 17 10 18 12 20 4 22 21 24 18 26
REMARK H PARENT 10 19 12 21 4 23 21 25 18 27
REMARK Flexibility Score: inf
ROOT
ATOM      1  C   UNL     1      16.182  32.336  40.517  1.00  0.00     0.180 A 
ATOM      2  C   UNL     1      15.619  32.165  39.240  1.00  0.00     0.208 A 
ATOM      3  C   UNL     1      14.223  32.096  39.115  1.00  0.00     0.238 A 
ATOM      4  O   UNL     1      13.727  31.888  37.977  1.00  0.00    -0.285 OA
ATOM      5  C   UNL     1      13.406  32.213  40.265  1.00  0.00     0.111 A 
ATOM      6  C   UNL     1      11.978  32.197  40.251  1.00  0.00     0.134 A 
ATOM      7  C   UNL     1      11.276  32.190  41.462  1.00  0.00     0.093 A 
ATOM      8  C   UNL     1      11.947  32.265  42.685  1.00  0.00     0.123 A 
ATOM      9  C   UNL     1      13.338  32.341  42.707  1.00  0.00     0.094 A 
ATOM     10  C   UNL     1      14.068  32.313  41.517  1.00  0.00     0.146 A 
ATOM     11  O   UNL     1      15.392  32.377  41.583  1.00  0.00    -0.452 OA
ENDROOT
BRANCH   1  12
ATOM     12  C   UNL     1      17.644  32.443  40.726  1.00  0.00     0.025 A 
ATOM     13  C   UNL     1      18.266  31.876  41.853  1.00  0.00     0.016 A 
ATOM     14  C   UNL     1      19.650  31.968  42.018  1.00  0.00     0.051 A 
ATOM     15  C   UNL     1      20.434  32.614  41.054  1.00  0.00     0.157 A 
ATOM     16  C   UNL     1      18.438  33.071  39.753  1.00  0.00     0.062 A 
ATOM     17  C   UNL     1      19.828  33.164  39.917  1.00  0.00     0.158 A 
BRANCH  15  18
ATOM     18  O   UNL     1      21.816  32.709  41.215  1.00  0.00    -0.504 OA
ATOM     19  H   UNL     1      22.306  32.161  41.911  1.00  0.00     0.293 HD
ENDBRANCH  15  18
BRANCH  17  20
ATOM     20  O   UNL     1      20.612  33.800  38.957  1.00  0.00    -0.504 OA
ATOM     21  H   UNL     1      20.255  34.002  38.030  1.00  0.00     0.293 HD
ENDBRANCH  17  20
ENDBRANCH   1  12
BRANCH   2  22
ATOM     22  O   UNL     1      16.445  32.029  38.120  1.00  0.00    -0.502 OA
ATOM     23  H   UNL     1      16.562  32.768  37.438  1.00  0.00     0.293 HD
ENDBRANCH   2  22
BRANCH   6  24
ATOM     24  O   UNL     1      11.210  32.216  39.083  1.00  0.00    -0.507 OA
ATOM     25  H   UNL     1      10.826  31.399  38.634  1.00  0.00     0.293 HD
ENDBRANCH   6  24
BRANCH   8  26
ATOM     26  O   UNL     1      11.240  32.272  43.885  1.00  0.00    -0.508 OA
ATOM     27  H   UNL     1      11.455  32.934  44.623  1.00  0.00     0.293 HD
ENDBRANCH   8  26
TORSDOF 6
ENDMDL
