MODEL 1
REMARK VINA RESULT:    -4.358      0.000      0.000
REMARK INTER + INTRA:          -4.358
REMARK INTER:                  -4.358
REMARK INTRA:                   0.000
REMARK UNBOUND:                 0.000
REMARK SMILES C=C1CC[C@H]2C[C@@H]1C2(C)C
REMARK SMILES IDX 9 1 8 2 5 3 4 4 3 5 2 6 1 7 7 8 6 9 10 10
REMARK H PARENT
REMARK Flexibility Score: inf
ROOT
ATOM      1  C   UNL     1       0.034   5.127  12.676  1.00  0.00     0.012 C 
ATOM      2  C   UNL     1      -0.842   3.950  13.172  1.00  0.00    -0.026 C 
ATOM      3  C   UNL     1      -0.778   3.789  14.712  1.00  0.00    -0.004 C 
ATOM      4  C   UNL     1      -1.947   2.893  15.232  1.00  0.00     0.008 C 
ATOM      5  C   UNL     1      -2.052   1.524  14.457  1.00  0.00     0.031 C 
ATOM      6  C   UNL     1      -1.091   1.457  13.260  1.00  0.00    -0.074 C 
ATOM      7  C   UNL     1      -1.127   0.438  12.396  1.00  0.00     0.008 C 
ATOM      8  C   UNL     1      -0.092   2.600  13.106  1.00  0.00     0.021 C 
ATOM      9  C   UNL     1       0.434   2.862  14.526  1.00  0.00     0.012 C 
ATOM     10  C   UNL     1      -2.234   4.055  12.491  1.00  0.00     0.012 C 
ENDROOT
TORSDOF 0
ENDMDL
MODEL 2
REMARK VINA RESULT:    -4.350      1.176      2.283
REMARK INTER + INTRA:          -4.350
REMARK INTER:                  -4.350
REMARK INTRA:                   0.000
REMARK UNBOUND:                 0.000
REMARK SMILES C=C1CC[C@H]2C[C@@H]1C2(C)C
REMARK SMILES IDX 9 1 8 2 5 3 4 4 3 5 2 6 1 7 7 8 6 9 10 10
REMARK H PARENT
REMARK Flexibility Score: inf
ROOT
ATOM      1  C   UNL     1      -1.210   3.277  10.778  1.00  0.00     0.012 C 
ATOM      2  C   UNL     1      -1.315   3.660  12.275  1.00  0.00    -0.026 C 
ATOM      3  C   UNL     1       0.080   3.828  12.930  1.00  0.00    -0.004 C 
ATOM      4  C   UNL     1      -0.026   4.593  14.288  1.00  0.00     0.008 C 
ATOM      5  C   UNL     1      -1.106   3.970  15.251  1.00  0.00     0.031 C 
ATOM      6  C   UNL     1      -1.924   2.860  14.572  1.00  0.00    -0.074 C 
ATOM      7  C   UNL     1      -2.979   2.304  15.176  1.00  0.00     0.008 C 
ATOM      8  C   UNL     1      -1.475   2.418  13.182  1.00  0.00     0.021 C 
ATOM      9  C   UNL     1       0.057   2.328  13.270  1.00  0.00     0.012 C 
ATOM     10  C   UNL     1      -2.347   4.813  12.413  1.00  0.00     0.012 C 
ENDROOT
TORSDOF 0
ENDMDL
MODEL 3
REMARK VINA RESULT:    -4.343      0.974      3.253
REMARK INTER + INTRA:          -4.343
REMARK INTER:                  -4.343
REMARK INTRA:                   0.000
REMARK UNBOUND:                 0.000
REMARK SMILES C=C1CC[C@H]2C[C@@H]1C2(C)C
REMARK SMILES IDX 9 1 8 2 5 3 4 4 3 5 2 6 1 7 7 8 6 9 10 10
REMARK H PARENT
REMARK Flexibility Score: inf
ROOT
ATOM      1  C   UNL     1      -1.750   0.429  14.500  1.00  0.00     0.012 C 
ATOM      2  C   UNL     1      -1.310   1.776  13.876  1.00  0.00    -0.026 C 
ATOM      3  C   UNL     1      -0.251   2.500  14.747  1.00  0.00    -0.004 C 
ATOM      4  C   UNL     1       0.472   3.621  13.935  1.00  0.00     0.008 C 
ATOM      5  C   UNL     1      -0.538   4.600  13.223  1.00  0.00     0.031 C 
ATOM      6  C   UNL     1      -1.995   4.130  13.351  1.00  0.00    -0.074 C 
ATOM      7  C   UNL     1      -2.986   4.747  12.699  1.00  0.00     0.008 C 
ATOM      8  C   UNL     1      -2.261   2.932  14.259  1.00  0.00     0.021 C 
ATOM      9  C   UNL     1      -1.400   3.181  15.508  1.00  0.00     0.012 C 
ATOM     10  C   UNL     1      -1.002   1.540  12.371  1.00  0.00     0.012 C 
ENDROOT
TORSDOF 0
ENDMDL
MODEL 4
REMARK VINA RESULT:    -4.189      1.230      2.852
REMARK INTER + INTRA:          -4.189
REMARK INTER:                  -4.189
REMARK INTRA:                   0.000
REMARK UNBOUND:                 0.000
REMARK SMILES C=C1CC[C@H]2C[C@@H]1C2(C)C
REMARK SMILES IDX 9 1 8 2 5 3 4 4 3 5 2 6 1 7 7 8 6 9 10 10
REMARK H PARENT
REMARK Flexibility Score: inf
ROOT
ATOM      1  C   UNL     1      -0.973   4.675  15.287  1.00  0.00     0.012 C 
ATOM      2  C   UNL     1      -1.242   3.852  14.002  1.00  0.00    -0.026 C 
ATOM      3  C   UNL     1       0.039   3.146  13.488  1.00  0.00    -0.004 C 
ATOM      4  C   UNL     1      -0.314   2.022  12.463  1.00  0.00     0.008 C 
ATOM      5  C   UNL     1      -1.263   2.528  11.311  1.00  0.00     0.031 C 
ATOM      6  C   UNL     1      -1.759   3.962  11.551  1.00  0.00    -0.074 C 
ATOM      7  C   UNL     1      -2.681   4.521  10.762  1.00  0.00     0.008 C 
ATOM      8  C   UNL     1      -1.148   4.720  12.727  1.00  0.00     0.021 C 
ATOM      9  C   UNL     1       0.355   4.406  12.664  1.00  0.00     0.012 C 
ATOM     10  C   UNL     1      -2.523   3.003  14.225  1.00  0.00     0.012 C 
ENDROOT
TORSDOF 0
ENDMDL
MODEL 5
REMARK VINA RESULT:    -4.184      0.869      2.584
REMARK INTER + INTRA:          -4.184
REMARK INTER:                  -4.184
REMARK INTRA:                   0.000
REMARK UNBOUND:                 0.000
REMARK SMILES C=C1CC[C@H]2C[C@@H]1C2(C)C
REMARK SMILES IDX 9 1 8 2 5 3 4 4 3 5 2 6 1 7 7 8 6 9 10 10
REMARK H PARENT
REMARK Flexibility Score: inf
ROOT
ATOM      1  C   UNL     1      -0.849   5.038  15.117  1.00  0.00     0.012 C 
ATOM      2  C   UNL     1      -0.659   3.734  14.302  1.00  0.00    -0.026 C 
ATOM      3  C   UNL     1      -0.820   3.974  12.779  1.00  0.00    -0.004 C 
ATOM      4  C   UNL     1      -0.237   2.779  11.958  1.00  0.00     0.008 C 
ATOM      5  C   UNL     1      -0.792   1.385  12.441  1.00  0.00     0.031 C 
ATOM      6  C   UNL     1      -1.645   1.505  13.714  1.00  0.00    -0.074 C 
ATOM      7  C   UNL     1      -2.089   0.422  14.358  1.00  0.00     0.008 C 
ATOM      8  C   UNL     1      -1.966   2.914  14.204  1.00  0.00     0.021 C 
ATOM      9  C   UNL     1      -2.326   3.704  12.936  1.00  0.00     0.012 C 
ATOM     10  C   UNL     1       0.624   3.022  14.813  1.00  0.00     0.012 C 
ENDROOT
TORSDOF 0
ENDMDL
MODEL 6
REMARK VINA RESULT:    -4.175      1.106      3.426
REMARK INTER + INTRA:          -4.175
REMARK INTER:                  -4.175
REMARK INTRA:                   0.000
REMARK UNBOUND:                 0.000
REMARK SMILES C=C1CC[C@H]2C[C@@H]1C2(C)C
REMARK SMILES IDX 9 1 8 2 5 3 4 4 3 5 2 6 1 7 7 8 6 9 10 10
REMARK H PARENT
REMARK Flexibility Score: inf
ROOT
ATOM      1  C   UNL     1      -1.494   0.545  14.758  1.00  0.00     0.012 C 
ATOM      2  C   UNL     1      -1.707   2.008  14.295  1.00  0.00    -0.026 C 
ATOM      3  C   UNL     1      -1.291   2.213  12.816  1.00  0.00    -0.004 C 
ATOM      4  C   UNL     1      -1.876   3.546  12.249  1.00  0.00     0.008 C 
ATOM      5  C   UNL     1      -1.563   4.785  13.172  1.00  0.00     0.031 C 
ATOM      6  C   UNL     1      -0.904   4.374  14.498  1.00  0.00    -0.074 C 
ATOM      7  C   UNL     1      -0.689   5.263  15.473  1.00  0.00     0.008 C 
ATOM      8  C   UNL     1      -0.503   2.910  14.649  1.00  0.00     0.021 C 
ATOM      9  C   UNL     1       0.133   2.531  13.302  1.00  0.00     0.012 C 
ATOM     10  C   UNL     1      -3.125   2.460  14.741  1.00  0.00     0.012 C 
ENDROOT
TORSDOF 0
ENDMDL
MODEL 7
REMARK VINA RESULT:    -4.114      1.282      2.375
REMARK INTER + INTRA:          -4.114
REMARK INTER:                  -4.114
REMARK INTRA:                   0.000
REMARK UNBOUND:                 0.000
REMARK SMILES C=C1CC[C@H]2C[C@@H]1C2(C)C
REMARK SMILES IDX 9 1 8 2 5 3 4 4 3 5 2 6 1 7 7 8 6 9 10 10
REMARK H PARENT
REMARK Flexibility Score: inf
ROOT
ATOM      1  C   UNL     1       1.396   5.135  13.846  1.00  0.00     0.012 C 
ATOM      2  C   UNL     1       0.039   4.497  14.231  1.00  0.00    -0.026 C 
ATOM      3  C   UNL     1       0.159   2.967  14.447  1.00  0.00    -0.004 C 
ATOM      4  C   UNL     1      -1.082   2.409  15.214  1.00  0.00     0.008 C 
ATOM      5  C   UNL     1      -2.447   2.850  14.560  1.00  0.00     0.031 C 
ATOM      6  C   UNL     1      -2.248   3.862  13.421  1.00  0.00    -0.074 C 
ATOM      7  C   UNL     1      -3.288   4.462  12.834  1.00  0.00     0.008 C 
ATOM      8  C   UNL     1      -0.812   4.148  12.989  1.00  0.00     0.021 C 
ATOM      9  C   UNL     1      -0.128   2.772  12.949  1.00  0.00     0.012 C 
ATOM     10  C   UNL     1      -0.607   5.359  15.350  1.00  0.00     0.012 C 
ENDROOT
TORSDOF 0
ENDMDL
MODEL 8
REMARK VINA RESULT:    -4.112      1.662      2.858
REMARK INTER + INTRA:          -4.112
REMARK INTER:                  -4.112
REMARK INTRA:                   0.000
REMARK UNBOUND:                 0.000
REMARK SMILES C=C1CC[C@H]2C[C@@H]1C2(C)C
REMARK SMILES IDX 9 1 8 2 5 3 4 4 3 5 2 6 1 7 7 8 6 9 10 10
REMARK H PARENT
REMARK Flexibility Score: inf
ROOT
ATOM      1  C   UNL     1      -3.342   5.435  11.943  1.00  0.00     0.012 C 
ATOM      2  C   UNL     1      -2.207   4.434  12.276  1.00  0.00    -0.026 C 
ATOM      3  C   UNL     1      -0.806   5.083  12.144  1.00  0.00    -0.004 C 
ATOM      4  C   UNL     1       0.283   4.219  12.858  1.00  0.00     0.008 C 
ATOM      5  C   UNL     1       0.241   2.707  12.416  1.00  0.00     0.031 C 
ATOM      6  C   UNL     1      -0.964   2.395  11.514  1.00  0.00    -0.074 C 
ATOM      7  C   UNL     1      -1.254   1.143  11.148  1.00  0.00     0.008 C 
ATOM      8  C   UNL     1      -1.810   3.578  11.053  1.00  0.00     0.021 C 
ATOM      9  C   UNL     1      -0.795   4.665  10.664  1.00  0.00     0.012 C 
ATOM     10  C   UNL     1      -2.570   3.707  13.600  1.00  0.00     0.012 C 
ENDROOT
TORSDOF 0
ENDMDL
MODEL 9
REMARK VINA RESULT:    -3.977      1.249      3.489
REMARK INTER + INTRA:          -3.977
REMARK INTER:                  -3.977
REMARK INTRA:                   0.000
REMARK UNBOUND:                 0.000
REMARK SMILES C=C1CC[C@H]2C[C@@H]1C2(C)C
REMARK SMILES IDX 9 1 8 2 5 3 4 4 3 5 2 6 1 7 7 8 6 9 10 10
REMARK H PARENT
REMARK Flexibility Score: inf
ROOT
ATOM      1  C   UNL     1      -2.163   2.877  14.786  1.00  0.00     0.012 C 
ATOM      2  C   UNL     1      -1.852   3.506  13.405  1.00  0.00    -0.026 C 
ATOM      3  C   UNL     1      -1.346   2.450  12.389  1.00  0.00    -0.004 C 
ATOM      4  C   UNL     1      -1.425   2.995  10.927  1.00  0.00     0.008 C 
ATOM      5  C   UNL     1      -0.739   4.405  10.769  1.00  0.00     0.031 C 
ATOM      6  C   UNL     1      -0.300   4.995  12.118  1.00  0.00    -0.074 C 
ATOM      7  C   UNL     1       0.174   6.241  12.211  1.00  0.00     0.008 C 
ATOM      8  C   UNL     1      -0.425   4.095  13.343  1.00  0.00     0.021 C 
ATOM      9  C   UNL     1       0.086   2.721  12.881  1.00  0.00     0.012 C 
ATOM     10  C   UNL     1      -3.045   4.416  13.002  1.00  0.00     0.012 C 
ENDROOT
TORSDOF 0
ENDMDL
