MODEL 1
REMARK VINA RESULT:    -2.783      0.000      0.000
REMARK INTER + INTRA:          -4.484
REMARK INTER:                  -4.248
REMARK INTRA:                  -0.236
REMARK UNBOUND:                -0.236
REMARK SMILES CC1=CCC[C@H](C)C(=O)C[C@H](C(C)C)C(=O)C1
REMARK SMILES IDX 8 1 9 2 6 3 7 4 5 5 4 6 3 7 2 8 1 9 10 11 11 12 15 13 16 14
REMARK SMILES IDX 17 15 12 17 13 18 14 19
REMARK H PARENT
REMARK Flexibility Score: 70.00
ROOT
ATOM      1  C   UNL     1     193.353 182.069 193.900  1.00  0.00     0.136 C 
ATOM      2  O   UNL     1     193.412 183.209 194.337  1.00  0.00    -0.299 OA
ENDROOT
BRANCH   1   3
ATOM      3  C   UNL     1     192.074 181.582 193.236  1.00  0.00     0.053 C 
ATOM      4  C   UNL     1     190.833 181.846 194.102  1.00  0.00     0.016 C 
BRANCH   3   5
ATOM      5  C   UNL     1     191.918 182.149 191.811  1.00  0.00     0.015 C 
BRANCH   5   6
ATOM      6  C   UNL     1     193.024 181.711 190.827  1.00  0.00     0.028 C 
BRANCH   6   7
ATOM      7  C   UNL     1     192.828 180.289 190.361  1.00  0.00    -0.028 C 
ATOM      8  C   UNL     1     193.624 179.248 190.702  1.00  0.00    -0.070 CG0
ATOM      9  C   UNL     1     193.285 177.884 190.159  1.00  0.00     0.039 C 
ATOM     10  G   UNL     1     194.831 179.390 191.618  1.00  0.00     0.000 G0
ENDBRANCH   6   7
ENDBRANCH   5   6
ENDBRANCH   3   5
ENDBRANCH   1   3
BRANCH   1  11
ATOM     11  C   UNL     1     194.533 181.139 194.081  1.00  0.00     0.087 C 
BRANCH  11  12
ATOM     12  C   UNL     1     194.197 179.621 194.189  1.00  0.00     0.066 C 
BRANCH  12  13
ATOM     13  C   UNL     1     194.645 178.802 192.982  1.00  0.00     0.140 C 
ATOM     14  O   UNL     1     194.918 177.621 193.154  1.00  0.00    -0.299 OA
BRANCH  13  15
ATOM     15  C   UNL     1     194.837 179.403 191.609  1.00  0.00     0.106 CG0
ATOM     16  G   UNL     1     193.611 179.239 190.723  1.00  0.00     0.000 G0
ENDBRANCH  13  15
ENDBRANCH  12  13
BRANCH  12  17
ATOM     17  C   UNL     1     194.491 178.937 195.570  1.00  0.00    -0.006 C 
ATOM     18  C   UNL     1     194.756 179.899 196.739  1.00  0.00     0.008 C 
ATOM     19  C   UNL     1     193.356 177.973 195.965  1.00  0.00     0.008 C 
ENDBRANCH  12  17
ENDBRANCH  11  12
ENDBRANCH   1  11
TORSDOF 1
ENDMDL
MODEL 2
REMARK VINA RESULT:    -2.609     16.840     19.658
REMARK INTER + INTRA:          -4.218
REMARK INTER:                  -3.828
REMARK INTRA:                  -0.390
REMARK UNBOUND:                -0.236
REMARK SMILES CC1=CCC[C@H](C)C(=O)C[C@H](C(C)C)C(=O)C1
REMARK SMILES IDX 8 1 9 2 6 3 7 4 5 5 4 6 3 7 2 8 1 9 10 11 11 12 15 13 16 14
REMARK SMILES IDX 17 15 12 17 13 18 14 19
REMARK H PARENT
REMARK Flexibility Score: 70.00
ROOT
ATOM      1  C   UNL     1     177.731 193.644 194.647  1.00  0.00     0.136 C 
ATOM      2  O   UNL     1     177.021 193.229 195.550  1.00  0.00    -0.299 OA
ENDROOT
BRANCH   1   3
ATOM      3  C   UNL     1     178.726 194.760 194.922  1.00  0.00     0.053 C 
ATOM      4  C   UNL     1     178.047 196.017 195.488  1.00  0.00     0.016 C 
BRANCH   3   5
ATOM      5  C   UNL     1     179.891 194.281 195.811  1.00  0.00     0.015 C 
BRANCH   5   6
ATOM      6  C   UNL     1     181.186 193.947 195.039  1.00  0.00     0.028 C 
BRANCH   6   7
ATOM      7  C   UNL     1     181.398 192.458 194.919  1.00  0.00    -0.028 C 
ATOM      8  C   UNL     1     181.381 191.766 193.755  1.00  0.00    -0.070 CG0
ATOM      9  C   UNL     1     181.622 190.279 193.806  1.00  0.00     0.039 C 
ATOM     10  G   UNL     1     181.145 192.422 192.403  1.00  0.00     0.000 G0
ENDBRANCH   6   7
ENDBRANCH   5   6
ENDBRANCH   3   5
ENDBRANCH   1   3
BRANCH   1  11
ATOM     11  C   UNL     1     177.566 193.083 193.250  1.00  0.00     0.087 C 
BRANCH  11  12
ATOM     12  C   UNL     1     178.681 193.455 192.227  1.00  0.00     0.066 C 
BRANCH  12  13
ATOM     13  C   UNL     1     179.681 192.333 191.967  1.00  0.00     0.140 C 
ATOM     14  O   UNL     1     179.271 191.301 191.452  1.00  0.00    -0.299 OA
BRANCH  13  15
ATOM     15  C   UNL     1     181.131 192.412 192.387  1.00  0.00     0.106 CG0
ATOM     16  G   UNL     1     181.384 191.761 193.739  1.00  0.00     0.000 G0
ENDBRANCH  13  15
ENDBRANCH  12  13
BRANCH  12  17
ATOM     17  C   UNL     1     178.217 194.211 190.932  1.00  0.00    -0.006 C 
ATOM     18  C   UNL     1     177.434 195.511 191.173  1.00  0.00     0.008 C 
ATOM     19  C   UNL     1     179.412 194.511 190.008  1.00  0.00     0.008 C 
ENDBRANCH  12  17
ENDBRANCH  11  12
ENDBRANCH   1  11
TORSDOF 1
ENDMDL
MODEL 3
REMARK VINA RESULT:    -2.584     16.539     19.010
REMARK INTER + INTRA:          -4.181
REMARK INTER:                  -3.853
REMARK INTRA:                  -0.328
REMARK UNBOUND:                -0.236
REMARK SMILES CC1=CCC[C@H](C)C(=O)C[C@H](C(C)C)C(=O)C1
REMARK SMILES IDX 8 1 9 2 6 3 7 4 5 5 4 6 3 7 2 8 1 9 10 11 11 12 15 13 16 14
REMARK SMILES IDX 17 15 12 17 13 18 14 19
REMARK H PARENT
REMARK Flexibility Score: 70.00
ROOT
ATOM      1  C   UNL     1     181.451 191.732 194.196  1.00  0.00     0.136 C 
ATOM      2  O   UNL     1     182.278 192.602 194.421  1.00  0.00    -0.299 OA
ENDROOT
BRANCH   1   3
ATOM      3  C   UNL     1     181.763 190.637 193.188  1.00  0.00     0.053 C 
ATOM      4  C   UNL     1     180.890 189.390 193.396  1.00  0.00     0.016 C 
BRANCH   3   5
ATOM      5  C   UNL     1     181.694 191.158 191.738  1.00  0.00     0.015 C 
BRANCH   5   6
ATOM      6  C   UNL     1     180.364 190.855 191.015  1.00  0.00     0.028 C 
BRANCH   6   7
ATOM      7  C   UNL     1     179.613 192.118 190.671  1.00  0.00    -0.028 C 
ATOM      8  C   UNL     1     178.526 192.575 191.336  1.00  0.00    -0.070 CG0
ATOM      9  C   UNL     1     177.896 193.863 190.872  1.00  0.00     0.039 C 
ATOM     10  G   UNL     1     177.923 191.859 192.535  1.00  0.00     0.000 G0
ENDBRANCH   6   7
ENDBRANCH   5   6
ENDBRANCH   3   5
ENDBRANCH   1   3
BRANCH   1  11
ATOM     11  C   UNL     1     180.101 191.791 194.880  1.00  0.00     0.087 C 
BRANCH  11  12
ATOM     12  C   UNL     1     179.221 193.033 194.550  1.00  0.00     0.066 C 
BRANCH  12  13
ATOM     13  C   UNL     1     177.943 192.700 193.787  1.00  0.00     0.140 C 
ATOM     14  O   UNL     1     176.876 193.086 194.248  1.00  0.00    -0.299 OA
BRANCH  13  15
ATOM     15  C   UNL     1     177.932 191.853 192.535  1.00  0.00     0.106 CG0
ATOM     16  G   UNL     1     178.528 192.576 191.337  1.00  0.00     0.000 G0
ENDBRANCH  13  15
ENDBRANCH  12  13
BRANCH  12  17
ATOM     17  C   UNL     1     179.022 194.076 195.707  1.00  0.00    -0.006 C 
ATOM     18  C   UNL     1     179.218 193.527 197.129  1.00  0.00     0.008 C 
ATOM     19  C   UNL     1     179.935 195.300 195.513  1.00  0.00     0.008 C 
ENDBRANCH  12  17
ENDBRANCH  11  12
ENDBRANCH   1  11
TORSDOF 1
ENDMDL
MODEL 4
REMARK VINA RESULT:    -2.559      6.527      8.913
REMARK INTER + INTRA:          -4.142
REMARK INTER:                  -3.873
REMARK INTRA:                  -0.269
REMARK UNBOUND:                -0.236
REMARK SMILES CC1=CCC[C@H](C)C(=O)C[C@H](C(C)C)C(=O)C1
REMARK SMILES IDX 8 1 9 2 6 3 7 4 5 5 4 6 3 7 2 8 1 9 10 11 11 12 15 13 16 14
REMARK SMILES IDX 17 15 12 17 13 18 14 19
REMARK H PARENT
REMARK Flexibility Score: 70.00
ROOT
ATOM      1  C   UNL     1     189.154 185.689 193.927  1.00  0.00     0.136 C 
ATOM      2  O   UNL     1     189.413 186.858 193.683  1.00  0.00    -0.299 OA
ENDROOT
BRANCH   1   3
ATOM      3  C   UNL     1     189.959 184.583 193.263  1.00  0.00     0.053 C 
ATOM      4  C   UNL     1     189.547 183.188 193.757  1.00  0.00     0.016 C 
BRANCH   3   5
ATOM      5  C   UNL     1     189.918 184.690 191.725  1.00  0.00     0.015 C 
BRANCH   5   6
ATOM      6  C   UNL     1     188.770 183.896 191.063  1.00  0.00     0.028 C 
BRANCH   6   7
ATOM      7  C   UNL     1     187.647 184.801 190.620  1.00  0.00    -0.028 C 
ATOM      8  C   UNL     1     186.485 184.975 191.293  1.00  0.00    -0.070 CG0
ATOM      9  C   UNL     1     185.465 185.926 190.720  1.00  0.00     0.039 C 
ATOM     10  G   UNL     1     186.170 184.271 192.604  1.00  0.00     0.000 G0
ENDBRANCH   6   7
ENDBRANCH   5   6
ENDBRANCH   3   5
ENDBRANCH   1   3
BRANCH   1  11
ATOM     11  C   UNL     1     187.992 185.358 194.840  1.00  0.00     0.087 C 
BRANCH  11  12
ATOM     12  C   UNL     1     186.647 186.078 194.524  1.00  0.00     0.066 C 
BRANCH  12  13
ATOM     13  C   UNL     1     185.687 185.250 193.676  1.00  0.00     0.140 C 
ATOM     14  O   UNL     1     184.488 185.332 193.912  1.00  0.00    -0.299 OA
BRANCH  13  15
ATOM     15  C   UNL     1     186.157 184.280 192.616  1.00  0.00     0.106 CG0
ATOM     16  G   UNL     1     186.499 184.971 191.304  1.00  0.00     0.000 G0
ENDBRANCH  13  15
ENDBRANCH  12  13
BRANCH  12  17
ATOM     17  C   UNL     1     185.960 186.829 195.719  1.00  0.00    -0.006 C 
ATOM     18  C   UNL     1     186.340 186.326 197.120  1.00  0.00     0.008 C 
ATOM     19  C   UNL     1     186.220 188.345 195.644  1.00  0.00     0.008 C 
ENDBRANCH  12  17
ENDBRANCH  11  12
ENDBRANCH   1  11
TORSDOF 1
ENDMDL
MODEL 5
REMARK VINA RESULT:    -2.545      8.315     10.813
REMARK INTER + INTRA:          -4.121
REMARK INTER:                  -3.799
REMARK INTRA:                  -0.323
REMARK UNBOUND:                -0.236
REMARK SMILES CC1=CCC[C@H](C)C(=O)C[C@H](C(C)C)C(=O)C1
REMARK SMILES IDX 8 1 9 2 6 3 7 4 5 5 4 6 3 7 2 8 1 9 10 11 11 12 15 13 16 14
REMARK SMILES IDX 17 15 12 17 13 18 14 19
REMARK H PARENT
REMARK Flexibility Score: 70.00
ROOT
ATOM      1  C   UNL     1     185.508 186.250 195.262  1.00  0.00     0.136 C 
ATOM      2  O   UNL     1     185.591 187.310 195.863  1.00  0.00    -0.299 OA
ENDROOT
BRANCH   1   3
ATOM      3  C   UNL     1     186.551 185.168 195.495  1.00  0.00     0.053 C 
ATOM      4  C   UNL     1     186.039 183.774 195.101  1.00  0.00     0.016 C 
BRANCH   3   5
ATOM      5  C   UNL     1     187.890 185.508 194.811  1.00  0.00     0.015 C 
BRANCH   5   6
ATOM      6  C   UNL     1     188.132 184.765 193.479  1.00  0.00     0.028 C 
BRANCH   6   7
ATOM      7  C   UNL     1     188.240 185.721 192.316  1.00  0.00    -0.028 C 
ATOM      8  C   UNL     1     187.235 186.006 191.455  1.00  0.00    -0.070 CG0
ATOM      9  C   UNL     1     187.503 186.994 190.349  1.00  0.00     0.039 C 
ATOM     10  G   UNL     1     185.849 185.388 191.562  1.00  0.00     0.000 G0
ENDBRANCH   6   7
ENDBRANCH   5   6
ENDBRANCH   3   5
ENDBRANCH   1   3
BRANCH   1  11
ATOM     11  C   UNL     1     184.401 186.051 194.248  1.00  0.00     0.087 C 
BRANCH  11  12
ATOM     12  C   UNL     1     184.381 187.051 193.053  1.00  0.00     0.066 C 
BRANCH  12  13
ATOM     13  C   UNL     1     184.746 186.420 191.713  1.00  0.00     0.140 C 
ATOM     14  O   UNL     1     184.082 186.723 190.731  1.00  0.00    -0.299 OA
BRANCH  13  15
ATOM     15  C   UNL     1     185.837 185.384 191.564  1.00  0.00     0.106 CG0
ATOM     16  G   UNL     1     187.220 186.008 191.450  1.00  0.00     0.000 G0
ENDBRANCH  13  15
ENDBRANCH  12  13
BRANCH  12  17
ATOM     17  C   UNL     1     183.159 188.034 192.985  1.00  0.00    -0.006 C 
ATOM     18  C   UNL     1     181.789 187.403 193.280  1.00  0.00     0.008 C 
ATOM     19  C   UNL     1     183.365 189.241 193.920  1.00  0.00     0.008 C 
ENDBRANCH  12  17
ENDBRANCH  11  12
ENDBRANCH   1  11
TORSDOF 1
ENDMDL
MODEL 6
REMARK VINA RESULT:    -2.539      7.000      9.475
REMARK INTER + INTRA:          -4.111
REMARK INTER:                  -3.869
REMARK INTRA:                  -0.242
REMARK UNBOUND:                -0.236
REMARK SMILES CC1=CCC[C@H](C)C(=O)C[C@H](C(C)C)C(=O)C1
REMARK SMILES IDX 8 1 9 2 6 3 7 4 5 5 4 6 3 7 2 8 1 9 10 11 11 12 15 13 16 14
REMARK SMILES IDX 17 15 12 17 13 18 14 19
REMARK H PARENT
REMARK Flexibility Score: 70.00
ROOT
ATOM      1  C   UNL     1     187.375 187.248 194.813  1.00  0.00     0.136 C 
ATOM      2  O   UNL     1     187.281 188.448 195.023  1.00  0.00    -0.299 OA
ENDROOT
BRANCH   1   3
ATOM      3  C   UNL     1     186.302 186.305 195.336  1.00  0.00     0.053 C 
ATOM      4  C   UNL     1     186.332 186.183 196.867  1.00  0.00     0.016 C 
BRANCH   3   5
ATOM      5  C   UNL     1     184.903 186.685 194.811  1.00  0.00     0.015 C 
BRANCH   5   6
ATOM      6  C   UNL     1     184.593 186.165 193.390  1.00  0.00     0.028 C 
BRANCH   6   7
ATOM      7  C   UNL     1     184.839 187.222 192.341  1.00  0.00    -0.028 C 
ATOM      8  C   UNL     1     185.724 187.106 191.322  1.00  0.00    -0.070 CG0
ATOM      9  C   UNL     1     185.843 188.251 190.349  1.00  0.00     0.039 C 
ATOM     10  G   UNL     1     186.586 185.872 191.107  1.00  0.00     0.000 G0
ENDBRANCH   6   7
ENDBRANCH   5   6
ENDBRANCH   3   5
ENDBRANCH   1   3
BRANCH   1  11
ATOM     11  C   UNL     1     188.591 186.710 194.090  1.00  0.00     0.087 C 
BRANCH  11  12
ATOM     12  C   UNL     1     188.331 185.548 193.085  1.00  0.00     0.066 C 
BRANCH  12  13
ATOM     13  C   UNL     1     187.980 186.016 191.677  1.00  0.00     0.140 C 
ATOM     14  O   UNL     1     188.844 186.590 191.025  1.00  0.00    -0.299 OA
BRANCH  13  15
ATOM     15  C   UNL     1     186.597 185.871 191.085  1.00  0.00     0.106 CG0
ATOM     16  G   UNL     1     185.726 187.094 191.330  1.00  0.00     0.000 G0
ENDBRANCH  13  15
ENDBRANCH  12  13
BRANCH  12  17
ATOM     17  C   UNL     1     189.343 184.349 193.127  1.00  0.00    -0.006 C 
ATOM     18  C   UNL     1     189.157 183.291 192.028  1.00  0.00     0.008 C 
ATOM     19  C   UNL     1     190.799 184.850 193.096  1.00  0.00     0.008 C 
ENDBRANCH  12  17
ENDBRANCH  11  12
ENDBRANCH   1  11
TORSDOF 1
ENDMDL
MODEL 7
REMARK VINA RESULT:    -2.518     15.991     17.168
REMARK INTER + INTRA:          -4.079
REMARK INTER:                  -4.089
REMARK INTRA:                   0.009
REMARK UNBOUND:                -0.236
REMARK SMILES CC1=CCC[C@H](C)C(=O)C[C@H](C(C)C)C(=O)C1
REMARK SMILES IDX 8 1 9 2 6 3 7 4 5 5 4 6 3 7 2 8 1 9 10 11 11 12 15 13 16 14
REMARK SMILES IDX 17 15 12 17 13 18 14 19
REMARK H PARENT
REMARK Flexibility Score: 70.00
ROOT
ATOM      1  C   UNL     1     187.964 193.917 200.262  1.00  0.00     0.136 C 
ATOM      2  O   UNL     1     188.761 193.407 201.036  1.00  0.00    -0.299 OA
ENDROOT
BRANCH   1   3
ATOM      3  C   UNL     1     188.250 195.294 199.684  1.00  0.00     0.053 C 
ATOM      4  C   UNL     1     189.189 196.116 200.580  1.00  0.00     0.016 C 
BRANCH   3   5
ATOM      5  C   UNL     1     188.760 195.210 198.231  1.00  0.00     0.015 C 
BRANCH   5   6
ATOM      6  C   UNL     1     187.948 196.052 197.222  1.00  0.00     0.028 C 
BRANCH   6   7
ATOM      7  C   UNL     1     187.595 195.258 195.988  1.00  0.00    -0.028 C 
ATOM      8  C   UNL     1     186.394 194.675 195.763  1.00  0.00    -0.070 CG0
ATOM      9  C   UNL     1     186.197 193.925 194.470  1.00  0.00     0.039 C 
ATOM     10  G   UNL     1     185.234 194.757 196.743  1.00  0.00     0.000 G0
ENDBRANCH   6   7
ENDBRANCH   5   6
ENDBRANCH   3   5
ENDBRANCH   1   3
BRANCH   1  11
ATOM     11  C   UNL     1     186.674 193.195 199.938  1.00  0.00     0.087 C 
BRANCH  11  12
ATOM     12  C   UNL     1     185.552 194.059 199.287  1.00  0.00     0.066 C 
BRANCH  12  13
ATOM     13  C   UNL     1     185.278 193.716 197.826  1.00  0.00     0.140 C 
ATOM     14  O   UNL     1     185.163 192.537 197.519  1.00  0.00    -0.299 OA
BRANCH  13  15
ATOM     15  C   UNL     1     185.219 194.762 196.736  1.00  0.00     0.106 CG0
ATOM     16  G   UNL     1     186.393 194.669 195.774  1.00  0.00     0.000 G0
ENDBRANCH  13  15
ENDBRANCH  12  13
BRANCH  12  17
ATOM     17  C   UNL     1     184.256 194.283 200.144  1.00  0.00    -0.006 C 
ATOM     18  C   UNL     1     182.944 194.364 199.348  1.00  0.00     0.008 C 
ATOM     19  C   UNL     1     184.116 193.200 201.231  1.00  0.00     0.008 C 
ENDBRANCH  12  17
ENDBRANCH  11  12
ENDBRANCH   1  11
TORSDOF 1
ENDMDL
MODEL 8
REMARK VINA RESULT:    -2.507     10.664     13.195
REMARK INTER + INTRA:          -4.062
REMARK INTER:                  -3.766
REMARK INTRA:                  -0.296
REMARK UNBOUND:                -0.236
REMARK SMILES CC1=CCC[C@H](C)C(=O)C[C@H](C(C)C)C(=O)C1
REMARK SMILES IDX 8 1 9 2 6 3 7 4 5 5 4 6 3 7 2 8 1 9 10 11 11 12 15 13 16 14
REMARK SMILES IDX 17 15 12 17 13 18 14 19
REMARK H PARENT
REMARK Flexibility Score: 70.00
ROOT
ATOM      1  C   UNL     1     185.361 186.455 194.544  1.00  0.00     0.136 C 
ATOM      2  O   UNL     1     184.876 185.628 195.301  1.00  0.00    -0.299 OA
ENDROOT
BRANCH   1   3
ATOM      3  C   UNL     1     186.475 187.365 195.036  1.00  0.00     0.053 C 
ATOM      4  C   UNL     1     187.468 187.723 193.919  1.00  0.00     0.016 C 
BRANCH   3   5
ATOM      5  C   UNL     1     185.920 188.619 195.741  1.00  0.00     0.015 C 
BRANCH   5   6
ATOM      6  C   UNL     1     186.345 189.955 195.094  1.00  0.00     0.028 C 
BRANCH   6   7
ATOM      7  C   UNL     1     185.152 190.787 194.693  1.00  0.00    -0.028 C 
ATOM      8  C   UNL     1     184.598 190.798 193.457  1.00  0.00    -0.070 CG0
ATOM      9  C   UNL     1     183.399 191.680 193.222  1.00  0.00     0.039 C 
ATOM     10  G   UNL     1     185.120 189.952 192.306  1.00  0.00     0.000 G0
ENDBRANCH   6   7
ENDBRANCH   5   6
ENDBRANCH   3   5
ENDBRANCH   1   3
BRANCH   1  11
ATOM     11  C   UNL     1     184.802 186.604 193.145  1.00  0.00     0.087 C 
BRANCH  11  12
ATOM     12  C   UNL     1     183.772 187.755 192.938  1.00  0.00     0.066 C 
BRANCH  12  13
ATOM     13  C   UNL     1     184.218 188.810 191.931  1.00  0.00     0.140 C 
ATOM     14  O   UNL     1     183.870 188.680 190.764  1.00  0.00    -0.299 OA
BRANCH  13  15
ATOM     15  C   UNL     1     185.130 189.959 192.296  1.00  0.00     0.106 CG0
ATOM     16  G   UNL     1     184.589 190.788 193.451  1.00  0.00     0.000 G0
ENDBRANCH  13  15
ENDBRANCH  12  13
BRANCH  12  17
ATOM     17  C   UNL     1     182.268 187.329 192.795  1.00  0.00    -0.006 C 
ATOM     18  C   UNL     1     181.889 186.007 193.480  1.00  0.00     0.008 C 
ATOM     19  C   UNL     1     181.326 188.440 193.296  1.00  0.00     0.008 C 
ENDBRANCH  12  17
ENDBRANCH  11  12
ENDBRANCH   1  11
TORSDOF 1
ENDMDL
MODEL 9
REMARK VINA RESULT:    -2.482      6.928      9.623
REMARK INTER + INTRA:          -4.024
REMARK INTER:                  -3.678
REMARK INTRA:                  -0.346
REMARK UNBOUND:                -0.236
REMARK SMILES CC1=CCC[C@H](C)C(=O)C[C@H](C(C)C)C(=O)C1
REMARK SMILES IDX 8 1 9 2 6 3 7 4 5 5 4 6 3 7 2 8 1 9 10 11 11 12 15 13 16 14
REMARK SMILES IDX 17 15 12 17 13 18 14 19
REMARK H PARENT
REMARK Flexibility Score: 70.00
ROOT
ATOM      1  C   UNL     1     186.827 183.371 194.823  1.00  0.00     0.136 C 
ATOM      2  O   UNL     1     186.993 182.435 195.591  1.00  0.00    -0.299 OA
ENDROOT
BRANCH   1   3
ATOM      3  C   UNL     1     187.741 183.528 193.618  1.00  0.00     0.053 C 
ATOM      4  C   UNL     1     189.225 183.567 194.017  1.00  0.00     0.016 C 
BRANCH   3   5
ATOM      5  C   UNL     1     187.458 182.461 192.542  1.00  0.00     0.015 C 
BRANCH   5   6
ATOM      6  C   UNL     1     186.363 182.855 191.528  1.00  0.00     0.028 C 
BRANCH   6   7
ATOM      7  C   UNL     1     186.606 184.226 190.945  1.00  0.00    -0.028 C 
ATOM      8  C   UNL     1     185.878 185.329 191.238  1.00  0.00    -0.070 CG0
ATOM      9  C   UNL     1     186.259 186.630 190.578  1.00  0.00     0.039 C 
ATOM     10  G   UNL     1     184.710 185.320 192.212  1.00  0.00     0.000 G0
ENDBRANCH   6   7
ENDBRANCH   5   6
ENDBRANCH   3   5
ENDBRANCH   1   3
BRANCH   1  11
ATOM     11  C   UNL     1     185.751 184.395 195.116  1.00  0.00     0.087 C 
BRANCH  11  12
ATOM     12  C   UNL     1     185.970 185.811 194.504  1.00  0.00     0.066 C 
BRANCH  12  13
ATOM     13  C   UNL     1     184.956 186.182 193.427  1.00  0.00     0.140 C 
ATOM     14  O   UNL     1     184.281 187.190 193.590  1.00  0.00    -0.299 OA
BRANCH  13  15
ATOM     15  C   UNL     1     184.699 185.321 192.211  1.00  0.00     0.106 CG0
ATOM     16  G   UNL     1     185.870 185.319 191.240  1.00  0.00     0.000 G0
ENDBRANCH  13  15
ENDBRANCH  12  13
BRANCH  12  17
ATOM     17  C   UNL     1     186.280 186.969 195.517  1.00  0.00    -0.006 C 
ATOM     18  C   UNL     1     186.646 186.520 196.941  1.00  0.00     0.008 C 
ATOM     19  C   UNL     1     187.391 187.892 194.983  1.00  0.00     0.008 C 
ENDBRANCH  12  17
ENDBRANCH  11  12
ENDBRANCH   1  11
TORSDOF 1
ENDMDL
