MODEL 1
REMARK VINA RESULT:    -4.496      0.000      0.000
REMARK INTER + INTRA:          -5.065
REMARK INTER:                  -5.021
REMARK INTRA:                  -0.044
REMARK UNBOUND:                -0.044
REMARK SMILES O=C([O-])c1ccc(O)c(O)c1
REMARK SMILES IDX 4 1 11 2 5 3 9 4 6 5 7 6 2 7 1 8 3 9 10 10 8 12
REMARK H PARENT 10 11 8 13
REMARK Flexibility Score: inf
ROOT
ATOM      1  C   UNL     1      11.384 -17.644   8.063  1.00  0.00     0.001 A 
ATOM      2  C   UNL     1      10.402 -17.124   7.202  1.00  0.00     0.060 A 
ATOM      3  C   UNL     1      11.201 -18.923   8.614  1.00  0.00     0.014 A 
ATOM      4  C   UNL     1       9.254 -17.870   6.896  1.00  0.00     0.158 A 
ATOM      5  C   UNL     1      10.057 -19.667   8.309  1.00  0.00     0.051 A 
ATOM      6  C   UNL     1       9.083 -19.148   7.453  1.00  0.00     0.157 A 
ENDROOT
BRANCH   1   7
ATOM      7  C   UNL     1      12.593 -16.851   8.382  1.00  0.00     0.072 C 
ATOM      8  O   UNL     1      12.887 -15.831   7.705  1.00  0.00    -0.545 OA
ATOM      9  O   UNL     1      13.422 -17.224   9.434  1.00  0.00    -0.545 OA
ENDBRANCH   1   7
BRANCH   4  10
ATOM     10  O   UNL     1       8.285 -17.346   6.041  1.00  0.00    -0.504 OA
ATOM     11  H   UNL     1       8.173 -16.346   5.915  1.00  0.00     0.293 HD
ENDBRANCH   4  10
BRANCH   6  12
ATOM     12  O   UNL     1       7.953 -19.914   7.168  1.00  0.00    -0.504 OA
ATOM     13  H   UNL     1       7.533 -19.932   6.246  1.00  0.00     0.293 HD
ENDBRANCH   6  12
TORSDOF 3
ENDMDL
MODEL 2
REMARK VINA RESULT:    -4.452      1.043      1.043
REMARK INTER + INTRA:          -5.017
REMARK INTER:                  -4.981
REMARK INTRA:                  -0.036
REMARK UNBOUND:                -0.044
REMARK SMILES O=C([O-])c1ccc(O)c(O)c1
REMARK SMILES IDX 4 1 11 2 5 3 9 4 6 5 7 6 2 7 1 8 3 9 10 10 8 12
REMARK H PARENT 10 11 8 13
REMARK Flexibility Score: inf
ROOT
ATOM      1  C   UNL     1      11.121 -17.653   7.927  1.00  0.00     0.001 A 
ATOM      2  C   UNL     1       9.857 -17.111   8.214  1.00  0.00     0.060 A 
ATOM      3  C   UNL     1      11.199 -18.913   7.311  1.00  0.00     0.014 A 
ATOM      4  C   UNL     1       8.688 -17.815   7.889  1.00  0.00     0.158 A 
ATOM      5  C   UNL     1      10.035 -19.616   6.986  1.00  0.00     0.051 A 
ATOM      6  C   UNL     1       8.779 -19.074   7.272  1.00  0.00     0.157 A 
ENDROOT
BRANCH   1   7
ATOM      7  C   UNL     1      12.351 -16.905   8.273  1.00  0.00     0.072 C 
ATOM      8  O   UNL     1      12.706 -15.908   7.591  1.00  0.00    -0.545 OA
ATOM      9  O   UNL     1      13.132 -17.295   9.354  1.00  0.00    -0.545 OA
ENDBRANCH   1   7
BRANCH   4  10
ATOM     10  O   UNL     1       7.437 -17.269   8.177  1.00  0.00    -0.504 OA
ATOM     11  H   UNL     1       7.147 -16.377   7.794  1.00  0.00     0.293 HD
ENDBRANCH   4  10
BRANCH   6  12
ATOM     12  O   UNL     1       7.636 -19.798   6.937  1.00  0.00    -0.504 OA
ATOM     13  H   UNL     1       6.836 -19.366   6.490  1.00  0.00     0.293 HD
ENDBRANCH   6  12
TORSDOF 3
ENDMDL
MODEL 3
REMARK VINA RESULT:    -4.253      2.523      5.331
REMARK INTER + INTRA:          -4.795
REMARK INTER:                  -4.756
REMARK INTRA:                  -0.038
REMARK UNBOUND:                -0.044
REMARK SMILES O=C([O-])c1ccc(O)c(O)c1
REMARK SMILES IDX 4 1 11 2 5 3 9 4 6 5 7 6 2 7 1 8 3 9 10 10 8 12
REMARK H PARENT 10 11 8 13
REMARK Flexibility Score: inf
ROOT
ATOM      1  C   UNL     1       6.731 -19.237   8.081  1.00  0.00     0.001 A 
ATOM      2  C   UNL     1       7.544 -19.869   7.125  1.00  0.00     0.060 A 
ATOM      3  C   UNL     1       7.157 -18.022   8.644  1.00  0.00     0.014 A 
ATOM      4  C   UNL     1       8.765 -19.297   6.737  1.00  0.00     0.158 A 
ATOM      5  C   UNL     1       8.373 -17.450   8.256  1.00  0.00     0.051 A 
ATOM      6  C   UNL     1       9.180 -18.082   7.306  1.00  0.00     0.157 A 
ENDROOT
BRANCH   1   7
ATOM      7  C   UNL     1       5.444 -19.845   8.487  1.00  0.00     0.072 C 
ATOM      8  O   UNL     1       4.568 -20.125   7.626  1.00  0.00    -0.545 OA
ATOM      9  O   UNL     1       5.184 -20.116   9.826  1.00  0.00    -0.545 OA
ENDBRANCH   1   7
BRANCH   4  10
ATOM     10  O   UNL     1       9.566 -19.932   5.788  1.00  0.00    -0.504 OA
ATOM     11  H   UNL     1       9.175 -20.318   4.936  1.00  0.00     0.293 HD
ENDBRANCH   4  10
BRANCH   6  12
ATOM     12  O   UNL     1      10.387 -17.488   6.940  1.00  0.00    -0.504 OA
ATOM     13  H   UNL     1      11.269 -17.982   6.998  1.00  0.00     0.293 HD
ENDBRANCH   6  12
TORSDOF 3
ENDMDL
MODEL 4
REMARK VINA RESULT:    -4.188      0.938      4.165
REMARK INTER + INTRA:          -4.721
REMARK INTER:                  -4.685
REMARK INTRA:                  -0.037
REMARK UNBOUND:                -0.044
REMARK SMILES O=C([O-])c1ccc(O)c(O)c1
REMARK SMILES IDX 4 1 11 2 5 3 9 4 6 5 7 6 2 7 1 8 3 9 10 10 8 12
REMARK H PARENT 10 11 8 13
REMARK Flexibility Score: inf
ROOT
ATOM      1  C   UNL     1       9.595 -18.342   7.495  1.00  0.00     0.001 A 
ATOM      2  C   UNL     1      10.256 -17.138   7.196  1.00  0.00     0.060 A 
ATOM      3  C   UNL     1      10.190 -19.242   8.395  1.00  0.00     0.014 A 
ATOM      4  C   UNL     1      11.493 -16.838   7.786  1.00  0.00     0.158 A 
ATOM      5  C   UNL     1      11.422 -18.943   8.984  1.00  0.00     0.051 A 
ATOM      6  C   UNL     1      12.077 -17.746   8.685  1.00  0.00     0.157 A 
ENDROOT
BRANCH   1   7
ATOM      7  C   UNL     1       8.290 -18.653   6.869  1.00  0.00     0.072 C 
ATOM      8  O   UNL     1       8.214 -18.899   5.637  1.00  0.00    -0.545 OA
ATOM      9  O   UNL     1       7.130 -18.677   7.634  1.00  0.00    -0.545 OA
ENDBRANCH   1   7
BRANCH   4  10
ATOM     10  O   UNL     1      12.143 -15.642   7.483  1.00  0.00    -0.504 OA
ATOM     11  H   UNL     1      12.519 -15.461   6.559  1.00  0.00     0.293 HD
ENDBRANCH   4  10
BRANCH   6  12
ATOM     12  O   UNL     1      13.305 -17.476   9.288  1.00  0.00    -0.504 OA
ATOM     13  H   UNL     1      13.426 -16.716   9.946  1.00  0.00     0.293 HD
ENDBRANCH   6  12
TORSDOF 3
ENDMDL
MODEL 5
REMARK VINA RESULT:    -4.062      1.322      4.702
REMARK INTER + INTRA:          -4.581
REMARK INTER:                  -4.545
REMARK INTRA:                  -0.036
REMARK UNBOUND:                -0.044
REMARK SMILES O=C([O-])c1ccc(O)c(O)c1
REMARK SMILES IDX 4 1 11 2 5 3 9 4 6 5 7 6 2 7 1 8 3 9 10 10 8 12
REMARK H PARENT 10 11 8 13
REMARK Flexibility Score: inf
ROOT
ATOM      1  C   UNL     1       9.375 -18.922   7.174  1.00  0.00     0.001 A 
ATOM      2  C   UNL     1      10.280 -19.781   7.821  1.00  0.00     0.060 A 
ATOM      3  C   UNL     1       9.607 -17.537   7.207  1.00  0.00     0.014 A 
ATOM      4  C   UNL     1      11.400 -19.265   8.491  1.00  0.00     0.158 A 
ATOM      5  C   UNL     1      10.723 -17.021   7.874  1.00  0.00     0.051 A 
ATOM      6  C   UNL     1      11.621 -17.878   8.516  1.00  0.00     0.157 A 
ENDROOT
BRANCH   1   7
ATOM      7  C   UNL     1       8.196 -19.473   6.469  1.00  0.00     0.072 C 
ATOM      8  O   UNL     1       7.124 -19.694   7.091  1.00  0.00    -0.545 OA
ATOM      9  O   UNL     1       8.256 -19.754   5.109  1.00  0.00    -0.545 OA
ENDBRANCH   1   7
BRANCH   4  10
ATOM     10  O   UNL     1      12.292 -20.125   9.130  1.00  0.00    -0.504 OA
ATOM     11  H   UNL     1      12.806 -20.833   8.618  1.00  0.00     0.293 HD
ENDBRANCH   4  10
BRANCH   6  12
ATOM     12  O   UNL     1      12.724 -17.334   9.173  1.00  0.00    -0.504 OA
ATOM     13  H   UNL     1      13.644 -17.753   9.116  1.00  0.00     0.293 HD
ENDBRANCH   6  12
TORSDOF 3
ENDMDL
MODEL 6
REMARK VINA RESULT:    -4.011      1.218      4.693
REMARK INTER + INTRA:          -4.524
REMARK INTER:                  -4.483
REMARK INTRA:                  -0.041
REMARK UNBOUND:                -0.044
REMARK SMILES O=C([O-])c1ccc(O)c(O)c1
REMARK SMILES IDX 4 1 11 2 5 3 9 4 6 5 7 6 2 7 1 8 3 9 10 10 8 12
REMARK H PARENT 10 11 8 13
REMARK Flexibility Score: inf
ROOT
ATOM      1  C   UNL     1      10.239 -18.034   8.161  1.00  0.00     0.001 A 
ATOM      2  C   UNL     1      11.247 -18.216   9.123  1.00  0.00     0.060 A 
ATOM      3  C   UNL     1      10.443 -17.108   7.124  1.00  0.00     0.014 A 
ATOM      4  C   UNL     1      12.442 -17.484   9.052  1.00  0.00     0.158 A 
ATOM      5  C   UNL     1      11.634 -16.379   7.052  1.00  0.00     0.051 A 
ATOM      6  C   UNL     1      12.635 -16.562   8.010  1.00  0.00     0.157 A 
ENDROOT
BRANCH   1   7
ATOM      7  C   UNL     1       8.980 -18.809   8.242  1.00  0.00     0.072 C 
ATOM      8  O   UNL     1       8.996 -20.024   8.572  1.00  0.00    -0.545 OA
ATOM      9  O   UNL     1       7.761 -18.205   7.953  1.00  0.00    -0.545 OA
ENDBRANCH   1   7
BRANCH   4  10
ATOM     10  O   UNL     1      13.437 -17.671  10.011  1.00  0.00    -0.504 OA
ATOM     11  H   UNL     1      14.419 -17.684   9.761  1.00  0.00     0.293 HD
ENDBRANCH   4  10
BRANCH   6  12
ATOM     12  O   UNL     1      13.811 -15.820   7.911  1.00  0.00    -0.504 OA
ATOM     13  H   UNL     1      14.670 -16.110   8.364  1.00  0.00     0.293 HD
ENDBRANCH   6  12
TORSDOF 3
ENDMDL
MODEL 7
REMARK VINA RESULT:    -3.891      1.174      1.824
REMARK INTER + INTRA:          -4.390
REMARK INTER:                  -4.354
REMARK INTRA:                  -0.036
REMARK UNBOUND:                -0.044
REMARK SMILES O=C([O-])c1ccc(O)c(O)c1
REMARK SMILES IDX 4 1 11 2 5 3 9 4 6 5 7 6 2 7 1 8 3 9 10 10 8 12
REMARK H PARENT 10 11 8 13
REMARK Flexibility Score: inf
ROOT
ATOM      1  C   UNL     1      11.122 -17.483   7.934  1.00  0.00     0.001 A 
ATOM      2  C   UNL     1      11.113 -18.477   6.941  1.00  0.00     0.060 A 
ATOM      3  C   UNL     1       9.918 -17.151   8.578  1.00  0.00     0.014 A 
ATOM      4  C   UNL     1       9.920 -19.130   6.595  1.00  0.00     0.158 A 
ATOM      5  C   UNL     1       8.729 -17.802   8.235  1.00  0.00     0.051 A 
ATOM      6  C   UNL     1       8.724 -18.790   7.247  1.00  0.00     0.157 A 
ENDROOT
BRANCH   1   7
ATOM      7  C   UNL     1      12.383 -16.797   8.294  1.00  0.00     0.072 C 
ATOM      8  O   UNL     1      13.080 -17.204   9.261  1.00  0.00    -0.545 OA
ATOM      9  O   UNL     1      12.816 -15.692   7.570  1.00  0.00    -0.545 OA
ENDBRANCH   1   7
BRANCH   4  10
ATOM     10  O   UNL     1       9.921 -20.115   5.608  1.00  0.00    -0.504 OA
ATOM     11  H   UNL     1      10.217 -19.915   4.659  1.00  0.00     0.293 HD
ENDBRANCH   4  10
BRANCH   6  12
ATOM     12  O   UNL     1       7.522 -19.421   6.926  1.00  0.00    -0.504 OA
ATOM     13  H   UNL     1       7.491 -20.364   6.558  1.00  0.00     0.293 HD
ENDBRANCH   6  12
TORSDOF 3
ENDMDL
MODEL 8
REMARK VINA RESULT:    -3.784      2.251      2.564
REMARK INTER + INTRA:          -4.270
REMARK INTER:                  -4.230
REMARK INTRA:                  -0.040
REMARK UNBOUND:                -0.044
REMARK SMILES O=C([O-])c1ccc(O)c(O)c1
REMARK SMILES IDX 4 1 11 2 5 3 9 4 6 5 7 6 2 7 1 8 3 9 10 10 8 12
REMARK H PARENT 10 11 8 13
REMARK Flexibility Score: inf
ROOT
ATOM      1  C   UNL     1       9.615 -18.591   8.025  1.00  0.00     0.001 A 
ATOM      2  C   UNL     1       8.796 -17.472   8.255  1.00  0.00     0.060 A 
ATOM      3  C   UNL     1       9.037 -19.871   8.025  1.00  0.00     0.014 A 
ATOM      4  C   UNL     1       7.420 -17.629   8.481  1.00  0.00     0.158 A 
ATOM      5  C   UNL     1       7.666 -20.029   8.249  1.00  0.00     0.051 A 
ATOM      6  C   UNL     1       6.854 -18.914   8.477  1.00  0.00     0.157 A 
ENDROOT
BRANCH   1   7
ATOM      7  C   UNL     1      11.066 -18.419   7.788  1.00  0.00     0.072 C 
ATOM      8  O   UNL     1      11.636 -19.023   6.842  1.00  0.00    -0.545 OA
ATOM      9  O   UNL     1      11.820 -17.587   8.608  1.00  0.00    -0.545 OA
ENDBRANCH   1   7
BRANCH   4  10
ATOM     10  O   UNL     1       6.615 -16.513   8.709  1.00  0.00    -0.504 OA
ATOM     11  H   UNL     1       6.285 -15.933   7.946  1.00  0.00     0.293 HD
ENDBRANCH   4  10
BRANCH   6  12
ATOM     12  O   UNL     1       5.490 -19.103   8.698  1.00  0.00    -0.504 OA
ATOM     13  H   UNL     1       5.115 -19.293   9.620  1.00  0.00     0.293 HD
ENDBRANCH   6  12
TORSDOF 3
ENDMDL
MODEL 9
REMARK VINA RESULT:    -3.573      2.248      4.237
REMARK INTER + INTRA:          -4.035
REMARK INTER:                  -3.993
REMARK INTRA:                  -0.042
REMARK UNBOUND:                -0.044
REMARK SMILES O=C([O-])c1ccc(O)c(O)c1
REMARK SMILES IDX 4 1 11 2 5 3 9 4 6 5 7 6 2 7 1 8 3 9 10 10 8 12
REMARK H PARENT 10 11 8 13
REMARK Flexibility Score: inf
ROOT
ATOM      1  C   UNL     1       8.151 -18.494   7.941  1.00  0.00     0.001 A 
ATOM      2  C   UNL     1       9.354 -17.792   8.128  1.00  0.00     0.060 A 
ATOM      3  C   UNL     1       8.141 -19.618   7.098  1.00  0.00     0.014 A 
ATOM      4  C   UNL     1      10.530 -18.206   7.483  1.00  0.00     0.158 A 
ATOM      5  C   UNL     1       9.312 -20.032   6.456  1.00  0.00     0.051 A 
ATOM      6  C   UNL     1      10.507 -19.332   6.644  1.00  0.00     0.157 A 
ENDROOT
BRANCH   1   7
ATOM      7  C   UNL     1       6.914 -18.052   8.623  1.00  0.00     0.072 C 
ATOM      8  O   UNL     1       6.708 -16.830   8.848  1.00  0.00    -0.545 OA
ATOM      9  O   UNL     1       5.962 -18.981   9.026  1.00  0.00    -0.545 OA
ENDBRANCH   1   7
BRANCH   4  10
ATOM     10  O   UNL     1      11.719 -17.503   7.675  1.00  0.00    -0.504 OA
ATOM     11  H   UNL     1      11.982 -16.731   7.073  1.00  0.00     0.293 HD
ENDBRANCH   4  10
BRANCH   6  12
ATOM     12  O   UNL     1      11.658 -19.769   5.990  1.00  0.00    -0.504 OA
ATOM     13  H   UNL     1      11.670 -19.970   4.998  1.00  0.00     0.293 HD
ENDBRANCH   6  12
TORSDOF 3
ENDMDL
