MODEL 1
REMARK VINA RESULT:    -3.889      0.000      0.000
REMARK INTER + INTRA:          -8.680
REMARK INTER:                  -7.071
REMARK INTRA:                  -1.609
REMARK UNBOUND:                -1.609
REMARK SMILES CCCCCC=CCC=CCCCCCCCC(=O)[O-]
REMARK SMILES IDX 11 1 12 2 13 3 14 4 15 5 16 6 17 7 18 8 19 9 20 10 10 11
REMARK SMILES IDX 9 12 8 13 7 14 6 15 5 16 4 17 3 18 2 19 1 20
REMARK H PARENT
REMARK Flexibility Score: inf
ROOT
ATOM      1  C   UNL     1      41.936  56.869  32.060  1.00  0.00     0.027 C 
ENDROOT
BRANCH   1   2
ATOM      2  C   UNL     1      42.286  57.560  30.734  1.00  0.00     0.004 C 
BRANCH   2   3
ATOM      3  C   UNL     1      43.049  58.881  30.935  1.00  0.00     0.000 C 
BRANCH   3   4
ATOM      4  C   UNL     1      42.666  59.982  29.923  1.00  0.00     0.000 C 
BRANCH   4   5
ATOM      5  C   UNL     1      41.300  59.717  29.264  1.00  0.00     0.000 C 
BRANCH   5   6
ATOM      6  C   UNL     1      41.014  60.660  28.086  1.00  0.00     0.006 C 
BRANCH   6   7
ATOM      7  C   UNL     1      40.009  60.069  27.087  1.00  0.00     0.053 C 
BRANCH   7   8
ATOM      8  C   UNL     1      38.619  60.515  27.420  1.00  0.00     0.041 C 
ATOM      9  O   UNL     1      38.233  61.674  27.110  1.00  0.00    -0.550 OA
ATOM     10  O   UNL     1      37.765  59.670  28.116  1.00  0.00    -0.550 OA
ENDBRANCH   7   8
ENDBRANCH   6   7
ENDBRANCH   5   6
ENDBRANCH   4   5
ENDBRANCH   3   4
ENDBRANCH   2   3
ENDBRANCH   1   2
BRANCH   1  11
ATOM     11  C   UNL     1      41.323  55.510  31.829  1.00  0.00    -0.031 C 
ATOM     12  C   UNL     1      42.008  54.351  31.790  1.00  0.00    -0.027 C 
BRANCH  12  13
ATOM     13  C   UNL     1      43.493  54.212  32.024  1.00  0.00     0.054 C 
BRANCH  13  14
ATOM     14  C   UNL     1      44.251  54.432  30.744  1.00  0.00    -0.027 C 
ATOM     15  C   UNL     1      43.641  54.309  29.555  1.00  0.00    -0.031 C 
BRANCH  15  16
ATOM     16  C   UNL     1      44.374  54.533  28.260  1.00  0.00     0.027 C 
BRANCH  16  17
ATOM     17  C   UNL     1      45.850  54.880  28.513  1.00  0.00     0.004 C 
BRANCH  17  18
ATOM     18  C   UNL     1      46.194  56.337  28.148  1.00  0.00     0.000 C 
BRANCH  18  19
ATOM     19  C   UNL     1      45.929  57.365  29.263  1.00  0.00    -0.003 C 
ATOM     20  C   UNL     1      47.062  58.379  29.422  1.00  0.00     0.004 C 
ENDBRANCH  18  19
ENDBRANCH  17  18
ENDBRANCH  16  17
ENDBRANCH  15  16
ENDBRANCH  13  14
ENDBRANCH  12  13
ENDBRANCH   1  11
TORSDOF 14
ENDMDL
MODEL 2
REMARK VINA RESULT:    -3.799     12.387     14.786
REMARK INTER + INTRA:          -8.517
REMARK INTER:                  -5.578
REMARK INTRA:                  -2.939
REMARK UNBOUND:                -1.609
REMARK SMILES CCCCCC=CCC=CCCCCCCCC(=O)[O-]
REMARK SMILES IDX 11 1 12 2 13 3 14 4 15 5 16 6 17 7 18 8 19 9 20 10 10 11
REMARK SMILES IDX 9 12 8 13 7 14 6 15 5 16 4 17 3 18 2 19 1 20
REMARK H PARENT
REMARK Flexibility Score: inf
ROOT
ATOM      1  C   UNL     1      45.399  71.271  29.883  1.00  0.00     0.027 C 
ENDROOT
BRANCH   1   2
ATOM      2  C   UNL     1      44.063  71.673  30.524  1.00  0.00     0.004 C 
BRANCH   2   3
ATOM      3  C   UNL     1      44.151  72.997  31.304  1.00  0.00     0.000 C 
BRANCH   3   4
ATOM      4  C   UNL     1      43.752  72.872  32.790  1.00  0.00     0.000 C 
BRANCH   4   5
ATOM      5  C   UNL     1      43.406  71.424  33.180  1.00  0.00     0.000 C 
BRANCH   5   6
ATOM      6  C   UNL     1      42.794  71.316  34.584  1.00  0.00     0.006 C 
BRANCH   6   7
ATOM      7  C   UNL     1      41.279  71.564  34.589  1.00  0.00     0.053 C 
BRANCH   7   8
ATOM      8  C   UNL     1      40.563  70.409  35.217  1.00  0.00     0.041 C 
ATOM      9  O   UNL     1      41.178  69.336  35.459  1.00  0.00    -0.550 OA
ATOM     10  O   UNL     1      39.204  70.499  35.492  1.00  0.00    -0.550 OA
ENDBRANCH   7   8
ENDBRANCH   6   7
ENDBRANCH   5   6
ENDBRANCH   4   5
ENDBRANCH   3   4
ENDBRANCH   2   3
ENDBRANCH   1   2
BRANCH   1  11
ATOM     11  C   UNL     1      46.000  70.068  30.565  1.00  0.00    -0.031 C 
ATOM     12  C   UNL     1      47.086  70.095  31.362  1.00  0.00    -0.027 C 
BRANCH  12  13
ATOM     13  C   UNL     1      47.849  71.340  31.747  1.00  0.00     0.054 C 
BRANCH  13  14
ATOM     14  C   UNL     1      47.372  71.859  33.076  1.00  0.00    -0.027 C 
ATOM     15  C   UNL     1      47.148  71.022  34.100  1.00  0.00    -0.031 C 
BRANCH  15  16
ATOM     16  C   UNL     1      46.680  71.517  35.442  1.00  0.00     0.027 C 
BRANCH  16  17
ATOM     17  C   UNL     1      45.835  70.452  36.159  1.00  0.00     0.004 C 
BRANCH  17  18
ATOM     18  C   UNL     1      46.153  69.019  35.692  1.00  0.00     0.000 C 
BRANCH  18  19
ATOM     19  C   UNL     1      44.938  68.209  35.206  1.00  0.00    -0.003 C 
ATOM     20  C   UNL     1      44.788  68.210  33.685  1.00  0.00     0.004 C 
ENDBRANCH  18  19
ENDBRANCH  17  18
ENDBRANCH  16  17
ENDBRANCH  15  16
ENDBRANCH  13  14
ENDBRANCH  12  13
ENDBRANCH   1  11
TORSDOF 14
ENDMDL
MODEL 3
REMARK VINA RESULT:    -3.701      3.461      5.332
REMARK INTER + INTRA:          -8.339
REMARK INTER:                  -5.958
REMARK INTRA:                  -2.381
REMARK UNBOUND:                -1.609
REMARK SMILES CCCCCC=CCC=CCCCCCCCC(=O)[O-]
REMARK SMILES IDX 11 1 12 2 13 3 14 4 15 5 16 6 17 7 18 8 19 9 20 10 10 11
REMARK SMILES IDX 9 12 8 13 7 14 6 15 5 16 4 17 3 18 2 19 1 20
REMARK H PARENT
REMARK Flexibility Score: inf
ROOT
ATOM      1  C   UNL     1      47.920  56.981  28.938  1.00  0.00     0.027 C 
ENDROOT
BRANCH   1   2
ATOM      2  C   UNL     1      46.806  58.034  28.844  1.00  0.00     0.004 C 
BRANCH   2   3
ATOM      3  C   UNL     1      45.563  57.662  29.671  1.00  0.00     0.000 C 
BRANCH   3   4
ATOM      4  C   UNL     1      44.911  58.863  30.390  1.00  0.00     0.000 C 
BRANCH   4   5
ATOM      5  C   UNL     1      43.440  58.595  30.755  1.00  0.00     0.000 C 
BRANCH   5   6
ATOM      6  C   UNL     1      43.053  57.115  30.613  1.00  0.00     0.006 C 
BRANCH   6   7
ATOM      7  C   UNL     1      41.685  56.800  31.234  1.00  0.00     0.053 C 
BRANCH   7   8
ATOM      8  C   UNL     1      41.838  56.443  32.680  1.00  0.00     0.041 C 
ATOM      9  O   UNL     1      41.964  55.238  33.026  1.00  0.00    -0.550 OA
ATOM     10  O   UNL     1      41.793  57.435  33.650  1.00  0.00    -0.550 OA
ENDBRANCH   7   8
ENDBRANCH   6   7
ENDBRANCH   5   6
ENDBRANCH   4   5
ENDBRANCH   3   4
ENDBRANCH   2   3
ENDBRANCH   1   2
BRANCH   1  11
ATOM     11  C   UNL     1      47.637  55.797  28.048  1.00  0.00    -0.031 C 
ATOM     12  C   UNL     1      47.680  54.509  28.441  1.00  0.00    -0.027 C 
BRANCH  12  13
ATOM     13  C   UNL     1      47.964  54.039  29.847  1.00  0.00     0.054 C 
BRANCH  13  14
ATOM     14  C   UNL     1      46.727  53.447  30.465  1.00  0.00    -0.027 C 
ATOM     15  C   UNL     1      45.579  54.139  30.498  1.00  0.00    -0.031 C 
BRANCH  15  16
ATOM     16  C   UNL     1      44.325  53.567  31.102  1.00  0.00     0.027 C 
BRANCH  16  17
ATOM     17  C   UNL     1      43.332  53.136  30.011  1.00  0.00     0.004 C 
BRANCH  17  18
ATOM     18  C   UNL     1      43.349  54.066  28.783  1.00  0.00     0.000 C 
BRANCH  18  19
ATOM     19  C   UNL     1      43.705  53.379  27.453  1.00  0.00    -0.003 C 
ATOM     20  C   UNL     1      44.577  54.248  26.546  1.00  0.00     0.004 C 
ENDBRANCH  18  19
ENDBRANCH  17  18
ENDBRANCH  16  17
ENDBRANCH  15  16
ENDBRANCH  13  14
ENDBRANCH  12  13
ENDBRANCH   1  11
TORSDOF 14
ENDMDL
MODEL 4
REMARK VINA RESULT:    -3.686      3.455      5.614
REMARK INTER + INTRA:          -8.311
REMARK INTER:                  -6.152
REMARK INTRA:                  -2.159
REMARK UNBOUND:                -1.609
REMARK SMILES CCCCCC=CCC=CCCCCCCCC(=O)[O-]
REMARK SMILES IDX 11 1 12 2 13 3 14 4 15 5 16 6 17 7 18 8 19 9 20 10 10 11
REMARK SMILES IDX 9 12 8 13 7 14 6 15 5 16 4 17 3 18 2 19 1 20
REMARK H PARENT
REMARK Flexibility Score: inf
ROOT
ATOM      1  C   UNL     1      41.958  57.170  33.229  1.00  0.00     0.027 C 
ENDROOT
BRANCH   1   2
ATOM      2  C   UNL     1      41.830  55.939  34.139  1.00  0.00     0.004 C 
BRANCH   2   3
ATOM      3  C   UNL     1      41.714  54.624  33.347  1.00  0.00     0.000 C 
BRANCH   3   4
ATOM      4  C   UNL     1      42.882  53.645  33.593  1.00  0.00     0.000 C 
BRANCH   4   5
ATOM      5  C   UNL     1      44.103  53.963  32.711  1.00  0.00     0.000 C 
BRANCH   5   6
ATOM      6  C   UNL     1      44.103  53.179  31.390  1.00  0.00     0.006 C 
BRANCH   6   7
ATOM      7  C   UNL     1      43.763  54.060  30.181  1.00  0.00     0.053 C 
BRANCH   7   8
ATOM      8  C   UNL     1      42.580  53.506  29.448  1.00  0.00     0.041 C 
ATOM      9  O   UNL     1      42.652  53.271  28.212  1.00  0.00    -0.550 OA
ATOM     10  O   UNL     1      41.382  53.296  30.119  1.00  0.00    -0.550 OA
ENDBRANCH   7   8
ENDBRANCH   6   7
ENDBRANCH   5   6
ENDBRANCH   4   5
ENDBRANCH   3   4
ENDBRANCH   2   3
ENDBRANCH   1   2
BRANCH   1  11
ATOM     11  C   UNL     1      41.867  56.793  31.772  1.00  0.00    -0.031 C 
ATOM     12  C   UNL     1      42.248  57.579  30.746  1.00  0.00    -0.027 C 
BRANCH  12  13
ATOM     13  C   UNL     1      42.878  58.943  30.885  1.00  0.00     0.054 C 
BRANCH  13  14
ATOM     14  C   UNL     1      44.312  58.910  30.433  1.00  0.00    -0.027 C 
ATOM     15  C   UNL     1      44.872  57.766  30.012  1.00  0.00    -0.031 C 
BRANCH  15  16
ATOM     16  C   UNL     1      46.302  57.708  29.546  1.00  0.00     0.027 C 
BRANCH  16  17
ATOM     17  C   UNL     1      46.421  56.932  28.224  1.00  0.00     0.004 C 
BRANCH  17  18
ATOM     18  C   UNL     1      46.959  55.500  28.415  1.00  0.00     0.000 C 
BRANCH  18  19
ATOM     19  C   UNL     1      46.453  54.474  27.386  1.00  0.00    -0.003 C 
ATOM     20  C   UNL     1      45.153  54.903  26.705  1.00  0.00     0.004 C 
ENDBRANCH  18  19
ENDBRANCH  17  18
ENDBRANCH  16  17
ENDBRANCH  15  16
ENDBRANCH  13  14
ENDBRANCH  12  13
ENDBRANCH   1  11
TORSDOF 14
ENDMDL
MODEL 5
REMARK VINA RESULT:    -3.683     12.878     14.759
REMARK INTER + INTRA:          -8.307
REMARK INTER:                  -5.486
REMARK INTRA:                  -2.820
REMARK UNBOUND:                -1.609
REMARK SMILES CCCCCC=CCC=CCCCCCCCC(=O)[O-]
REMARK SMILES IDX 11 1 12 2 13 3 14 4 15 5 16 6 17 7 18 8 19 9 20 10 10 11
REMARK SMILES IDX 9 12 8 13 7 14 6 15 5 16 4 17 3 18 2 19 1 20
REMARK H PARENT
REMARK Flexibility Score: inf
ROOT
ATOM      1  C   UNL     1      45.632  71.234  30.139  1.00  0.00     0.027 C 
ENDROOT
BRANCH   1   2
ATOM      2  C   UNL     1      44.180  71.666  30.396  1.00  0.00     0.004 C 
BRANCH   2   3
ATOM      3  C   UNL     1      44.077  72.854  31.369  1.00  0.00     0.000 C 
BRANCH   3   4
ATOM      4  C   UNL     1      44.033  72.440  32.856  1.00  0.00     0.000 C 
BRANCH   4   5
ATOM      5  C   UNL     1      42.682  72.772  33.513  1.00  0.00     0.000 C 
BRANCH   5   6
ATOM      6  C   UNL     1      41.946  71.524  34.025  1.00  0.00     0.006 C 
BRANCH   6   7
ATOM      7  C   UNL     1      40.722  71.871  34.884  1.00  0.00     0.053 C 
BRANCH   7   8
ATOM      8  C   UNL     1      40.115  70.627  35.454  1.00  0.00     0.041 C 
ATOM      9  O   UNL     1      40.734  69.531  35.387  1.00  0.00    -0.550 OA
ATOM     10  O   UNL     1      38.846  70.667  36.016  1.00  0.00    -0.550 OA
ENDBRANCH   7   8
ENDBRANCH   6   7
ENDBRANCH   5   6
ENDBRANCH   4   5
ENDBRANCH   3   4
ENDBRANCH   2   3
ENDBRANCH   1   2
BRANCH   1  11
ATOM     11  C   UNL     1      45.826  69.763  30.408  1.00  0.00    -0.031 C 
ATOM     12  C   UNL     1      46.391  69.249  31.518  1.00  0.00    -0.027 C 
BRANCH  12  13
ATOM     13  C   UNL     1      46.872  70.056  32.699  1.00  0.00     0.054 C 
BRANCH  13  14
ATOM     14  C   UNL     1      46.135  69.654  33.947  1.00  0.00    -0.027 C 
ATOM     15  C   UNL     1      44.911  69.111  33.876  1.00  0.00    -0.031 C 
BRANCH  15  16
ATOM     16  C   UNL     1      44.155  68.693  35.109  1.00  0.00     0.027 C 
BRANCH  16  17
ATOM     17  C   UNL     1      44.678  69.427  36.353  1.00  0.00     0.004 C 
BRANCH  17  18
ATOM     18  C   UNL     1      43.600  70.289  37.039  1.00  0.00     0.000 C 
BRANCH  18  19
ATOM     19  C   UNL     1      43.928  71.790  37.125  1.00  0.00    -0.003 C 
ATOM     20  C   UNL     1      45.227  72.160  36.411  1.00  0.00     0.004 C 
ENDBRANCH  18  19
ENDBRANCH  17  18
ENDBRANCH  16  17
ENDBRANCH  15  16
ENDBRANCH  13  14
ENDBRANCH  12  13
ENDBRANCH   1  11
TORSDOF 14
ENDMDL
MODEL 6
REMARK VINA RESULT:    -3.632      3.738      5.913
REMARK INTER + INTRA:          -8.214
REMARK INTER:                  -6.032
REMARK INTRA:                  -2.181
REMARK UNBOUND:                -1.609
REMARK SMILES CCCCCC=CCC=CCCCCCCCC(=O)[O-]
REMARK SMILES IDX 11 1 12 2 13 3 14 4 15 5 16 6 17 7 18 8 19 9 20 10 10 11
REMARK SMILES IDX 9 12 8 13 7 14 6 15 5 16 4 17 3 18 2 19 1 20
REMARK H PARENT
REMARK Flexibility Score: inf
ROOT
ATOM      1  C   UNL     1      45.298  57.931  29.671  1.00  0.00     0.027 C 
ENDROOT
BRANCH   1   2
ATOM      2  C   UNL     1      44.683  59.008  30.578  1.00  0.00     0.004 C 
BRANCH   2   3
ATOM      3  C   UNL     1      43.152  58.895  30.682  1.00  0.00     0.000 C 
BRANCH   3   4
ATOM      4  C   UNL     1      42.636  57.440  30.714  1.00  0.00     0.000 C 
BRANCH   4   5
ATOM      5  C   UNL     1      41.964  57.091  32.053  1.00  0.00     0.000 C 
BRANCH   5   6
ATOM      6  C   UNL     1      41.353  55.681  32.063  1.00  0.00     0.006 C 
BRANCH   6   7
ATOM      7  C   UNL     1      42.177  54.686  32.892  1.00  0.00     0.053 C 
BRANCH   7   8
ATOM      8  C   UNL     1      41.998  54.952  34.354  1.00  0.00     0.041 C 
ATOM      9  O   UNL     1      40.842  55.063  34.843  1.00  0.00    -0.550 OA
ATOM     10  O   UNL     1      43.109  55.127  35.170  1.00  0.00    -0.550 OA
ENDBRANCH   7   8
ENDBRANCH   6   7
ENDBRANCH   5   6
ENDBRANCH   4   5
ENDBRANCH   3   4
ENDBRANCH   2   3
ENDBRANCH   1   2
BRANCH   1  11
ATOM     11  C   UNL     1      46.798  58.070  29.588  1.00  0.00    -0.031 C 
ATOM     12  C   UNL     1      47.537  57.814  28.491  1.00  0.00    -0.027 C 
BRANCH  12  13
ATOM     13  C   UNL     1      46.983  57.399  27.149  1.00  0.00     0.054 C 
BRANCH  13  14
ATOM     14  C   UNL     1      46.832  55.904  27.081  1.00  0.00    -0.027 C 
ATOM     15  C   UNL     1      47.639  55.100  27.789  1.00  0.00    -0.031 C 
BRANCH  15  16
ATOM     16  C   UNL     1      47.504  53.602  27.746  1.00  0.00     0.027 C 
BRANCH  16  17
ATOM     17  C   UNL     1      46.355  53.124  28.648  1.00  0.00     0.004 C 
BRANCH  17  18
ATOM     18  C   UNL     1      46.341  53.821  30.022  1.00  0.00     0.000 C 
BRANCH  18  19
ATOM     19  C   UNL     1      45.001  54.472  30.407  1.00  0.00    -0.003 C 
ATOM     20  C   UNL     1      43.960  54.401  29.290  1.00  0.00     0.004 C 
ENDBRANCH  18  19
ENDBRANCH  17  18
ENDBRANCH  16  17
ENDBRANCH  15  16
ENDBRANCH  13  14
ENDBRANCH  12  13
ENDBRANCH   1  11
TORSDOF 14
ENDMDL
MODEL 7
REMARK VINA RESULT:    -3.626      3.525      6.251
REMARK INTER + INTRA:          -8.201
REMARK INTER:                  -6.110
REMARK INTRA:                  -2.092
REMARK UNBOUND:                -1.609
REMARK SMILES CCCCCC=CCC=CCCCCCCCC(=O)[O-]
REMARK SMILES IDX 11 1 12 2 13 3 14 4 15 5 16 6 17 7 18 8 19 9 20 10 10 11
REMARK SMILES IDX 9 12 8 13 7 14 6 15 5 16 4 17 3 18 2 19 1 20
REMARK H PARENT
REMARK Flexibility Score: inf
ROOT
ATOM      1  C   UNL     1      45.286  57.620  29.629  1.00  0.00     0.027 C 
ENDROOT
BRANCH   1   2
ATOM      2  C   UNL     1      46.625  57.773  28.892  1.00  0.00     0.004 C 
BRANCH   2   3
ATOM      3  C   UNL     1      47.450  56.474  28.878  1.00  0.00     0.000 C 
BRANCH   3   4
ATOM      4  C   UNL     1      47.285  55.645  27.586  1.00  0.00     0.000 C 
BRANCH   4   5
ATOM      5  C   UNL     1      47.082  54.148  27.877  1.00  0.00     0.000 C 
BRANCH   5   6
ATOM      6  C   UNL     1      45.900  53.546  27.102  1.00  0.00     0.006 C 
BRANCH   6   7
ATOM      7  C   UNL     1      44.884  54.606  26.657  1.00  0.00     0.053 C 
BRANCH   7   8
ATOM      8  C   UNL     1      43.922  54.025  25.668  1.00  0.00     0.041 C 
ATOM      9  O   UNL     1      43.928  54.417  24.471  1.00  0.00    -0.550 OA
ATOM     10  O   UNL     1      42.984  53.086  26.079  1.00  0.00    -0.550 OA
ENDBRANCH   7   8
ENDBRANCH   6   7
ENDBRANCH   5   6
ENDBRANCH   4   5
ENDBRANCH   3   4
ENDBRANCH   2   3
ENDBRANCH   1   2
BRANCH   1  11
ATOM     11  C   UNL     1      44.923  58.876  30.381  1.00  0.00    -0.031 C 
ATOM     12  C   UNL     1      43.669  59.242  30.711  1.00  0.00    -0.027 C 
BRANCH  12  13
ATOM     13  C   UNL     1      42.426  58.432  30.432  1.00  0.00     0.054 C 
BRANCH  13  14
ATOM     14  C   UNL     1      42.228  57.389  31.497  1.00  0.00    -0.027 C 
ATOM     15  C   UNL     1      41.487  56.296  31.257  1.00  0.00    -0.031 C 
BRANCH  15  16
ATOM     16  C   UNL     1      41.280  55.233  32.302  1.00  0.00     0.027 C 
BRANCH  16  17
ATOM     17  C   UNL     1      41.703  53.852  31.776  1.00  0.00     0.004 C 
BRANCH  17  18
ATOM     18  C   UNL     1      42.054  53.862  30.276  1.00  0.00     0.000 C 
BRANCH  18  19
ATOM     19  C   UNL     1      43.493  53.431  29.943  1.00  0.00    -0.003 C 
ATOM     20  C   UNL     1      44.548  54.223  30.715  1.00  0.00     0.004 C 
ENDBRANCH  18  19
ENDBRANCH  17  18
ENDBRANCH  16  17
ENDBRANCH  15  16
ENDBRANCH  13  14
ENDBRANCH  12  13
ENDBRANCH   1  11
TORSDOF 14
ENDMDL
MODEL 8
REMARK VINA RESULT:    -3.561      3.402      5.668
REMARK INTER + INTRA:          -8.083
REMARK INTER:                  -6.246
REMARK INTRA:                  -1.838
REMARK UNBOUND:                -1.609
REMARK SMILES CCCCCC=CCC=CCCCCCCCC(=O)[O-]
REMARK SMILES IDX 11 1 12 2 13 3 14 4 15 5 16 6 17 7 18 8 19 9 20 10 10 11
REMARK SMILES IDX 9 12 8 13 7 14 6 15 5 16 4 17 3 18 2 19 1 20
REMARK H PARENT
REMARK Flexibility Score: inf
ROOT
ATOM      1  C   UNL     1      47.873  57.471  28.642  1.00  0.00     0.027 C 
ENDROOT
BRANCH   1   2
ATOM      2  C   UNL     1      46.550  57.711  29.384  1.00  0.00     0.004 C 
BRANCH   2   3
ATOM      3  C   UNL     1      45.721  56.426  29.556  1.00  0.00     0.000 C 
BRANCH   3   4
ATOM      4  C   UNL     1      44.249  56.681  29.945  1.00  0.00     0.000 C 
BRANCH   4   5
ATOM      5  C   UNL     1      44.007  58.137  30.379  1.00  0.00     0.000 C 
BRANCH   5   6
ATOM      6  C   UNL     1      42.602  58.358  30.962  1.00  0.00     0.006 C 
BRANCH   6   7
ATOM      7  C   UNL     1      41.753  57.080  30.958  1.00  0.00     0.053 C 
BRANCH   7   8
ATOM      8  C   UNL     1      41.599  56.552  32.350  1.00  0.00     0.041 C 
ATOM      9  O   UNL     1      41.925  57.262  33.338  1.00  0.00    -0.550 OA
ATOM     10  O   UNL     1      41.142  55.257  32.556  1.00  0.00    -0.550 OA
ENDBRANCH   7   8
ENDBRANCH   6   7
ENDBRANCH   5   6
ENDBRANCH   4   5
ENDBRANCH   3   4
ENDBRANCH   2   3
ENDBRANCH   1   2
BRANCH   1  11
ATOM     11  C   UNL     1      47.667  57.417  27.148  1.00  0.00    -0.031 C 
ATOM     12  C   UNL     1      47.594  56.286  26.420  1.00  0.00    -0.027 C 
BRANCH  12  13
ATOM     13  C   UNL     1      47.651  54.886  26.982  1.00  0.00     0.054 C 
BRANCH  13  14
ATOM     14  C   UNL     1      46.415  54.117  26.607  1.00  0.00    -0.027 C 
ATOM     15  C   UNL     1      45.320  54.753  26.163  1.00  0.00    -0.031 C 
BRANCH  15  16
ATOM     16  C   UNL     1      44.072  54.007  25.772  1.00  0.00     0.027 C 
BRANCH  16  17
ATOM     17  C   UNL     1      43.643  53.032  26.880  1.00  0.00     0.004 C 
BRANCH  17  18
ATOM     18  C   UNL     1      43.298  53.741  28.204  1.00  0.00     0.000 C 
BRANCH  18  19
ATOM     19  C   UNL     1      42.436  52.917  29.177  1.00  0.00    -0.003 C 
ATOM     20  C   UNL     1      42.909  53.019  30.627  1.00  0.00     0.004 C 
ENDBRANCH  18  19
ENDBRANCH  17  18
ENDBRANCH  16  17
ENDBRANCH  15  16
ENDBRANCH  13  14
ENDBRANCH  12  13
ENDBRANCH   1  11
TORSDOF 14
ENDMDL
MODEL 9
REMARK VINA RESULT:    -3.555      3.824      6.139
REMARK INTER + INTRA:          -8.073
REMARK INTER:                  -5.821
REMARK INTRA:                  -2.252
REMARK UNBOUND:                -1.609
REMARK SMILES CCCCCC=CCC=CCCCCCCCC(=O)[O-]
REMARK SMILES IDX 11 1 12 2 13 3 14 4 15 5 16 6 17 7 18 8 19 9 20 10 10 11
REMARK SMILES IDX 9 12 8 13 7 14 6 15 5 16 4 17 3 18 2 19 1 20
REMARK H PARENT
REMARK Flexibility Score: inf
ROOT
ATOM      1  C   UNL     1      42.355  57.330  31.702  1.00  0.00     0.027 C 
ENDROOT
BRANCH   1   2
ATOM      2  C   UNL     1      41.380  56.290  31.131  1.00  0.00     0.004 C 
BRANCH   2   3
ATOM      3  C   UNL     1      42.086  55.007  30.659  1.00  0.00     0.000 C 
BRANCH   3   4
ATOM      4  C   UNL     1      43.558  55.222  30.247  1.00  0.00     0.000 C 
BRANCH   4   5
ATOM      5  C   UNL     1      44.516  54.278  30.995  1.00  0.00     0.000 C 
BRANCH   5   6
ATOM      6  C   UNL     1      43.789  53.357  31.986  1.00  0.00     0.006 C 
BRANCH   6   7
ATOM      7  C   UNL     1      44.187  53.626  33.444  1.00  0.00     0.053 C 
BRANCH   7   8
ATOM      8  C   UNL     1      43.024  54.176  34.210  1.00  0.00     0.041 C 
ATOM      9  O   UNL     1      41.848  53.847  33.900  1.00  0.00    -0.550 OA
ATOM     10  O   UNL     1      43.235  55.090  35.234  1.00  0.00    -0.550 OA
ENDBRANCH   7   8
ENDBRANCH   6   7
ENDBRANCH   5   6
ENDBRANCH   4   5
ENDBRANCH   3   4
ENDBRANCH   2   3
ENDBRANCH   1   2
BRANCH   1  11
ATOM     11  C   UNL     1      42.544  58.490  30.755  1.00  0.00    -0.031 C 
ATOM     12  C   UNL     1      43.736  58.990  30.375  1.00  0.00    -0.027 C 
BRANCH  12  13
ATOM     13  C   UNL     1      45.079  58.440  30.789  1.00  0.00     0.054 C 
BRANCH  13  14
ATOM     14  C   UNL     1      46.026  58.427  29.620  1.00  0.00    -0.027 C 
ATOM     15  C   UNL     1      46.205  57.313  28.895  1.00  0.00    -0.031 C 
BRANCH  15  16
ATOM     16  C   UNL     1      47.140  57.275  27.716  1.00  0.00     0.027 C 
BRANCH  16  17
ATOM     17  C   UNL     1      47.749  55.875  27.538  1.00  0.00     0.004 C 
BRANCH  17  18
ATOM     18  C   UNL     1      46.860  54.756  28.114  1.00  0.00     0.000 C 
BRANCH  18  19
ATOM     19  C   UNL     1      46.099  53.928  27.064  1.00  0.00    -0.003 C 
ATOM     20  C   UNL     1      44.691  54.457  26.792  1.00  0.00     0.004 C 
ENDBRANCH  18  19
ENDBRANCH  17  18
ENDBRANCH  16  17
ENDBRANCH  15  16
ENDBRANCH  13  14
ENDBRANCH  12  13
ENDBRANCH   1  11
TORSDOF 14
ENDMDL
