MODEL 1
REMARK VINA RESULT:    -3.499      0.000      0.000
REMARK INTER + INTRA:         -12.552
REMARK INTER:                  -8.000
REMARK INTRA:                  -4.553
REMARK UNBOUND:                -4.553
REMARK SMILES CCCCCCCCCCCCCCCCCCCCCCCC(=O)[O-]
REMARK SMILES IDX 13 1 14 2 15 3 16 4 17 5 18 6 19 7 20 8 21 9 22 10 23 11
REMARK SMILES IDX 24 12 25 13 26 14 12 15 11 16 10 17 9 18 8 19 7 20 6 21 5 22
REMARK SMILES IDX 4 23 3 24 2 25 1 26
REMARK H PARENT
REMARK Flexibility Score: inf
ROOT
ATOM      1  C   UNL     1     141.435 129.252 115.247  1.00  0.00     0.000 C 
ENDROOT
BRANCH   1   2
ATOM      2  C   UNL     1     141.592 130.213 114.052  1.00  0.00     0.000 C 
BRANCH   2   3
ATOM      3  C   UNL     1     140.306 130.487 113.252  1.00  0.00     0.000 C 
BRANCH   3   4
ATOM      4  C   UNL     1     139.068 129.808 113.860  1.00  0.00     0.000 C 
BRANCH   4   5
ATOM      5  C   UNL     1     138.613 128.567 113.070  1.00  0.00     0.000 C 
BRANCH   5   6
ATOM      6  C   UNL     1     138.553 127.259 113.879  1.00  0.00     0.000 C 
BRANCH   6   7
ATOM      7  C   UNL     1     137.728 127.386 115.169  1.00  0.00     0.000 C 
BRANCH   7   8
ATOM      8  C   UNL     1     138.621 127.242 116.411  1.00  0.00     0.000 C 
BRANCH   8   9
ATOM      9  C   UNL     1     138.084 128.023 117.621  1.00  0.00     0.000 C 
BRANCH   9  10
ATOM     10  C   UNL     1     138.959 129.237 117.979  1.00  0.00     0.006 C 
BRANCH  10  11
ATOM     11  C   UNL     1     140.251 128.827 118.698  1.00  0.00     0.053 C 
BRANCH  11  12
ATOM     12  C   UNL     1     139.971 128.044 119.944  1.00  0.00     0.041 C 
ATOM     13  O   UNL     1     140.422 126.875 120.072  1.00  0.00    -0.550 OA
ATOM     14  O   UNL     1     139.247 128.620 120.981  1.00  0.00    -0.550 OA
ENDBRANCH  11  12
ENDBRANCH  10  11
ENDBRANCH   9  10
ENDBRANCH   8   9
ENDBRANCH   7   8
ENDBRANCH   6   7
ENDBRANCH   5   6
ENDBRANCH   4   5
ENDBRANCH   3   4
ENDBRANCH   2   3
ENDBRANCH   1   2
BRANCH   1  15
ATOM     15  C   UNL     1     142.211 127.928 115.129  1.00  0.00     0.000 C 
BRANCH  15  16
ATOM     16  C   UNL     1     142.980 127.572 116.410  1.00  0.00     0.000 C 
BRANCH  16  17
ATOM     17  C   UNL     1     144.472 127.367 116.116  1.00  0.00     0.000 C 
BRANCH  17  18
ATOM     18  C   UNL     1     144.792 127.694 114.650  1.00  0.00    -0.000 C 
BRANCH  18  19
ATOM     19  C   UNL     1     145.497 129.050 114.484  1.00  0.00    -0.000 C 
BRANCH  19  20
ATOM     20  C   UNL     1     146.161 129.531 115.786  1.00  0.00    -0.000 C 
BRANCH  20  21
ATOM     21  C   UNL     1     145.927 131.027 116.054  1.00  0.00    -0.000 C 
BRANCH  21  22
ATOM     22  C   UNL     1     144.436 131.397 116.102  1.00  0.00    -0.000 C 
BRANCH  22  23
ATOM     23  C   UNL     1     143.842 131.109 117.486  1.00  0.00    -0.000 C 
BRANCH  23  24
ATOM     24  C   UNL     1     142.440 131.720 117.622  1.00  0.00    -0.000 C 
BRANCH  24  25
ATOM     25  C   UNL     1     142.166 132.811 116.577  1.00  0.00    -0.003 C 
ATOM     26  C   UNL     1     140.677 132.998 116.290  1.00  0.00     0.004 C 
ENDBRANCH  24  25
ENDBRANCH  23  24
ENDBRANCH  22  23
ENDBRANCH  21  22
ENDBRANCH  20  21
ENDBRANCH  19  20
ENDBRANCH  18  19
ENDBRANCH  17  18
ENDBRANCH  16  17
ENDBRANCH  15  16
ENDBRANCH   1  15
TORSDOF 22
ENDMDL
MODEL 2
REMARK VINA RESULT:    -3.479      1.883      5.899
REMARK INTER + INTRA:         -12.507
REMARK INTER:                  -8.368
REMARK INTRA:                  -4.138
REMARK UNBOUND:                -4.553
REMARK SMILES CCCCCCCCCCCCCCCCCCCCCCCC(=O)[O-]
REMARK SMILES IDX 13 1 14 2 15 3 16 4 17 5 18 6 19 7 20 8 21 9 22 10 23 11
REMARK SMILES IDX 24 12 25 13 26 14 12 15 11 16 10 17 9 18 8 19 7 20 6 21 5 22
REMARK SMILES IDX 4 23 3 24 2 25 1 26
REMARK H PARENT
REMARK Flexibility Score: inf
ROOT
ATOM      1  C   UNL     1     142.654 131.437 116.641  1.00  0.00     0.000 C 
ENDROOT
BRANCH   1   2
ATOM      2  C   UNL     1     144.019 132.145 116.756  1.00  0.00     0.000 C 
BRANCH   2   3
ATOM      3  C   UNL     1     145.201 131.240 117.148  1.00  0.00     0.000 C 
BRANCH   3   4
ATOM      4  C   UNL     1     146.083 130.855 115.949  1.00  0.00     0.000 C 
BRANCH   4   5
ATOM      5  C   UNL     1     146.090 129.341 115.670  1.00  0.00     0.000 C 
BRANCH   5   6
ATOM      6  C   UNL     1     145.133 128.874 114.558  1.00  0.00     0.000 C 
BRANCH   6   7
ATOM      7  C   UNL     1     144.474 127.519 114.860  1.00  0.00     0.000 C 
BRANCH   7   8
ATOM      8  C   UNL     1     142.959 127.677 115.065  1.00  0.00     0.000 C 
BRANCH   8   9
ATOM      9  C   UNL     1     142.519 127.352 116.501  1.00  0.00     0.000 C 
BRANCH   9  10
ATOM     10  C   UNL     1     143.708 127.121 117.449  1.00  0.00     0.006 C 
BRANCH  10  11
ATOM     11  C   UNL     1     143.824 128.222 118.511  1.00  0.00     0.053 C 
BRANCH  11  12
ATOM     12  C   UNL     1     144.992 127.996 119.423  1.00  0.00     0.041 C 
ATOM     13  O   UNL     1     144.906 128.285 120.646  1.00  0.00    -0.550 OA
ATOM     14  O   UNL     1     146.160 127.427 118.930  1.00  0.00    -0.550 OA
ENDBRANCH  11  12
ENDBRANCH  10  11
ENDBRANCH   9  10
ENDBRANCH   8   9
ENDBRANCH   7   8
ENDBRANCH   6   7
ENDBRANCH   5   6
ENDBRANCH   4   5
ENDBRANCH   3   4
ENDBRANCH   2   3
ENDBRANCH   1   2
BRANCH   1  15
ATOM     15  C   UNL     1     142.178 131.165 115.203  1.00  0.00     0.000 C 
BRANCH  15  16
ATOM     16  C   UNL     1     140.805 130.478 115.150  1.00  0.00     0.000 C 
BRANCH  16  17
ATOM     17  C   UNL     1     140.405 130.160 113.704  1.00  0.00     0.000 C 
BRANCH  17  18
ATOM     18  C   UNL     1     138.986 129.575 113.643  1.00  0.00    -0.000 C 
BRANCH  18  19
ATOM     19  C   UNL     1     138.979 128.050 113.454  1.00  0.00    -0.000 C 
BRANCH  19  20
ATOM     20  C   UNL     1     138.080 127.335 114.477  1.00  0.00    -0.000 C 
BRANCH  20  21
ATOM     21  C   UNL     1     138.734 127.219 115.863  1.00  0.00    -0.000 C 
BRANCH  21  22
ATOM     22  C   UNL     1     137.710 127.246 117.009  1.00  0.00    -0.000 C 
BRANCH  22  23
ATOM     23  C   UNL     1     137.984 128.414 117.965  1.00  0.00    -0.000 C 
BRANCH  23  24
ATOM     24  C   UNL     1     139.431 128.908 117.830  1.00  0.00    -0.000 C 
BRANCH  24  25
ATOM     25  C   UNL     1     140.251 128.696 119.111  1.00  0.00    -0.003 C 
ATOM     26  C   UNL     1     140.768 130.003 119.709  1.00  0.00     0.004 C 
ENDBRANCH  24  25
ENDBRANCH  23  24
ENDBRANCH  22  23
ENDBRANCH  21  22
ENDBRANCH  20  21
ENDBRANCH  19  20
ENDBRANCH  18  19
ENDBRANCH  17  18
ENDBRANCH  16  17
ENDBRANCH  15  16
ENDBRANCH   1  15
TORSDOF 22
ENDMDL
MODEL 3
REMARK VINA RESULT:    -3.470      2.173      6.327
REMARK INTER + INTRA:         -12.485
REMARK INTER:                  -8.372
REMARK INTRA:                  -4.113
REMARK UNBOUND:                -4.553
REMARK SMILES CCCCCCCCCCCCCCCCCCCCCCCC(=O)[O-]
REMARK SMILES IDX 13 1 14 2 15 3 16 4 17 5 18 6 19 7 20 8 21 9 22 10 23 11
REMARK SMILES IDX 24 12 25 13 26 14 12 15 11 16 10 17 9 18 8 19 7 20 6 21 5 22
REMARK SMILES IDX 4 23 3 24 2 25 1 26
REMARK H PARENT
REMARK Flexibility Score: inf
ROOT
ATOM      1  C   UNL     1     141.890 128.591 115.585  1.00  0.00     0.000 C 
ENDROOT
BRANCH   1   2
ATOM      2  C   UNL     1     142.888 127.452 115.297  1.00  0.00     0.000 C 
BRANCH   2   3
ATOM      3  C   UNL     1     143.941 127.205 116.393  1.00  0.00     0.000 C 
BRANCH   3   4
ATOM      4  C   UNL     1     145.383 127.337 115.878  1.00  0.00     0.000 C 
BRANCH   4   5
ATOM      5  C   UNL     1     145.461 127.907 114.449  1.00  0.00     0.000 C 
BRANCH   5   6
ATOM      6  C   UNL     1     145.586 129.439 114.360  1.00  0.00     0.000 C 
BRANCH   6   7
ATOM      7  C   UNL     1     146.171 130.071 115.633  1.00  0.00     0.000 C 
BRANCH   7   8
ATOM      8  C   UNL     1     145.144 130.988 116.315  1.00  0.00     0.000 C 
BRANCH   8   9
ATOM      9  C   UNL     1     145.030 130.728 117.826  1.00  0.00     0.000 C 
BRANCH   9  10
ATOM     10  C   UNL     1     143.589 130.417 118.268  1.00  0.00     0.006 C 
BRANCH  10  11
ATOM     11  C   UNL     1     143.196 131.179 119.540  1.00  0.00     0.053 C 
BRANCH  11  12
ATOM     12  C   UNL     1     143.150 132.659 119.311  1.00  0.00     0.041 C 
ATOM     13  O   UNL     1     143.631 133.447 120.169  1.00  0.00    -0.550 OA
ATOM     14  O   UNL     1     142.615 133.166 118.134  1.00  0.00    -0.550 OA
ENDBRANCH  11  12
ENDBRANCH  10  11
ENDBRANCH   9  10
ENDBRANCH   8   9
ENDBRANCH   7   8
ENDBRANCH   6   7
ENDBRANCH   5   6
ENDBRANCH   4   5
ENDBRANCH   3   4
ENDBRANCH   2   3
ENDBRANCH   1   2
BRANCH   1  15
ATOM     15  C   UNL     1     141.958 129.781 114.612  1.00  0.00     0.000 C 
BRANCH  15  16
ATOM     16  C   UNL     1     140.624 130.534 114.498  1.00  0.00     0.000 C 
BRANCH  16  17
ATOM     17  C   UNL     1     139.934 130.231 113.163  1.00  0.00     0.000 C 
BRANCH  17  18
ATOM     18  C   UNL     1     138.616 129.475 113.385  1.00  0.00    -0.000 C 
BRANCH  18  19
ATOM     19  C   UNL     1     138.783 127.949 113.291  1.00  0.00    -0.000 C 
BRANCH  19  20
ATOM     20  C   UNL     1     138.599 127.253 114.650  1.00  0.00    -0.000 C 
BRANCH  20  21
ATOM     21  C   UNL     1     137.442 127.848 115.470  1.00  0.00    -0.000 C 
BRANCH  21  22
ATOM     22  C   UNL     1     137.450 127.382 116.935  1.00  0.00    -0.000 C 
BRANCH  22  23
ATOM     23  C   UNL     1     138.879 127.331 117.488  1.00  0.00    -0.000 C 
BRANCH  23  24
ATOM     24  C   UNL     1     139.300 128.695 118.055  1.00  0.00    -0.000 C 
BRANCH  24  25
ATOM     25  C   UNL     1     140.307 128.572 119.207  1.00  0.00    -0.003 C 
ATOM     26  C   UNL     1     141.267 127.396 119.033  1.00  0.00     0.004 C 
ENDBRANCH  24  25
ENDBRANCH  23  24
ENDBRANCH  22  23
ENDBRANCH  21  22
ENDBRANCH  20  21
ENDBRANCH  19  20
ENDBRANCH  18  19
ENDBRANCH  17  18
ENDBRANCH  16  17
ENDBRANCH  15  16
ENDBRANCH   1  15
TORSDOF 22
ENDMDL
MODEL 4
REMARK VINA RESULT:    -3.461      1.328      2.311
REMARK INTER + INTRA:         -12.464
REMARK INTER:                  -7.789
REMARK INTRA:                  -4.675
REMARK UNBOUND:                -4.553
REMARK SMILES CCCCCCCCCCCCCCCCCCCCCCCC(=O)[O-]
REMARK SMILES IDX 13 1 14 2 15 3 16 4 17 5 18 6 19 7 20 8 21 9 22 10 23 11
REMARK SMILES IDX 24 12 25 13 26 14 12 15 11 16 10 17 9 18 8 19 7 20 6 21 5 22
REMARK SMILES IDX 4 23 3 24 2 25 1 26
REMARK H PARENT
REMARK Flexibility Score: inf
ROOT
ATOM      1  C   UNL     1     141.274 130.801 115.540  1.00  0.00     0.000 C 
ENDROOT
BRANCH   1   2
ATOM      2  C   UNL     1     139.995 131.290 114.831  1.00  0.00     0.000 C 
BRANCH   2   3
ATOM      3  C   UNL     1     139.693 130.618 113.479  1.00  0.00     0.000 C 
BRANCH   3   4
ATOM      4  C   UNL     1     138.458 129.704 113.528  1.00  0.00     0.000 C 
BRANCH   4   5
ATOM      5  C   UNL     1     138.797 128.221 113.294  1.00  0.00     0.000 C 
BRANCH   5   6
ATOM      6  C   UNL     1     138.818 127.344 114.559  1.00  0.00     0.000 C 
BRANCH   6   7
ATOM      7  C   UNL     1     138.347 128.091 115.817  1.00  0.00     0.000 C 
BRANCH   7   8
ATOM      8  C   UNL     1     138.198 127.128 117.005  1.00  0.00     0.000 C 
BRANCH   8   9
ATOM      9  C   UNL     1     139.499 126.972 117.808  1.00  0.00     0.000 C 
BRANCH   9  10
ATOM     10  C   UNL     1     139.898 128.260 118.548  1.00  0.00     0.006 C 
BRANCH  10  11
ATOM     11  C   UNL     1     139.867 128.086 120.072  1.00  0.00     0.053 C 
BRANCH  11  12
ATOM     12  C   UNL     1     138.755 128.871 120.700  1.00  0.00     0.041 C 
ATOM     13  O   UNL     1     139.002 129.690 121.624  1.00  0.00    -0.550 OA
ATOM     14  O   UNL     1     137.453 128.727 120.237  1.00  0.00    -0.550 OA
ENDBRANCH  11  12
ENDBRANCH  10  11
ENDBRANCH   9  10
ENDBRANCH   8   9
ENDBRANCH   7   8
ENDBRANCH   6   7
ENDBRANCH   5   6
ENDBRANCH   4   5
ENDBRANCH   3   4
ENDBRANCH   2   3
ENDBRANCH   1   2
BRANCH   1  15
ATOM     15  C   UNL     1     142.025 129.665 114.823  1.00  0.00     0.000 C 
BRANCH  15  16
ATOM     16  C   UNL     1     142.202 128.419 115.705  1.00  0.00     0.000 C 
BRANCH  16  17
ATOM     17  C   UNL     1     142.910 127.298 114.935  1.00  0.00     0.000 C 
BRANCH  17  18
ATOM     18  C   UNL     1     144.379 127.179 115.365  1.00  0.00    -0.000 C 
BRANCH  18  19
ATOM     19  C   UNL     1     145.356 127.709 114.302  1.00  0.00    -0.000 C 
BRANCH  19  20
ATOM     20  C   UNL     1     145.633 129.214 114.457  1.00  0.00    -0.000 C 
BRANCH  20  21
ATOM     21  C   UNL     1     145.903 129.621 115.915  1.00  0.00    -0.000 C 
BRANCH  21  22
ATOM     22  C   UNL     1     145.135 130.886 116.331  1.00  0.00    -0.000 C 
BRANCH  22  23
ATOM     23  C   UNL     1     144.577 130.747 117.753  1.00  0.00    -0.000 C 
BRANCH  23  24
ATOM     24  C   UNL     1     144.845 129.344 118.316  1.00  0.00    -0.000 C 
BRANCH  24  25
ATOM     25  C   UNL     1     143.649 128.782 119.098  1.00  0.00    -0.003 C 
ATOM     26  C   UNL     1     143.495 127.270 118.940  1.00  0.00     0.004 C 
ENDBRANCH  24  25
ENDBRANCH  23  24
ENDBRANCH  22  23
ENDBRANCH  21  22
ENDBRANCH  20  21
ENDBRANCH  19  20
ENDBRANCH  18  19
ENDBRANCH  17  18
ENDBRANCH  16  17
ENDBRANCH  15  16
ENDBRANCH   1  15
TORSDOF 22
ENDMDL
MODEL 5
REMARK VINA RESULT:    -3.458      2.214      3.978
REMARK INTER + INTRA:         -12.459
REMARK INTER:                  -8.299
REMARK INTRA:                  -4.160
REMARK UNBOUND:                -4.553
REMARK SMILES CCCCCCCCCCCCCCCCCCCCCCCC(=O)[O-]
REMARK SMILES IDX 13 1 14 2 15 3 16 4 17 5 18 6 19 7 20 8 21 9 22 10 23 11
REMARK SMILES IDX 24 12 25 13 26 14 12 15 11 16 10 17 9 18 8 19 7 20 6 21 5 22
REMARK SMILES IDX 4 23 3 24 2 25 1 26
REMARK H PARENT
REMARK Flexibility Score: inf
ROOT
ATOM      1  C   UNL     1     140.153 128.785 118.129  1.00  0.00     0.000 C 
ENDROOT
BRANCH   1   2
ATOM      2  C   UNL     1     138.672 128.589 118.510  1.00  0.00     0.000 C 
BRANCH   2   3
ATOM      3  C   UNL     1     137.663 128.803 117.367  1.00  0.00     0.000 C 
BRANCH   3   4
ATOM      4  C   UNL     1     137.014 127.494 116.890  1.00  0.00     0.000 C 
BRANCH   4   5
ATOM      5  C   UNL     1     137.156 127.270 115.373  1.00  0.00     0.000 C 
BRANCH   5   6
ATOM      6  C   UNL     1     138.603 127.184 114.855  1.00  0.00     0.000 C 
BRANCH   6   7
ATOM      7  C   UNL     1     138.742 127.608 113.384  1.00  0.00     0.000 C 
BRANCH   7   8
ATOM      8  C   UNL     1     138.852 129.135 113.259  1.00  0.00     0.000 C 
BRANCH   8   9
ATOM      9  C   UNL     1     139.535 129.782 114.475  1.00  0.00     0.000 C 
BRANCH   9  10
ATOM     10  C   UNL     1     140.900 130.401 114.130  1.00  0.00     0.006 C 
BRANCH  10  11
ATOM     11  C   UNL     1     141.653 130.879 115.378  1.00  0.00     0.053 C 
BRANCH  11  12
ATOM     12  C   UNL     1     141.067 132.141 115.934  1.00  0.00     0.041 C 
ATOM     13  O   UNL     1     141.419 133.259 115.473  1.00  0.00    -0.550 OA
ATOM     14  O   UNL     1     140.102 132.080 116.933  1.00  0.00    -0.550 OA
ENDBRANCH  11  12
ENDBRANCH  10  11
ENDBRANCH   9  10
ENDBRANCH   8   9
ENDBRANCH   7   8
ENDBRANCH   6   7
ENDBRANCH   5   6
ENDBRANCH   4   5
ENDBRANCH   3   4
ENDBRANCH   2   3
ENDBRANCH   1   2
BRANCH   1  15
ATOM     15  C   UNL     1     140.933 127.487 117.848  1.00  0.00     0.000 C 
BRANCH  15  16
ATOM     16  C   UNL     1     142.212 127.726 117.031  1.00  0.00     0.000 C 
BRANCH  16  17
ATOM     17  C   UNL     1     142.057 127.193 115.602  1.00  0.00     0.000 C 
BRANCH  17  18
ATOM     18  C   UNL     1     143.343 127.414 114.792  1.00  0.00    -0.000 C 
BRANCH  18  19
ATOM     19  C   UNL     1     144.611 127.028 115.571  1.00  0.00    -0.000 C 
BRANCH  19  20
ATOM     20  C   UNL     1     145.787 127.979 115.288  1.00  0.00    -0.000 C 
BRANCH  20  21
ATOM     21  C   UNL     1     145.355 129.250 114.538  1.00  0.00    -0.000 C 
BRANCH  21  22
ATOM     22  C   UNL     1     145.212 130.468 115.465  1.00  0.00    -0.000 C 
BRANCH  22  23
ATOM     23  C   UNL     1     145.958 130.244 116.786  1.00  0.00    -0.000 C 
BRANCH  23  24
ATOM     24  C   UNL     1     144.997 130.322 117.982  1.00  0.00    -0.000 C 
BRANCH  24  25
ATOM     25  C   UNL     1     145.235 129.202 119.006  1.00  0.00    -0.003 C 
ATOM     26  C   UNL     1     144.049 128.998 119.948  1.00  0.00     0.004 C 
ENDBRANCH  24  25
ENDBRANCH  23  24
ENDBRANCH  22  23
ENDBRANCH  21  22
ENDBRANCH  20  21
ENDBRANCH  19  20
ENDBRANCH  18  19
ENDBRANCH  17  18
ENDBRANCH  16  17
ENDBRANCH  15  16
ENDBRANCH   1  15
TORSDOF 22
ENDMDL
MODEL 6
REMARK VINA RESULT:    -3.450      2.700      6.380
REMARK INTER + INTRA:         -12.439
REMARK INTER:                  -8.149
REMARK INTRA:                  -4.290
REMARK UNBOUND:                -4.553
REMARK SMILES CCCCCCCCCCCCCCCCCCCCCCCC(=O)[O-]
REMARK SMILES IDX 13 1 14 2 15 3 16 4 17 5 18 6 19 7 20 8 21 9 22 10 23 11
REMARK SMILES IDX 24 12 25 13 26 14 12 15 11 16 10 17 9 18 8 19 7 20 6 21 5 22
REMARK SMILES IDX 4 23 3 24 2 25 1 26
REMARK H PARENT
REMARK Flexibility Score: inf
ROOT
ATOM      1  C   UNL     1     142.564 128.675 115.215  1.00  0.00     0.000 C 
ENDROOT
BRANCH   1   2
ATOM      2  C   UNL     1     144.053 128.611 114.817  1.00  0.00     0.000 C 
BRANCH   2   3
ATOM      3  C   UNL     1     144.638 127.193 114.683  1.00  0.00     0.000 C 
BRANCH   3   4
ATOM      4  C   UNL     1     145.956 127.015 115.455  1.00  0.00     0.000 C 
BRANCH   4   5
ATOM      5  C   UNL     1     145.980 127.784 116.789  1.00  0.00     0.000 C 
BRANCH   5   6
ATOM      6  C   UNL     1     145.141 127.163 117.920  1.00  0.00     0.000 C 
BRANCH   6   7
ATOM      7  C   UNL     1     145.558 127.650 119.317  1.00  0.00     0.000 C 
BRANCH   7   8
ATOM      8  C   UNL     1     144.640 128.782 119.802  1.00  0.00     0.000 C 
BRANCH   8   9
ATOM      9  C   UNL     1     143.455 129.031 118.855  1.00  0.00     0.000 C 
BRANCH   9  10
ATOM     10  C   UNL     1     143.418 130.471 118.316  1.00  0.00     0.006 C 
BRANCH  10  11
ATOM     11  C   UNL     1     144.825 131.049 118.110  1.00  0.00     0.053 C 
BRANCH  11  12
ATOM     12  C   UNL     1     145.020 131.555 116.713  1.00  0.00     0.041 C 
ATOM     13  O   UNL     1     146.169 131.563 116.198  1.00  0.00    -0.550 OA
ATOM     14  O   UNL     1     143.928 131.981 115.967  1.00  0.00    -0.550 OA
ENDBRANCH  11  12
ENDBRANCH  10  11
ENDBRANCH   9  10
ENDBRANCH   8   9
ENDBRANCH   7   8
ENDBRANCH   6   7
ENDBRANCH   5   6
ENDBRANCH   4   5
ENDBRANCH   3   4
ENDBRANCH   2   3
ENDBRANCH   1   2
BRANCH   1  15
ATOM     15  C   UNL     1     141.893 127.312 115.457  1.00  0.00     0.000 C 
BRANCH  15  16
ATOM     16  C   UNL     1     140.559 127.164 114.710  1.00  0.00     0.000 C 
BRANCH  16  17
ATOM     17  C   UNL     1     140.088 128.514 114.156  1.00  0.00     0.000 C 
BRANCH  17  18
ATOM     18  C   UNL     1     138.590 128.476 113.819  1.00  0.00    -0.000 C 
BRANCH  18  19
ATOM     19  C   UNL     1     137.845 127.342 114.543  1.00  0.00    -0.000 C 
BRANCH  19  20
ATOM     20  C   UNL     1     136.810 127.870 115.552  1.00  0.00    -0.000 C 
BRANCH  20  21
ATOM     21  C   UNL     1     136.926 127.196 116.929  1.00  0.00    -0.000 C 
BRANCH  21  22
ATOM     22  C   UNL     1     138.378 127.106 117.427  1.00  0.00    -0.000 C 
BRANCH  22  23
ATOM     23  C   UNL     1     138.690 128.235 118.417  1.00  0.00    -0.000 C 
BRANCH  23  24
ATOM     24  C   UNL     1     139.893 129.065 117.945  1.00  0.00    -0.000 C 
BRANCH  24  25
ATOM     25  C   UNL     1     139.557 130.555 117.784  1.00  0.00    -0.003 C 
ATOM     26  C   UNL     1     140.139 131.159 116.507  1.00  0.00     0.004 C 
ENDBRANCH  24  25
ENDBRANCH  23  24
ENDBRANCH  22  23
ENDBRANCH  21  22
ENDBRANCH  20  21
ENDBRANCH  19  20
ENDBRANCH  18  19
ENDBRANCH  17  18
ENDBRANCH  16  17
ENDBRANCH  15  16
ENDBRANCH   1  15
TORSDOF 22
ENDMDL
MODEL 7
REMARK VINA RESULT:    -3.432      1.984      4.213
REMARK INTER + INTRA:         -12.399
REMARK INTER:                  -8.529
REMARK INTRA:                  -3.870
REMARK UNBOUND:                -4.553
REMARK SMILES CCCCCCCCCCCCCCCCCCCCCCCC(=O)[O-]
REMARK SMILES IDX 13 1 14 2 15 3 16 4 17 5 18 6 19 7 20 8 21 9 22 10 23 11
REMARK SMILES IDX 24 12 25 13 26 14 12 15 11 16 10 17 9 18 8 19 7 20 6 21 5 22
REMARK SMILES IDX 4 23 3 24 2 25 1 26
REMARK H PARENT
REMARK Flexibility Score: inf
ROOT
ATOM      1  C   UNL     1     145.003 132.119 116.819  1.00  0.00     0.000 C 
ENDROOT
BRANCH   1   2
ATOM      2  C   UNL     1     143.955 133.218 116.554  1.00  0.00     0.000 C 
BRANCH   2   3
ATOM      3  C   UNL     1     142.542 132.713 116.212  1.00  0.00     0.000 C 
BRANCH   3   4
ATOM      4  C   UNL     1     142.546 131.321 115.560  1.00  0.00     0.000 C 
BRANCH   4   5
ATOM      5  C   UNL     1     141.130 130.766 115.317  1.00  0.00     0.000 C 
BRANCH   5   6
ATOM      6  C   UNL     1     140.902 130.132 113.933  1.00  0.00     0.000 C 
BRANCH   6   7
ATOM      7  C   UNL     1     139.433 130.183 113.482  1.00  0.00     0.000 C 
BRANCH   7   8
ATOM      8  C   UNL     1     138.881 128.769 113.246  1.00  0.00     0.000 C 
BRANCH   8   9
ATOM      9  C   UNL     1     139.615 127.700 114.072  1.00  0.00     0.000 C 
BRANCH   9  10
ATOM     10  C   UNL     1     138.832 127.278 115.327  1.00  0.00     0.006 C 
BRANCH  10  11
ATOM     11  C   UNL     1     137.315 127.296 115.097  1.00  0.00     0.053 C 
BRANCH  11  12
ATOM     12  C   UNL     1     136.587 127.937 116.239  1.00  0.00     0.041 C 
ATOM     13  O   UNL     1     135.551 128.622 116.025  1.00  0.00    -0.550 OA
ATOM     14  O   UNL     1     137.028 127.745 117.543  1.00  0.00    -0.550 OA
ENDBRANCH  11  12
ENDBRANCH  10  11
ENDBRANCH   9  10
ENDBRANCH   8   9
ENDBRANCH   7   8
ENDBRANCH   6   7
ENDBRANCH   5   6
ENDBRANCH   4   5
ENDBRANCH   3   4
ENDBRANCH   2   3
ENDBRANCH   1   2
BRANCH   1  15
ATOM     15  C   UNL     1     146.308 132.252 116.013  1.00  0.00     0.000 C 
BRANCH  15  16
ATOM     16  C   UNL     1     146.854 130.898 115.536  1.00  0.00     0.000 C 
BRANCH  16  17
ATOM     17  C   UNL     1     145.908 129.756 115.927  1.00  0.00     0.000 C 
BRANCH  17  18
ATOM     18  C   UNL     1     145.442 128.981 114.686  1.00  0.00    -0.000 C 
BRANCH  18  19
ATOM     19  C   UNL     1     144.835 127.611 115.033  1.00  0.00    -0.000 C 
BRANCH  19  20
ATOM     20  C   UNL     1     143.298 127.645 115.080  1.00  0.00    -0.000 C 
BRANCH  20  21
ATOM     21  C   UNL     1     142.746 127.576 116.513  1.00  0.00    -0.000 C 
BRANCH  21  22
ATOM     22  C   UNL     1     143.790 127.087 117.530  1.00  0.00    -0.000 C 
BRANCH  22  23
ATOM     23  C   UNL     1     143.574 127.744 118.899  1.00  0.00    -0.000 C 
BRANCH  23  24
ATOM     24  C   UNL     1     144.147 129.168 118.923  1.00  0.00    -0.000 C 
BRANCH  24  25
ATOM     25  C   UNL     1     143.218 130.167 119.629  1.00  0.00    -0.003 C 
ATOM     26  C   UNL     1     141.826 130.229 119.001  1.00  0.00     0.004 C 
ENDBRANCH  24  25
ENDBRANCH  23  24
ENDBRANCH  22  23
ENDBRANCH  21  22
ENDBRANCH  20  21
ENDBRANCH  19  20
ENDBRANCH  18  19
ENDBRANCH  17  18
ENDBRANCH  16  17
ENDBRANCH  15  16
ENDBRANCH   1  15
TORSDOF 22
ENDMDL
MODEL 8
REMARK VINA RESULT:    -3.421      8.206     11.510
REMARK INTER + INTRA:         -12.375
REMARK INTER:                  -8.041
REMARK INTRA:                  -4.334
REMARK UNBOUND:                -4.553
REMARK SMILES CCCCCCCCCCCCCCCCCCCCCCCC(=O)[O-]
REMARK SMILES IDX 13 1 14 2 15 3 16 4 17 5 18 6 19 7 20 8 21 9 22 10 23 11
REMARK SMILES IDX 24 12 25 13 26 14 12 15 11 16 10 17 9 18 8 19 7 20 6 21 5 22
REMARK SMILES IDX 4 23 3 24 2 25 1 26
REMARK H PARENT
REMARK Flexibility Score: inf
ROOT
ATOM      1  C   UNL     1     132.168 130.325 115.561  1.00  0.00     0.000 C 
ENDROOT
BRANCH   1   2
ATOM      2  C   UNL     1     131.680 131.707 115.083  1.00  0.00     0.000 C 
BRANCH   2   3
ATOM      3  C   UNL     1     131.198 131.767 113.622  1.00  0.00     0.000 C 
BRANCH   3   4
ATOM      4  C   UNL     1     130.154 132.869 113.382  1.00  0.00     0.000 C 
BRANCH   4   5
ATOM      5  C   UNL     1     128.764 132.513 113.941  1.00  0.00     0.000 C 
BRANCH   5   6
ATOM      6  C   UNL     1     128.360 131.033 113.802  1.00  0.00     0.000 C 
BRANCH   6   7
ATOM      7  C   UNL     1     127.860 130.420 115.119  1.00  0.00     0.000 C 
BRANCH   7   8
ATOM      8  C   UNL     1     128.073 131.388 116.293  1.00  0.00     0.000 C 
BRANCH   8   9
ATOM      9  C   UNL     1     128.984 130.804 117.385  1.00  0.00     0.000 C 
BRANCH   9  10
ATOM     10  C   UNL     1     128.646 131.338 118.788  1.00  0.00     0.006 C 
BRANCH  10  11
ATOM     11  C   UNL     1     129.343 130.537 119.895  1.00  0.00     0.053 C 
BRANCH  11  12
ATOM     12  C   UNL     1     128.363 129.767 120.727  1.00  0.00     0.041 C 
ATOM     13  O   UNL     1     127.263 129.400 120.233  1.00  0.00    -0.550 OA
ATOM     14  O   UNL     1     128.681 129.418 122.034  1.00  0.00    -0.550 OA
ENDBRANCH  11  12
ENDBRANCH  10  11
ENDBRANCH   9  10
ENDBRANCH   8   9
ENDBRANCH   7   8
ENDBRANCH   6   7
ENDBRANCH   5   6
ENDBRANCH   4   5
ENDBRANCH   3   4
ENDBRANCH   2   3
ENDBRANCH   1   2
BRANCH   1  15
ATOM     15  C   UNL     1     132.418 129.297 114.443  1.00  0.00     0.000 C 
BRANCH  15  16
ATOM     16  C   UNL     1     131.817 127.918 114.757  1.00  0.00     0.000 C 
BRANCH  16  17
ATOM     17  C   UNL     1     130.457 128.057 115.451  1.00  0.00     0.000 C 
BRANCH  17  18
ATOM     18  C   UNL     1     130.201 126.875 116.398  1.00  0.00    -0.000 C 
BRANCH  18  19
ATOM     19  C   UNL     1     129.509 127.298 117.704  1.00  0.00    -0.000 C 
BRANCH  19  20
ATOM     20  C   UNL     1     130.403 127.083 118.938  1.00  0.00    -0.000 C 
BRANCH  20  21
ATOM     21  C   UNL     1     131.901 127.102 118.596  1.00  0.00    -0.000 C 
BRANCH  21  22
ATOM     22  C   UNL     1     132.523 128.502 118.722  1.00  0.00    -0.000 C 
BRANCH  22  23
ATOM     23  C   UNL     1     134.029 128.464 118.436  1.00  0.00    -0.000 C 
BRANCH  23  24
ATOM     24  C   UNL     1     134.365 127.383 117.398  1.00  0.00    -0.000 C 
BRANCH  24  25
ATOM     25  C   UNL     1     135.239 127.914 116.253  1.00  0.00    -0.003 C 
ATOM     26  C   UNL     1     136.612 127.246 116.196  1.00  0.00     0.004 C 
ENDBRANCH  24  25
ENDBRANCH  23  24
ENDBRANCH  22  23
ENDBRANCH  21  22
ENDBRANCH  20  21
ENDBRANCH  19  20
ENDBRANCH  18  19
ENDBRANCH  17  18
ENDBRANCH  16  17
ENDBRANCH  15  16
ENDBRANCH   1  15
TORSDOF 22
ENDMDL
MODEL 9
REMARK VINA RESULT:    -3.385      2.637      4.063
REMARK INTER + INTRA:         -12.292
REMARK INTER:                  -8.552
REMARK INTRA:                  -3.740
REMARK UNBOUND:                -4.553
REMARK SMILES CCCCCCCCCCCCCCCCCCCCCCCC(=O)[O-]
REMARK SMILES IDX 13 1 14 2 15 3 16 4 17 5 18 6 19 7 20 8 21 9 22 10 23 11
REMARK SMILES IDX 24 12 25 13 26 14 12 15 11 16 10 17 9 18 8 19 7 20 6 21 5 22
REMARK SMILES IDX 4 23 3 24 2 25 1 26
REMARK H PARENT
REMARK Flexibility Score: inf
ROOT
ATOM      1  C   UNL     1     141.270 130.563 116.466  1.00  0.00     0.000 C 
ENDROOT
BRANCH   1   2
ATOM      2  C   UNL     1     139.833 130.739 115.939  1.00  0.00     0.000 C 
BRANCH   2   3
ATOM      3  C   UNL     1     139.715 131.068 114.439  1.00  0.00     0.000 C 
BRANCH   3   4
ATOM      4  C   UNL     1     138.506 130.394 113.772  1.00  0.00     0.000 C 
BRANCH   4   5
ATOM      5  C   UNL     1     138.898 129.204 112.877  1.00  0.00     0.000 C 
BRANCH   5   6
ATOM      6  C   UNL     1     138.547 127.815 113.440  1.00  0.00     0.000 C 
BRANCH   6   7
ATOM      7  C   UNL     1     139.619 127.261 114.391  1.00  0.00     0.000 C 
BRANCH   7   8
ATOM      8  C   UNL     1     139.107 127.231 115.840  1.00  0.00     0.000 C 
BRANCH   8   9
ATOM      9  C   UNL     1     137.573 127.246 115.926  1.00  0.00     0.000 C 
BRANCH   9  10
ATOM     10  C   UNL     1     137.033 128.479 116.671  1.00  0.00     0.006 C 
BRANCH  10  11
ATOM     11  C   UNL     1     135.683 128.949 116.113  1.00  0.00     0.053 C 
BRANCH  11  12
ATOM     12  C   UNL     1     134.591 127.962 116.392  1.00  0.00     0.041 C 
ATOM     13  O   UNL     1     133.732 127.702 115.508  1.00  0.00    -0.550 OA
ATOM     14  O   UNL     1     134.544 127.301 117.613  1.00  0.00    -0.550 OA
ENDBRANCH  11  12
ENDBRANCH  10  11
ENDBRANCH   9  10
ENDBRANCH   8   9
ENDBRANCH   7   8
ENDBRANCH   6   7
ENDBRANCH   5   6
ENDBRANCH   4   5
ENDBRANCH   3   4
ENDBRANCH   2   3
ENDBRANCH   1   2
BRANCH   1  15
ATOM     15  C   UNL     1     142.381 131.013 115.499  1.00  0.00     0.000 C 
BRANCH  15  16
ATOM     16  C   UNL     1     143.658 131.461 116.227  1.00  0.00     0.000 C 
BRANCH  16  17
ATOM     17  C   UNL     1     144.878 130.677 115.727  1.00  0.00     0.000 C 
BRANCH  17  18
ATOM     18  C   UNL     1     144.518 129.826 114.501  1.00  0.00    -0.000 C 
BRANCH  18  19
ATOM     19  C   UNL     1     145.402 128.574 114.365  1.00  0.00    -0.000 C 
BRANCH  19  20
ATOM     20  C   UNL     1     144.676 127.292 114.809  1.00  0.00    -0.000 C 
BRANCH  20  21
ATOM     21  C   UNL     1     143.180 127.520 115.079  1.00  0.00    -0.000 C 
BRANCH  21  22
ATOM     22  C   UNL     1     142.792 127.250 116.541  1.00  0.00    -0.000 C 
BRANCH  22  23
ATOM     23  C   UNL     1     144.029 126.933 117.390  1.00  0.00    -0.000 C 
BRANCH  23  24
ATOM     24  C   UNL     1     143.963 127.646 118.748  1.00  0.00    -0.000 C 
BRANCH  24  25
ATOM     25  C   UNL     1     145.309 128.259 119.160  1.00  0.00    -0.003 C 
ATOM     26  C   UNL     1     145.507 128.293 120.675  1.00  0.00     0.004 C 
ENDBRANCH  24  25
ENDBRANCH  23  24
ENDBRANCH  22  23
ENDBRANCH  21  22
ENDBRANCH  20  21
ENDBRANCH  19  20
ENDBRANCH  18  19
ENDBRANCH  17  18
ENDBRANCH  16  17
ENDBRANCH  15  16
ENDBRANCH   1  15
TORSDOF 22
ENDMDL
