MODEL 1
REMARK VINA RESULT:    -4.557      0.000      0.000
REMARK INTER + INTRA:         -16.186
REMARK INTER:                 -12.017
REMARK INTRA:                  -4.169
REMARK UNBOUND:                -4.169
REMARK SMILES CCCCCCCCCCCCCCCCCCCCCCCCCCCCCC(=O)[O-]
REMARK SMILES IDX 16 1 17 2 18 3 19 4 20 5 21 6 22 7 23 8 24 9 25 10 26 11
REMARK SMILES IDX 27 12 28 13 29 14 30 15 31 16 32 17 15 18 14 19 13 20 12 21
REMARK SMILES IDX 11 22 10 23 9 24 8 25 7 26 6 27 5 28 4 29 3 30 2 31 1 32
REMARK H PARENT
REMARK Flexibility Score: inf
ROOT
ATOM      1  C   UNL     1      24.064 -10.934   8.333  1.00  0.00     0.000 C 
ENDROOT
BRANCH   1   2
ATOM      2  C   UNL     1      24.711 -12.094   7.559  1.00  0.00     0.000 C 
BRANCH   2   3
ATOM      3  C   UNL     1      25.556 -11.682   6.338  1.00  0.00     0.000 C 
BRANCH   3   4
ATOM      4  C   UNL     1      25.463 -12.658   5.146  1.00  0.00     0.000 C 
BRANCH   4   5
ATOM      5  C   UNL     1      24.846 -12.020   3.886  1.00  0.00     0.000 C 
BRANCH   5   6
ATOM      6  C   UNL     1      24.713 -13.004   2.711  1.00  0.00     0.000 C 
BRANCH   6   7
ATOM      7  C   UNL     1      23.766 -12.534   1.583  1.00  0.00     0.000 C 
BRANCH   7   8
ATOM      8  C   UNL     1      22.915 -13.639   0.920  1.00  0.00     0.000 C 
BRANCH   8   9
ATOM      9  C   UNL     1      21.659 -14.078   1.697  1.00  0.00     0.000 C 
BRANCH   9  10
ATOM     10  C   UNL     1      21.587 -15.583   2.017  1.00  0.00     0.000 C 
BRANCH  10  11
ATOM     11  C   UNL     1      21.929 -15.945   3.474  1.00  0.00     0.000 C 
BRANCH  11  12
ATOM     12  C   UNL     1      21.949 -14.715   4.401  1.00  0.00     0.000 C 
BRANCH  12  13
ATOM     13  C   UNL     1      22.678 -14.984   5.731  1.00  0.00     0.006 C 
BRANCH  13  14
ATOM     14  C   UNL     1      21.773 -15.604   6.810  1.00  0.00     0.053 C 
BRANCH  14  15
ATOM     15  C   UNL     1      21.652 -14.732   8.022  1.00  0.00     0.041 C 
ATOM     16  O   UNL     1      21.706 -15.239   9.174  1.00  0.00    -0.550 OA
ATOM     17  O   UNL     1      21.487 -13.359   7.881  1.00  0.00    -0.550 OA
ENDBRANCH  14  15
ENDBRANCH  13  14
ENDBRANCH  12  13
ENDBRANCH  11  12
ENDBRANCH  10  11
ENDBRANCH   9  10
ENDBRANCH   8   9
ENDBRANCH   7   8
ENDBRANCH   6   7
ENDBRANCH   5   6
ENDBRANCH   4   5
ENDBRANCH   3   4
ENDBRANCH   2   3
ENDBRANCH   1   2
BRANCH   1  18
ATOM     18  C   UNL     1      24.717  -9.575   8.026  1.00  0.00     0.000 C 
BRANCH  18  19
ATOM     19  C   UNL     1      23.720  -8.402   8.058  1.00  0.00     0.000 C 
BRANCH  19  20
ATOM     20  C   UNL     1      24.031  -7.248   7.087  1.00  0.00     0.000 C 
BRANCH  20  21
ATOM     21  C   UNL     1      23.449  -5.875   7.474  1.00  0.00     0.000 C 
BRANCH  21  22
ATOM     22  C   UNL     1      24.459  -4.711   7.389  1.00  0.00     0.000 C 
BRANCH  22  23
ATOM     23  C   UNL     1      25.566  -4.949   6.348  1.00  0.00     0.000 C 
BRANCH  23  24
ATOM     24  C   UNL     1      26.939  -5.073   7.019  1.00  0.00    -0.000 C 
BRANCH  24  25
ATOM     25  C   UNL     1      27.811  -6.127   6.316  1.00  0.00    -0.000 C 
BRANCH  25  26
ATOM     26  C   UNL     1      27.652  -7.514   6.959  1.00  0.00    -0.000 C 
BRANCH  26  27
ATOM     27  C   UNL     1      27.512  -8.621   5.894  1.00  0.00    -0.000 C 
BRANCH  27  28
ATOM     28  C   UNL     1      26.658  -8.190   4.688  1.00  0.00    -0.000 C 
BRANCH  28  29
ATOM     29  C   UNL     1      26.784  -9.139   3.479  1.00  0.00    -0.000 C 
BRANCH  29  30
ATOM     30  C   UNL     1      27.224  -8.423   2.180  1.00  0.00    -0.000 C 
BRANCH  30  31
ATOM     31  C   UNL     1      26.203  -8.539   1.038  1.00  0.00    -0.003 C 
ATOM     32  C   UNL     1      24.886  -9.164   1.486  1.00  0.00     0.004 C 
ENDBRANCH  30  31
ENDBRANCH  29  30
ENDBRANCH  28  29
ENDBRANCH  27  28
ENDBRANCH  26  27
ENDBRANCH  25  26
ENDBRANCH  24  25
ENDBRANCH  23  24
ENDBRANCH  22  23
ENDBRANCH  21  22
ENDBRANCH  20  21
ENDBRANCH  19  20
ENDBRANCH  18  19
ENDBRANCH   1  18
TORSDOF 28
ENDMDL
MODEL 2
REMARK VINA RESULT:    -4.297      2.088      5.539
REMARK INTER + INTRA:         -15.500
REMARK INTER:                 -10.111
REMARK INTRA:                  -5.389
REMARK UNBOUND:                -4.169
REMARK SMILES CCCCCCCCCCCCCCCCCCCCCCCCCCCCCC(=O)[O-]
REMARK SMILES IDX 16 1 17 2 18 3 19 4 20 5 21 6 22 7 23 8 24 9 25 10 26 11
REMARK SMILES IDX 27 12 28 13 29 14 30 15 31 16 32 17 15 18 14 19 13 20 12 21
REMARK SMILES IDX 11 22 10 23 9 24 8 25 7 26 6 27 5 28 4 29 3 30 2 31 1 32
REMARK H PARENT
REMARK Flexibility Score: inf
ROOT
ATOM      1  C   UNL     1      24.522 -12.260   3.462  1.00  0.00     0.000 C 
ENDROOT
BRANCH   1   2
ATOM      2  C   UNL     1      24.505 -11.260   2.294  1.00  0.00     0.000 C 
BRANCH   2   3
ATOM      3  C   UNL     1      23.765 -11.736   1.030  1.00  0.00     0.000 C 
BRANCH   3   4
ATOM      4  C   UNL     1      23.473 -13.251   1.000  1.00  0.00     0.000 C 
BRANCH   4   5
ATOM      5  C   UNL     1      21.993 -13.589   1.262  1.00  0.00     0.000 C 
BRANCH   5   6
ATOM      6  C   UNL     1      21.793 -14.587   2.416  1.00  0.00     0.000 C 
BRANCH   6   7
ATOM      7  C   UNL     1      21.345 -15.999   1.975  1.00  0.00     0.000 C 
BRANCH   7   8
ATOM      8  C   UNL     1      22.454 -17.073   1.937  1.00  0.00     0.000 C 
BRANCH   8   9
ATOM      9  C   UNL     1      23.587 -16.906   2.968  1.00  0.00     0.000 C 
BRANCH   9  10
ATOM     10  C   UNL     1      23.399 -17.698   4.275  1.00  0.00     0.000 C 
BRANCH  10  11
ATOM     11  C   UNL     1      22.747 -16.901   5.419  1.00  0.00     0.000 C 
BRANCH  11  12
ATOM     12  C   UNL     1      23.548 -15.640   5.794  1.00  0.00     0.000 C 
BRANCH  12  13
ATOM     13  C   UNL     1      22.669 -14.378   5.876  1.00  0.00     0.006 C 
BRANCH  13  14
ATOM     14  C   UNL     1      21.373 -14.586   6.678  1.00  0.00     0.053 C 
BRANCH  14  15
ATOM     15  C   UNL     1      21.514 -14.166   8.109  1.00  0.00     0.041 C 
ATOM     16  O   UNL     1      21.486 -12.945   8.415  1.00  0.00    -0.550 OA
ATOM     17  O   UNL     1      21.668 -15.122   9.106  1.00  0.00    -0.550 OA
ENDBRANCH  14  15
ENDBRANCH  13  14
ENDBRANCH  12  13
ENDBRANCH  11  12
ENDBRANCH  10  11
ENDBRANCH   9  10
ENDBRANCH   8   9
ENDBRANCH   7   8
ENDBRANCH   6   7
ENDBRANCH   5   6
ENDBRANCH   4   5
ENDBRANCH   3   4
ENDBRANCH   2   3
ENDBRANCH   1   2
BRANCH   1  18
ATOM     18  C   UNL     1      25.928 -12.810   3.757  1.00  0.00     0.000 C 
BRANCH  18  19
ATOM     19  C   UNL     1      26.047 -14.327   3.523  1.00  0.00     0.000 C 
BRANCH  19  20
ATOM     20  C   UNL     1      26.665 -14.737   2.173  1.00  0.00     0.000 C 
BRANCH  20  21
ATOM     21  C   UNL     1      27.476 -13.644   1.452  1.00  0.00     0.000 C 
BRANCH  21  22
ATOM     22  C   UNL     1      28.959 -13.570   1.875  1.00  0.00     0.000 C 
BRANCH  22  23
ATOM     23  C   UNL     1      29.571 -12.171   1.684  1.00  0.00     0.000 C 
BRANCH  23  24
ATOM     24  C   UNL     1      29.160 -11.229   2.822  1.00  0.00    -0.000 C 
BRANCH  24  25
ATOM     25  C   UNL     1      28.019 -10.292   2.386  1.00  0.00    -0.000 C 
BRANCH  25  26
ATOM     26  C   UNL     1      27.668  -9.279   3.488  1.00  0.00    -0.000 C 
BRANCH  26  27
ATOM     27  C   UNL     1      28.097  -9.785   4.881  1.00  0.00    -0.000 C 
BRANCH  27  28
ATOM     28  C   UNL     1      27.241  -9.205   6.021  1.00  0.00    -0.000 C 
BRANCH  28  29
ATOM     29  C   UNL     1      25.812  -9.782   6.068  1.00  0.00    -0.000 C 
BRANCH  29  30
ATOM     30  C   UNL     1      25.097  -9.541   7.419  1.00  0.00    -0.000 C 
BRANCH  30  31
ATOM     31  C   UNL     1      24.500 -10.817   8.034  1.00  0.00    -0.003 C 
ATOM     32  C   UNL     1      24.961 -12.086   7.322  1.00  0.00     0.004 C 
ENDBRANCH  30  31
ENDBRANCH  29  30
ENDBRANCH  28  29
ENDBRANCH  27  28
ENDBRANCH  26  27
ENDBRANCH  25  26
ENDBRANCH  24  25
ENDBRANCH  23  24
ENDBRANCH  22  23
ENDBRANCH  21  22
ENDBRANCH  20  21
ENDBRANCH  19  20
ENDBRANCH  18  19
ENDBRANCH   1  18
TORSDOF 28
ENDMDL
MODEL 3
REMARK VINA RESULT:    -4.275      1.846      4.411
REMARK INTER + INTRA:         -15.441
REMARK INTER:                 -12.449
REMARK INTRA:                  -2.992
REMARK UNBOUND:                -4.169
REMARK SMILES CCCCCCCCCCCCCCCCCCCCCCCCCCCCCC(=O)[O-]
REMARK SMILES IDX 16 1 17 2 18 3 19 4 20 5 21 6 22 7 23 8 24 9 25 10 26 11
REMARK SMILES IDX 27 12 28 13 29 14 30 15 31 16 32 17 15 18 14 19 13 20 12 21
REMARK SMILES IDX 11 22 10 23 9 24 8 25 7 26 6 27 5 28 4 29 3 30 2 31 1 32
REMARK H PARENT
REMARK Flexibility Score: inf
ROOT
ATOM      1  C   UNL     1      24.536 -11.611   7.942  1.00  0.00     0.000 C 
ENDROOT
BRANCH   1   2
ATOM      2  C   UNL     1      25.668 -11.643   6.904  1.00  0.00     0.000 C 
BRANCH   2   3
ATOM      3  C   UNL     1      25.265 -12.147   5.504  1.00  0.00     0.000 C 
BRANCH   3   4
ATOM      4  C   UNL     1      25.659 -11.199   4.353  1.00  0.00     0.000 C 
BRANCH   4   5
ATOM      5  C   UNL     1      24.836 -11.425   3.071  1.00  0.00     0.000 C 
BRANCH   5   6
ATOM      6  C   UNL     1      24.183 -12.817   3.006  1.00  0.00     0.000 C 
BRANCH   6   7
ATOM      7  C   UNL     1      23.797 -13.281   1.583  1.00  0.00     0.000 C 
BRANCH   7   8
ATOM      8  C   UNL     1      22.397 -13.918   1.443  1.00  0.00     0.000 C 
BRANCH   8   9
ATOM      9  C   UNL     1      21.759 -14.433   2.747  1.00  0.00     0.000 C 
BRANCH   9  10
ATOM     10  C   UNL     1      21.887 -15.951   2.978  1.00  0.00     0.000 C 
BRANCH  10  11
ATOM     11  C   UNL     1      23.006 -16.359   3.953  1.00  0.00     0.000 C 
BRANCH  11  12
ATOM     12  C   UNL     1      22.560 -16.298   5.426  1.00  0.00     0.000 C 
BRANCH  12  13
ATOM     13  C   UNL     1      23.125 -15.072   6.169  1.00  0.00     0.006 C 
BRANCH  13  14
ATOM     14  C   UNL     1      22.042 -14.073   6.612  1.00  0.00     0.053 C 
BRANCH  14  15
ATOM     15  C   UNL     1      21.762 -14.151   8.082  1.00  0.00     0.041 C 
ATOM     16  O   UNL     1      21.795 -15.262   8.674  1.00  0.00    -0.550 OA
ATOM     17  O   UNL     1      21.471 -12.996   8.799  1.00  0.00    -0.550 OA
ENDBRANCH  14  15
ENDBRANCH  13  14
ENDBRANCH  12  13
ENDBRANCH  11  12
ENDBRANCH  10  11
ENDBRANCH   9  10
ENDBRANCH   8   9
ENDBRANCH   7   8
ENDBRANCH   6   7
ENDBRANCH   5   6
ENDBRANCH   4   5
ENDBRANCH   3   4
ENDBRANCH   2   3
ENDBRANCH   1   2
BRANCH   1  18
ATOM     18  C   UNL     1      24.455 -10.272   8.695  1.00  0.00     0.000 C 
BRANCH  18  19
ATOM     19  C   UNL     1      24.582  -9.047   7.770  1.00  0.00     0.000 C 
BRANCH  19  20
ATOM     20  C   UNL     1      23.522  -7.950   7.983  1.00  0.00     0.000 C 
BRANCH  20  21
ATOM     21  C   UNL     1      23.487  -6.841   6.915  1.00  0.00     0.000 C 
BRANCH  21  22
ATOM     22  C   UNL     1      24.481  -5.687   7.165  1.00  0.00     0.000 C 
BRANCH  22  23
ATOM     23  C   UNL     1      25.817  -5.871   6.425  1.00  0.00     0.000 C 
BRANCH  23  24
ATOM     24  C   UNL     1      26.961  -5.170   7.168  1.00  0.00    -0.000 C 
BRANCH  24  25
ATOM     25  C   UNL     1      27.324  -3.833   6.497  1.00  0.00    -0.000 C 
BRANCH  25  26
ATOM     26  C   UNL     1      27.273  -2.666   7.496  1.00  0.00    -0.000 C 
BRANCH  26  27
ATOM     27  C   UNL     1      25.935  -2.637   8.264  1.00  0.00    -0.000 C 
BRANCH  27  28
ATOM     28  C   UNL     1      26.043  -1.945   9.634  1.00  0.00    -0.000 C 
BRANCH  28  29
ATOM     29  C   UNL     1      24.969  -2.408  10.640  1.00  0.00    -0.000 C 
BRANCH  29  30
ATOM     30  C   UNL     1      23.631  -1.642  10.504  1.00  0.00    -0.000 C 
BRANCH  30  31
ATOM     31  C   UNL     1      22.587  -2.378   9.649  1.00  0.00    -0.003 C 
ATOM     32  C   UNL     1      22.575  -3.883   9.898  1.00  0.00     0.004 C 
ENDBRANCH  30  31
ENDBRANCH  29  30
ENDBRANCH  28  29
ENDBRANCH  27  28
ENDBRANCH  26  27
ENDBRANCH  25  26
ENDBRANCH  24  25
ENDBRANCH  23  24
ENDBRANCH  22  23
ENDBRANCH  21  22
ENDBRANCH  20  21
ENDBRANCH  19  20
ENDBRANCH  18  19
ENDBRANCH   1  18
TORSDOF 28
ENDMDL
MODEL 4
REMARK VINA RESULT:    -4.249      1.288      3.653
REMARK INTER + INTRA:         -15.372
REMARK INTER:                 -10.396
REMARK INTRA:                  -4.976
REMARK UNBOUND:                -4.169
REMARK SMILES CCCCCCCCCCCCCCCCCCCCCCCCCCCCCC(=O)[O-]
REMARK SMILES IDX 16 1 17 2 18 3 19 4 20 5 21 6 22 7 23 8 24 9 25 10 26 11
REMARK SMILES IDX 27 12 28 13 29 14 30 15 31 16 32 17 15 18 14 19 13 20 12 21
REMARK SMILES IDX 11 22 10 23 9 24 8 25 7 26 6 27 5 28 4 29 3 30 2 31 1 32
REMARK H PARENT
REMARK Flexibility Score: inf
ROOT
ATOM      1  C   UNL     1      25.652 -11.003   6.792  1.00  0.00     0.000 C 
ENDROOT
BRANCH   1   2
ATOM      2  C   UNL     1      25.221 -12.261   6.021  1.00  0.00     0.000 C 
BRANCH   2   3
ATOM      3  C   UNL     1      26.306 -12.889   5.125  1.00  0.00     0.000 C 
BRANCH   3   4
ATOM      4  C   UNL     1      25.939 -12.937   3.627  1.00  0.00     0.000 C 
BRANCH   4   5
ATOM      5  C   UNL     1      24.437 -12.716   3.362  1.00  0.00     0.000 C 
BRANCH   5   6
ATOM      6  C   UNL     1      24.158 -11.900   2.088  1.00  0.00     0.000 C 
BRANCH   6   7
ATOM      7  C   UNL     1      23.359 -12.656   1.003  1.00  0.00     0.000 C 
BRANCH   7   8
ATOM      8  C   UNL     1      22.138 -13.458   1.505  1.00  0.00     0.000 C 
BRANCH   8   9
ATOM      9  C   UNL     1      22.169 -14.973   1.229  1.00  0.00     0.000 C 
BRANCH   9  10
ATOM     10  C   UNL     1      21.688 -15.857   2.394  1.00  0.00     0.000 C 
BRANCH  10  11
ATOM     11  C   UNL     1      21.833 -15.216   3.787  1.00  0.00     0.000 C 
BRANCH  11  12
ATOM     12  C   UNL     1      22.997 -15.818   4.597  1.00  0.00     0.000 C 
BRANCH  12  13
ATOM     13  C   UNL     1      23.161 -15.162   5.981  1.00  0.00     0.006 C 
BRANCH  13  14
ATOM     14  C   UNL     1      21.852 -14.579   6.541  1.00  0.00     0.053 C 
BRANCH  14  15
ATOM     15  C   UNL     1      22.012 -14.048   7.932  1.00  0.00     0.041 C 
ATOM     16  O   UNL     1      21.710 -14.766   8.922  1.00  0.00    -0.550 OA
ATOM     17  O   UNL     1      22.503 -12.764   8.137  1.00  0.00    -0.550 OA
ENDBRANCH  14  15
ENDBRANCH  13  14
ENDBRANCH  12  13
ENDBRANCH  11  12
ENDBRANCH  10  11
ENDBRANCH   9  10
ENDBRANCH   8   9
ENDBRANCH   7   8
ENDBRANCH   6   7
ENDBRANCH   5   6
ENDBRANCH   4   5
ENDBRANCH   3   4
ENDBRANCH   2   3
ENDBRANCH   1   2
BRANCH   1  18
ATOM     18  C   UNL     1      26.582 -10.091   5.973  1.00  0.00     0.000 C 
BRANCH  18  19
ATOM     19  C   UNL     1      25.826  -9.179   4.990  1.00  0.00     0.000 C 
BRANCH  19  20
ATOM     20  C   UNL     1      26.519  -8.959   3.632  1.00  0.00     0.000 C 
BRANCH  20  21
ATOM     21  C   UNL     1      27.748  -9.847   3.359  1.00  0.00     0.000 C 
BRANCH  21  22
ATOM     22  C   UNL     1      29.100  -9.112   3.470  1.00  0.00     0.000 C 
BRANCH  22  23
ATOM     23  C   UNL     1      29.943  -9.579   4.670  1.00  0.00     0.000 C 
BRANCH  23  24
ATOM     24  C   UNL     1      29.909  -8.547   5.803  1.00  0.00    -0.000 C 
BRANCH  24  25
ATOM     25  C   UNL     1      29.739  -7.119   5.253  1.00  0.00    -0.000 C 
BRANCH  25  26
ATOM     26  C   UNL     1      28.673  -6.335   6.034  1.00  0.00    -0.000 C 
BRANCH  26  27
ATOM     27  C   UNL     1      27.551  -5.825   5.106  1.00  0.00    -0.000 C 
BRANCH  27  28
ATOM     28  C   UNL     1      26.428  -5.096   5.864  1.00  0.00    -0.000 C 
BRANCH  28  29
ATOM     29  C   UNL     1      25.701  -5.990   6.889  1.00  0.00    -0.000 C 
BRANCH  29  30
ATOM     30  C   UNL     1      24.224  -5.587   7.116  1.00  0.00    -0.000 C 
BRANCH  30  31
ATOM     31  C   UNL     1      23.248  -6.773   7.056  1.00  0.00    -0.003 C 
ATOM     32  C   UNL     1      23.732  -7.977   7.857  1.00  0.00     0.004 C 
ENDBRANCH  30  31
ENDBRANCH  29  30
ENDBRANCH  28  29
ENDBRANCH  27  28
ENDBRANCH  26  27
ENDBRANCH  25  26
ENDBRANCH  24  25
ENDBRANCH  23  24
ENDBRANCH  22  23
ENDBRANCH  21  22
ENDBRANCH  20  21
ENDBRANCH  19  20
ENDBRANCH  18  19
ENDBRANCH   1  18
TORSDOF 28
ENDMDL
MODEL 5
REMARK VINA RESULT:    -4.223      3.611      9.832
REMARK INTER + INTRA:         -15.304
REMARK INTER:                 -11.740
REMARK INTRA:                  -3.564
REMARK UNBOUND:                -4.169
REMARK SMILES CCCCCCCCCCCCCCCCCCCCCCCCCCCCCC(=O)[O-]
REMARK SMILES IDX 16 1 17 2 18 3 19 4 20 5 21 6 22 7 23 8 24 9 25 10 26 11
REMARK SMILES IDX 27 12 28 13 29 14 30 15 31 16 32 17 15 18 14 19 13 20 12 21
REMARK SMILES IDX 11 22 10 23 9 24 8 25 7 26 6 27 5 28 4 29 3 30 2 31 1 32
REMARK H PARENT
REMARK Flexibility Score: inf
ROOT
ATOM      1  C   UNL     1      24.014 -11.099   8.195  1.00  0.00     0.000 C 
ENDROOT
BRANCH   1   2
ATOM      2  C   UNL     1      24.715  -9.733   8.278  1.00  0.00     0.000 C 
BRANCH   2   3
ATOM      3  C   UNL     1      23.834  -8.518   7.928  1.00  0.00     0.000 C 
BRANCH   3   4
ATOM      4  C   UNL     1      24.579  -7.391   7.181  1.00  0.00     0.000 C 
BRANCH   4   5
ATOM      5  C   UNL     1      25.157  -7.841   5.826  1.00  0.00     0.000 C 
BRANCH   5   6
ATOM      6  C   UNL     1      26.682  -7.660   5.725  1.00  0.00     0.000 C 
BRANCH   6   7
ATOM      7  C   UNL     1      27.401  -7.499   7.084  1.00  0.00     0.000 C 
BRANCH   7   8
ATOM      8  C   UNL     1      28.401  -6.326   7.177  1.00  0.00     0.000 C 
BRANCH   8   9
ATOM      9  C   UNL     1      27.827  -4.992   7.690  1.00  0.00     0.000 C 
BRANCH   9  10
ATOM     10  C   UNL     1      26.788  -4.332   6.764  1.00  0.00     0.000 C 
BRANCH  10  11
ATOM     11  C   UNL     1      25.532  -3.807   7.482  1.00  0.00     0.000 C 
BRANCH  11  12
ATOM     12  C   UNL     1      25.870  -2.870   8.657  1.00  0.00     0.000 C 
BRANCH  12  13
ATOM     13  C   UNL     1      24.682  -2.668   9.618  1.00  0.00     0.006 C 
BRANCH  13  14
ATOM     14  C   UNL     1      24.413  -1.192   9.957  1.00  0.00     0.053 C 
BRANCH  14  15
ATOM     15  C   UNL     1      23.010  -0.779   9.634  1.00  0.00     0.041 C 
ATOM     16  O   UNL     1      22.108  -1.649   9.508  1.00  0.00    -0.550 OA
ATOM     17  O   UNL     1      22.695   0.566   9.480  1.00  0.00    -0.550 OA
ENDBRANCH  14  15
ENDBRANCH  13  14
ENDBRANCH  12  13
ENDBRANCH  11  12
ENDBRANCH  10  11
ENDBRANCH   9  10
ENDBRANCH   8   9
ENDBRANCH   7   8
ENDBRANCH   6   7
ENDBRANCH   5   6
ENDBRANCH   4   5
ENDBRANCH   3   4
ENDBRANCH   2   3
ENDBRANCH   1   2
BRANCH   1  18
ATOM     18  C   UNL     1      24.753 -12.094   7.283  1.00  0.00     0.000 C 
BRANCH  18  19
ATOM     19  C   UNL     1      25.936 -11.461   6.528  1.00  0.00     0.000 C 
BRANCH  19  20
ATOM     20  C   UNL     1      25.711 -11.240   5.021  1.00  0.00     0.000 C 
BRANCH  20  21
ATOM     21  C   UNL     1      24.935 -12.353   4.292  1.00  0.00     0.000 C 
BRANCH  21  22
ATOM     22  C   UNL     1      24.519 -11.997   2.849  1.00  0.00     0.000 C 
BRANCH  22  23
ATOM     23  C   UNL     1      24.065 -13.221   2.034  1.00  0.00     0.000 C 
BRANCH  23  24
ATOM     24  C   UNL     1      22.723 -12.957   1.342  1.00  0.00    -0.000 C 
BRANCH  24  25
ATOM     25  C   UNL     1      21.873 -14.238   1.266  1.00  0.00    -0.000 C 
BRANCH  25  26
ATOM     26  C   UNL     1      22.730 -15.499   1.462  1.00  0.00    -0.000 C 
BRANCH  26  27
ATOM     27  C   UNL     1      22.034 -16.520   2.385  1.00  0.00    -0.000 C 
BRANCH  27  28
ATOM     28  C   UNL     1      21.470 -15.884   3.668  1.00  0.00    -0.000 C 
BRANCH  28  29
ATOM     29  C   UNL     1      22.560 -15.477   4.680  1.00  0.00    -0.000 C 
BRANCH  29  30
ATOM     30  C   UNL     1      22.085 -14.416   5.701  1.00  0.00    -0.000 C 
BRANCH  30  31
ATOM     31  C   UNL     1      21.638 -15.014   7.044  1.00  0.00    -0.003 C 
ATOM     32  C   UNL     1      21.393 -13.950   8.110  1.00  0.00     0.004 C 
ENDBRANCH  30  31
ENDBRANCH  29  30
ENDBRANCH  28  29
ENDBRANCH  27  28
ENDBRANCH  26  27
ENDBRANCH  25  26
ENDBRANCH  24  25
ENDBRANCH  23  24
ENDBRANCH  22  23
ENDBRANCH  21  22
ENDBRANCH  20  21
ENDBRANCH  19  20
ENDBRANCH  18  19
ENDBRANCH   1  18
TORSDOF 28
ENDMDL
MODEL 6
REMARK VINA RESULT:    -4.221      2.426      8.365
REMARK INTER + INTRA:         -15.299
REMARK INTER:                 -10.423
REMARK INTRA:                  -4.876
REMARK UNBOUND:                -4.169
REMARK SMILES CCCCCCCCCCCCCCCCCCCCCCCCCCCCCC(=O)[O-]
REMARK SMILES IDX 16 1 17 2 18 3 19 4 20 5 21 6 22 7 23 8 24 9 25 10 26 11
REMARK SMILES IDX 27 12 28 13 29 14 30 15 31 16 32 17 15 18 14 19 13 20 12 21
REMARK SMILES IDX 11 22 10 23 9 24 8 25 7 26 6 27 5 28 4 29 3 30 2 31 1 32
REMARK H PARENT
REMARK Flexibility Score: inf
ROOT
ATOM      1  C   UNL     1      24.492 -11.576   2.547  1.00  0.00     0.000 C 
ENDROOT
BRANCH   1   2
ATOM      2  C   UNL     1      24.513 -12.858   3.395  1.00  0.00     0.000 C 
BRANCH   2   3
ATOM      3  C   UNL     1      25.561 -12.885   4.523  1.00  0.00     0.000 C 
BRANCH   3   4
ATOM      4  C   UNL     1      26.861 -13.634   4.161  1.00  0.00     0.000 C 
BRANCH   4   5
ATOM      5  C   UNL     1      26.806 -14.313   2.780  1.00  0.00     0.000 C 
BRANCH   5   6
ATOM      6  C   UNL     1      27.926 -13.853   1.831  1.00  0.00     0.000 C 
BRANCH   6   7
ATOM      7  C   UNL     1      28.618 -12.535   2.244  1.00  0.00     0.000 C 
BRANCH   7   8
ATOM      8  C   UNL     1      27.962 -11.239   1.718  1.00  0.00     0.000 C 
BRANCH   8   9
ATOM      9  C   UNL     1      27.864 -10.078   2.726  1.00  0.00     0.000 C 
BRANCH   9  10
ATOM     10  C   UNL     1      28.815 -10.183   3.933  1.00  0.00     0.000 C 
BRANCH  10  11
ATOM     11  C   UNL     1      28.110 -10.278   5.298  1.00  0.00     0.000 C 
BRANCH  11  12
ATOM     12  C   UNL     1      27.021  -9.203   5.479  1.00  0.00     0.000 C 
BRANCH  12  13
ATOM     13  C   UNL     1      25.745  -9.754   6.144  1.00  0.00     0.006 C 
BRANCH  13  14
ATOM     14  C   UNL     1      25.651  -9.434   7.646  1.00  0.00     0.053 C 
BRANCH  14  15
ATOM     15  C   UNL     1      24.234  -9.311   8.115  1.00  0.00     0.041 C 
ATOM     16  O   UNL     1      23.612  -8.225   7.971  1.00  0.00    -0.550 OA
ATOM     17  O   UNL     1      23.597 -10.397   8.704  1.00  0.00    -0.550 OA
ENDBRANCH  14  15
ENDBRANCH  13  14
ENDBRANCH  12  13
ENDBRANCH  11  12
ENDBRANCH  10  11
ENDBRANCH   9  10
ENDBRANCH   8   9
ENDBRANCH   7   8
ENDBRANCH   6   7
ENDBRANCH   5   6
ENDBRANCH   4   5
ENDBRANCH   3   4
ENDBRANCH   2   3
ENDBRANCH   1   2
BRANCH   1  18
ATOM     18  C   UNL     1      23.760 -11.759   1.206  1.00  0.00     0.000 C 
BRANCH  18  19
ATOM     19  C   UNL     1      23.357 -13.219   0.929  1.00  0.00     0.000 C 
BRANCH  19  20
ATOM     20  C   UNL     1      21.878 -13.555   1.194  1.00  0.00     0.000 C 
BRANCH  20  21
ATOM     21  C   UNL     1      21.577 -15.029   1.522  1.00  0.00     0.000 C 
BRANCH  21  22
ATOM     22  C   UNL     1      22.704 -16.009   1.133  1.00  0.00     0.000 C 
BRANCH  22  23
ATOM     23  C   UNL     1      22.432 -17.453   1.590  1.00  0.00     0.000 C 
BRANCH  23  24
ATOM     24  C   UNL     1      23.434 -17.891   2.663  1.00  0.00    -0.000 C 
BRANCH  24  25
ATOM     25  C   UNL     1      24.382 -16.740   3.046  1.00  0.00    -0.000 C 
BRANCH  25  26
ATOM     26  C   UNL     1      24.448 -16.544   4.569  1.00  0.00    -0.000 C 
BRANCH  26  27
ATOM     27  C   UNL     1      23.066 -16.741   5.226  1.00  0.00    -0.000 C 
BRANCH  27  28
ATOM     28  C   UNL     1      22.178 -15.486   5.147  1.00  0.00    -0.000 C 
BRANCH  28  29
ATOM     29  C   UNL     1      20.911 -15.577   6.020  1.00  0.00    -0.000 C 
BRANCH  29  30
ATOM     30  C   UNL     1      21.154 -15.190   7.498  1.00  0.00    -0.000 C 
BRANCH  30  31
ATOM     31  C   UNL     1      22.028 -13.937   7.668  1.00  0.00    -0.003 C 
ATOM     32  C   UNL     1      21.348 -12.852   8.498  1.00  0.00     0.004 C 
ENDBRANCH  30  31
ENDBRANCH  29  30
ENDBRANCH  28  29
ENDBRANCH  27  28
ENDBRANCH  26  27
ENDBRANCH  25  26
ENDBRANCH  24  25
ENDBRANCH  23  24
ENDBRANCH  22  23
ENDBRANCH  21  22
ENDBRANCH  20  21
ENDBRANCH  19  20
ENDBRANCH  18  19
ENDBRANCH   1  18
TORSDOF 28
ENDMDL
MODEL 7
REMARK VINA RESULT:    -4.168      2.677      5.000
REMARK INTER + INTRA:         -15.160
REMARK INTER:                 -12.662
REMARK INTRA:                  -2.498
REMARK UNBOUND:                -4.169
REMARK SMILES CCCCCCCCCCCCCCCCCCCCCCCCCCCCCC(=O)[O-]
REMARK SMILES IDX 16 1 17 2 18 3 19 4 20 5 21 6 22 7 23 8 24 9 25 10 26 11
REMARK SMILES IDX 27 12 28 13 29 14 30 15 31 16 32 17 15 18 14 19 13 20 12 21
REMARK SMILES IDX 11 22 10 23 9 24 8 25 7 26 6 27 5 28 4 29 3 30 2 31 1 32
REMARK H PARENT
REMARK Flexibility Score: inf
ROOT
ATOM      1  C   UNL     1      25.167 -11.359   7.327  1.00  0.00     0.000 C 
ENDROOT
BRANCH   1   2
ATOM      2  C   UNL     1      25.716 -11.769   5.951  1.00  0.00     0.000 C 
BRANCH   2   3
ATOM      3  C   UNL     1      25.889 -10.619   4.940  1.00  0.00     0.000 C 
BRANCH   3   4
ATOM      4  C   UNL     1      25.468 -10.975   3.499  1.00  0.00     0.000 C 
BRANCH   4   5
ATOM      5  C   UNL     1      24.838 -12.376   3.379  1.00  0.00     0.000 C 
BRANCH   5   6
ATOM      6  C   UNL     1      25.154 -13.072   2.044  1.00  0.00     0.000 C 
BRANCH   6   7
ATOM      7  C   UNL     1      23.920 -13.349   1.155  1.00  0.00     0.000 C 
BRANCH   7   8
ATOM      8  C   UNL     1      22.576 -13.499   1.901  1.00  0.00     0.000 C 
BRANCH   8   9
ATOM      9  C   UNL     1      21.549 -14.446   1.253  1.00  0.00     0.000 C 
BRANCH   9  10
ATOM     10  C   UNL     1      21.398 -15.813   1.945  1.00  0.00     0.000 C 
BRANCH  10  11
ATOM     11  C   UNL     1      22.362 -16.046   3.122  1.00  0.00     0.000 C 
BRANCH  11  12
ATOM     12  C   UNL     1      21.667 -15.916   4.491  1.00  0.00     0.000 C 
BRANCH  12  13
ATOM     13  C   UNL     1      22.322 -14.852   5.392  1.00  0.00     0.006 C 
BRANCH  13  14
ATOM     14  C   UNL     1      21.459 -14.462   6.605  1.00  0.00     0.053 C 
BRANCH  14  15
ATOM     15  C   UNL     1      21.772 -15.286   7.816  1.00  0.00     0.041 C 
ATOM     16  O   UNL     1      22.213 -16.459   7.686  1.00  0.00    -0.550 OA
ATOM     17  O   UNL     1      21.585 -14.758   9.088  1.00  0.00    -0.550 OA
ENDBRANCH  14  15
ENDBRANCH  13  14
ENDBRANCH  12  13
ENDBRANCH  11  12
ENDBRANCH  10  11
ENDBRANCH   9  10
ENDBRANCH   8   9
ENDBRANCH   7   8
ENDBRANCH   6   7
ENDBRANCH   5   6
ENDBRANCH   4   5
ENDBRANCH   3   4
ENDBRANCH   2   3
ENDBRANCH   1   2
BRANCH   1  18
ATOM     18  C   UNL     1      25.258  -9.844   7.578  1.00  0.00     0.000 C 
BRANCH  18  19
ATOM     19  C   UNL     1      24.010  -9.268   8.271  1.00  0.00     0.000 C 
BRANCH  19  20
ATOM     20  C   UNL     1      23.706  -7.791   7.957  1.00  0.00     0.000 C 
BRANCH  20  21
ATOM     21  C   UNL     1      24.215  -7.281   6.595  1.00  0.00     0.000 C 
BRANCH  21  22
ATOM     22  C   UNL     1      25.430  -6.334   6.686  1.00  0.00     0.000 C 
BRANCH  22  23
ATOM     23  C   UNL     1      26.698  -6.918   6.037  1.00  0.00     0.000 C 
BRANCH  23  24
ATOM     24  C   UNL     1      27.918  -6.734   6.946  1.00  0.00    -0.000 C 
BRANCH  24  25
ATOM     25  C   UNL     1      27.852  -5.397   7.705  1.00  0.00    -0.000 C 
BRANCH  25  26
ATOM     26  C   UNL     1      29.066  -5.210   8.629  1.00  0.00    -0.000 C 
BRANCH  26  27
ATOM     27  C   UNL     1      29.012  -3.857   9.370  1.00  0.00    -0.000 C 
BRANCH  27  28
ATOM     28  C   UNL     1      29.726  -3.889  10.732  1.00  0.00    -0.000 C 
BRANCH  28  29
ATOM     29  C   UNL     1      29.122  -2.914  11.763  1.00  0.00    -0.000 C 
BRANCH  29  30
ATOM     30  C   UNL     1      28.024  -1.998  11.171  1.00  0.00    -0.000 C 
BRANCH  30  31
ATOM     31  C   UNL     1      28.216  -0.511  11.510  1.00  0.00    -0.003 C 
ATOM     32  C   UNL     1      28.966  -0.298  12.821  1.00  0.00     0.004 C 
ENDBRANCH  30  31
ENDBRANCH  29  30
ENDBRANCH  28  29
ENDBRANCH  27  28
ENDBRANCH  26  27
ENDBRANCH  25  26
ENDBRANCH  24  25
ENDBRANCH  23  24
ENDBRANCH  22  23
ENDBRANCH  21  22
ENDBRANCH  20  21
ENDBRANCH  19  20
ENDBRANCH  18  19
ENDBRANCH   1  18
TORSDOF 28
ENDMDL
MODEL 8
REMARK VINA RESULT:    -4.138      2.312      8.435
REMARK INTER + INTRA:         -15.082
REMARK INTER:                 -10.708
REMARK INTRA:                  -4.373
REMARK UNBOUND:                -4.169
REMARK SMILES CCCCCCCCCCCCCCCCCCCCCCCCCCCCCC(=O)[O-]
REMARK SMILES IDX 16 1 17 2 18 3 19 4 20 5 21 6 22 7 23 8 24 9 25 10 26 11
REMARK SMILES IDX 27 12 28 13 29 14 30 15 31 16 32 17 15 18 14 19 13 20 12 21
REMARK SMILES IDX 11 22 10 23 9 24 8 25 7 26 6 27 5 28 4 29 3 30 2 31 1 32
REMARK H PARENT
REMARK Flexibility Score: inf
ROOT
ATOM      1  C   UNL     1      23.458 -13.147   0.991  1.00  0.00     0.000 C 
ENDROOT
BRANCH   1   2
ATOM      2  C   UNL     1      23.745 -11.662   1.266  1.00  0.00     0.000 C 
BRANCH   2   3
ATOM      3  C   UNL     1      24.682 -11.381   2.456  1.00  0.00     0.000 C 
BRANCH   3   4
ATOM      4  C   UNL     1      25.811 -10.375   2.148  1.00  0.00     0.000 C 
BRANCH   4   5
ATOM      5  C   UNL     1      26.963 -10.988   1.330  1.00  0.00     0.000 C 
BRANCH   5   6
ATOM      6  C   UNL     1      27.323 -12.420   1.764  1.00  0.00     0.000 C 
BRANCH   6   7
ATOM      7  C   UNL     1      28.517 -12.516   2.740  1.00  0.00     0.000 C 
BRANCH   7   8
ATOM      8  C   UNL     1      28.153 -12.718   4.227  1.00  0.00     0.000 C 
BRANCH   8   9
ATOM      9  C   UNL     1      28.627 -11.614   5.191  1.00  0.00     0.000 C 
BRANCH   9  10
ATOM     10  C   UNL     1      28.432 -10.175   4.678  1.00  0.00     0.000 C 
BRANCH  10  11
ATOM     11  C   UNL     1      27.872  -9.192   5.723  1.00  0.00     0.000 C 
BRANCH  11  12
ATOM     12  C   UNL     1      26.742  -8.310   5.159  1.00  0.00     0.000 C 
BRANCH  12  13
ATOM     13  C   UNL     1      25.466  -8.353   6.021  1.00  0.00     0.006 C 
BRANCH  13  14
ATOM     14  C   UNL     1      25.323  -9.650   6.837  1.00  0.00     0.053 C 
BRANCH  14  15
ATOM     15  C   UNL     1      24.418  -9.484   8.019  1.00  0.00     0.041 C 
ATOM     16  O   UNL     1      23.633  -8.501   8.081  1.00  0.00    -0.550 OA
ATOM     17  O   UNL     1      24.435 -10.417   9.048  1.00  0.00    -0.550 OA
ENDBRANCH  14  15
ENDBRANCH  13  14
ENDBRANCH  12  13
ENDBRANCH  11  12
ENDBRANCH  10  11
ENDBRANCH   9  10
ENDBRANCH   8   9
ENDBRANCH   7   8
ENDBRANCH   6   7
ENDBRANCH   5   6
ENDBRANCH   4   5
ENDBRANCH   3   4
ENDBRANCH   2   3
ENDBRANCH   1   2
BRANCH   1  18
ATOM     18  C   UNL     1      21.984 -13.523   1.224  1.00  0.00     0.000 C 
BRANCH  18  19
ATOM     19  C   UNL     1      21.807 -14.706   2.194  1.00  0.00     0.000 C 
BRANCH  19  20
ATOM     20  C   UNL     1      21.099 -15.940   1.603  1.00  0.00     0.000 C 
BRANCH  20  21
ATOM     21  C   UNL     1      21.978 -17.191   1.425  1.00  0.00     0.000 C 
BRANCH  21  22
ATOM     22  C   UNL     1      23.471 -16.888   1.176  1.00  0.00     0.000 C 
BRANCH  22  23
ATOM     23  C   UNL     1      24.403 -17.588   2.180  1.00  0.00     0.000 C 
BRANCH  23  24
ATOM     24  C   UNL     1      24.504 -16.794   3.487  1.00  0.00    -0.000 C 
BRANCH  24  25
ATOM     25  C   UNL     1      25.124 -15.404   3.250  1.00  0.00    -0.000 C 
BRANCH  25  26
ATOM     26  C   UNL     1      25.439 -14.692   4.575  1.00  0.00    -0.000 C 
BRANCH  26  27
ATOM     27  C   UNL     1      24.222 -13.899   5.095  1.00  0.00    -0.000 C 
BRANCH  27  28
ATOM     28  C   UNL     1      23.378 -14.691   6.109  1.00  0.00    -0.000 C 
BRANCH  28  29
ATOM     29  C   UNL     1      21.859 -14.487   5.933  1.00  0.00    -0.000 C 
BRANCH  29  30
ATOM     30  C   UNL     1      21.027 -15.008   7.128  1.00  0.00    -0.000 C 
BRANCH  30  31
ATOM     31  C   UNL     1      21.388 -14.341   8.465  1.00  0.00    -0.003 C 
ATOM     32  C   UNL     1      21.488 -12.823   8.358  1.00  0.00     0.004 C 
ENDBRANCH  30  31
ENDBRANCH  29  30
ENDBRANCH  28  29
ENDBRANCH  27  28
ENDBRANCH  26  27
ENDBRANCH  25  26
ENDBRANCH  24  25
ENDBRANCH  23  24
ENDBRANCH  22  23
ENDBRANCH  21  22
ENDBRANCH  20  21
ENDBRANCH  19  20
ENDBRANCH  18  19
ENDBRANCH   1  18
TORSDOF 28
ENDMDL
MODEL 9
REMARK VINA RESULT:    -4.133      3.336      9.423
REMARK INTER + INTRA:         -15.068
REMARK INTER:                 -11.910
REMARK INTRA:                  -3.158
REMARK UNBOUND:                -4.169
REMARK SMILES CCCCCCCCCCCCCCCCCCCCCCCCCCCCCC(=O)[O-]
REMARK SMILES IDX 16 1 17 2 18 3 19 4 20 5 21 6 22 7 23 8 24 9 25 10 26 11
REMARK SMILES IDX 27 12 28 13 29 14 30 15 31 16 32 17 15 18 14 19 13 20 12 21
REMARK SMILES IDX 11 22 10 23 9 24 8 25 7 26 6 27 5 28 4 29 3 30 2 31 1 32
REMARK H PARENT
REMARK Flexibility Score: inf
ROOT
ATOM      1  C   UNL     1      26.487 -10.733   4.993  1.00  0.00     0.000 C 
ENDROOT
BRANCH   1   2
ATOM      2  C   UNL     1      25.724 -12.058   4.840  1.00  0.00     0.000 C 
BRANCH   2   3
ATOM      3  C   UNL     1      24.897 -12.489   6.066  1.00  0.00     0.000 C 
BRANCH   3   4
ATOM      4  C   UNL     1      25.342 -11.833   7.390  1.00  0.00     0.000 C 
BRANCH   4   5
ATOM      5  C   UNL     1      24.244 -10.967   8.038  1.00  0.00     0.000 C 
BRANCH   5   6
ATOM      6  C   UNL     1      24.728  -9.557   8.419  1.00  0.00     0.000 C 
BRANCH   6   7
ATOM      7  C   UNL     1      23.749  -8.420   8.050  1.00  0.00     0.000 C 
BRANCH   7   8
ATOM      8  C   UNL     1      24.180  -7.522   6.869  1.00  0.00     0.000 C 
BRANCH   8   9
ATOM      9  C   UNL     1      24.451  -6.045   7.213  1.00  0.00     0.000 C 
BRANCH   9  10
ATOM     10  C   UNL     1      25.815  -5.507   6.741  1.00  0.00     0.000 C 
BRANCH  10  11
ATOM     11  C   UNL     1      26.191  -4.126   7.307  1.00  0.00     0.000 C 
BRANCH  11  12
ATOM     12  C   UNL     1      25.053  -3.495   8.132  1.00  0.00     0.000 C 
BRANCH  12  13
ATOM     13  C   UNL     1      25.502  -2.239   8.903  1.00  0.00     0.006 C 
BRANCH  13  14
ATOM     14  C   UNL     1      24.856  -2.111  10.293  1.00  0.00     0.053 C 
BRANCH  14  15
ATOM     15  C   UNL     1      23.386  -1.836  10.217  1.00  0.00     0.041 C 
ATOM     16  O   UNL     1      22.972  -0.679   9.940  1.00  0.00    -0.550 OA
ATOM     17  O   UNL     1      22.471  -2.858  10.442  1.00  0.00    -0.550 OA
ENDBRANCH  14  15
ENDBRANCH  13  14
ENDBRANCH  12  13
ENDBRANCH  11  12
ENDBRANCH  10  11
ENDBRANCH   9  10
ENDBRANCH   8   9
ENDBRANCH   7   8
ENDBRANCH   6   7
ENDBRANCH   5   6
ENDBRANCH   4   5
ENDBRANCH   3   4
ENDBRANCH   2   3
ENDBRANCH   1   2
BRANCH   1  18
ATOM     18  C   UNL     1      25.817  -9.568   4.243  1.00  0.00     0.000 C 
BRANCH  18  19
ATOM     19  C   UNL     1      26.106  -9.574   2.731  1.00  0.00     0.000 C 
BRANCH  19  20
ATOM     20  C   UNL     1      24.886  -9.310   1.828  1.00  0.00     0.000 C 
BRANCH  20  21
ATOM     21  C   UNL     1      24.089 -10.558   1.402  1.00  0.00     0.000 C 
BRANCH  21  22
ATOM     22  C   UNL     1      24.960 -11.796   1.104  1.00  0.00     0.000 C 
BRANCH  22  23
ATOM     23  C   UNL     1      24.154 -13.107   1.077  1.00  0.00     0.000 C 
BRANCH  23  24
ATOM     24  C   UNL     1      22.654 -12.830   0.930  1.00  0.00    -0.000 C 
BRANCH  24  25
ATOM     25  C   UNL     1      21.820 -13.798   1.788  1.00  0.00    -0.000 C 
BRANCH  25  26
ATOM     26  C   UNL     1      22.707 -14.611   2.745  1.00  0.00    -0.000 C 
BRANCH  26  27
ATOM     27  C   UNL     1      22.056 -15.962   3.111  1.00  0.00    -0.000 C 
BRANCH  27  28
ATOM     28  C   UNL     1      22.156 -16.291   4.611  1.00  0.00    -0.000 C 
BRANCH  28  29
ATOM     29  C   UNL     1      22.655 -15.108   5.465  1.00  0.00    -0.000 C 
BRANCH  29  30
ATOM     30  C   UNL     1      21.522 -14.379   6.226  1.00  0.00    -0.000 C 
BRANCH  30  31
ATOM     31  C   UNL     1      21.945 -13.862   7.610  1.00  0.00    -0.003 C 
ATOM     32  C   UNL     1      21.596 -14.832   8.734  1.00  0.00     0.004 C 
ENDBRANCH  30  31
ENDBRANCH  29  30
ENDBRANCH  28  29
ENDBRANCH  27  28
ENDBRANCH  26  27
ENDBRANCH  25  26
ENDBRANCH  24  25
ENDBRANCH  23  24
ENDBRANCH  22  23
ENDBRANCH  21  22
ENDBRANCH  20  21
ENDBRANCH  19  20
ENDBRANCH  18  19
ENDBRANCH   1  18
TORSDOF 28
ENDMDL
