MODEL 1
REMARK VINA RESULT:    -3.901      0.000      0.000
REMARK INTER + INTRA:          -7.846
REMARK INTER:                  -7.321
REMARK INTRA:                  -0.525
REMARK UNBOUND:                -0.525
REMARK SMILES O=C([O-])CCCCCCCCCCCCCCC(=O)[O-]
REMARK SMILES IDX 10 1 9 2 8 3 7 4 6 5 5 6 4 7 2 8 1 9 3 10 11 11 12 12 13 13
REMARK SMILES IDX 14 14 15 15 16 16 17 17 18 18 19 19 20 20
REMARK H PARENT
REMARK Flexibility Score: inf
ROOT
ATOM      1  C   UNL     1      20.948 -28.109  13.788  1.00  0.00     0.000 C 
ENDROOT
BRANCH   1   2
ATOM      2  C   UNL     1      20.528 -29.405  13.075  1.00  0.00     0.000 C 
BRANCH   2   3
ATOM      3  C   UNL     1      19.902 -30.434  14.031  1.00  0.00     0.000 C 
BRANCH   3   4
ATOM      4  C   UNL     1      19.198 -31.602  13.308  1.00  0.00     0.000 C 
BRANCH   4   5
ATOM      5  C   UNL     1      18.028 -32.171  14.132  1.00  0.00     0.000 C 
BRANCH   5   6
ATOM      6  C   UNL     1      16.652 -31.744  13.586  1.00  0.00     0.006 C 
BRANCH   6   7
ATOM      7  C   UNL     1      15.664 -31.305  14.679  1.00  0.00     0.053 C 
BRANCH   7   8
ATOM      8  C   UNL     1      14.414 -30.704  14.114  1.00  0.00     0.041 C 
ATOM      9  O   UNL     1      14.476 -29.688  13.375  1.00  0.00    -0.550 OA
ATOM     10  O   UNL     1      13.178 -31.268  14.405  1.00  0.00    -0.550 OA
ENDBRANCH   7   8
ENDBRANCH   6   7
ENDBRANCH   5   6
ENDBRANCH   4   5
ENDBRANCH   3   4
ENDBRANCH   2   3
ENDBRANCH   1   2
BRANCH   1  11
ATOM     11  C   UNL     1      20.864 -26.867  12.882  1.00  0.00     0.000 C 
BRANCH  11  12
ATOM     12  C   UNL     1      20.915 -25.510  13.609  1.00  0.00     0.000 C 
BRANCH  12  13
ATOM     13  C   UNL     1      20.139 -24.404  12.875  1.00  0.00     0.000 C 
BRANCH  13  14
ATOM     14  C   UNL     1      19.538 -23.355  13.830  1.00  0.00     0.000 C 
BRANCH  14  15
ATOM     15  C   UNL     1      20.391 -23.025  15.069  1.00  0.00     0.000 C 
BRANCH  15  16
ATOM     16  C   UNL     1      20.811 -21.547  15.134  1.00  0.00     0.006 C 
BRANCH  16  17
ATOM     17  C   UNL     1      19.803 -20.627  14.433  1.00  0.00     0.053 C 
BRANCH  17  18
ATOM     18  C   UNL     1      19.988 -19.194  14.831  1.00  0.00     0.041 C 
ATOM     19  O   UNL     1      20.071 -18.879  16.046  1.00  0.00    -0.550 OA
ATOM     20  O   UNL     1      20.095 -18.211  13.855  1.00  0.00    -0.550 OA
ENDBRANCH  17  18
ENDBRANCH  16  17
ENDBRANCH  15  16
ENDBRANCH  14  15
ENDBRANCH  13  14
ENDBRANCH  12  13
ENDBRANCH  11  12
ENDBRANCH   1  11
TORSDOF 15
ENDMDL
MODEL 2
REMARK VINA RESULT:    -3.661     12.200     14.342
REMARK INTER + INTRA:          -7.395
REMARK INTER:                  -5.583
REMARK INTRA:                  -1.812
REMARK UNBOUND:                -0.525
REMARK SMILES O=C([O-])CCCCCCCCCCCCCCC(=O)[O-]
REMARK SMILES IDX 10 1 9 2 8 3 7 4 6 5 5 6 4 7 2 8 1 9 3 10 11 11 12 12 13 13
REMARK SMILES IDX 14 14 15 15 16 16 17 17 18 18 19 19 20 20
REMARK H PARENT
REMARK Flexibility Score: inf
ROOT
ATOM      1  C   UNL     1       9.656 -35.468  14.091  1.00  0.00     0.000 C 
ENDROOT
BRANCH   1   2
ATOM      2  C   UNL     1       8.879 -36.728  13.675  1.00  0.00     0.000 C 
BRANCH   2   3
ATOM      3  C   UNL     1       7.599 -36.405  12.885  1.00  0.00     0.000 C 
BRANCH   3   4
ATOM      4  C   UNL     1       6.303 -36.588  13.703  1.00  0.00     0.000 C 
BRANCH   4   5
ATOM      5  C   UNL     1       6.471 -37.627  14.827  1.00  0.00     0.000 C 
BRANCH   5   6
ATOM      6  C   UNL     1       5.906 -37.141  16.176  1.00  0.00     0.006 C 
BRANCH   6   7
ATOM      7  C   UNL     1       6.267 -38.053  17.360  1.00  0.00     0.053 C 
BRANCH   7   8
ATOM      8  C   UNL     1       7.195 -37.390  18.331  1.00  0.00     0.041 C 
ATOM      9  O   UNL     1       7.651 -38.032  19.313  1.00  0.00    -0.550 OA
ATOM     10  O   UNL     1       7.555 -36.060  18.151  1.00  0.00    -0.550 OA
ENDBRANCH   7   8
ENDBRANCH   6   7
ENDBRANCH   5   6
ENDBRANCH   4   5
ENDBRANCH   3   4
ENDBRANCH   2   3
ENDBRANCH   1   2
BRANCH   1  11
ATOM     11  C   UNL     1       9.321 -34.239  13.225  1.00  0.00     0.000 C 
BRANCH  11  12
ATOM     12  C   UNL     1       8.940 -32.965  14.002  1.00  0.00     0.000 C 
BRANCH  12  13
ATOM     13  C   UNL     1       7.441 -32.890  14.337  1.00  0.00     0.000 C 
BRANCH  13  14
ATOM     14  C   UNL     1       7.091 -33.559  15.679  1.00  0.00     0.000 C 
BRANCH  14  15
ATOM     15  C   UNL     1       6.498 -32.623  16.748  1.00  0.00     0.000 C 
BRANCH  15  16
ATOM     16  C   UNL     1       7.374 -32.517  18.008  1.00  0.00     0.006 C 
BRANCH  16  17
ATOM     17  C   UNL     1       8.870 -32.622  17.683  1.00  0.00     0.053 C 
BRANCH  17  18
ATOM     18  C   UNL     1       9.638 -31.450  18.216  1.00  0.00     0.041 C 
ATOM     19  O   UNL     1      10.399 -30.792  17.460  1.00  0.00    -0.550 OA
ATOM     20  O   UNL     1       9.491 -31.069  19.544  1.00  0.00    -0.550 OA
ENDBRANCH  17  18
ENDBRANCH  16  17
ENDBRANCH  15  16
ENDBRANCH  14  15
ENDBRANCH  13  14
ENDBRANCH  12  13
ENDBRANCH  11  12
ENDBRANCH   1  11
TORSDOF 15
ENDMDL
MODEL 3
REMARK VINA RESULT:    -3.565      0.588     10.059
REMARK INTER + INTRA:          -7.217
REMARK INTER:                  -6.652
REMARK INTRA:                  -0.564
REMARK UNBOUND:                -0.525
REMARK SMILES O=C([O-])CCCCCCCCCCCCCCC(=O)[O-]
REMARK SMILES IDX 10 1 9 2 8 3 7 4 6 5 5 6 4 7 2 8 1 9 3 10 11 11 12 12 13 13
REMARK SMILES IDX 14 14 15 15 16 16 17 17 18 18 19 19 20 20
REMARK H PARENT
REMARK Flexibility Score: inf
ROOT
ATOM      1  C   UNL     1      20.994 -26.509  13.058  1.00  0.00     0.000 C 
ENDROOT
BRANCH   1   2
ATOM      2  C   UNL     1      20.871 -25.137  13.743  1.00  0.00     0.000 C 
BRANCH   2   3
ATOM      3  C   UNL     1      19.912 -24.187  13.005  1.00  0.00     0.000 C 
BRANCH   3   4
ATOM      4  C   UNL     1      19.313 -23.088  13.908  1.00  0.00     0.000 C 
BRANCH   4   5
ATOM      5  C   UNL     1      20.266 -22.695  15.051  1.00  0.00     0.000 C 
BRANCH   5   6
ATOM      6  C   UNL     1      20.751 -21.236  14.949  1.00  0.00     0.006 C 
BRANCH   6   7
ATOM      7  C   UNL     1      19.646 -20.246  14.547  1.00  0.00     0.053 C 
BRANCH   7   8
ATOM      8  C   UNL     1      20.048 -18.820  14.766  1.00  0.00     0.041 C 
ATOM      9  O   UNL     1      20.089 -18.344  15.930  1.00  0.00    -0.550 OA
ATOM     10  O   UNL     1      20.377 -18.015  13.682  1.00  0.00    -0.550 OA
ENDBRANCH   7   8
ENDBRANCH   6   7
ENDBRANCH   5   6
ENDBRANCH   4   5
ENDBRANCH   3   4
ENDBRANCH   2   3
ENDBRANCH   1   2
BRANCH   1  11
ATOM     11  C   UNL     1      21.409 -27.631  14.027  1.00  0.00     0.000 C 
BRANCH  11  12
ATOM     12  C   UNL     1      21.310 -29.062  13.466  1.00  0.00     0.000 C 
BRANCH  12  13
ATOM     13  C   UNL     1      19.881 -29.448  13.050  1.00  0.00     0.000 C 
BRANCH  13  14
ATOM     14  C   UNL     1      19.631 -30.968  13.094  1.00  0.00     0.000 C 
BRANCH  14  15
ATOM     15  C   UNL     1      18.617 -31.439  14.152  1.00  0.00     0.000 C 
BRANCH  15  16
ATOM     16  C   UNL     1      17.219 -31.705  13.568  1.00  0.00     0.006 C 
BRANCH  16  17
ATOM     17  C   UNL     1      16.126 -31.668  14.643  1.00  0.00     0.053 C 
BRANCH  17  18
ATOM     18  C   UNL     1      14.922 -30.901  14.186  1.00  0.00     0.041 C 
ATOM     19  O   UNL     1      15.054 -29.910  13.421  1.00  0.00    -0.550 OA
ATOM     20  O   UNL     1      13.652 -31.298  14.585  1.00  0.00    -0.550 OA
ENDBRANCH  17  18
ENDBRANCH  16  17
ENDBRANCH  15  16
ENDBRANCH  14  15
ENDBRANCH  13  14
ENDBRANCH  12  13
ENDBRANCH  11  12
ENDBRANCH   1  11
TORSDOF 15
ENDMDL
MODEL 4
REMARK VINA RESULT:    -3.255      7.795     11.572
REMARK INTER + INTRA:          -6.634
REMARK INTER:                  -5.606
REMARK INTRA:                  -1.028
REMARK UNBOUND:                -0.525
REMARK SMILES O=C([O-])CCCCCCCCCCCCCCC(=O)[O-]
REMARK SMILES IDX 10 1 9 2 8 3 7 4 6 5 5 6 4 7 2 8 1 9 3 10 11 11 12 12 13 13
REMARK SMILES IDX 14 14 15 15 16 16 17 17 18 18 19 19 20 20
REMARK H PARENT
REMARK Flexibility Score: inf
ROOT
ATOM      1  C   UNL     1       8.587 -34.500  12.940  1.00  0.00     0.000 C 
ENDROOT
BRANCH   1   2
ATOM      2  C   UNL     1       7.434 -33.634  13.475  1.00  0.00     0.000 C 
BRANCH   2   3
ATOM      3  C   UNL     1       6.515 -34.399  14.443  1.00  0.00     0.000 C 
BRANCH   3   4
ATOM      4  C   UNL     1       6.274 -33.665  15.779  1.00  0.00     0.000 C 
BRANCH   4   5
ATOM      5  C   UNL     1       7.339 -34.018  16.833  1.00  0.00     0.000 C 
BRANCH   5   6
ATOM      6  C   UNL     1       8.351 -32.879  17.063  1.00  0.00     0.006 C 
BRANCH   6   7
ATOM      7  C   UNL     1       8.324 -32.309  18.491  1.00  0.00     0.053 C 
BRANCH   7   8
ATOM      8  C   UNL     1       9.524 -31.465  18.792  1.00  0.00     0.041 C 
ATOM      9  O   UNL     1       9.919 -31.324  19.978  1.00  0.00    -0.550 OA
ATOM     10  O   UNL     1      10.206 -30.832  17.760  1.00  0.00    -0.550 OA
ENDBRANCH   7   8
ENDBRANCH   6   7
ENDBRANCH   5   6
ENDBRANCH   4   5
ENDBRANCH   3   4
ENDBRANCH   2   3
ENDBRANCH   1   2
BRANCH   1  11
ATOM     11  C   UNL     1       9.911 -34.271  13.692  1.00  0.00     0.000 C 
BRANCH  11  12
ATOM     12  C   UNL     1      10.212 -32.811  14.079  1.00  0.00     0.000 C 
BRANCH  12  13
ATOM     13  C   UNL     1      11.563 -32.312  13.541  1.00  0.00     0.000 C 
BRANCH  13  14
ATOM     14  C   UNL     1      12.271 -31.338  14.502  1.00  0.00     0.000 C 
BRANCH  14  15
ATOM     15  C   UNL     1      13.515 -30.635  13.930  1.00  0.00     0.000 C 
BRANCH  15  16
ATOM     16  C   UNL     1      14.809 -31.003  14.675  1.00  0.00     0.006 C 
BRANCH  16  17
ATOM     17  C   UNL     1      15.935 -31.410  13.715  1.00  0.00     0.053 C 
BRANCH  17  18
ATOM     18  C   UNL     1      17.143 -31.903  14.451  1.00  0.00     0.041 C 
ATOM     19  O   UNL     1      17.018 -32.471  15.567  1.00  0.00    -0.550 OA
ATOM     20  O   UNL     1      18.406 -31.756  13.891  1.00  0.00    -0.550 OA
ENDBRANCH  17  18
ENDBRANCH  16  17
ENDBRANCH  15  16
ENDBRANCH  14  15
ENDBRANCH  13  14
ENDBRANCH  12  13
ENDBRANCH  11  12
ENDBRANCH   1  11
TORSDOF 15
ENDMDL
MODEL 5
REMARK VINA RESULT:    -3.231      7.840     11.967
REMARK INTER + INTRA:          -6.588
REMARK INTER:                  -5.488
REMARK INTRA:                  -1.100
REMARK UNBOUND:                -0.525
REMARK SMILES O=C([O-])CCCCCCCCCCCCCCC(=O)[O-]
REMARK SMILES IDX 10 1 9 2 8 3 7 4 6 5 5 6 4 7 2 8 1 9 3 10 11 11 12 12 13 13
REMARK SMILES IDX 14 14 15 15 16 16 17 17 18 18 19 19 20 20
REMARK H PARENT
REMARK Flexibility Score: inf
ROOT
ATOM      1  C   UNL     1       7.505 -32.968  13.317  1.00  0.00     0.000 C 
ENDROOT
BRANCH   1   2
ATOM      2  C   UNL     1       7.227 -34.419  12.891  1.00  0.00     0.000 C 
BRANCH   2   3
ATOM      3  C   UNL     1       6.409 -35.199  13.935  1.00  0.00     0.000 C 
BRANCH   3   4
ATOM      4  C   UNL     1       7.264 -36.124  14.826  1.00  0.00     0.000 C 
BRANCH   4   5
ATOM      5  C   UNL     1       6.667 -36.283  16.236  1.00  0.00     0.000 C 
BRANCH   5   6
ATOM      6  C   UNL     1       7.269 -35.294  17.253  1.00  0.00     0.006 C 
BRANCH   6   7
ATOM      7  C   UNL     1       8.254 -34.292  16.630  1.00  0.00     0.053 C 
BRANCH   7   8
ATOM      8  C   UNL     1       8.005 -32.887  17.083  1.00  0.00     0.041 C 
ATOM      9  O   UNL     1       8.952 -32.183  17.519  1.00  0.00    -0.550 OA
ATOM     10  O   UNL     1       6.723 -32.353  17.023  1.00  0.00    -0.550 OA
ENDBRANCH   7   8
ENDBRANCH   6   7
ENDBRANCH   5   6
ENDBRANCH   4   5
ENDBRANCH   3   4
ENDBRANCH   2   3
ENDBRANCH   1   2
BRANCH   1  11
ATOM     11  C   UNL     1       8.930 -32.499  12.967  1.00  0.00     0.000 C 
BRANCH  11  12
ATOM     12  C   UNL     1      10.008 -33.599  12.965  1.00  0.00     0.000 C 
BRANCH  12  13
ATOM     13  C   UNL     1      11.385 -33.092  13.425  1.00  0.00     0.000 C 
BRANCH  13  14
ATOM     14  C   UNL     1      11.371 -31.609  13.843  1.00  0.00     0.000 C 
BRANCH  14  15
ATOM     15  C   UNL     1      12.631 -31.121  14.582  1.00  0.00     0.000 C 
BRANCH  15  16
ATOM     16  C   UNL     1      13.930 -31.716  14.014  1.00  0.00     0.006 C 
BRANCH  16  17
ATOM     17  C   UNL     1      15.143 -30.814  14.275  1.00  0.00     0.053 C 
BRANCH  17  18
ATOM     18  C   UNL     1      16.411 -31.606  14.387  1.00  0.00     0.041 C 
ATOM     19  O   UNL     1      16.818 -31.995  15.512  1.00  0.00    -0.550 OA
ATOM     20  O   UNL     1      17.127 -31.935  13.244  1.00  0.00    -0.550 OA
ENDBRANCH  17  18
ENDBRANCH  16  17
ENDBRANCH  15  16
ENDBRANCH  14  15
ENDBRANCH  13  14
ENDBRANCH  12  13
ENDBRANCH  11  12
ENDBRANCH   1  11
TORSDOF 15
ENDMDL
MODEL 6
REMARK VINA RESULT:    -3.194     12.051     14.237
REMARK INTER + INTRA:          -6.520
REMARK INTER:                  -5.249
REMARK INTRA:                  -1.271
REMARK UNBOUND:                -0.525
REMARK SMILES O=C([O-])CCCCCCCCCCCCCCC(=O)[O-]
REMARK SMILES IDX 10 1 9 2 8 3 7 4 6 5 5 6 4 7 2 8 1 9 3 10 11 11 12 12 13 13
REMARK SMILES IDX 14 14 15 15 16 16 17 17 18 18 19 19 20 20
REMARK H PARENT
REMARK Flexibility Score: inf
ROOT
ATOM      1  C   UNL     1       9.719 -36.191  13.438  1.00  0.00     0.000 C 
ENDROOT
BRANCH   1   2
ATOM      2  C   UNL     1       9.519 -37.693  13.179  1.00  0.00     0.000 C 
BRANCH   2   3
ATOM      3  C   UNL     1       8.054 -38.055  12.875  1.00  0.00     0.000 C 
BRANCH   3   4
ATOM      4  C   UNL     1       7.033 -37.085  13.505  1.00  0.00     0.000 C 
BRANCH   4   5
ATOM      5  C   UNL     1       5.875 -37.831  14.193  1.00  0.00     0.000 C 
BRANCH   5   6
ATOM      6  C   UNL     1       6.045 -37.913  15.723  1.00  0.00     0.006 C 
BRANCH   6   7
ATOM      7  C   UNL     1       6.294 -36.550  16.390  1.00  0.00     0.053 C 
BRANCH   7   8
ATOM      8  C   UNL     1       6.964 -36.679  17.722  1.00  0.00     0.041 C 
ATOM      9  O   UNL     1       7.599 -35.708  18.210  1.00  0.00    -0.550 OA
ATOM     10  O   UNL     1       6.888 -37.874  18.427  1.00  0.00    -0.550 OA
ENDBRANCH   7   8
ENDBRANCH   6   7
ENDBRANCH   5   6
ENDBRANCH   4   5
ENDBRANCH   3   4
ENDBRANCH   2   3
ENDBRANCH   1   2
BRANCH   1  11
ATOM     11  C   UNL     1      11.152 -35.713  13.138  1.00  0.00     0.000 C 
BRANCH  11  12
ATOM     12  C   UNL     1      11.319 -34.193  12.951  1.00  0.00     0.000 C 
BRANCH  12  13
ATOM     13  C   UNL     1       9.979 -33.445  12.875  1.00  0.00     0.000 C 
BRANCH  13  14
ATOM     14  C   UNL     1       9.508 -32.913  14.242  1.00  0.00     0.000 C 
BRANCH  14  15
ATOM     15  C   UNL     1       7.999 -33.047  14.518  1.00  0.00     0.000 C 
BRANCH  15  16
ATOM     16  C   UNL     1       7.634 -32.803  15.992  1.00  0.00     0.006 C 
BRANCH  16  17
ATOM     17  C   UNL     1       8.846 -32.952  16.922  1.00  0.00     0.053 C 
BRANCH  17  18
ATOM     18  C   UNL     1       8.624 -32.270  18.238  1.00  0.00     0.041 C 
ATOM     19  O   UNL     1       9.452 -31.421  18.660  1.00  0.00    -0.550 OA
ATOM     20  O   UNL     1       7.487 -32.552  18.984  1.00  0.00    -0.550 OA
ENDBRANCH  17  18
ENDBRANCH  16  17
ENDBRANCH  15  16
ENDBRANCH  14  15
ENDBRANCH  13  14
ENDBRANCH  12  13
ENDBRANCH  11  12
ENDBRANCH   1  11
TORSDOF 15
ENDMDL
MODEL 7
REMARK VINA RESULT:    -3.117      7.732     13.679
REMARK INTER + INTRA:          -6.375
REMARK INTER:                  -5.302
REMARK INTRA:                  -1.073
REMARK UNBOUND:                -0.525
REMARK SMILES O=C([O-])CCCCCCCCCCCCCCC(=O)[O-]
REMARK SMILES IDX 10 1 9 2 8 3 7 4 6 5 5 6 4 7 2 8 1 9 3 10 11 11 12 12 13 13
REMARK SMILES IDX 14 14 15 15 16 16 17 17 18 18 19 19 20 20
REMARK H PARENT
REMARK Flexibility Score: inf
ROOT
ATOM      1  C   UNL     1       9.606 -33.768  14.264  1.00  0.00     0.000 C 
ENDROOT
BRANCH   1   2
ATOM      2  C   UNL     1      10.145 -32.476  13.627  1.00  0.00     0.000 C 
BRANCH   2   3
ATOM      3  C   UNL     1      11.682 -32.428  13.588  1.00  0.00     0.000 C 
BRANCH   3   4
ATOM      4  C   UNL     1      12.295 -31.400  14.562  1.00  0.00     0.000 C 
BRANCH   4   5
ATOM      5  C   UNL     1      13.532 -30.704  13.966  1.00  0.00     0.000 C 
BRANCH   5   6
ATOM      6  C   UNL     1      14.836 -31.077  14.697  1.00  0.00     0.006 C 
BRANCH   6   7
ATOM      7  C   UNL     1      16.047 -31.226  13.761  1.00  0.00     0.053 C 
BRANCH   7   8
ATOM      8  C   UNL     1      17.202 -31.911  14.424  1.00  0.00     0.041 C 
ATOM      9  O   UNL     1      17.031 -32.551  15.493  1.00  0.00    -0.550 OA
ATOM     10  O   UNL     1      18.470 -31.841  13.859  1.00  0.00    -0.550 OA
ENDBRANCH   7   8
ENDBRANCH   6   7
ENDBRANCH   5   6
ENDBRANCH   4   5
ENDBRANCH   3   4
ENDBRANCH   2   3
ENDBRANCH   1   2
BRANCH   1  11
ATOM     11  C   UNL     1       8.283 -34.243  13.636  1.00  0.00     0.000 C 
BRANCH  11  12
ATOM     12  C   UNL     1       8.210 -35.745  13.299  1.00  0.00     0.000 C 
BRANCH  12  13
ATOM     13  C   UNL     1       7.714 -36.602  14.475  1.00  0.00     0.000 C 
BRANCH  13  14
ATOM     14  C   UNL     1       6.310 -36.197  14.964  1.00  0.00     0.000 C 
BRANCH  14  15
ATOM     15  C   UNL     1       6.201 -35.884  16.468  1.00  0.00     0.000 C 
BRANCH  15  16
ATOM     16  C   UNL     1       7.533 -35.426  17.085  1.00  0.00     0.006 C 
BRANCH  16  17
ATOM     17  C   UNL     1       7.353 -34.228  18.028  1.00  0.00     0.053 C 
BRANCH  17  18
ATOM     18  C   UNL     1       7.749 -32.940  17.372  1.00  0.00     0.041 C 
ATOM     19  O   UNL     1       8.797 -32.342  17.728  1.00  0.00    -0.550 OA
ATOM     20  O   UNL     1       6.971 -32.415  16.347  1.00  0.00    -0.550 OA
ENDBRANCH  17  18
ENDBRANCH  16  17
ENDBRANCH  15  16
ENDBRANCH  14  15
ENDBRANCH  13  14
ENDBRANCH  12  13
ENDBRANCH  11  12
ENDBRANCH   1  11
TORSDOF 15
ENDMDL
MODEL 8
REMARK VINA RESULT:    -2.881     11.271     15.054
REMARK INTER + INTRA:          -5.932
REMARK INTER:                  -4.452
REMARK INTRA:                  -1.480
REMARK UNBOUND:                -0.525
REMARK SMILES O=C([O-])CCCCCCCCCCCCCCC(=O)[O-]
REMARK SMILES IDX 10 1 9 2 8 3 7 4 6 5 5 6 4 7 2 8 1 9 3 10 11 11 12 12 13 13
REMARK SMILES IDX 14 14 15 15 16 16 17 17 18 18 19 19 20 20
REMARK H PARENT
REMARK Flexibility Score: inf
ROOT
ATOM      1  C   UNL     1       6.910 -35.336  16.933  1.00  0.00     0.000 C 
ENDROOT
BRANCH   1   2
ATOM      2  C   UNL     1       6.111 -34.301  16.123  1.00  0.00     0.000 C 
BRANCH   2   3
ATOM      3  C   UNL     1       6.813 -32.934  16.048  1.00  0.00     0.000 C 
BRANCH   3   4
ATOM      4  C   UNL     1       6.607 -32.062  17.304  1.00  0.00     0.000 C 
BRANCH   4   5
ATOM      5  C   UNL     1       7.178 -32.728  18.570  1.00  0.00     0.000 C 
BRANCH   5   6
ATOM      6  C   UNL     1       8.718 -32.700  18.615  1.00  0.00     0.006 C 
BRANCH   6   7
ATOM      7  C   UNL     1       9.309 -31.281  18.635  1.00  0.00     0.053 C 
BRANCH   7   8
ATOM      8  C   UNL     1      10.073 -30.961  17.388  1.00  0.00     0.041 C 
ATOM      9  O   UNL     1      10.043 -31.747  16.405  1.00  0.00    -0.550 OA
ATOM     10  O   UNL     1      10.822 -29.793  17.310  1.00  0.00    -0.550 OA
ENDBRANCH   7   8
ENDBRANCH   6   7
ENDBRANCH   5   6
ENDBRANCH   4   5
ENDBRANCH   3   4
ENDBRANCH   2   3
ENDBRANCH   1   2
BRANCH   1  11
ATOM     11  C   UNL     1       6.593 -36.789  16.533  1.00  0.00     0.000 C 
BRANCH  11  12
ATOM     12  C   UNL     1       5.923 -36.969  15.158  1.00  0.00     0.000 C 
BRANCH  12  13
ATOM     13  C   UNL     1       6.576 -38.071  14.309  1.00  0.00     0.000 C 
BRANCH  13  14
ATOM     14  C   UNL     1       7.300 -37.523  13.064  1.00  0.00     0.000 C 
BRANCH  14  15
ATOM     15  C   UNL     1       8.629 -36.798  13.340  1.00  0.00     0.000 C 
BRANCH  15  16
ATOM     16  C   UNL     1       8.508 -35.267  13.252  1.00  0.00     0.006 C 
BRANCH  16  17
ATOM     17  C   UNL     1       9.499 -34.553  14.181  1.00  0.00     0.053 C 
BRANCH  17  18
ATOM     18  C   UNL     1      10.652 -33.970  13.422  1.00  0.00     0.041 C 
ATOM     19  O   UNL     1      10.754 -32.724  13.279  1.00  0.00    -0.550 OA
ATOM     20  O   UNL     1      11.629 -34.805  12.894  1.00  0.00    -0.550 OA
ENDBRANCH  17  18
ENDBRANCH  16  17
ENDBRANCH  15  16
ENDBRANCH  14  15
ENDBRANCH  13  14
ENDBRANCH  12  13
ENDBRANCH  11  12
ENDBRANCH   1  11
TORSDOF 15
ENDMDL
