MODEL 1
REMARK VINA RESULT:    -6.688      0.000      0.000
REMARK INTER + INTRA:          -7.344
REMARK INTER:                  -7.079
REMARK INTRA:                  -0.265
REMARK UNBOUND:                -0.265
REMARK SMILES O=c1cc(-c2ccccc2)oc2ccccc12
REMARK SMILES IDX 4 1 3 2 2 3 1 4 17 5 16 6 15 7 14 8 13 9 12 10 11 11 5 12
REMARK SMILES IDX 8 13 7 14 9 15 6 16 10 17
REMARK H PARENT
REMARK Flexibility Score: inf
ROOT
ATOM      1  C   UNL     1      19.843  -0.891 -19.250  1.00  0.00     0.138 A 
ATOM      2  C   UNL     1      19.495  -0.053 -18.170  1.00  0.00     0.100 A 
ATOM      3  C   UNL     1      18.839  -0.596 -17.063  1.00  0.00     0.193 A 
ATOM      4  O   UNL     1      18.527   0.154 -16.098  1.00  0.00    -0.289 OA
ATOM      5  C   UNL     1      18.537  -1.964 -17.041  1.00  0.00     0.065 A 
ATOM      6  C   UNL     1      17.877  -2.572 -15.957  1.00  0.00     0.016 A 
ATOM      7  C   UNL     1      17.600  -3.942 -15.987  1.00  0.00     0.001 A 
ATOM      8  C   UNL     1      17.976  -4.712 -17.091  1.00  0.00     0.004 A 
ATOM      9  C   UNL     1      18.631  -4.116 -18.172  1.00  0.00     0.048 A 
ATOM     10  C   UNL     1      18.913  -2.745 -18.154  1.00  0.00     0.138 A 
ATOM     11  O   UNL     1      19.536  -2.188 -19.186  1.00  0.00    -0.456 OA
ENDROOT
BRANCH   1  12
ATOM     12  C   UNL     1      20.547  -0.393 -20.473  1.00  0.00     0.017 A 
ATOM     13  C   UNL     1      21.887   0.634 -22.735  1.00  0.00     0.000 A 
ATOM     14  C   UNL     1      21.419  -0.680 -22.737  1.00  0.00     0.001 A 
ATOM     15  C   UNL     1      21.692   1.439 -21.614  1.00  0.00     0.001 A 
ATOM     16  C   UNL     1      20.755  -1.194 -21.619  1.00  0.00     0.012 A 
ATOM     17  C   UNL     1      21.029   0.934 -20.492  1.00  0.00     0.012 A 
ENDBRANCH   1  12
TORSDOF 1
ENDMDL
MODEL 2
REMARK VINA RESULT:    -6.578      1.261      2.710
REMARK INTER + INTRA:          -7.228
REMARK INTER:                  -6.962
REMARK INTRA:                  -0.266
REMARK UNBOUND:                -0.265
REMARK SMILES O=c1cc(-c2ccccc2)oc2ccccc12
REMARK SMILES IDX 4 1 3 2 2 3 1 4 17 5 16 6 15 7 14 8 13 9 12 10 11 11 5 12
REMARK SMILES IDX 8 13 7 14 9 15 6 16 10 17
REMARK H PARENT
REMARK Flexibility Score: inf
ROOT
ATOM      1  C   UNL     1      20.069  -0.822 -19.742  1.00  0.00     0.138 A 
ATOM      2  C   UNL     1      19.741  -2.194 -19.748  1.00  0.00     0.100 A 
ATOM      3  C   UNL     1      19.072  -2.746 -18.653  1.00  0.00     0.193 A 
ATOM      4  O   UNL     1      18.781  -3.973 -18.658  1.00  0.00    -0.289 OA
ATOM      5  C   UNL     1      18.736  -1.928 -17.565  1.00  0.00     0.065 A 
ATOM      6  C   UNL     1      18.064  -2.421 -16.432  1.00  0.00     0.016 A 
ATOM      7  C   UNL     1      17.752  -1.561 -15.374  1.00  0.00     0.001 A 
ATOM      8  C   UNL     1      18.107  -0.210 -15.438  1.00  0.00     0.004 A 
ATOM      9  C   UNL     1      18.776   0.287 -16.560  1.00  0.00     0.048 A 
ATOM     10  C   UNL     1      19.093  -0.564 -17.624  1.00  0.00     0.138 A 
ATOM     11  O   UNL     1      19.729  -0.081 -18.686  1.00  0.00    -0.456 OA
ENDROOT
BRANCH   1  12
ATOM     12  C   UNL     1      20.783  -0.151 -20.873  1.00  0.00     0.017 A 
ATOM     13  C   UNL     1      22.128   1.029 -23.056  1.00  0.00     0.000 A 
ATOM     14  C   UNL     1      21.836   1.787 -21.923  1.00  0.00     0.001 A 
ATOM     15  C   UNL     1      21.755  -0.313 -23.109  1.00  0.00     0.001 A 
ATOM     16  C   UNL     1      21.170   1.208 -20.838  1.00  0.00     0.012 A 
ATOM     17  C   UNL     1      21.088  -0.901 -22.030  1.00  0.00     0.012 A 
ENDBRANCH   1  12
TORSDOF 1
ENDMDL
MODEL 3
REMARK VINA RESULT:    -6.108      1.298      2.462
REMARK INTER + INTRA:          -6.731
REMARK INTER:                  -6.468
REMARK INTRA:                  -0.263
REMARK UNBOUND:                -0.265
REMARK SMILES O=c1cc(-c2ccccc2)oc2ccccc12
REMARK SMILES IDX 4 1 3 2 2 3 1 4 17 5 16 6 15 7 14 8 13 9 12 10 11 11 5 12
REMARK SMILES IDX 8 13 7 14 9 15 6 16 10 17
REMARK H PARENT
REMARK Flexibility Score: inf
ROOT
ATOM      1  C   UNL     1      19.573  -1.313 -18.879  1.00  0.00     0.138 A 
ATOM      2  C   UNL     1      19.281  -2.693 -18.849  1.00  0.00     0.100 A 
ATOM      3  C   UNL     1      18.586  -3.225 -17.759  1.00  0.00     0.193 A 
ATOM      4  O   UNL     1      18.326  -4.459 -17.732  1.00  0.00    -0.289 OA
ATOM      5  C   UNL     1      18.190  -2.380 -16.714  1.00  0.00     0.065 A 
ATOM      6  C   UNL     1      17.489  -2.852 -15.589  1.00  0.00     0.016 A 
ATOM      7  C   UNL     1      17.117  -1.966 -14.573  1.00  0.00     0.001 A 
ATOM      8  C   UNL     1      17.440  -0.609 -14.671  1.00  0.00     0.004 A 
ATOM      9  C   UNL     1      18.137  -0.132 -15.785  1.00  0.00     0.048 A 
ATOM     10  C   UNL     1      18.514  -1.010 -16.807  1.00  0.00     0.138 A 
ATOM     11  O   UNL     1      19.176  -0.547 -17.862  1.00  0.00    -0.456 OA
ENDROOT
BRANCH   1  12
ATOM     12  C   UNL     1      20.311  -0.663 -20.006  1.00  0.00     0.017 A 
ATOM     13  C   UNL     1      21.720   0.643 -22.074  1.00  0.00     0.000 A 
ATOM     14  C   UNL     1      21.192  -0.631 -22.284  1.00  0.00     0.001 A 
ATOM     15  C   UNL     1      21.551   1.270 -20.841  1.00  0.00     0.001 A 
ATOM     16  C   UNL     1      20.493  -1.283 -21.263  1.00  0.00     0.012 A 
ATOM     17  C   UNL     1      20.854   0.626 -19.814  1.00  0.00     0.012 A 
ENDBRANCH   1  12
TORSDOF 1
ENDMDL
MODEL 4
REMARK VINA RESULT:    -6.022      1.601      2.615
REMARK INTER + INTRA:          -6.639
REMARK INTER:                  -6.412
REMARK INTRA:                  -0.228
REMARK UNBOUND:                -0.265
REMARK SMILES O=c1cc(-c2ccccc2)oc2ccccc12
REMARK SMILES IDX 4 1 3 2 2 3 1 4 17 5 16 6 15 7 14 8 13 9 12 10 11 11 5 12
REMARK SMILES IDX 8 13 7 14 9 15 6 16 10 17
REMARK H PARENT
REMARK Flexibility Score: inf
ROOT
ATOM      1  C   UNL     1      18.651  -1.304 -17.208  1.00  0.00     0.138 A 
ATOM      2  C   UNL     1      18.026  -0.503 -16.229  1.00  0.00     0.100 A 
ATOM      3  C   UNL     1      17.300  -1.112 -15.202  1.00  0.00     0.193 A 
ATOM      4  O   UNL     1      16.742  -0.395 -14.328  1.00  0.00    -0.289 OA
ATOM      5  C   UNL     1      17.203  -2.509 -15.160  1.00  0.00     0.065 A 
ATOM      6  C   UNL     1      16.487  -3.184 -14.155  1.00  0.00     0.016 A 
ATOM      7  C   UNL     1      16.422  -4.581 -14.159  1.00  0.00     0.001 A 
ATOM      8  C   UNL     1      17.067  -5.311 -15.162  1.00  0.00     0.004 A 
ATOM      9  C   UNL     1      17.780  -4.648 -16.165  1.00  0.00     0.048 A 
ATOM     10  C   UNL     1      17.851  -3.251 -16.170  1.00  0.00     0.138 A 
ATOM     11  O   UNL     1      18.532  -2.631 -17.128  1.00  0.00    -0.456 OA
ENDROOT
BRANCH   1  12
ATOM     12  C   UNL     1      19.446  -0.735 -18.339  1.00  0.00     0.017 A 
ATOM     13  C   UNL     1      20.877   0.311 -20.536  1.00  0.00     0.000 A 
ATOM     14  C   UNL     1      21.398   0.420 -19.247  1.00  0.00     0.001 A 
ATOM     15  C   UNL     1      19.648  -0.314 -20.738  1.00  0.00     0.001 A 
ATOM     16  C   UNL     1      20.694  -0.096 -18.155  1.00  0.00     0.012 A 
ATOM     17  C   UNL     1      18.937  -0.834 -19.652  1.00  0.00     0.012 A 
ENDBRANCH   1  12
TORSDOF 1
ENDMDL
MODEL 5
REMARK VINA RESULT:    -5.934     18.058     19.915
REMARK INTER + INTRA:          -6.547
REMARK INTER:                  -6.324
REMARK INTRA:                  -0.223
REMARK UNBOUND:                -0.265
REMARK SMILES O=c1cc(-c2ccccc2)oc2ccccc12
REMARK SMILES IDX 4 1 3 2 2 3 1 4 17 5 16 6 15 7 14 8 13 9 12 10 11 11 5 12
REMARK SMILES IDX 8 13 7 14 9 15 6 16 10 17
REMARK H PARENT
REMARK Flexibility Score: inf
ROOT
ATOM      1  C   UNL     1       4.961   6.337  -9.846  1.00  0.00     0.138 A 
ATOM      2  C   UNL     1       4.580   6.113 -11.186  1.00  0.00     0.100 A 
ATOM      3  C   UNL     1       4.492   7.194 -12.065  1.00  0.00     0.193 A 
ATOM      4  O   UNL     1       4.150   6.993 -13.262  1.00  0.00    -0.289 OA
ATOM      5  C   UNL     1       4.783   8.485 -11.604  1.00  0.00     0.065 A 
ATOM      6  C   UNL     1       4.712   9.616 -12.438  1.00  0.00     0.016 A 
ATOM      7  C   UNL     1       5.013  10.882 -11.926  1.00  0.00     0.001 A 
ATOM      8  C   UNL     1       5.385  11.029 -10.587  1.00  0.00     0.004 A 
ATOM      9  C   UNL     1       5.457   9.911  -9.752  1.00  0.00     0.048 A 
ATOM     10  C   UNL     1       5.158   8.639 -10.253  1.00  0.00     0.138 A 
ATOM     11  O   UNL     1       5.230   7.583  -9.451  1.00  0.00    -0.456 OA
ENDROOT
BRANCH   1  12
ATOM     12  C   UNL     1       5.081   5.237  -8.839  1.00  0.00     0.017 A 
ATOM     13  C   UNL     1       5.394   3.135  -6.981  1.00  0.00     0.000 A 
ATOM     14  C   UNL     1       4.275   3.965  -6.915  1.00  0.00     0.001 A 
ATOM     15  C   UNL     1       6.357   3.345  -7.966  1.00  0.00     0.001 A 
ATOM     16  C   UNL     1       4.115   5.009  -7.833  1.00  0.00     0.012 A 
ATOM     17  C   UNL     1       6.206   4.385  -8.888  1.00  0.00     0.012 A 
ENDBRANCH   1  12
TORSDOF 1
ENDMDL
MODEL 6
REMARK VINA RESULT:    -5.800     17.751     19.544
REMARK INTER + INTRA:          -6.404
REMARK INTER:                  -6.171
REMARK INTRA:                  -0.233
REMARK UNBOUND:                -0.265
REMARK SMILES O=c1cc(-c2ccccc2)oc2ccccc12
REMARK SMILES IDX 4 1 3 2 2 3 1 4 17 5 16 6 15 7 14 8 13 9 12 10 11 11 5 12
REMARK SMILES IDX 8 13 7 14 9 15 6 16 10 17
REMARK H PARENT
REMARK Flexibility Score: inf
ROOT
ATOM      1  C   UNL     1       4.949   6.543  -9.926  1.00  0.00     0.138 A 
ATOM      2  C   UNL     1       4.974   7.913  -9.592  1.00  0.00     0.100 A 
ATOM      3  C   UNL     1       4.973   8.869 -10.610  1.00  0.00     0.193 A 
ATOM      4  O   UNL     1       4.997  10.094 -10.311  1.00  0.00    -0.289 OA
ATOM      5  C   UNL     1       4.945   8.453 -11.948  1.00  0.00     0.065 A 
ATOM      6  C   UNL     1       4.943   9.364 -13.020  1.00  0.00     0.016 A 
ATOM      7  C   UNL     1       4.915   8.895 -14.337  1.00  0.00     0.001 A 
ATOM      8  C   UNL     1       4.890   7.521 -14.594  1.00  0.00     0.004 A 
ATOM      9  C   UNL     1       4.892   6.609 -13.534  1.00  0.00     0.048 A 
ATOM     10  C   UNL     1       4.921   7.068 -12.213  1.00  0.00     0.138 A 
ATOM     11  O   UNL     1       4.923   6.192 -11.213  1.00  0.00    -0.456 OA
ENDROOT
BRANCH   1  12
ATOM     12  C   UNL     1       4.948   5.455  -8.899  1.00  0.00     0.017 A 
ATOM     13  C   UNL     1       5.032   3.370  -6.998  1.00  0.00     0.000 A 
ATOM     14  C   UNL     1       3.968   4.271  -7.000  1.00  0.00     0.001 A 
ATOM     15  C   UNL     1       6.055   3.501  -7.936  1.00  0.00     0.001 A 
ATOM     16  C   UNL     1       3.920   5.307  -7.939  1.00  0.00     0.012 A 
ATOM     17  C   UNL     1       6.016   4.532  -8.879  1.00  0.00     0.012 A 
ENDBRANCH   1  12
TORSDOF 1
ENDMDL
MODEL 7
REMARK VINA RESULT:    -5.734     10.587     13.758
REMARK INTER + INTRA:          -6.335
REMARK INTER:                  -6.114
REMARK INTRA:                  -0.221
REMARK UNBOUND:                -0.265
REMARK SMILES O=c1cc(-c2ccccc2)oc2ccccc12
REMARK SMILES IDX 4 1 3 2 2 3 1 4 17 5 16 6 15 7 14 8 13 9 12 10 11 11 5 12
REMARK SMILES IDX 8 13 7 14 9 15 6 16 10 17
REMARK H PARENT
REMARK Flexibility Score: inf
ROOT
ATOM      1  C   UNL     1      10.934  -5.838 -10.437  1.00  0.00     0.138 A 
ATOM      2  C   UNL     1       9.823  -5.284 -11.107  1.00  0.00     0.100 A 
ATOM      3  C   UNL     1       8.625  -5.097 -10.414  1.00  0.00     0.193 A 
ATOM      4  O   UNL     1       7.632  -4.603 -11.014  1.00  0.00    -0.289 OA
ATOM      5  C   UNL     1       8.544  -5.461  -9.063  1.00  0.00     0.065 A 
ATOM      6  C   UNL     1       7.368  -5.300  -8.308  1.00  0.00     0.016 A 
ATOM      7  C   UNL     1       7.342  -5.680  -6.963  1.00  0.00     0.001 A 
ATOM      8  C   UNL     1       8.483  -6.221  -6.363  1.00  0.00     0.004 A 
ATOM      9  C   UNL     1       9.655  -6.386  -7.106  1.00  0.00     0.048 A 
ATOM     10  C   UNL     1       9.692  -6.009  -8.453  1.00  0.00     0.138 A 
ATOM     11  O   UNL     1      10.812  -6.170  -9.150  1.00  0.00    -0.456 OA
ENDROOT
BRANCH   1  12
ATOM     12  C   UNL     1      12.253  -6.071 -11.103  1.00  0.00     0.017 A 
ATOM     13  C   UNL     1      14.766  -6.418 -12.341  1.00  0.00     0.000 A 
ATOM     14  C   UNL     1      13.871  -7.485 -12.266  1.00  0.00     0.001 A 
ATOM     15  C   UNL     1      14.418  -5.180 -11.803  1.00  0.00     0.001 A 
ATOM     16  C   UNL     1      12.624  -7.319 -11.653  1.00  0.00     0.012 A 
ATOM     17  C   UNL     1      13.174  -5.005 -11.189  1.00  0.00     0.012 A 
ENDBRANCH   1  12
TORSDOF 1
ENDMDL
MODEL 8
REMARK VINA RESULT:    -5.699     10.663     12.240
REMARK INTER + INTRA:          -6.298
REMARK INTER:                  -6.077
REMARK INTRA:                  -0.221
REMARK UNBOUND:                -0.265
REMARK SMILES O=c1cc(-c2ccccc2)oc2ccccc12
REMARK SMILES IDX 4 1 3 2 2 3 1 4 17 5 16 6 15 7 14 8 13 9 12 10 11 11 5 12
REMARK SMILES IDX 8 13 7 14 9 15 6 16 10 17
REMARK H PARENT
REMARK Flexibility Score: inf
ROOT
ATOM      1  C   UNL     1      20.762  -2.067  -7.240  1.00  0.00     0.138 A 
ATOM      2  C   UNL     1      20.710  -0.681  -6.984  1.00  0.00     0.100 A 
ATOM      3  C   UNL     1      19.597   0.054  -7.400  1.00  0.00     0.193 A 
ATOM      4  O   UNL     1      19.552   1.294  -7.171  1.00  0.00    -0.289 OA
ATOM      5  C   UNL     1      18.549  -0.596  -8.065  1.00  0.00     0.065 A 
ATOM      6  C   UNL     1      17.402   0.085  -8.511  1.00  0.00     0.016 A 
ATOM      7  C   UNL     1      16.385  -0.613  -9.170  1.00  0.00     0.001 A 
ATOM      8  C   UNL     1      16.505  -1.988  -9.389  1.00  0.00     0.004 A 
ATOM      9  C   UNL     1      17.641  -2.673  -8.950  1.00  0.00     0.048 A 
ATOM     10  C   UNL     1      18.665  -1.984  -8.290  1.00  0.00     0.138 A 
ATOM     11  O   UNL     1      19.741  -2.645  -7.877  1.00  0.00    -0.456 OA
ENDROOT
BRANCH   1  12
ATOM     12  C   UNL     1      21.915  -2.928  -6.829  1.00  0.00     0.017 A 
ATOM     13  C   UNL     1      24.125  -4.544  -6.145  1.00  0.00     0.000 A 
ATOM     14  C   UNL     1      23.154  -4.247  -5.189  1.00  0.00     0.001 A 
ATOM     15  C   UNL     1      24.002  -4.041  -7.439  1.00  0.00     0.001 A 
ATOM     16  C   UNL     1      22.056  -3.447  -5.522  1.00  0.00     0.012 A 
ATOM     17  C   UNL     1      22.909  -3.240  -7.781  1.00  0.00     0.012 A 
ENDBRANCH   1  12
TORSDOF 1
ENDMDL
MODEL 9
REMARK VINA RESULT:    -5.698     11.819     12.787
REMARK INTER + INTRA:          -6.297
REMARK INTER:                  -6.067
REMARK INTRA:                  -0.229
REMARK UNBOUND:                -0.265
REMARK SMILES O=c1cc(-c2ccccc2)oc2ccccc12
REMARK SMILES IDX 4 1 3 2 2 3 1 4 17 5 16 6 15 7 14 8 13 9 12 10 11 11 5 12
REMARK SMILES IDX 8 13 7 14 9 15 6 16 10 17
REMARK H PARENT
REMARK Flexibility Score: inf
ROOT
ATOM      1  C   UNL     1       8.346   3.324 -18.113  1.00  0.00     0.138 A 
ATOM      2  C   UNL     1       8.257   2.869 -16.780  1.00  0.00     0.100 A 
ATOM      3  C   UNL     1       7.229   1.995 -16.419  1.00  0.00     0.193 A 
ATOM      4  O   UNL     1       7.150   1.590 -15.227  1.00  0.00    -0.289 OA
ATOM      5  C   UNL     1       6.302   1.582 -17.385  1.00  0.00     0.065 A 
ATOM      6  C   UNL     1       5.243   0.705 -17.087  1.00  0.00     0.016 A 
ATOM      7  C   UNL     1       4.346   0.324 -18.089  1.00  0.00     0.001 A 
ATOM      8  C   UNL     1       4.496   0.814 -19.390  1.00  0.00     0.004 A 
ATOM      9  C   UNL     1       5.544   1.687 -19.695  1.00  0.00     0.048 A 
ATOM     10  C   UNL     1       6.448   2.074 -18.699  1.00  0.00     0.138 A 
ATOM     11  O   UNL     1       7.441   2.904 -19.000  1.00  0.00    -0.456 OA
ENDROOT
BRANCH   1  12
ATOM     12  C   UNL     1       9.414   4.259 -18.584  1.00  0.00     0.017 A 
ATOM     13  C   UNL     1      11.465   5.952 -19.530  1.00  0.00     0.000 A 
ATOM     14  C   UNL     1      10.530   6.432 -18.614  1.00  0.00     0.001 A 
ATOM     15  C   UNL     1      11.385   4.635 -19.979  1.00  0.00     0.001 A 
ATOM     16  C   UNL     1       9.511   5.598 -18.141  1.00  0.00     0.012 A 
ATOM     17  C   UNL     1      10.370   3.794 -19.512  1.00  0.00     0.012 A 
ENDBRANCH   1  12
TORSDOF 1
ENDMDL
