MODEL 1
REMARK VINA RESULT:    -4.902      0.000      0.000
REMARK INTER + INTRA:          -9.803
REMARK INTER:                  -8.627
REMARK INTRA:                  -1.176
REMARK UNBOUND:                -1.176
REMARK SMILES CCCCCCCCCCCCCCC(=O)[O-]
REMARK SMILES IDX 9 1 10 2 11 3 12 4 13 5 14 6 15 7 16 8 17 9 8 10 7 11 6 12
REMARK SMILES IDX 5 13 4 14 3 15 2 16 1 17
REMARK H PARENT
REMARK Flexibility Score: inf
ROOT
ATOM      1  C   UNL     1       3.757  51.966   1.245  1.00  0.00     0.000 C 
ENDROOT
BRANCH   1   2
ATOM      2  C   UNL     1       3.076  50.606   1.462  1.00  0.00     0.000 C 
BRANCH   2   3
ATOM      3  C   UNL     1       2.072  50.259   0.348  1.00  0.00     0.000 C 
BRANCH   3   4
ATOM      4  C   UNL     1       2.107  51.261  -0.820  1.00  0.00     0.000 C 
BRANCH   4   5
ATOM      5  C   UNL     1       2.430  50.645  -2.196  1.00  0.00     0.006 C 
BRANCH   5   6
ATOM      6  C   UNL     1       2.040  51.523  -3.396  1.00  0.00     0.053 C 
BRANCH   6   7
ATOM      7  C   UNL     1       3.221  51.855  -4.255  1.00  0.00     0.041 C 
ATOM      8  O   UNL     1       4.217  51.086  -4.286  1.00  0.00    -0.550 OA
ATOM      9  O   UNL     1       3.236  53.030  -4.995  1.00  0.00    -0.550 OA
ENDBRANCH   6   7
ENDBRANCH   5   6
ENDBRANCH   4   5
ENDBRANCH   3   4
ENDBRANCH   2   3
ENDBRANCH   1   2
BRANCH   1  10
ATOM     10  C   UNL     1       5.289  51.881   1.355  1.00  0.00     0.000 C 
BRANCH  10  11
ATOM     11  C   UNL     1       6.016  52.653   0.238  1.00  0.00    -0.000 C 
BRANCH  11  12
ATOM     12  C   UNL     1       5.623  52.263  -1.198  1.00  0.00    -0.000 C 
BRANCH  12  13
ATOM     13  C   UNL     1       6.839  52.000  -2.104  1.00  0.00    -0.000 C 
BRANCH  13  14
ATOM     14  C   UNL     1       8.143  52.604  -1.550  1.00  0.00    -0.000 C 
BRANCH  14  15
ATOM     15  C   UNL     1       9.296  51.604  -1.348  1.00  0.00    -0.000 C 
BRANCH  15  16
ATOM     16  C   UNL     1      10.681  52.247  -1.502  1.00  0.00    -0.003 C 
ATOM     17  C   UNL     1      11.463  52.192  -0.192  1.00  0.00     0.004 C 
ENDBRANCH  15  16
ENDBRANCH  14  15
ENDBRANCH  13  14
ENDBRANCH  12  13
ENDBRANCH  11  12
ENDBRANCH  10  11
ENDBRANCH   1  10
TORSDOF 13
ENDMDL
MODEL 2
REMARK VINA RESULT:    -4.688      2.650      4.145
REMARK INTER + INTRA:          -9.427
REMARK INTER:                  -7.974
REMARK INTRA:                  -1.453
REMARK UNBOUND:                -1.176
REMARK SMILES CCCCCCCCCCCCCCC(=O)[O-]
REMARK SMILES IDX 9 1 10 2 11 3 12 4 13 5 14 6 15 7 16 8 17 9 8 10 7 11 6 12
REMARK SMILES IDX 5 13 4 14 3 15 2 16 1 17
REMARK H PARENT
REMARK Flexibility Score: inf
ROOT
ATOM      1  C   UNL     1       2.274  51.138  -1.731  1.00  0.00     0.000 C 
ENDROOT
BRANCH   1   2
ATOM      2  C   UNL     1       1.875  51.450  -0.280  1.00  0.00     0.000 C 
BRANCH   2   3
ATOM      3  C   UNL     1       2.255  50.322   0.697  1.00  0.00     0.000 C 
BRANCH   3   4
ATOM      4  C   UNL     1       3.354  50.738   1.690  1.00  0.00     0.000 C 
BRANCH   4   5
ATOM      5  C   UNL     1       4.039  52.084   1.378  1.00  0.00     0.006 C 
BRANCH   5   6
ATOM      6  C   UNL     1       5.572  52.017   1.291  1.00  0.00     0.053 C 
BRANCH   6   7
ATOM      7  C   UNL     1       6.210  53.331   1.619  1.00  0.00     0.041 C 
ATOM      8  O   UNL     1       5.619  54.408   1.345  1.00  0.00    -0.550 OA
ATOM      9  O   UNL     1       7.472  53.367   2.198  1.00  0.00    -0.550 OA
ENDBRANCH   6   7
ENDBRANCH   5   6
ENDBRANCH   4   5
ENDBRANCH   3   4
ENDBRANCH   2   3
ENDBRANCH   1   2
BRANCH   1  10
ATOM     10  C   UNL     1       3.401  52.052  -2.240  1.00  0.00     0.000 C 
BRANCH  10  11
ATOM     11  C   UNL     1       4.043  51.546  -3.545  1.00  0.00    -0.000 C 
BRANCH  11  12
ATOM     12  C   UNL     1       5.521  51.927  -3.747  1.00  0.00    -0.000 C 
BRANCH  12  13
ATOM     13  C   UNL     1       6.327  51.928  -2.436  1.00  0.00    -0.000 C 
BRANCH  13  14
ATOM     14  C   UNL     1       6.997  53.284  -2.144  1.00  0.00    -0.000 C 
BRANCH  14  15
ATOM     15  C   UNL     1       8.366  53.202  -1.443  1.00  0.00    -0.000 C 
BRANCH  15  16
ATOM     16  C   UNL     1       8.887  51.764  -1.311  1.00  0.00    -0.003 C 
ATOM     17  C   UNL     1       9.914  51.653  -0.187  1.00  0.00     0.004 C 
ENDBRANCH  15  16
ENDBRANCH  14  15
ENDBRANCH  13  14
ENDBRANCH  12  13
ENDBRANCH  11  12
ENDBRANCH  10  11
ENDBRANCH   1  10
TORSDOF 13
ENDMDL
MODEL 3
REMARK VINA RESULT:    -4.658      2.535      3.820
REMARK INTER + INTRA:          -9.374
REMARK INTER:                  -7.595
REMARK INTRA:                  -1.778
REMARK UNBOUND:                -1.176
REMARK SMILES CCCCCCCCCCCCCCC(=O)[O-]
REMARK SMILES IDX 9 1 10 2 11 3 12 4 13 5 14 6 15 7 16 8 17 9 8 10 7 11 6 12
REMARK SMILES IDX 5 13 4 14 3 15 2 16 1 17
REMARK H PARENT
REMARK Flexibility Score: inf
ROOT
ATOM      1  C   UNL     1       2.131  52.540  -0.868  1.00  0.00     0.000 C 
ENDROOT
BRANCH   1   2
ATOM      2  C   UNL     1       2.748  51.266  -0.271  1.00  0.00     0.000 C 
BRANCH   2   3
ATOM      3  C   UNL     1       3.247  51.467   1.171  1.00  0.00     0.000 C 
BRANCH   3   4
ATOM      4  C   UNL     1       4.780  51.559   1.265  1.00  0.00     0.000 C 
BRANCH   4   5
ATOM      5  C   UNL     1       5.335  52.984   1.468  1.00  0.00     0.006 C 
BRANCH   5   6
ATOM      6  C   UNL     1       4.261  54.067   1.657  1.00  0.00     0.053 C 
BRANCH   6   7
ATOM      7  C   UNL     1       4.472  55.231   0.740  1.00  0.00     0.041 C 
ATOM      8  O   UNL     1       3.497  55.951   0.397  1.00  0.00    -0.550 OA
ATOM      9  O   UNL     1       5.738  55.503   0.237  1.00  0.00    -0.550 OA
ENDBRANCH   6   7
ENDBRANCH   5   6
ENDBRANCH   4   5
ENDBRANCH   3   4
ENDBRANCH   2   3
ENDBRANCH   1   2
BRANCH   1  10
ATOM     10  C   UNL     1       2.997  53.145  -1.987  1.00  0.00     0.000 C 
BRANCH  10  11
ATOM     11  C   UNL     1       4.207  52.265  -2.353  1.00  0.00    -0.000 C 
BRANCH  11  12
ATOM     12  C   UNL     1       5.577  52.963  -2.287  1.00  0.00    -0.000 C 
BRANCH  12  13
ATOM     13  C   UNL     1       6.753  51.975  -2.206  1.00  0.00    -0.000 C 
BRANCH  13  14
ATOM     14  C   UNL     1       7.768  52.337  -1.106  1.00  0.00    -0.000 C 
BRANCH  14  15
ATOM     15  C   UNL     1       9.225  51.935  -1.398  1.00  0.00    -0.000 C 
BRANCH  15  16
ATOM     16  C   UNL     1      10.192  53.127  -1.377  1.00  0.00    -0.003 C 
ATOM     17  C   UNL     1      11.621  52.682  -1.682  1.00  0.00     0.004 C 
ENDBRANCH  15  16
ENDBRANCH  14  15
ENDBRANCH  13  14
ENDBRANCH  12  13
ENDBRANCH  11  12
ENDBRANCH  10  11
ENDBRANCH   1  10
TORSDOF 13
ENDMDL
MODEL 4
REMARK VINA RESULT:    -4.655      2.915      4.756
REMARK INTER + INTRA:          -9.368
REMARK INTER:                  -7.287
REMARK INTRA:                  -2.082
REMARK UNBOUND:                -1.176
REMARK SMILES CCCCCCCCCCCCCCC(=O)[O-]
REMARK SMILES IDX 9 1 10 2 11 3 12 4 13 5 14 6 15 7 16 8 17 9 8 10 7 11 6 12
REMARK SMILES IDX 5 13 4 14 3 15 2 16 1 17
REMARK H PARENT
REMARK Flexibility Score: inf
ROOT
ATOM      1  C   UNL     1       2.976  50.695   1.001  1.00  0.00     0.000 C 
ENDROOT
BRANCH   1   2
ATOM      2  C   UNL     1       3.755  51.900   1.550  1.00  0.00     0.000 C 
BRANCH   2   3
ATOM      3  C   UNL     1       5.248  51.863   1.178  1.00  0.00     0.000 C 
BRANCH   3   4
ATOM      4  C   UNL     1       5.938  53.229   1.339  1.00  0.00     0.000 C 
BRANCH   4   5
ATOM      5  C   UNL     1       4.983  54.439   1.384  1.00  0.00     0.006 C 
BRANCH   5   6
ATOM      6  C   UNL     1       5.280  55.527   0.341  1.00  0.00     0.053 C 
BRANCH   6   7
ATOM      7  C   UNL     1       4.208  56.571   0.298  1.00  0.00     0.041 C 
ATOM      8  O   UNL     1       2.996  56.232   0.256  1.00  0.00    -0.550 OA
ATOM      9  O   UNL     1       4.546  57.918   0.272  1.00  0.00    -0.550 OA
ENDBRANCH   6   7
ENDBRANCH   5   6
ENDBRANCH   4   5
ENDBRANCH   3   4
ENDBRANCH   2   3
ENDBRANCH   1   2
BRANCH   1  10
ATOM     10  C   UNL     1       2.097  51.063  -0.207  1.00  0.00     0.000 C 
BRANCH  10  11
ATOM     11  C   UNL     1       1.913  52.582  -0.375  1.00  0.00    -0.000 C 
BRANCH  11  12
ATOM     12  C   UNL     1       2.345  53.154  -1.738  1.00  0.00    -0.000 C 
BRANCH  12  13
ATOM     13  C   UNL     1       3.860  53.044  -1.983  1.00  0.00    -0.000 C 
BRANCH  13  14
ATOM     14  C   UNL     1       4.217  52.046  -3.101  1.00  0.00    -0.000 C 
BRANCH  14  15
ATOM     15  C   UNL     1       5.715  51.949  -3.442  1.00  0.00    -0.000 C 
BRANCH  15  16
ATOM     16  C   UNL     1       6.586  52.876  -2.582  1.00  0.00    -0.003 C 
ATOM     17  C   UNL     1       7.616  52.078  -1.784  1.00  0.00     0.004 C 
ENDBRANCH  15  16
ENDBRANCH  14  15
ENDBRANCH  13  14
ENDBRANCH  12  13
ENDBRANCH  11  12
ENDBRANCH  10  11
ENDBRANCH   1  10
TORSDOF 13
ENDMDL
MODEL 5
REMARK VINA RESULT:    -4.636      3.099      6.553
REMARK INTER + INTRA:          -9.336
REMARK INTER:                  -8.077
REMARK INTRA:                  -1.259
REMARK UNBOUND:                -1.176
REMARK SMILES CCCCCCCCCCCCCCC(=O)[O-]
REMARK SMILES IDX 9 1 10 2 11 3 12 4 13 5 14 6 15 7 16 8 17 9 8 10 7 11 6 12
REMARK SMILES IDX 5 13 4 14 3 15 2 16 1 17
REMARK H PARENT
REMARK Flexibility Score: inf
ROOT
ATOM      1  C   UNL     1       5.910  52.347   0.744  1.00  0.00     0.000 C 
ENDROOT
BRANCH   1   2
ATOM      2  C   UNL     1       6.096  53.042  -0.614  1.00  0.00     0.000 C 
BRANCH   2   3
ATOM      3  C   UNL     1       6.896  52.188  -1.615  1.00  0.00     0.000 C 
BRANCH   3   4
ATOM      4  C   UNL     1       8.393  52.542  -1.638  1.00  0.00     0.000 C 
BRANCH   4   5
ATOM      5  C   UNL     1       9.317  51.509  -0.962  1.00  0.00     0.006 C 
BRANCH   5   6
ATOM      6  C   UNL     1      10.441  52.118  -0.110  1.00  0.00     0.053 C 
BRANCH   6   7
ATOM      7  C   UNL     1      11.175  53.199  -0.840  1.00  0.00     0.041 C 
ATOM      8  O   UNL     1      11.074  54.397  -0.464  1.00  0.00    -0.550 OA
ATOM      9  O   UNL     1      11.943  52.891  -1.955  1.00  0.00    -0.550 OA
ENDBRANCH   6   7
ENDBRANCH   5   6
ENDBRANCH   4   5
ENDBRANCH   3   4
ENDBRANCH   2   3
ENDBRANCH   1   2
BRANCH   1  10
ATOM     10  C   UNL     1       4.470  52.463   1.271  1.00  0.00     0.000 C 
BRANCH  10  11
ATOM     11  C   UNL     1       3.794  51.096   1.480  1.00  0.00    -0.000 C 
BRANCH  11  12
ATOM     12  C   UNL     1       2.602  50.798   0.553  1.00  0.00    -0.000 C 
BRANCH  12  13
ATOM     13  C   UNL     1       1.959  52.070  -0.028  1.00  0.00    -0.000 C 
BRANCH  13  14
ATOM     14  C   UNL     1       1.875  52.052  -1.566  1.00  0.00    -0.000 C 
BRANCH  14  15
ATOM     15  C   UNL     1       2.924  51.172  -2.271  1.00  0.00    -0.000 C 
BRANCH  15  16
ATOM     16  C   UNL     1       2.952  51.376  -3.793  1.00  0.00    -0.003 C 
ATOM     17  C   UNL     1       4.386  51.425  -4.315  1.00  0.00     0.004 C 
ENDBRANCH  15  16
ENDBRANCH  14  15
ENDBRANCH  13  14
ENDBRANCH  12  13
ENDBRANCH  11  12
ENDBRANCH  10  11
ENDBRANCH   1  10
TORSDOF 13
ENDMDL
MODEL 6
REMARK VINA RESULT:    -4.631      2.993      6.068
REMARK INTER + INTRA:          -9.326
REMARK INTER:                  -7.750
REMARK INTRA:                  -1.576
REMARK UNBOUND:                -1.176
REMARK SMILES CCCCCCCCCCCCCCC(=O)[O-]
REMARK SMILES IDX 9 1 10 2 11 3 12 4 13 5 14 6 15 7 16 8 17 9 8 10 7 11 6 12
REMARK SMILES IDX 5 13 4 14 3 15 2 16 1 17
REMARK H PARENT
REMARK Flexibility Score: inf
ROOT
ATOM      1  C   UNL     1       4.768  51.803   0.758  1.00  0.00     0.000 C 
ENDROOT
BRANCH   1   2
ATOM      2  C   UNL     1       6.013  52.282   1.523  1.00  0.00     0.000 C 
BRANCH   2   3
ATOM      3  C   UNL     1       7.162  52.697   0.587  1.00  0.00     0.000 C 
BRANCH   3   4
ATOM      4  C   UNL     1       6.798  52.563  -0.902  1.00  0.00     0.000 C 
BRANCH   4   5
ATOM      5  C   UNL     1       7.973  52.188  -1.828  1.00  0.00     0.006 C 
BRANCH   5   6
ATOM      6  C   UNL     1       9.247  51.738  -1.094  1.00  0.00     0.053 C 
BRANCH   6   7
ATOM      7  C   UNL     1      10.367  52.716  -1.265  1.00  0.00     0.041 C 
ATOM      8  O   UNL     1      10.157  53.950  -1.127  1.00  0.00    -0.550 OA
ATOM      9  O   UNL     1      11.636  52.269  -1.609  1.00  0.00    -0.550 OA
ENDBRANCH   6   7
ENDBRANCH   5   6
ENDBRANCH   4   5
ENDBRANCH   3   4
ENDBRANCH   2   3
ENDBRANCH   1   2
BRANCH   1  10
ATOM     10  C   UNL     1       3.741  51.120   1.677  1.00  0.00     0.000 C 
BRANCH  10  11
ATOM     11  C   UNL     1       2.640  50.375   0.899  1.00  0.00    -0.000 C 
BRANCH  11  12
ATOM     12  C   UNL     1       1.888  51.214  -0.151  1.00  0.00    -0.000 C 
BRANCH  12  13
ATOM     13  C   UNL     1       2.284  50.864  -1.596  1.00  0.00    -0.000 C 
BRANCH  13  14
ATOM     14  C   UNL     1       2.769  52.086  -2.398  1.00  0.00    -0.000 C 
BRANCH  14  15
ATOM     15  C   UNL     1       2.338  53.454  -1.837  1.00  0.00    -0.000 C 
BRANCH  15  16
ATOM     16  C   UNL     1       3.527  54.356  -1.478  1.00  0.00    -0.003 C 
ATOM     17  C   UNL     1       3.327  55.010  -0.113  1.00  0.00     0.004 C 
ENDBRANCH  15  16
ENDBRANCH  14  15
ENDBRANCH  13  14
ENDBRANCH  12  13
ENDBRANCH  11  12
ENDBRANCH  10  11
ENDBRANCH   1  10
TORSDOF 13
ENDMDL
MODEL 7
REMARK VINA RESULT:    -4.620      2.447      4.540
REMARK INTER + INTRA:          -9.308
REMARK INTER:                  -7.260
REMARK INTRA:                  -2.048
REMARK UNBOUND:                -1.176
REMARK SMILES CCCCCCCCCCCCCCC(=O)[O-]
REMARK SMILES IDX 9 1 10 2 11 3 12 4 13 5 14 6 15 7 16 8 17 9 8 10 7 11 6 12
REMARK SMILES IDX 5 13 4 14 3 15 2 16 1 17
REMARK H PARENT
REMARK Flexibility Score: inf
ROOT
ATOM      1  C   UNL     1       2.020  50.355   0.371  1.00  0.00     0.000 C 
ENDROOT
BRANCH   1   2
ATOM      2  C   UNL     1       2.061  51.551  -0.593  1.00  0.00     0.000 C 
BRANCH   2   3
ATOM      3  C   UNL     1       2.037  51.125  -2.071  1.00  0.00     0.000 C 
BRANCH   3   4
ATOM      4  C   UNL     1       3.316  51.524  -2.828  1.00  0.00     0.000 C 
BRANCH   4   5
ATOM      5  C   UNL     1       4.266  52.459  -2.053  1.00  0.00     0.006 C 
BRANCH   5   6
ATOM      6  C   UNL     1       5.761  52.163  -2.258  1.00  0.00     0.053 C 
BRANCH   6   7
ATOM      7  C   UNL     1       6.487  53.331  -2.849  1.00  0.00     0.041 C 
ATOM      8  O   UNL     1       7.325  53.971  -2.160  1.00  0.00    -0.550 OA
ATOM      9  O   UNL     1       6.216  53.735  -4.150  1.00  0.00    -0.550 OA
ENDBRANCH   6   7
ENDBRANCH   5   6
ENDBRANCH   4   5
ENDBRANCH   3   4
ENDBRANCH   2   3
ENDBRANCH   1   2
BRANCH   1  10
ATOM     10  C   UNL     1       2.994  50.516   1.551  1.00  0.00     0.000 C 
BRANCH  10  11
ATOM     11  C   UNL     1       3.741  51.863   1.534  1.00  0.00    -0.000 C 
BRANCH  11  12
ATOM     12  C   UNL     1       5.275  51.767   1.463  1.00  0.00    -0.000 C 
BRANCH  12  13
ATOM     13  C   UNL     1       5.964  53.143   1.458  1.00  0.00    -0.000 C 
BRANCH  13  14
ATOM     14  C   UNL     1       4.971  54.313   1.584  1.00  0.00    -0.000 C 
BRANCH  14  15
ATOM     15  C   UNL     1       4.796  55.167   0.315  1.00  0.00    -0.000 C 
BRANCH  15  16
ATOM     16  C   UNL     1       3.493  55.979   0.314  1.00  0.00    -0.003 C 
ATOM     17  C   UNL     1       2.370  55.215  -0.384  1.00  0.00     0.004 C 
ENDBRANCH  15  16
ENDBRANCH  14  15
ENDBRANCH  13  14
ENDBRANCH  12  13
ENDBRANCH  11  12
ENDBRANCH  10  11
ENDBRANCH   1  10
TORSDOF 13
ENDMDL
MODEL 8
REMARK VINA RESULT:    -4.613      1.676      3.234
REMARK INTER + INTRA:          -9.295
REMARK INTER:                  -7.933
REMARK INTRA:                  -1.362
REMARK UNBOUND:                -1.176
REMARK SMILES CCCCCCCCCCCCCCC(=O)[O-]
REMARK SMILES IDX 9 1 10 2 11 3 12 4 13 5 14 6 15 7 16 8 17 9 8 10 7 11 6 12
REMARK SMILES IDX 5 13 4 14 3 15 2 16 1 17
REMARK H PARENT
REMARK Flexibility Score: inf
ROOT
ATOM      1  C   UNL     1       7.242  52.634   0.649  1.00  0.00     0.000 C 
ENDROOT
BRANCH   1   2
ATOM      2  C   UNL     1       6.115  52.237   1.615  1.00  0.00     0.000 C 
BRANCH   2   3
ATOM      3  C   UNL     1       4.734  52.201   0.936  1.00  0.00     0.000 C 
BRANCH   3   4
ATOM      4  C   UNL     1       3.834  51.075   1.473  1.00  0.00     0.000 C 
BRANCH   4   5
ATOM      5  C   UNL     1       2.677  50.666   0.540  1.00  0.00     0.006 C 
BRANCH   5   6
ATOM      6  C   UNL     1       1.974  51.840  -0.159  1.00  0.00     0.053 C 
BRANCH   6   7
ATOM      7  C   UNL     1       2.124  51.778  -1.648  1.00  0.00     0.041 C 
ATOM      8  O   UNL     1       2.333  50.675  -2.217  1.00  0.00    -0.550 OA
ATOM      9  O   UNL     1       2.067  52.942  -2.403  1.00  0.00    -0.550 OA
ENDBRANCH   6   7
ENDBRANCH   5   6
ENDBRANCH   4   5
ENDBRANCH   3   4
ENDBRANCH   2   3
ENDBRANCH   1   2
BRANCH   1  10
ATOM     10  C   UNL     1       6.835  52.475  -0.826  1.00  0.00     0.000 C 
BRANCH  10  11
ATOM     11  C   UNL     1       8.043  52.354  -1.773  1.00  0.00    -0.000 C 
BRANCH  11  12
ATOM     12  C   UNL     1       9.210  51.497  -1.250  1.00  0.00    -0.000 C 
BRANCH  12  13
ATOM     13  C   UNL     1      10.585  52.150  -1.479  1.00  0.00    -0.000 C 
BRANCH  13  14
ATOM     14  C   UNL     1      11.308  52.503  -0.166  1.00  0.00    -0.000 C 
BRANCH  14  15
ATOM     15  C   UNL     1      10.945  53.873   0.437  1.00  0.00    -0.000 C 
BRANCH  15  16
ATOM     16  C   UNL     1      10.538  54.906  -0.624  1.00  0.00    -0.003 C 
ATOM     17  C   UNL     1       9.252  55.626  -0.226  1.00  0.00     0.004 C 
ENDBRANCH  15  16
ENDBRANCH  14  15
ENDBRANCH  13  14
ENDBRANCH  12  13
ENDBRANCH  11  12
ENDBRANCH  10  11
ENDBRANCH   1  10
TORSDOF 13
ENDMDL
MODEL 9
REMARK VINA RESULT:    -4.600      3.172      6.603
REMARK INTER + INTRA:          -9.272
REMARK INTER:                  -7.845
REMARK INTRA:                  -1.428
REMARK UNBOUND:                -1.176
REMARK SMILES CCCCCCCCCCCCCCC(=O)[O-]
REMARK SMILES IDX 9 1 10 2 11 3 12 4 13 5 14 6 15 7 16 8 17 9 8 10 7 11 6 12
REMARK SMILES IDX 5 13 4 14 3 15 2 16 1 17
REMARK H PARENT
REMARK Flexibility Score: inf
ROOT
ATOM      1  C   UNL     1       5.629  52.224  -3.596  1.00  0.00     0.000 C 
ENDROOT
BRANCH   1   2
ATOM      2  C   UNL     1       6.288  51.972  -2.231  1.00  0.00     0.000 C 
BRANCH   2   3
ATOM      3  C   UNL     1       7.361  53.020  -1.886  1.00  0.00     0.000 C 
BRANCH   3   4
ATOM      4  C   UNL     1       8.306  52.559  -0.763  1.00  0.00     0.000 C 
BRANCH   4   5
ATOM      5  C   UNL     1       9.393  51.555  -1.198  1.00  0.00     0.006 C 
BRANCH   5   6
ATOM      6  C   UNL     1      10.736  52.194  -1.583  1.00  0.00     0.053 C 
BRANCH   6   7
ATOM      7  C   UNL     1      11.257  53.095  -0.508  1.00  0.00     0.041 C 
ATOM      8  O   UNL     1      11.727  52.608   0.554  1.00  0.00    -0.550 OA
ATOM      9  O   UNL     1      11.195  54.474  -0.662  1.00  0.00    -0.550 OA
ENDBRANCH   6   7
ENDBRANCH   5   6
ENDBRANCH   4   5
ENDBRANCH   3   4
ENDBRANCH   2   3
ENDBRANCH   1   2
BRANCH   1  10
ATOM     10  C   UNL     1       4.270  51.517  -3.732  1.00  0.00     0.000 C 
BRANCH  10  11
ATOM     11  C   UNL     1       3.176  52.141  -2.846  1.00  0.00    -0.000 C 
BRANCH  11  12
ATOM     12  C   UNL     1       2.124  51.157  -2.302  1.00  0.00    -0.000 C 
BRANCH  12  13
ATOM     13  C   UNL     1       2.479  50.608  -0.909  1.00  0.00    -0.000 C 
BRANCH  13  14
ATOM     14  C   UNL     1       3.040  51.685   0.037  1.00  0.00    -0.000 C 
BRANCH  14  15
ATOM     15  C   UNL     1       3.843  51.151   1.238  1.00  0.00    -0.000 C 
BRANCH  15  16
ATOM     16  C   UNL     1       5.160  51.909   1.462  1.00  0.00    -0.003 C 
ATOM     17  C   UNL     1       5.039  53.365   1.019  1.00  0.00     0.004 C 
ENDBRANCH  15  16
ENDBRANCH  14  15
ENDBRANCH  13  14
ENDBRANCH  12  13
ENDBRANCH  11  12
ENDBRANCH  10  11
ENDBRANCH   1  10
TORSDOF 13
ENDMDL
