MODEL 1
REMARK VINA RESULT:    -3.417      0.000      0.000
REMARK INTER + INTRA:          -4.583
REMARK INTER:                  -4.415
REMARK INTRA:                  -0.167
REMARK UNBOUND:                -0.167
REMARK SMILES C=CC(=O)CCCCC
REMARK SMILES IDX 6 1 7 2 8 3 9 4 5 5 3 6 4 7 2 8 1 9
REMARK H PARENT
REMARK Flexibility Score: inf
ROOT
ATOM      1  C   UNL     1      -8.471 -15.078  -1.425  1.00  0.00     0.008 C 
ENDROOT
BRANCH   1   2
ATOM      2  C   UNL     1      -9.186 -16.382  -1.036  1.00  0.00     0.000 C 
BRANCH   2   3
ATOM      3  C   UNL     1     -10.177 -16.190   0.122  1.00  0.00    -0.003 C 
ATOM      4  C   UNL     1      -9.525 -16.517   1.462  1.00  0.00     0.004 C 
ENDBRANCH   2   3
ENDBRANCH   1   2
BRANCH   1   5
ATOM      5  C   UNL     1      -8.059 -15.047  -2.907  1.00  0.00     0.080 C 
BRANCH   5   6
ATOM      6  C   UNL     1      -8.569 -13.823  -3.634  1.00  0.00     0.155 C 
ATOM      7  O   UNL     1      -8.881 -13.897  -4.853  1.00  0.00    -0.295 OA
BRANCH   6   8
ATOM      8  C   UNL     1      -8.699 -12.515  -2.959  1.00  0.00     0.039 C 
ATOM      9  C   UNL     1      -9.468 -11.525  -3.412  1.00  0.00     0.012 C 
ENDBRANCH   6   8
ENDBRANCH   5   6
ENDBRANCH   1   5
TORSDOF 5
ENDMDL
MODEL 2
REMARK VINA RESULT:    -3.387      2.008      4.922
REMARK INTER + INTRA:          -4.544
REMARK INTER:                  -4.418
REMARK INTRA:                  -0.127
REMARK UNBOUND:                -0.167
REMARK SMILES C=CC(=O)CCCCC
REMARK SMILES IDX 6 1 7 2 8 3 9 4 5 5 3 6 4 7 2 8 1 9
REMARK H PARENT
REMARK Flexibility Score: inf
ROOT
ATOM      1  C   UNL     1      -7.973 -13.499  -2.174  1.00  0.00     0.008 C 
ENDROOT
BRANCH   1   2
ATOM      2  C   UNL     1      -8.446 -12.970  -3.537  1.00  0.00     0.000 C 
BRANCH   2   3
ATOM      3  C   UNL     1      -9.344 -11.730  -3.410  1.00  0.00    -0.003 C 
ATOM      4  C   UNL     1     -10.374 -11.681  -4.535  1.00  0.00     0.004 C 
ENDBRANCH   2   3
ENDBRANCH   1   2
BRANCH   1   5
ATOM      5  C   UNL     1      -8.504 -14.911  -1.869  1.00  0.00     0.080 C 
BRANCH   5   6
ATOM      6  C   UNL     1      -8.209 -15.358  -0.455  1.00  0.00     0.155 C 
ATOM      7  O   UNL     1      -7.140 -15.001   0.111  1.00  0.00    -0.295 OA
BRANCH   6   8
ATOM      8  C   UNL     1      -9.136 -16.230   0.295  1.00  0.00     0.039 C 
ATOM      9  C   UNL     1     -10.440 -16.322   0.031  1.00  0.00     0.012 C 
ENDBRANCH   6   8
ENDBRANCH   5   6
ENDBRANCH   1   5
TORSDOF 5
ENDMDL
MODEL 3
REMARK VINA RESULT:    -3.357      1.770      5.003
REMARK INTER + INTRA:          -4.505
REMARK INTER:                  -4.406
REMARK INTRA:                  -0.099
REMARK UNBOUND:                -0.167
REMARK SMILES C=CC(=O)CCCCC
REMARK SMILES IDX 6 1 7 2 8 3 9 4 5 5 3 6 4 7 2 8 1 9
REMARK H PARENT
REMARK Flexibility Score: inf
ROOT
ATOM      1  C   UNL     1      -8.433 -14.739  -2.383  1.00  0.00     0.008 C 
ENDROOT
BRANCH   1   2
ATOM      2  C   UNL     1      -8.049 -13.264  -2.577  1.00  0.00     0.000 C 
BRANCH   2   3
ATOM      3  C   UNL     1      -8.802 -12.606  -3.743  1.00  0.00    -0.003 C 
ATOM      4  C   UNL     1      -9.574 -11.376  -3.272  1.00  0.00     0.004 C 
ENDBRANCH   2   3
ENDBRANCH   1   2
BRANCH   1   5
ATOM      5  C   UNL     1      -8.300 -15.199  -0.920  1.00  0.00     0.080 C 
BRANCH   5   6
ATOM      6  C   UNL     1      -9.173 -16.390  -0.596  1.00  0.00     0.155 C 
ATOM      7  O   UNL     1      -9.232 -17.366  -1.392  1.00  0.00    -0.295 OA
BRANCH   6   8
ATOM      8  C   UNL     1      -9.990 -16.444   0.634  1.00  0.00     0.039 C 
ATOM      9  C   UNL     1      -9.650 -17.146   1.715  1.00  0.00     0.012 C 
ENDBRANCH   6   8
ENDBRANCH   5   6
ENDBRANCH   1   5
TORSDOF 5
ENDMDL
MODEL 4
REMARK VINA RESULT:    -3.314      1.725      2.262
REMARK INTER + INTRA:          -4.450
REMARK INTER:                  -4.198
REMARK INTRA:                  -0.252
REMARK UNBOUND:                -0.167
REMARK SMILES C=CC(=O)CCCCC
REMARK SMILES IDX 6 1 7 2 8 3 9 4 5 5 3 6 4 7 2 8 1 9
REMARK H PARENT
REMARK Flexibility Score: inf
ROOT
ATOM      1  C   UNL     1      -9.249 -16.033  -0.979  1.00  0.00     0.008 C 
ENDROOT
BRANCH   1   2
ATOM      2  C   UNL     1     -10.224 -16.454   0.133  1.00  0.00     0.000 C 
BRANCH   2   3
ATOM      3  C   UNL     1      -9.560 -16.492   1.517  1.00  0.00    -0.003 C 
ATOM      4  C   UNL     1      -9.212 -17.922   1.920  1.00  0.00     0.004 C 
ENDBRANCH   2   3
ENDBRANCH   1   2
BRANCH   1   5
ATOM      5  C   UNL     1      -8.015 -15.291  -0.436  1.00  0.00     0.080 C 
BRANCH   5   6
ATOM      6  C   UNL     1      -7.544 -14.183  -1.350  1.00  0.00     0.155 C 
ATOM      7  O   UNL     1      -6.554 -13.473  -1.025  1.00  0.00    -0.295 OA
BRANCH   6   8
ATOM      8  C   UNL     1      -8.227 -13.884  -2.626  1.00  0.00     0.039 C 
ATOM      9  C   UNL     1      -8.677 -12.674  -2.955  1.00  0.00     0.012 C 
ENDBRANCH   6   8
ENDBRANCH   5   6
ENDBRANCH   1   5
TORSDOF 5
ENDMDL
MODEL 5
REMARK VINA RESULT:    -3.289      1.798      2.453
REMARK INTER + INTRA:          -4.418
REMARK INTER:                  -4.277
REMARK INTRA:                  -0.141
REMARK UNBOUND:                -0.167
REMARK SMILES C=CC(=O)CCCCC
REMARK SMILES IDX 6 1 7 2 8 3 9 4 5 5 3 6 4 7 2 8 1 9
REMARK H PARENT
REMARK Flexibility Score: inf
ROOT
ATOM      1  C   UNL     1      -8.158 -13.525  -2.486  1.00  0.00     0.008 C 
ENDROOT
BRANCH   1   2
ATOM      2  C   UNL     1      -8.491 -15.006  -2.248  1.00  0.00     0.000 C 
BRANCH   2   3
ATOM      3  C   UNL     1      -8.478 -15.382  -0.759  1.00  0.00    -0.003 C 
ATOM      4  C   UNL     1      -9.686 -16.243  -0.401  1.00  0.00     0.004 C 
ENDBRANCH   2   3
ENDBRANCH   1   2
BRANCH   1   5
ATOM      5  C   UNL     1      -8.484 -13.066  -3.919  1.00  0.00     0.080 C 
BRANCH   5   6
ATOM      6  C   UNL     1      -9.472 -11.923  -3.960  1.00  0.00     0.155 C 
ATOM      7  O   UNL     1      -9.581 -11.146  -2.973  1.00  0.00    -0.295 OA
BRANCH   6   8
ATOM      8  C   UNL     1     -10.344 -11.689  -5.129  1.00  0.00     0.039 C 
ATOM      9  C   UNL     1     -10.675 -12.639  -6.004  1.00  0.00     0.012 C 
ENDBRANCH   6   8
ENDBRANCH   5   6
ENDBRANCH   1   5
TORSDOF 5
ENDMDL
MODEL 6
REMARK VINA RESULT:    -3.192     14.200     15.671
REMARK INTER + INTRA:          -4.293
REMARK INTER:                  -3.842
REMARK INTRA:                  -0.451
REMARK UNBOUND:                -0.167
REMARK SMILES C=CC(=O)CCCCC
REMARK SMILES IDX 6 1 7 2 8 3 9 4 5 5 3 6 4 7 2 8 1 9
REMARK H PARENT
REMARK Flexibility Score: inf
ROOT
ATOM      1  C   UNL     1     -22.831 -10.674  -8.439  1.00  0.00     0.008 C 
ENDROOT
BRANCH   1   2
ATOM      2  C   UNL     1     -21.326 -10.814  -8.716  1.00  0.00     0.000 C 
BRANCH   2   3
ATOM      3  C   UNL     1     -20.619 -11.720  -7.698  1.00  0.00    -0.003 C 
ATOM      4  C   UNL     1     -21.329 -13.065  -7.575  1.00  0.00     0.004 C 
ENDBRANCH   2   3
ENDBRANCH   1   2
BRANCH   1   5
ATOM      5  C   UNL     1     -23.158  -9.485  -7.518  1.00  0.00     0.080 C 
BRANCH   5   6
ATOM      6  C   UNL     1     -24.015  -9.874  -6.336  1.00  0.00     0.155 C 
ATOM      7  O   UNL     1     -24.716  -9.004  -5.750  1.00  0.00    -0.295 OA
BRANCH   6   8
ATOM      8  C   UNL     1     -24.049 -11.258  -5.820  1.00  0.00     0.039 C 
ATOM      9  C   UNL     1     -24.002 -11.563  -4.523  1.00  0.00     0.012 C 
ENDBRANCH   6   8
ENDBRANCH   5   6
ENDBRANCH   1   5
TORSDOF 5
ENDMDL
MODEL 7
REMARK VINA RESULT:    -3.117      2.760      4.510
REMARK INTER + INTRA:          -4.195
REMARK INTER:                  -3.768
REMARK INTRA:                  -0.427
REMARK UNBOUND:                -0.167
REMARK SMILES C=CC(=O)CCCCC
REMARK SMILES IDX 6 1 7 2 8 3 9 4 5 5 3 6 4 7 2 8 1 9
REMARK H PARENT
REMARK Flexibility Score: inf
ROOT
ATOM      1  C   UNL     1      -7.234 -15.205  -0.884  1.00  0.00     0.008 C 
ENDROOT
BRANCH   1   2
ATOM      2  C   UNL     1      -6.896 -13.744  -0.546  1.00  0.00     0.000 C 
BRANCH   2   3
ATOM      3  C   UNL     1      -6.154 -13.604   0.791  1.00  0.00    -0.003 C 
ATOM      4  C   UNL     1      -6.725 -14.557   1.838  1.00  0.00     0.004 C 
ENDBRANCH   2   3
ENDBRANCH   1   2
BRANCH   1   5
ATOM      5  C   UNL     1      -8.680 -15.380  -1.382  1.00  0.00     0.080 C 
BRANCH   5   6
ATOM      6  C   UNL     1      -9.408 -16.510  -0.692  1.00  0.00     0.155 C 
ATOM      7  O   UNL     1      -9.602 -17.600  -1.297  1.00  0.00    -0.295 OA
BRANCH   6   8
ATOM      8  C   UNL     1      -9.928 -16.376   0.685  1.00  0.00     0.039 C 
ATOM      9  C   UNL     1      -9.529 -17.140   1.701  1.00  0.00     0.012 C 
ENDBRANCH   6   8
ENDBRANCH   5   6
ENDBRANCH   1   5
TORSDOF 5
ENDMDL
MODEL 8
REMARK VINA RESULT:    -3.116     14.531     16.117
REMARK INTER + INTRA:          -4.195
REMARK INTER:                  -3.977
REMARK INTRA:                  -0.218
REMARK UNBOUND:                -0.167
REMARK SMILES C=CC(=O)CCCCC
REMARK SMILES IDX 6 1 7 2 8 3 9 4 5 5 3 6 4 7 2 8 1 9
REMARK H PARENT
REMARK Flexibility Score: inf
ROOT
ATOM      1  C   UNL     1     -22.892  -9.584  -8.395  1.00  0.00     0.008 C 
ENDROOT
BRANCH   1   2
ATOM      2  C   UNL     1     -21.778 -10.508  -8.912  1.00  0.00     0.000 C 
BRANCH   2   3
ATOM      3  C   UNL     1     -21.106 -11.310  -7.788  1.00  0.00    -0.003 C 
ATOM      4  C   UNL     1     -19.906 -12.092  -8.314  1.00  0.00     0.004 C 
ENDBRANCH   2   3
ENDBRANCH   1   2
BRANCH   1   5
ATOM      5  C   UNL     1     -23.503 -10.075  -7.070  1.00  0.00     0.080 C 
BRANCH   5   6
ATOM      6  C   UNL     1     -24.280  -8.999  -6.347  1.00  0.00     0.155 C 
ATOM      7  O   UNL     1     -25.013  -9.300  -5.366  1.00  0.00    -0.295 OA
BRANCH   6   8
ATOM      8  C   UNL     1     -24.226  -7.583  -6.766  1.00  0.00     0.039 C 
ATOM      9  C   UNL     1     -24.193  -6.561  -5.912  1.00  0.00     0.012 C 
ENDBRANCH   6   8
ENDBRANCH   5   6
ENDBRANCH   1   5
TORSDOF 5
ENDMDL
MODEL 9
REMARK VINA RESULT:    -3.038     14.145     15.463
REMARK INTER + INTRA:          -4.094
REMARK INTER:                  -3.860
REMARK INTRA:                  -0.233
REMARK UNBOUND:                -0.167
REMARK SMILES C=CC(=O)CCCCC
REMARK SMILES IDX 6 1 7 2 8 3 9 4 5 5 3 6 4 7 2 8 1 9
REMARK H PARENT
REMARK Flexibility Score: inf
ROOT
ATOM      1  C   UNL     1     -23.842 -10.429  -6.635  1.00  0.00     0.008 C 
ENDROOT
BRANCH   1   2
ATOM      2  C   UNL     1     -24.530  -9.448  -5.672  1.00  0.00     0.000 C 
BRANCH   2   3
ATOM      3  C   UNL     1     -24.591  -9.979  -4.232  1.00  0.00    -0.003 C 
ATOM      4  C   UNL     1     -24.269 -11.470  -4.183  1.00  0.00     0.004 C 
ENDBRANCH   2   3
ENDBRANCH   1   2
BRANCH   1   5
ATOM      5  C   UNL     1     -23.340  -9.746  -7.919  1.00  0.00     0.080 C 
BRANCH   5   6
ATOM      6  C   UNL     1     -22.061 -10.353  -8.447  1.00  0.00     0.155 C 
ATOM      7  O   UNL     1     -21.710 -10.149  -9.641  1.00  0.00    -0.295 OA
BRANCH   6   8
ATOM      8  C   UNL     1     -21.200 -11.209  -7.605  1.00  0.00     0.039 C 
ATOM      9  C   UNL     1     -20.178 -11.921  -8.079  1.00  0.00     0.012 C 
ENDBRANCH   6   8
ENDBRANCH   5   6
ENDBRANCH   1   5
TORSDOF 5
ENDMDL
