MODEL 1
REMARK VINA RESULT:    -3.054      0.000      0.000
REMARK INTER + INTRA:          -5.513
REMARK INTER:                  -4.661
REMARK INTRA:                  -0.852
REMARK UNBOUND:                -0.852
REMARK SMILES OC[C@@H]1O[C@@H](O[C@]2(CO)O[C@@H](CO)[C@@H](O)[C@@H]2O)[C@@H](O)[C@H](O)[C@H]1O
REMARK SMILES IDX 6 1 5 2 3 3 22 4 4 5 20 6 18 7 2 8 1 9 23 11 21 13 19 15
REMARK SMILES IDX 7 17 16 18 10 19 14 20 11 21 8 22 9 23 17 25 15 27 12 29
REMARK SMILES IDX 13 30
REMARK H PARENT 1 10 23 12 21 14 19 16 9 24 17 26 15 28 13 31
REMARK Flexibility Score: inf
ROOT
ATOM      1  O   UNL     1    -475.762 282.160  -3.421  1.00  0.00    -0.313 OA
ENDROOT
BRANCH   1   2
ATOM      2  C   UNL     1    -475.188 283.454  -3.293  1.00  0.00     0.285 C 
ATOM      3  C   UNL     1    -476.069 283.837  -1.142  1.00  0.00     0.178 C 
ATOM      4  C   UNL     1    -476.977 284.990  -1.634  1.00  0.00     0.177 C 
ATOM      5  O   UNL     1    -474.896 283.748  -1.935  1.00  0.00    -0.341 OA
ATOM      6  C   UNL     1    -477.382 284.721  -3.087  1.00  0.00     0.179 C 
ATOM      7  C   UNL     1    -476.116 284.515  -3.932  1.00  0.00     0.202 C 
BRANCH   3   8
ATOM      8  C   UNL     1    -475.672 283.999   0.338  1.00  0.00     0.191 C 
BRANCH   8   9
ATOM      9  O   UNL     1    -474.476 283.334   0.652  1.00  0.00    -0.394 OA
ATOM     10  H   UNL     1    -473.895 283.956   1.167  1.00  0.00     0.210 HD
ENDBRANCH   8   9
ENDBRANCH   3   8
BRANCH   4  11
ATOM     11  O   UNL     1    -478.122 285.141  -0.834  1.00  0.00    -0.387 OA
ATOM     12  H   UNL     1    -478.886 284.732  -1.317  1.00  0.00     0.211 HD
ENDBRANCH   4  11
BRANCH   6  13
ATOM     13  O   UNL     1    -478.124 285.809  -3.578  1.00  0.00    -0.387 OA
ATOM     14  H   UNL     1    -477.740 286.033  -4.469  1.00  0.00     0.211 HD
ENDBRANCH   6  13
BRANCH   7  15
ATOM     15  O   UNL     1    -476.486 284.103  -5.223  1.00  0.00    -0.385 OA
ATOM     16  H   UNL     1    -475.680 283.711  -5.645  1.00  0.00     0.211 HD
ENDBRANCH   7  15
ENDBRANCH   1   2
BRANCH   1  17
ATOM     17  C   UNL     1    -474.904 281.176  -4.002  1.00  0.00     0.224 C 
ATOM     18  C   UNL     1    -475.591 280.537  -5.226  1.00  0.00     0.208 C 
ATOM     19  O   UNL     1    -473.639 281.682  -4.418  1.00  0.00    -0.337 OA
ATOM     20  C   UNL     1    -474.428 280.194  -6.125  1.00  0.00     0.180 C 
ATOM     21  C   UNL     1    -473.424 281.289  -5.760  1.00  0.00     0.179 C 
BRANCH  17  22
ATOM     22  C   UNL     1    -474.635 280.108  -2.918  1.00  0.00     0.225 C 
BRANCH  22  23
ATOM     23  O   UNL     1    -475.249 278.892  -3.257  1.00  0.00    -0.391 OA
ATOM     24  H   UNL     1    -474.602 278.378  -3.822  1.00  0.00     0.210 HD
ENDBRANCH  22  23
ENDBRANCH  17  22
BRANCH  18  25
ATOM     25  O   UNL     1    -476.489 281.437  -5.837  1.00  0.00    -0.385 OA
ATOM     26  H   UNL     1    -476.691 281.112  -6.755  1.00  0.00     0.211 HD
ENDBRANCH  18  25
BRANCH  20  27
ATOM     27  O   UNL     1    -473.933 278.922  -5.779  1.00  0.00    -0.387 OA
ATOM     28  H   UNL     1    -472.964 278.915  -5.987  1.00  0.00     0.211 HD
ENDBRANCH  20  27
BRANCH  21  29
ATOM     29  C   UNL     1    -471.940 280.921  -5.965  1.00  0.00     0.191 C 
BRANCH  29  30
ATOM     30  O   UNL     1    -471.680 279.565  -5.678  1.00  0.00    -0.394 OA
ATOM     31  H   UNL     1    -471.902 279.418  -4.722  1.00  0.00     0.210 HD
ENDBRANCH  29  30
ENDBRANCH  21  29
ENDBRANCH   1  17
TORSDOF 13
ENDMDL
MODEL 2
REMARK VINA RESULT:    -1.744     10.923     13.450
REMARK INTER + INTRA:          -3.514
REMARK INTER:                  -4.382
REMARK INTRA:                   0.869
REMARK UNBOUND:                -0.852
REMARK SMILES OC[C@@H]1O[C@@H](O[C@]2(CO)O[C@@H](CO)[C@@H](O)[C@@H]2O)[C@@H](O)[C@H](O)[C@H]1O
REMARK SMILES IDX 6 1 5 2 3 3 22 4 4 5 20 6 18 7 2 8 1 9 23 11 21 13 19 15
REMARK SMILES IDX 7 17 16 18 10 19 14 20 11 21 8 22 9 23 17 25 15 27 12 29
REMARK SMILES IDX 13 30
REMARK H PARENT 1 10 23 12 21 14 19 16 9 24 17 26 15 28 13 31
REMARK Flexibility Score: inf
ROOT
ATOM      1  O   UNL     1    -476.351 295.093  -1.806  1.00  0.00    -0.313 OA
ENDROOT
BRANCH   1   2
ATOM      2  C   UNL     1    -477.408 294.997  -2.751  1.00  0.00     0.285 C 
ATOM      3  C   UNL     1    -475.977 294.832  -4.615  1.00  0.00     0.178 C 
ATOM      4  C   UNL     1    -476.444 296.191  -5.192  1.00  0.00     0.177 C 
ATOM      5  O   UNL     1    -477.017 294.217  -3.872  1.00  0.00    -0.341 OA
ATOM      6  C   UNL     1    -476.838 297.115  -4.035  1.00  0.00     0.179 C 
ATOM      7  C   UNL     1    -477.887 296.410  -3.162  1.00  0.00     0.202 C 
BRANCH   3   8
ATOM      8  C   UNL     1    -475.498 293.866  -5.716  1.00  0.00     0.191 C 
BRANCH   8   9
ATOM      9  O   UNL     1    -474.102 293.862  -5.860  1.00  0.00    -0.394 OA
ATOM     10  H   UNL     1    -473.760 294.773  -5.651  1.00  0.00     0.210 HD
ENDBRANCH   8   9
ENDBRANCH   3   8
BRANCH   4  11
ATOM     11  O   UNL     1    -475.455 296.801  -5.981  1.00  0.00    -0.387 OA
ATOM     12  H   UNL     1    -475.909 297.381  -6.644  1.00  0.00     0.211 HD
ENDBRANCH   4  11
BRANCH   6  13
ATOM     13  O   UNL     1    -477.359 298.316  -4.548  1.00  0.00    -0.387 OA
ATOM     14  H   UNL     1    -478.006 298.061  -5.260  1.00  0.00     0.211 HD
ENDBRANCH   6  13
BRANCH   7  15
ATOM     15  O   UNL     1    -478.124 297.181  -2.012  1.00  0.00    -0.385 OA
ATOM     16  H   UNL     1    -478.914 296.792  -1.560  1.00  0.00     0.211 HD
ENDBRANCH   7  15
ENDBRANCH   1   2
BRANCH   1  17
ATOM     17  C   UNL     1    -476.652 294.568  -0.512  1.00  0.00     0.224 C 
ATOM     18  C   UNL     1    -477.911 293.679  -0.585  1.00  0.00     0.208 C 
ATOM     19  O   UNL     1    -475.600 293.797   0.062  1.00  0.00    -0.337 OA
ATOM     20  C   UNL     1    -477.662 292.651   0.490  1.00  0.00     0.180 C 
ATOM     21  C   UNL     1    -476.135 292.555   0.477  1.00  0.00     0.179 C 
BRANCH  17  22
ATOM     22  C   UNL     1    -476.898 295.773   0.424  1.00  0.00     0.225 C 
BRANCH  22  23
ATOM     23  O   UNL     1    -475.950 296.782   0.194  1.00  0.00    -0.391 OA
ATOM     24  H   UNL     1    -475.582 297.053   1.084  1.00  0.00     0.210 HD
ENDBRANCH  22  23
ENDBRANCH  17  22
BRANCH  18  25
ATOM     25  O   UNL     1    -478.050 293.093  -1.861  1.00  0.00    -0.385 OA
ATOM     26  H   UNL     1    -477.733 292.152  -1.815  1.00  0.00     0.211 HD
ENDBRANCH  18  25
BRANCH  20  27
ATOM     27  O   UNL     1    -478.123 293.148   1.725  1.00  0.00    -0.387 OA
ATOM     28  H   UNL     1    -479.107 293.027   1.744  1.00  0.00     0.211 HD
ENDBRANCH  20  27
BRANCH  21  29
ATOM     29  C   UNL     1    -475.486 292.128   1.810  1.00  0.00     0.191 C 
BRANCH  29  30
ATOM     30  O   UNL     1    -475.090 290.774   1.803  1.00  0.00    -0.394 OA
ATOM     31  H   UNL     1    -474.450 290.651   2.552  1.00  0.00     0.210 HD
ENDBRANCH  29  30
ENDBRANCH  21  29
ENDBRANCH   1  17
TORSDOF 13
ENDMDL
MODEL 3
REMARK VINA RESULT:    -1.675     10.785     13.689
REMARK INTER + INTRA:          -3.408
REMARK INTER:                  -4.791
REMARK INTRA:                   1.383
REMARK UNBOUND:                -0.852
REMARK SMILES OC[C@@H]1O[C@@H](O[C@]2(CO)O[C@@H](CO)[C@@H](O)[C@@H]2O)[C@@H](O)[C@H](O)[C@H]1O
REMARK SMILES IDX 6 1 5 2 3 3 22 4 4 5 20 6 18 7 2 8 1 9 23 11 21 13 19 15
REMARK SMILES IDX 7 17 16 18 10 19 14 20 11 21 8 22 9 23 17 25 15 27 12 29
REMARK SMILES IDX 13 30
REMARK H PARENT 1 10 23 12 21 14 19 16 9 24 17 26 15 28 13 31
REMARK Flexibility Score: inf
ROOT
ATOM      1  O   UNL     1    -476.785 294.532  -2.863  1.00  0.00    -0.313 OA
ENDROOT
BRANCH   1   2
ATOM      2  C   UNL     1    -477.898 294.448  -1.982  1.00  0.00     0.285 C 
ATOM      3  C   UNL     1    -476.645 294.957  -0.052  1.00  0.00     0.178 C 
ATOM      4  C   UNL     1    -476.872 293.553   0.560  1.00  0.00     0.177 C 
ATOM      5  O   UNL     1    -477.737 295.327  -0.878  1.00  0.00    -0.341 OA
ATOM      6  C   UNL     1    -477.005 292.530  -0.574  1.00  0.00     0.179 C 
ATOM      7  C   UNL     1    -478.115 292.983  -1.533  1.00  0.00     0.202 C 
BRANCH   3   8
ATOM      8  C   UNL     1    -476.434 296.035   1.028  1.00  0.00     0.191 C 
BRANCH   8   9
ATOM      9  O   UNL     1    -475.473 296.989   0.657  1.00  0.00    -0.394 OA
ATOM     10  H   UNL     1    -475.902 297.887   0.659  1.00  0.00     0.210 HD
ENDBRANCH   8   9
ENDBRANCH   3   8
BRANCH   4  11
ATOM     11  O   UNL     1    -475.834 293.178   1.428  1.00  0.00    -0.387 OA
ATOM     12  H   UNL     1    -475.881 292.195   1.553  1.00  0.00     0.211 HD
ENDBRANCH   4  11
BRANCH   6  13
ATOM     13  O   UNL     1    -477.312 291.268  -0.036  1.00  0.00    -0.387 OA
ATOM     14  H   UNL     1    -477.955 291.427   0.707  1.00  0.00     0.211 HD
ENDBRANCH   6  13
BRANCH   7  15
ATOM     15  O   UNL     1    -478.125 292.142  -2.658  1.00  0.00    -0.385 OA
ATOM     16  H   UNL     1    -477.805 292.680  -3.426  1.00  0.00     0.211 HD
ENDBRANCH   7  15
ENDBRANCH   1   2
BRANCH   1  17
ATOM     17  C   UNL     1    -476.998 295.335  -4.025  1.00  0.00     0.224 C 
ATOM     18  C   UNL     1    -477.934 296.513  -3.685  1.00  0.00     0.208 C 
ATOM     19  O   UNL     1    -475.803 295.868  -4.590  1.00  0.00    -0.337 OA
ATOM     20  C   UNL     1    -477.461 297.601  -4.618  1.00  0.00     0.180 C 
ATOM     21  C   UNL     1    -475.975 297.263  -4.756  1.00  0.00     0.179 C 
BRANCH  17  22
ATOM     22  C   UNL     1    -477.644 294.427  -5.096  1.00  0.00     0.225 C 
BRANCH  22  23
ATOM     23  O   UNL     1    -476.678 293.964  -6.003  1.00  0.00    -0.391 OA
ATOM     24  H   UNL     1    -475.785 294.057  -5.561  1.00  0.00     0.210 HD
ENDBRANCH  22  23
ENDBRANCH  17  22
BRANCH  18  25
ATOM     25  O   UNL     1    -477.817 296.886  -2.330  1.00  0.00    -0.385 OA
ATOM     26  H   UNL     1    -477.941 297.870  -2.258  1.00  0.00     0.211 HD
ENDBRANCH  18  25
BRANCH  20  27
ATOM     27  O   UNL     1    -478.123 297.473  -5.855  1.00  0.00    -0.387 OA
ATOM     28  H   UNL     1    -477.568 296.885  -6.428  1.00  0.00     0.211 HD
ENDBRANCH  20  27
BRANCH  21  29
ATOM     29  C   UNL     1    -475.313 297.715  -6.074  1.00  0.00     0.191 C 
BRANCH  29  30
ATOM     30  O   UNL     1    -474.880 299.057  -6.023  1.00  0.00    -0.394 OA
ATOM     31  H   UNL     1    -473.934 299.073  -6.323  1.00  0.00     0.210 HD
ENDBRANCH  29  30
ENDBRANCH  21  29
ENDBRANCH   1  17
TORSDOF 13
ENDMDL
MODEL 4
REMARK VINA RESULT:    -1.112      1.541      3.272
REMARK INTER + INTRA:          -2.549
REMARK INTER:                  -3.333
REMARK INTRA:                   0.784
REMARK UNBOUND:                -0.852
REMARK SMILES OC[C@@H]1O[C@@H](O[C@]2(CO)O[C@@H](CO)[C@@H](O)[C@@H]2O)[C@@H](O)[C@H](O)[C@H]1O
REMARK SMILES IDX 6 1 5 2 3 3 22 4 4 5 20 6 18 7 2 8 1 9 23 11 21 13 19 15
REMARK SMILES IDX 7 17 16 18 10 19 14 20 11 21 8 22 9 23 17 25 15 27 12 29
REMARK SMILES IDX 13 30
REMARK H PARENT 1 10 23 12 21 14 19 16 9 24 17 26 15 28 13 31
REMARK Flexibility Score: inf
ROOT
ATOM      1  O   UNL     1    -475.732 283.508  -3.773  1.00  0.00    -0.313 OA
ENDROOT
BRANCH   1   2
ATOM      2  C   UNL     1    -477.148 283.423  -3.685  1.00  0.00     0.285 C 
ATOM      3  C   UNL     1    -477.524 285.488  -4.754  1.00  0.00     0.178 C 
ATOM      4  C   UNL     1    -478.125 286.127  -3.478  1.00  0.00     0.177 C 
ATOM      5  O   UNL     1    -477.764 284.091  -4.777  1.00  0.00    -0.341 OA
ATOM      6  C   UNL     1    -477.470 285.493  -2.247  1.00  0.00     0.179 C 
ATOM      7  C   UNL     1    -477.631 283.967  -2.320  1.00  0.00     0.202 C 
BRANCH   3   8
ATOM      8  C   UNL     1    -478.085 286.123  -6.041  1.00  0.00     0.191 C 
BRANCH   8   9
ATOM      9  O   UNL     1    -477.819 287.499  -6.125  1.00  0.00    -0.394 OA
ATOM     10  H   UNL     1    -478.374 287.969  -5.447  1.00  0.00     0.210 HD
ENDBRANCH   8   9
ENDBRANCH   3   8
BRANCH   4  11
ATOM     11  O   UNL     1    -477.953 287.521  -3.451  1.00  0.00    -0.387 OA
ATOM     12  H   UNL     1    -478.740 287.916  -2.996  1.00  0.00     0.211 HD
ENDBRANCH   4  11
BRANCH   6  13
ATOM     13  O   UNL     1    -478.077 285.991  -1.081  1.00  0.00    -0.387 OA
ATOM     14  H   UNL     1    -478.818 286.584  -1.380  1.00  0.00     0.211 HD
ENDBRANCH   6  13
BRANCH   7  15
ATOM     15  O   UNL     1    -476.889 283.374  -1.286  1.00  0.00    -0.385 OA
ATOM     16  H   UNL     1    -475.967 283.248  -1.625  1.00  0.00     0.211 HD
ENDBRANCH   7  15
ENDBRANCH   1   2
BRANCH   1  17
ATOM     17  C   UNL     1    -475.060 282.251  -3.885  1.00  0.00     0.224 C 
ATOM     18  C   UNL     1    -476.022 281.191  -4.460  1.00  0.00     0.208 C 
ATOM     19  O   UNL     1    -473.897 282.285  -4.707  1.00  0.00    -0.337 OA
ATOM     20  C   UNL     1    -475.097 280.275  -5.223  1.00  0.00     0.180 C 
ATOM     21  C   UNL     1    -473.995 281.242  -5.658  1.00  0.00     0.179 C 
BRANCH  17  22
ATOM     22  C   UNL     1    -474.604 281.849  -2.464  1.00  0.00     0.225 C 
BRANCH  22  23
ATOM     23  O   UNL     1    -474.125 282.966  -1.762  1.00  0.00    -0.391 OA
ATOM     24  H   UNL     1    -473.508 283.461  -2.374  1.00  0.00     0.210 HD
ENDBRANCH  22  23
ENDBRANCH  17  22
BRANCH  18  25
ATOM     25  O   UNL     1    -476.995 281.781  -5.294  1.00  0.00    -0.385 OA
ATOM     26  H   UNL     1    -477.483 281.059  -5.773  1.00  0.00     0.211 HD
ENDBRANCH  18  25
BRANCH  20  27
ATOM     27  O   UNL     1    -474.589 279.294  -4.349  1.00  0.00    -0.387 OA
ATOM     28  H   UNL     1    -474.254 278.546  -4.906  1.00  0.00     0.211 HD
ENDBRANCH  20  27
BRANCH  21  29
ATOM     29  C   UNL     1    -472.607 280.608  -5.881  1.00  0.00     0.191 C 
BRANCH  29  30
ATOM     30  O   UNL     1    -472.676 279.207  -6.033  1.00  0.00    -0.394 OA
ATOM     31  H   UNL     1    -471.962 278.814  -5.466  1.00  0.00     0.210 HD
ENDBRANCH  29  30
ENDBRANCH  21  29
ENDBRANCH   1  17
TORSDOF 13
ENDMDL
MODEL 5
REMARK VINA RESULT:    -1.109      9.328     13.165
REMARK INTER + INTRA:          -2.544
REMARK INTER:                  -1.986
REMARK INTRA:                  -0.558
REMARK UNBOUND:                -0.852
REMARK SMILES OC[C@@H]1O[C@@H](O[C@]2(CO)O[C@@H](CO)[C@@H](O)[C@@H]2O)[C@@H](O)[C@H](O)[C@H]1O
REMARK SMILES IDX 6 1 5 2 3 3 22 4 4 5 20 6 18 7 2 8 1 9 23 11 21 13 19 15
REMARK SMILES IDX 7 17 16 18 10 19 14 20 11 21 8 22 9 23 17 25 15 27 12 29
REMARK SMILES IDX 13 30
REMARK H PARENT 1 10 23 12 21 14 19 16 9 24 17 26 15 28 13 31
REMARK Flexibility Score: inf
ROOT
ATOM      1  O   UNL     1    -476.982 293.678  -3.004  1.00  0.00    -0.313 OA
ENDROOT
BRANCH   1   2
ATOM      2  C   UNL     1    -477.256 293.992  -4.363  1.00  0.00     0.285 C 
ATOM      3  C   UNL     1    -477.128 291.759  -5.100  1.00  0.00     0.178 C 
ATOM      4  C   UNL     1    -475.869 292.032  -5.959  1.00  0.00     0.177 C 
ATOM      5  O   UNL     1    -477.934 292.921  -5.004  1.00  0.00    -0.341 OA
ATOM      6  C   UNL     1    -475.051 293.149  -5.303  1.00  0.00     0.179 C 
ATOM      7  C   UNL     1    -475.949 294.377  -5.096  1.00  0.00     0.202 C 
BRANCH   3   8
ATOM      8  C   UNL     1    -477.973 290.598  -5.659  1.00  0.00     0.191 C 
BRANCH   8   9
ATOM      9  O   UNL     1    -477.368 289.346  -5.461  1.00  0.00    -0.394 OA
ATOM     10  H   UNL     1    -476.624 289.455  -4.810  1.00  0.00     0.210 HD
ENDBRANCH   8   9
ENDBRANCH   3   8
BRANCH   4  11
ATOM     11  O   UNL     1    -475.077 290.884  -6.120  1.00  0.00    -0.387 OA
ATOM     12  H   UNL     1    -474.129 291.173  -6.166  1.00  0.00     0.211 HD
ENDBRANCH   4  11
BRANCH   6  13
ATOM     13  O   UNL     1    -473.958 293.477  -6.125  1.00  0.00    -0.387 OA
ATOM     14  H   UNL     1    -474.303 294.109  -6.813  1.00  0.00     0.211 HD
ENDBRANCH   6  13
BRANCH   7  15
ATOM     15  O   UNL     1    -475.252 295.338  -4.345  1.00  0.00    -0.385 OA
ATOM     16  H   UNL     1    -474.340 294.983  -4.194  1.00  0.00     0.211 HD
ENDBRANCH   7  15
ENDBRANCH   1   2
BRANCH   1  17
ATOM     17  C   UNL     1    -477.129 294.769  -2.093  1.00  0.00     0.224 C 
ATOM     18  C   UNL     1    -478.033 294.350  -0.914  1.00  0.00     0.208 C 
ATOM     19  O   UNL     1    -475.900 295.251  -1.558  1.00  0.00    -0.337 OA
ATOM     20  C   UNL     1    -477.492 295.168   0.232  1.00  0.00     0.180 C 
ATOM     21  C   UNL     1    -476.016 295.296  -0.149  1.00  0.00     0.179 C 
BRANCH  17  22
ATOM     22  C   UNL     1    -477.774 295.935  -2.877  1.00  0.00     0.225 C 
BRANCH  22  23
ATOM     23  O   UNL     1    -477.139 297.149  -2.573  1.00  0.00    -0.391 OA
ATOM     24  H   UNL     1    -477.659 297.581  -1.836  1.00  0.00     0.210 HD
ENDBRANCH  22  23
ENDBRANCH  17  22
BRANCH  18  25
ATOM     25  O   UNL     1    -477.944 292.964  -0.669  1.00  0.00    -0.385 OA
ATOM     26  H   UNL     1    -477.020 292.753  -0.368  1.00  0.00     0.211 HD
ENDBRANCH  18  25
BRANCH  20  27
ATOM     27  O   UNL     1    -478.120 296.429   0.241  1.00  0.00    -0.387 OA
ATOM     28  H   UNL     1    -478.461 296.584   1.158  1.00  0.00     0.211 HD
ENDBRANCH  20  27
BRANCH  21  29
ATOM     29  C   UNL     1    -475.297 296.548   0.393  1.00  0.00     0.191 C 
BRANCH  29  30
ATOM     30  O   UNL     1    -473.911 296.343   0.557  1.00  0.00    -0.394 OA
ATOM     31  H   UNL     1    -473.794 295.454   0.982  1.00  0.00     0.210 HD
ENDBRANCH  29  30
ENDBRANCH  21  29
ENDBRANCH   1  17
TORSDOF 13
ENDMDL
MODEL 6
REMARK VINA RESULT:    -0.688      8.337     11.242
REMARK INTER + INTRA:          -1.902
REMARK INTER:                  -0.956
REMARK INTRA:                  -0.945
REMARK UNBOUND:                -0.852
REMARK SMILES OC[C@@H]1O[C@@H](O[C@]2(CO)O[C@@H](CO)[C@@H](O)[C@@H]2O)[C@@H](O)[C@H](O)[C@H]1O
REMARK SMILES IDX 6 1 5 2 3 3 22 4 4 5 20 6 18 7 2 8 1 9 23 11 21 13 19 15
REMARK SMILES IDX 7 17 16 18 10 19 14 20 11 21 8 22 9 23 17 25 15 27 12 29
REMARK SMILES IDX 13 30
REMARK H PARENT 1 10 23 12 21 14 19 16 9 24 17 26 15 28 13 31
REMARK Flexibility Score: inf
ROOT
ATOM      1  O   UNL     1    -476.804 292.748  -2.235  1.00  0.00    -0.313 OA
ENDROOT
BRANCH   1   2
ATOM      2  C   UNL     1    -477.948 293.246  -1.554  1.00  0.00     0.285 C 
ATOM      3  C   UNL     1    -477.067 295.412  -1.272  1.00  0.00     0.178 C 
ATOM      4  C   UNL     1    -477.004 295.271   0.268  1.00  0.00     0.177 C 
ATOM      5  O   UNL     1    -478.124 294.632  -1.806  1.00  0.00    -0.341 OA
ATOM      6  C   UNL     1    -476.763 293.801   0.625  1.00  0.00     0.179 C 
ATOM      7  C   UNL     1    -477.844 292.937  -0.041  1.00  0.00     0.202 C 
BRANCH   3   8
ATOM      8  C   UNL     1    -477.241 296.878  -1.716  1.00  0.00     0.191 C 
BRANCH   8   9
ATOM      9  O   UNL     1    -476.954 297.067  -3.077  1.00  0.00    -0.394 OA
ATOM     10  H   UNL     1    -477.170 298.008  -3.317  1.00  0.00     0.210 HD
ENDBRANCH   8   9
ENDBRANCH   3   8
BRANCH   4  11
ATOM     11  O   UNL     1    -476.002 296.076   0.835  1.00  0.00    -0.387 OA
ATOM     12  H   UNL     1    -475.589 296.606   0.105  1.00  0.00     0.211 HD
ENDBRANCH   4  11
BRANCH   6  13
ATOM     13  O   UNL     1    -476.804 293.642   2.021  1.00  0.00    -0.387 OA
ATOM     14  H   UNL     1    -477.730 293.355   2.245  1.00  0.00     0.211 HD
ENDBRANCH   6  13
BRANCH   7  15
ATOM     15  O   UNL     1    -477.529 291.580   0.143  1.00  0.00    -0.385 OA
ATOM     16  H   UNL     1    -478.281 291.055  -0.228  1.00  0.00     0.211 HD
ENDBRANCH   7  15
ENDBRANCH   1   2
BRANCH   1  17
ATOM     17  C   UNL     1    -477.090 291.955  -3.390  1.00  0.00     0.224 C 
ATOM     18  C   UNL     1    -477.684 292.844  -4.503  1.00  0.00     0.208 C 
ATOM     19  O   UNL     1    -475.958 291.275  -3.923  1.00  0.00    -0.337 OA
ATOM     20  C   UNL     1    -477.209 292.167  -5.765  1.00  0.00     0.180 C 
ATOM     21  C   UNL     1    -475.881 291.559  -5.307  1.00  0.00     0.179 C 
BRANCH  17  22
ATOM     22  C   UNL     1    -478.111 290.876  -2.962  1.00  0.00     0.225 C 
BRANCH  22  23
ATOM     23  O   UNL     1    -477.905 289.686  -3.676  1.00  0.00    -0.391 OA
ATOM     24  H   UNL     1    -478.698 289.099  -3.514  1.00  0.00     0.210 HD
ENDBRANCH  22  23
ENDBRANCH  17  22
BRANCH  18  25
ATOM     25  O   UNL     1    -477.216 294.171  -4.402  1.00  0.00    -0.385 OA
ATOM     26  H   UNL     1    -476.238 294.152  -4.227  1.00  0.00     0.211 HD
ENDBRANCH  18  25
BRANCH  20  27
ATOM     27  O   UNL     1    -478.125 291.159  -6.125  1.00  0.00    -0.387 OA
ATOM     28  H   UNL     1    -478.286 290.604  -5.319  1.00  0.00     0.211 HD
ENDBRANCH  20  27
BRANCH  21  29
ATOM     29  C   UNL     1    -475.430 290.299  -6.074  1.00  0.00     0.191 C 
BRANCH  29  30
ATOM     30  O   UNL     1    -476.385 289.262  -6.008  1.00  0.00    -0.394 OA
ATOM     31  H   UNL     1    -475.888 288.412  -5.878  1.00  0.00     0.210 HD
ENDBRANCH  29  30
ENDBRANCH  21  29
ENDBRANCH   1  17
TORSDOF 13
ENDMDL
