MODEL 1
REMARK VINA RESULT:    -2.267      0.000      0.000
REMARK INTER + INTRA:          -2.267
REMARK INTER:                  -2.267
REMARK INTRA:                   0.000
REMARK UNBOUND:                 0.000
REMARK SMILES CC(=O)[O-]
REMARK SMILES IDX 1 1 2 2 3 3 4 4
REMARK H PARENT
REMARK Flexibility Score: inf
ROOT
ATOM      1  C   UNL     1     148.020 140.953 133.046  1.00  0.00     0.063 C 
ATOM      2  C   UNL     1     146.809 140.160 133.402  1.00  0.00     0.038 C 
ATOM      3  O   UNL     1     145.673 140.704 133.395  1.00  0.00    -0.550 OA
ATOM      4  O   UNL     1     146.935 138.835 133.795  1.00  0.00    -0.550 OA
ENDROOT
TORSDOF 0
ENDMDL
MODEL 2
REMARK VINA RESULT:    -2.217      2.636      2.814
REMARK INTER + INTRA:          -2.217
REMARK INTER:                  -2.217
REMARK INTRA:                   0.000
REMARK UNBOUND:                 0.000
REMARK SMILES CC(=O)[O-]
REMARK SMILES IDX 1 1 2 2 3 3 4 4
REMARK H PARENT
REMARK Flexibility Score: inf
ROOT
ATOM      1  C   UNL     1     147.665 140.376 132.835  1.00  0.00     0.063 C 
ATOM      2  C   UNL     1     147.664 141.398 131.750  1.00  0.00     0.038 C 
ATOM      3  O   UNL     1     147.726 142.623 132.036  1.00  0.00    -0.550 OA
ATOM      4  O   UNL     1     147.541 141.006 130.424  1.00  0.00    -0.550 OA
ENDROOT
TORSDOF 0
ENDMDL
MODEL 3
REMARK VINA RESULT:    -2.150      2.601      2.822
REMARK INTER + INTRA:          -2.150
REMARK INTER:                  -2.150
REMARK INTRA:                   0.000
REMARK UNBOUND:                 0.000
REMARK SMILES CC(=O)[O-]
REMARK SMILES IDX 1 1 2 2 3 3 4 4
REMARK H PARENT
REMARK Flexibility Score: inf
ROOT
ATOM      1  C   UNL     1     148.011 143.170 131.581  1.00  0.00     0.063 C 
ATOM      2  C   UNL     1     147.808 141.692 131.581  1.00  0.00     0.038 C 
ATOM      3  O   UNL     1     147.419 141.109 130.535  1.00  0.00    -0.550 OA
ATOM      4  O   UNL     1     147.996 140.964 132.748  1.00  0.00    -0.550 OA
ENDROOT
TORSDOF 0
ENDMDL
MODEL 4
REMARK VINA RESULT:    -1.781      6.996      7.020
REMARK INTER + INTRA:          -1.781
REMARK INTER:                  -1.781
REMARK INTRA:                   0.000
REMARK UNBOUND:                 0.000
REMARK SMILES CC(=O)[O-]
REMARK SMILES IDX 1 1 2 2 3 3 4 4
REMARK H PARENT
REMARK Flexibility Score: inf
ROOT
ATOM      1  C   UNL     1     147.664 139.574 127.763  1.00  0.00     0.063 C 
ATOM      2  C   UNL     1     146.988 138.817 126.670  1.00  0.00     0.038 C 
ATOM      3  O   UNL     1     145.998 138.083 126.928  1.00  0.00    -0.550 OA
ATOM      4  O   UNL     1     147.480 138.879 125.373  1.00  0.00    -0.550 OA
ENDROOT
TORSDOF 0
ENDMDL
MODEL 5
REMARK VINA RESULT:    -1.776      6.826      6.855
REMARK INTER + INTRA:          -1.776
REMARK INTER:                  -1.776
REMARK INTRA:                   0.000
REMARK UNBOUND:                 0.000
REMARK SMILES CC(=O)[O-]
REMARK SMILES IDX 1 1 2 2 3 3 4 4
REMARK H PARENT
REMARK Flexibility Score: inf
ROOT
ATOM      1  C   UNL     1     147.763 139.633 127.993  1.00  0.00     0.063 C 
ATOM      2  C   UNL     1     147.198 138.978 126.778  1.00  0.00     0.038 C 
ATOM      3  O   UNL     1     147.684 139.226 125.643  1.00  0.00    -0.550 OA
ATOM      4  O   UNL     1     146.101 138.134 126.889  1.00  0.00    -0.550 OA
ENDROOT
TORSDOF 0
ENDMDL
MODEL 6
REMARK VINA RESULT:    -1.707      6.839      6.912
REMARK INTER + INTRA:          -1.707
REMARK INTER:                  -1.707
REMARK INTRA:                   0.000
REMARK UNBOUND:                 0.000
REMARK SMILES CC(=O)[O-]
REMARK SMILES IDX 1 1 2 2 3 3 4 4
REMARK H PARENT
REMARK Flexibility Score: inf
ROOT
ATOM      1  C   UNL     1     145.850 138.054 126.663  1.00  0.00     0.063 C 
ATOM      2  C   UNL     1     146.963 139.009 126.933  1.00  0.00     0.038 C 
ATOM      3  O   UNL     1     146.981 139.673 128.003  1.00  0.00    -0.550 OA
ATOM      4  O   UNL     1     147.955 139.209 125.982  1.00  0.00    -0.550 OA
ENDROOT
TORSDOF 0
ENDMDL
MODEL 7
REMARK VINA RESULT:    -1.664      5.814      5.914
REMARK INTER + INTRA:          -1.664
REMARK INTER:                  -1.664
REMARK INTRA:                   0.000
REMARK UNBOUND:                 0.000
REMARK SMILES CC(=O)[O-]
REMARK SMILES IDX 1 1 2 2 3 3 4 4
REMARK H PARENT
REMARK Flexibility Score: inf
ROOT
ATOM      1  C   UNL     1     147.027 139.020 127.051  1.00  0.00     0.063 C 
ATOM      2  C   UNL     1     147.610 140.160 127.815  1.00  0.00     0.038 C 
ATOM      3  O   UNL     1     148.015 141.185 127.208  1.00  0.00    -0.550 OA
ATOM      4  O   UNL     1     147.756 140.072 129.193  1.00  0.00    -0.550 OA
ENDROOT
TORSDOF 0
ENDMDL
MODEL 8
REMARK VINA RESULT:    -1.653     23.423     23.664
REMARK INTER + INTRA:          -1.653
REMARK INTER:                  -1.653
REMARK INTRA:                   0.000
REMARK UNBOUND:                 0.000
REMARK SMILES CC(=O)[O-]
REMARK SMILES IDX 1 1 2 2 3 3 4 4
REMARK H PARENT
REMARK Flexibility Score: inf
ROOT
ATOM      1  C   UNL     1     138.702 127.717 116.991  1.00  0.00     0.063 C 
ATOM      2  C   UNL     1     138.138 126.873 115.899  1.00  0.00     0.038 C 
ATOM      3  O   UNL     1     138.840 126.588 114.894  1.00  0.00    -0.550 OA
ATOM      4  O   UNL     1     136.819 126.444 115.962  1.00  0.00    -0.550 OA
ENDROOT
TORSDOF 0
ENDMDL
MODEL 9
REMARK VINA RESULT:    -1.602      9.381      9.869
REMARK INTER + INTRA:          -1.602
REMARK INTER:                  -1.602
REMARK INTRA:                   0.000
REMARK UNBOUND:                 0.000
REMARK SMILES CC(=O)[O-]
REMARK SMILES IDX 1 1 2 2 3 3 4 4
REMARK H PARENT
REMARK Flexibility Score: inf
ROOT
ATOM      1  C   UNL     1     141.058 132.799 133.201  1.00  0.00     0.063 C 
ATOM      2  C   UNL     1     141.699 132.090 132.057  1.00  0.00     0.038 C 
ATOM      3  O   UNL     1     142.954 132.045 131.965  1.00  0.00    -0.550 OA
ATOM      4  O   UNL     1     140.914 131.523 131.061  1.00  0.00    -0.550 OA
ENDROOT
TORSDOF 0
ENDMDL
