MODEL 1
REMARK VINA RESULT:    -3.201      0.000      0.000
REMARK INTER + INTRA:          -8.920
REMARK INTER:                  -6.194
REMARK INTRA:                  -2.725
REMARK UNBOUND:                -2.725
REMARK SMILES CCCCCCCCCCCCCCCCCC(=O)[O-]
REMARK SMILES IDX 10 1 11 2 12 3 13 4 14 5 15 6 16 7 17 8 18 9 19 10 20 11
REMARK SMILES IDX 9 12 8 13 7 14 6 15 5 16 4 17 3 18 2 19 1 20
REMARK H PARENT
REMARK Flexibility Score: inf
ROOT
ATOM      1  C   UNL     1      58.002  28.782  52.373  1.00  0.00     0.000 C 
ENDROOT
BRANCH   1   2
ATOM      2  C   UNL     1      58.792  29.489  51.262  1.00  0.00     0.000 C 
BRANCH   2   3
ATOM      3  C   UNL     1      58.410  29.006  49.850  1.00  0.00     0.000 C 
BRANCH   3   4
ATOM      4  C   UNL     1      59.541  28.316  49.067  1.00  0.00     0.000 C 
BRANCH   4   5
ATOM      5  C   UNL     1      60.881  28.318  49.822  1.00  0.00     0.000 C 
BRANCH   5   6
ATOM      6  C   UNL     1      61.616  26.971  49.724  1.00  0.00     0.000 C 
BRANCH   6   7
ATOM      7  C   UNL     1      60.666  25.767  49.845  1.00  0.00     0.006 C 
BRANCH   7   8
ATOM      8  C   UNL     1      61.422  24.458  50.107  1.00  0.00     0.053 C 
BRANCH   8   9
ATOM      9  C   UNL     1      60.540  23.420  50.731  1.00  0.00     0.041 C 
ATOM     10  O   UNL     1      59.889  23.686  51.775  1.00  0.00    -0.550 OA
ATOM     11  O   UNL     1      60.414  22.169  50.141  1.00  0.00    -0.550 OA
ENDBRANCH   8   9
ENDBRANCH   7   8
ENDBRANCH   6   7
ENDBRANCH   5   6
ENDBRANCH   4   5
ENDBRANCH   3   4
ENDBRANCH   2   3
ENDBRANCH   1   2
BRANCH   1  12
ATOM     12  C   UNL     1      58.351  27.287  52.425  1.00  0.00     0.000 C 
BRANCH  12  13
ATOM     13  C   UNL     1      57.133  26.383  52.176  1.00  0.00    -0.000 C 
BRANCH  13  14
ATOM     14  C   UNL     1      57.177  25.698  50.799  1.00  0.00    -0.000 C 
BRANCH  14  15
ATOM     15  C   UNL     1      56.061  26.189  49.862  1.00  0.00    -0.000 C 
BRANCH  15  16
ATOM     16  C   UNL     1      54.823  26.692  50.624  1.00  0.00    -0.000 C 
BRANCH  16  17
ATOM     17  C   UNL     1      54.199  27.945  49.983  1.00  0.00    -0.000 C 
BRANCH  17  18
ATOM     18  C   UNL     1      54.728  29.286  50.529  1.00  0.00    -0.000 C 
BRANCH  18  19
ATOM     19  C   UNL     1      54.413  29.556  52.011  1.00  0.00    -0.003 C 
ATOM     20  C   UNL     1      53.911  30.978  52.263  1.00  0.00     0.004 C 
ENDBRANCH  18  19
ENDBRANCH  17  18
ENDBRANCH  16  17
ENDBRANCH  15  16
ENDBRANCH  14  15
ENDBRANCH  13  14
ENDBRANCH  12  13
ENDBRANCH   1  12
TORSDOF 16
ENDMDL
MODEL 2
REMARK VINA RESULT:    -3.163      3.173      6.999
REMARK INTER + INTRA:          -8.846
REMARK INTER:                  -6.120
REMARK INTRA:                  -2.726
REMARK UNBOUND:                -2.725
REMARK SMILES CCCCCCCCCCCCCCCCCC(=O)[O-]
REMARK SMILES IDX 10 1 11 2 12 3 13 4 14 5 15 6 16 7 17 8 18 9 19 10 20 11
REMARK SMILES IDX 9 12 8 13 7 14 6 15 5 16 4 17 3 18 2 19 1 20
REMARK H PARENT
REMARK Flexibility Score: inf
ROOT
ATOM      1  C   UNL     1      54.278  25.516  49.636  1.00  0.00     0.000 C 
ENDROOT
BRANCH   1   2
ATOM      2  C   UNL     1      53.057  26.433  49.800  1.00  0.00     0.000 C 
BRANCH   2   3
ATOM      3  C   UNL     1      53.419  27.930  49.770  1.00  0.00     0.000 C 
BRANCH   3   4
ATOM      4  C   UNL     1      52.875  28.758  50.948  1.00  0.00     0.000 C 
BRANCH   4   5
ATOM      5  C   UNL     1      53.359  28.245  52.315  1.00  0.00     0.000 C 
BRANCH   5   6
ATOM      6  C   UNL     1      54.017  29.348  53.161  1.00  0.00     0.000 C 
BRANCH   6   7
ATOM      7  C   UNL     1      54.258  30.642  52.363  1.00  0.00     0.006 C 
BRANCH   7   8
ATOM      8  C   UNL     1      54.620  31.822  53.274  1.00  0.00     0.053 C 
BRANCH   8   9
ATOM      9  C   UNL     1      55.934  31.612  53.963  1.00  0.00     0.041 C 
ATOM     10  O   UNL     1      56.030  31.778  55.207  1.00  0.00    -0.550 OA
ATOM     11  O   UNL     1      57.043  31.202  53.235  1.00  0.00    -0.550 OA
ENDBRANCH   8   9
ENDBRANCH   7   8
ENDBRANCH   6   7
ENDBRANCH   5   6
ENDBRANCH   4   5
ENDBRANCH   3   4
ENDBRANCH   2   3
ENDBRANCH   1   2
BRANCH   1  12
ATOM     12  C   UNL     1      55.583  26.320  49.736  1.00  0.00     0.000 C 
BRANCH  12  13
ATOM     13  C   UNL     1      56.364  26.026  51.028  1.00  0.00    -0.000 C 
BRANCH  13  14
ATOM     14  C   UNL     1      56.839  27.307  51.735  1.00  0.00    -0.000 C 
BRANCH  14  15
ATOM     15  C   UNL     1      56.918  28.511  50.783  1.00  0.00    -0.000 C 
BRANCH  15  16
ATOM     16  C   UNL     1      58.336  29.098  50.682  1.00  0.00    -0.000 C 
BRANCH  16  17
ATOM     17  C   UNL     1      58.980  28.865  49.303  1.00  0.00    -0.000 C 
BRANCH  17  18
ATOM     18  C   UNL     1      60.101  27.807  49.278  1.00  0.00    -0.000 C 
BRANCH  18  19
ATOM     19  C   UNL     1      59.628  26.354  49.463  1.00  0.00    -0.003 C 
ATOM     20  C   UNL     1      60.145  25.720  50.754  1.00  0.00     0.004 C 
ENDBRANCH  18  19
ENDBRANCH  17  18
ENDBRANCH  16  17
ENDBRANCH  15  16
ENDBRANCH  14  15
ENDBRANCH  13  14
ENDBRANCH  12  13
ENDBRANCH   1  12
TORSDOF 16
ENDMDL
MODEL 3
REMARK VINA RESULT:    -3.141      3.041      6.836
REMARK INTER + INTRA:          -8.804
REMARK INTER:                  -6.231
REMARK INTRA:                  -2.573
REMARK UNBOUND:                -2.725
REMARK SMILES CCCCCCCCCCCCCCCCCC(=O)[O-]
REMARK SMILES IDX 10 1 11 2 12 3 13 4 14 5 15 6 16 7 17 8 18 9 19 10 20 11
REMARK SMILES IDX 9 12 8 13 7 14 6 15 5 16 4 17 3 18 2 19 1 20
REMARK H PARENT
REMARK Flexibility Score: inf
ROOT
ATOM      1  C   UNL     1      59.455  28.684  51.838  1.00  0.00     0.000 C 
ENDROOT
BRANCH   1   2
ATOM      2  C   UNL     1      58.492  28.054  52.855  1.00  0.00     0.000 C 
BRANCH   2   3
ATOM      3  C   UNL     1      57.033  28.025  52.364  1.00  0.00     0.000 C 
BRANCH   3   4
ATOM      4  C   UNL     1      56.353  26.645  52.411  1.00  0.00     0.000 C 
BRANCH   4   5
ATOM      5  C   UNL     1      55.802  26.201  51.045  1.00  0.00     0.000 C 
BRANCH   5   6
ATOM      6  C   UNL     1      55.525  27.387  50.107  1.00  0.00     0.000 C 
BRANCH   6   7
ATOM      7  C   UNL     1      54.021  27.651  49.915  1.00  0.00     0.006 C 
BRANCH   7   8
ATOM      8  C   UNL     1      53.639  29.097  50.257  1.00  0.00     0.053 C 
BRANCH   8   9
ATOM      9  C   UNL     1      53.621  29.334  51.737  1.00  0.00     0.041 C 
ATOM     10  O   UNL     1      53.962  30.452  52.204  1.00  0.00    -0.550 OA
ATOM     11  O   UNL     1      53.199  28.327  52.596  1.00  0.00    -0.550 OA
ENDBRANCH   8   9
ENDBRANCH   7   8
ENDBRANCH   6   7
ENDBRANCH   5   6
ENDBRANCH   4   5
ENDBRANCH   3   4
ENDBRANCH   2   3
ENDBRANCH   1   2
BRANCH   1  12
ATOM     12  C   UNL     1      58.684  29.290  50.656  1.00  0.00     0.000 C 
BRANCH  12  13
ATOM     13  C   UNL     1      59.192  28.788  49.295  1.00  0.00    -0.000 C 
BRANCH  13  14
ATOM     14  C   UNL     1      59.923  27.438  49.398  1.00  0.00    -0.000 C 
BRANCH  14  15
ATOM     15  C   UNL     1      58.955  26.244  49.411  1.00  0.00    -0.000 C 
BRANCH  15  16
ATOM     16  C   UNL     1      59.402  25.128  50.371  1.00  0.00    -0.000 C 
BRANCH  16  17
ATOM     17  C   UNL     1      60.877  25.260  50.792  1.00  0.00    -0.000 C 
BRANCH  17  18
ATOM     18  C   UNL     1      61.811  24.165  50.238  1.00  0.00    -0.000 C 
BRANCH  18  19
ATOM     19  C   UNL     1      61.324  22.722  50.457  1.00  0.00    -0.003 C 
ATOM     20  C   UNL     1      60.893  22.037  49.161  1.00  0.00     0.004 C 
ENDBRANCH  18  19
ENDBRANCH  17  18
ENDBRANCH  16  17
ENDBRANCH  15  16
ENDBRANCH  14  15
ENDBRANCH  13  14
ENDBRANCH  12  13
ENDBRANCH   1  12
TORSDOF 16
ENDMDL
MODEL 4
REMARK VINA RESULT:    -3.099      3.579      4.777
REMARK INTER + INTRA:          -8.724
REMARK INTER:                  -6.499
REMARK INTRA:                  -2.225
REMARK UNBOUND:                -2.725
REMARK SMILES CCCCCCCCCCCCCCCCCC(=O)[O-]
REMARK SMILES IDX 10 1 11 2 12 3 13 4 14 5 15 6 16 7 17 8 18 9 19 10 20 11
REMARK SMILES IDX 9 12 8 13 7 14 6 15 5 16 4 17 3 18 2 19 1 20
REMARK H PARENT
REMARK Flexibility Score: inf
ROOT
ATOM      1  C   UNL     1      58.271  29.081  49.982  1.00  0.00     0.000 C 
ENDROOT
BRANCH   1   2
ATOM      2  C   UNL     1      59.384  28.484  49.109  1.00  0.00     0.000 C 
BRANCH   2   3
ATOM      3  C   UNL     1      59.663  27.002  49.420  1.00  0.00     0.000 C 
BRANCH   3   4
ATOM      4  C   UNL     1      61.051  26.709  50.017  1.00  0.00     0.000 C 
BRANCH   4   5
ATOM      5  C   UNL     1      62.159  27.593  49.420  1.00  0.00     0.000 C 
BRANCH   5   6
ATOM      6  C   UNL     1      63.208  28.011  50.463  1.00  0.00     0.000 C 
BRANCH   6   7
ATOM      7  C   UNL     1      63.663  29.471  50.292  1.00  0.00     0.006 C 
BRANCH   7   8
ATOM      8  C   UNL     1      62.562  30.353  49.689  1.00  0.00     0.053 C 
BRANCH   8   9
ATOM      9  C   UNL     1      63.089  31.690  49.262  1.00  0.00     0.041 C 
ATOM     10  O   UNL     1      64.311  31.834  48.996  1.00  0.00    -0.550 OA
ATOM     11  O   UNL     1      62.223  32.768  49.130  1.00  0.00    -0.550 OA
ENDBRANCH   8   9
ENDBRANCH   7   8
ENDBRANCH   6   7
ENDBRANCH   5   6
ENDBRANCH   4   5
ENDBRANCH   3   4
ENDBRANCH   2   3
ENDBRANCH   1   2
BRANCH   1  12
ATOM     12  C   UNL     1      58.737  29.230  51.438  1.00  0.00     0.000 C 
BRANCH  12  13
ATOM     13  C   UNL     1      57.712  28.691  52.449  1.00  0.00    -0.000 C 
BRANCH  13  14
ATOM     14  C   UNL     1      57.785  27.162  52.607  1.00  0.00    -0.000 C 
BRANCH  14  15
ATOM     15  C   UNL     1      56.495  26.461  52.152  1.00  0.00    -0.000 C 
BRANCH  15  16
ATOM     16  C   UNL     1      56.657  25.737  50.804  1.00  0.00    -0.000 C 
BRANCH  16  17
ATOM     17  C   UNL     1      55.704  26.276  49.721  1.00  0.00    -0.000 C 
BRANCH  17  18
ATOM     18  C   UNL     1      54.850  27.486  50.149  1.00  0.00    -0.000 C 
BRANCH  18  19
ATOM     19  C   UNL     1      53.378  27.433  49.705  1.00  0.00    -0.003 C 
ATOM     20  C   UNL     1      52.952  26.047  49.222  1.00  0.00     0.004 C 
ENDBRANCH  18  19
ENDBRANCH  17  18
ENDBRANCH  16  17
ENDBRANCH  15  16
ENDBRANCH  14  15
ENDBRANCH  13  14
ENDBRANCH  12  13
ENDBRANCH   1  12
TORSDOF 16
ENDMDL
MODEL 5
REMARK VINA RESULT:    -3.091      1.492      3.382
REMARK INTER + INTRA:          -8.708
REMARK INTER:                  -6.190
REMARK INTRA:                  -2.519
REMARK UNBOUND:                -2.725
REMARK SMILES CCCCCCCCCCCCCCCCCC(=O)[O-]
REMARK SMILES IDX 10 1 11 2 12 3 13 4 14 5 15 6 16 7 17 8 18 9 19 10 20 11
REMARK SMILES IDX 9 12 8 13 7 14 6 15 5 16 4 17 3 18 2 19 1 20
REMARK H PARENT
REMARK Flexibility Score: inf
ROOT
ATOM      1  C   UNL     1      55.742  25.883  50.611  1.00  0.00     0.000 C 
ENDROOT
BRANCH   1   2
ATOM      2  C   UNL     1      57.162  26.299  50.202  1.00  0.00     0.000 C 
BRANCH   2   3
ATOM      3  C   UNL     1      57.662  27.549  50.948  1.00  0.00     0.000 C 
BRANCH   3   4
ATOM      4  C   UNL     1      57.746  28.830  50.097  1.00  0.00     0.000 C 
BRANCH   4   5
ATOM      5  C   UNL     1      59.053  28.930  49.292  1.00  0.00     0.000 C 
BRANCH   5   6
ATOM      6  C   UNL     1      60.302  28.870  50.186  1.00  0.00     0.000 C 
BRANCH   6   7
ATOM      7  C   UNL     1      61.353  27.872  49.668  1.00  0.00     0.006 C 
BRANCH   7   8
ATOM      8  C   UNL     1      60.786  26.452  49.538  1.00  0.00     0.053 C 
BRANCH   8   9
ATOM      9  C   UNL     1      61.259  25.560  50.645  1.00  0.00     0.041 C 
ATOM     10  O   UNL     1      60.906  25.782  51.833  1.00  0.00    -0.550 OA
ATOM     11  O   UNL     1      62.065  24.465  50.359  1.00  0.00    -0.550 OA
ENDBRANCH   8   9
ENDBRANCH   7   8
ENDBRANCH   6   7
ENDBRANCH   5   6
ENDBRANCH   4   5
ENDBRANCH   3   4
ENDBRANCH   2   3
ENDBRANCH   1   2
BRANCH   1  12
ATOM     12  C   UNL     1      54.757  26.082  49.450  1.00  0.00     0.000 C 
BRANCH  12  13
ATOM     13  C   UNL     1      53.549  26.952  49.838  1.00  0.00    -0.000 C 
BRANCH  13  14
ATOM     14  C   UNL     1      53.927  28.429  50.047  1.00  0.00    -0.000 C 
BRANCH  14  15
ATOM     15  C   UNL     1      53.677  28.902  51.488  1.00  0.00    -0.000 C 
BRANCH  15  16
ATOM     16  C   UNL     1      54.836  29.746  52.045  1.00  0.00    -0.000 C 
BRANCH  16  17
ATOM     17  C   UNL     1      55.343  29.236  53.407  1.00  0.00    -0.000 C 
BRANCH  17  18
ATOM     18  C   UNL     1      56.796  29.623  53.747  1.00  0.00    -0.000 C 
BRANCH  18  19
ATOM     19  C   UNL     1      57.230  31.015  53.256  1.00  0.00    -0.003 C 
ATOM     20  C   UNL     1      58.713  31.083  52.894  1.00  0.00     0.004 C 
ENDBRANCH  18  19
ENDBRANCH  17  18
ENDBRANCH  16  17
ENDBRANCH  15  16
ENDBRANCH  14  15
ENDBRANCH  13  14
ENDBRANCH  12  13
ENDBRANCH   1  12
TORSDOF 16
ENDMDL
MODEL 6
REMARK VINA RESULT:    -3.072     10.528     12.564
REMARK INTER + INTRA:          -8.670
REMARK INTER:                  -5.968
REMARK INTRA:                  -2.702
REMARK UNBOUND:                -2.725
REMARK SMILES CCCCCCCCCCCCCCCCCC(=O)[O-]
REMARK SMILES IDX 10 1 11 2 12 3 13 4 14 5 15 6 16 7 17 8 18 9 19 10 20 11
REMARK SMILES IDX 9 12 8 13 7 14 6 15 5 16 4 17 3 18 2 19 1 20
REMARK H PARENT
REMARK Flexibility Score: inf
ROOT
ATOM      1  C   UNL     1      61.947  31.869  58.354  1.00  0.00     0.000 C 
ENDROOT
BRANCH   1   2
ATOM      2  C   UNL     1      60.778  31.979  59.344  1.00  0.00     0.000 C 
BRANCH   2   3
ATOM      3  C   UNL     1      61.236  32.263  60.786  1.00  0.00     0.000 C 
BRANCH   3   4
ATOM      4  C   UNL     1      61.032  31.104  61.779  1.00  0.00     0.000 C 
BRANCH   4   5
ATOM      5  C   UNL     1      60.930  29.734  61.086  1.00  0.00     0.000 C 
BRANCH   5   6
ATOM      6  C   UNL     1      62.044  28.768  61.521  1.00  0.00     0.000 C 
BRANCH   6   7
ATOM      7  C   UNL     1      63.266  28.814  60.587  1.00  0.00     0.006 C 
BRANCH   7   8
ATOM      8  C   UNL     1      64.424  29.620  61.191  1.00  0.00     0.053 C 
BRANCH   8   9
ATOM      9  C   UNL     1      65.752  29.170  60.661  1.00  0.00     0.041 C 
ATOM     10  O   UNL     1      66.481  29.969  60.017  1.00  0.00    -0.550 OA
ATOM     11  O   UNL     1      66.196  27.877  60.907  1.00  0.00    -0.550 OA
ENDBRANCH   8   9
ENDBRANCH   7   8
ENDBRANCH   6   7
ENDBRANCH   5   6
ENDBRANCH   4   5
ENDBRANCH   3   4
ENDBRANCH   2   3
ENDBRANCH   1   2
BRANCH   1  12
ATOM     12  C   UNL     1      63.275  32.231  59.033  1.00  0.00     0.000 C 
BRANCH  12  13
ATOM     13  C   UNL     1      64.080  33.279  58.247  1.00  0.00    -0.000 C 
BRANCH  13  14
ATOM     14  C   UNL     1      63.180  34.321  57.560  1.00  0.00    -0.000 C 
BRANCH  14  15
ATOM     15  C   UNL     1      63.730  35.751  57.689  1.00  0.00    -0.000 C 
BRANCH  15  16
ATOM     16  C   UNL     1      62.846  36.650  58.570  1.00  0.00    -0.000 C 
BRANCH  16  17
ATOM     17  C   UNL     1      61.819  35.851  59.394  1.00  0.00    -0.000 C 
BRANCH  17  18
ATOM     18  C   UNL     1      62.149  35.720  60.894  1.00  0.00    -0.000 C 
BRANCH  18  19
ATOM     19  C   UNL     1      63.589  36.102  61.279  1.00  0.00    -0.003 C 
ATOM     20  C   UNL     1      64.486  34.886  61.507  1.00  0.00     0.004 C 
ENDBRANCH  18  19
ENDBRANCH  17  18
ENDBRANCH  16  17
ENDBRANCH  15  16
ENDBRANCH  14  15
ENDBRANCH  13  14
ENDBRANCH  12  13
ENDBRANCH   1  12
TORSDOF 16
ENDMDL
MODEL 7
REMARK VINA RESULT:    -3.033     10.881     13.241
REMARK INTER + INTRA:          -8.596
REMARK INTER:                  -5.963
REMARK INTRA:                  -2.633
REMARK UNBOUND:                -2.725
REMARK SMILES CCCCCCCCCCCCCCCCCC(=O)[O-]
REMARK SMILES IDX 10 1 11 2 12 3 13 4 14 5 15 6 16 7 17 8 18 9 19 10 20 11
REMARK SMILES IDX 9 12 8 13 7 14 6 15 5 16 4 17 3 18 2 19 1 20
REMARK H PARENT
REMARK Flexibility Score: inf
ROOT
ATOM      1  C   UNL     1      62.968  32.884  59.374  1.00  0.00     0.000 C 
ENDROOT
BRANCH   1   2
ATOM      2  C   UNL     1      64.259  32.757  60.197  1.00  0.00     0.000 C 
BRANCH   2   3
ATOM      3  C   UNL     1      64.230  31.576  61.184  1.00  0.00     0.000 C 
BRANCH   3   4
ATOM      4  C   UNL     1      64.318  30.181  60.538  1.00  0.00     0.000 C 
BRANCH   4   5
ATOM      5  C   UNL     1      63.096  29.299  60.848  1.00  0.00     0.000 C 
BRANCH   5   6
ATOM      6  C   UNL     1      62.143  29.947  61.865  1.00  0.00     0.000 C 
BRANCH   6   7
ATOM      7  C   UNL     1      60.789  30.334  61.244  1.00  0.00     0.006 C 
BRANCH   7   8
ATOM      8  C   UNL     1      60.397  29.405  60.087  1.00  0.00     0.053 C 
BRANCH   8   9
ATOM      9  C   UNL     1      59.356  28.410  60.499  1.00  0.00     0.041 C 
ATOM     10  O   UNL     1      59.646  27.486  61.304  1.00  0.00    -0.550 OA
ATOM     11  O   UNL     1      58.058  28.522  60.017  1.00  0.00    -0.550 OA
ENDBRANCH   8   9
ENDBRANCH   7   8
ENDBRANCH   6   7
ENDBRANCH   5   6
ENDBRANCH   4   5
ENDBRANCH   3   4
ENDBRANCH   2   3
ENDBRANCH   1   2
BRANCH   1  12
ATOM     12  C   UNL     1      61.886  33.632  60.166  1.00  0.00     0.000 C 
BRANCH  12  13
ATOM     13  C   UNL     1      61.820  35.128  59.815  1.00  0.00    -0.000 C 
BRANCH  13  14
ATOM     14  C   UNL     1      61.940  36.031  61.054  1.00  0.00    -0.000 C 
BRANCH  14  15
ATOM     15  C   UNL     1      63.240  36.853  61.060  1.00  0.00    -0.000 C 
BRANCH  15  16
ATOM     16  C   UNL     1      64.381  36.154  61.820  1.00  0.00    -0.000 C 
BRANCH  16  17
ATOM     17  C   UNL     1      65.674  36.053  60.990  1.00  0.00    -0.000 C 
BRANCH  17  18
ATOM     18  C   UNL     1      65.569  36.600  59.552  1.00  0.00    -0.000 C 
BRANCH  18  19
ATOM     19  C   UNL     1      65.671  35.539  58.443  1.00  0.00    -0.003 C 
ATOM     20  C   UNL     1      64.584  35.686  57.378  1.00  0.00     0.004 C 
ENDBRANCH  18  19
ENDBRANCH  17  18
ENDBRANCH  16  17
ENDBRANCH  15  16
ENDBRANCH  14  15
ENDBRANCH  13  14
ENDBRANCH  12  13
ENDBRANCH   1  12
TORSDOF 16
ENDMDL
MODEL 8
REMARK VINA RESULT:    -2.975     10.681     12.607
REMARK INTER + INTRA:          -8.483
REMARK INTER:                  -5.822
REMARK INTRA:                  -2.661
REMARK UNBOUND:                -2.725
REMARK SMILES CCCCCCCCCCCCCCCCCC(=O)[O-]
REMARK SMILES IDX 10 1 11 2 12 3 13 4 14 5 15 6 16 7 17 8 18 9 19 10 20 11
REMARK SMILES IDX 9 12 8 13 7 14 6 15 5 16 4 17 3 18 2 19 1 20
REMARK H PARENT
REMARK Flexibility Score: inf
ROOT
ATOM      1  C   UNL     1      63.940  35.230  61.404  1.00  0.00     0.000 C 
ENDROOT
BRANCH   1   2
ATOM      2  C   UNL     1      65.249  35.984  61.127  1.00  0.00     0.000 C 
BRANCH   2   3
ATOM      3  C   UNL     1      65.316  36.573  59.706  1.00  0.00     0.000 C 
BRANCH   3   4
ATOM      4  C   UNL     1      66.025  35.689  58.664  1.00  0.00     0.000 C 
BRANCH   4   5
ATOM      5  C   UNL     1      65.099  35.265  57.510  1.00  0.00     0.000 C 
BRANCH   5   6
ATOM      6  C   UNL     1      64.175  34.098  57.893  1.00  0.00     0.000 C 
BRANCH   6   7
ATOM      7  C   UNL     1      64.901  33.010  58.705  1.00  0.00     0.006 C 
BRANCH   7   8
ATOM      8  C   UNL     1      65.602  31.986  57.801  1.00  0.00     0.053 C 
BRANCH   8   9
ATOM      9  C   UNL     1      64.620  31.182  57.005  1.00  0.00     0.041 C 
ATOM     10  O   UNL     1      64.686  31.165  55.748  1.00  0.00    -0.550 OA
ATOM     11  O   UNL     1      63.652  30.426  57.654  1.00  0.00    -0.550 OA
ENDBRANCH   8   9
ENDBRANCH   7   8
ENDBRANCH   6   7
ENDBRANCH   5   6
ENDBRANCH   4   5
ENDBRANCH   3   4
ENDBRANCH   2   3
ENDBRANCH   1   2
BRANCH   1  12
ATOM     12  C   UNL     1      62.726  36.068  60.978  1.00  0.00     0.000 C 
BRANCH  12  13
ATOM     13  C   UNL     1      61.533  35.205  60.536  1.00  0.00    -0.000 C 
BRANCH  13  14
ATOM     14  C   UNL     1      61.810  33.698  60.678  1.00  0.00    -0.000 C 
BRANCH  14  15
ATOM     15  C   UNL     1      61.138  32.869  59.571  1.00  0.00    -0.000 C 
BRANCH  15  16
ATOM     16  C   UNL     1      61.078  31.369  59.905  1.00  0.00    -0.000 C 
BRANCH  16  17
ATOM     17  C   UNL     1      61.132  31.094  61.419  1.00  0.00    -0.000 C 
BRANCH  17  18
ATOM     18  C   UNL     1      62.245  30.123  61.865  1.00  0.00    -0.000 C 
BRANCH  18  19
ATOM     19  C   UNL     1      63.668  30.527  61.441  1.00  0.00    -0.003 C 
ATOM     20  C   UNL     1      64.491  29.347  60.923  1.00  0.00     0.004 C 
ENDBRANCH  18  19
ENDBRANCH  17  18
ENDBRANCH  16  17
ENDBRANCH  15  16
ENDBRANCH  14  15
ENDBRANCH  13  14
ENDBRANCH  12  13
ENDBRANCH   1  12
TORSDOF 16
ENDMDL
MODEL 9
REMARK VINA RESULT:    -2.929     10.966     12.601
REMARK INTER + INTRA:          -8.395
REMARK INTER:                  -5.690
REMARK INTRA:                  -2.705
REMARK UNBOUND:                -2.725
REMARK SMILES CCCCCCCCCCCCCCCCCC(=O)[O-]
REMARK SMILES IDX 10 1 11 2 12 3 13 4 14 5 15 6 16 7 17 8 18 9 19 10 20 11
REMARK SMILES IDX 9 12 8 13 7 14 6 15 5 16 4 17 3 18 2 19 1 20
REMARK H PARENT
REMARK Flexibility Score: inf
ROOT
ATOM      1  C   UNL     1      61.757  32.273  61.005  1.00  0.00     0.000 C 
ENDROOT
BRANCH   1   2
ATOM      2  C   UNL     1      60.793  31.162  61.445  1.00  0.00     0.000 C 
BRANCH   2   3
ATOM      3  C   UNL     1      61.221  29.765  60.959  1.00  0.00     0.000 C 
BRANCH   3   4
ATOM      4  C   UNL     1      62.369  29.118  61.756  1.00  0.00     0.000 C 
BRANCH   4   5
ATOM      5  C   UNL     1      63.673  29.008  60.946  1.00  0.00     0.000 C 
BRANCH   5   6
ATOM      6  C   UNL     1      63.454  29.229  59.441  1.00  0.00     0.000 C 
BRANCH   6   7
ATOM      7  C   UNL     1      64.750  29.608  58.704  1.00  0.00     0.006 C 
BRANCH   7   8
ATOM      8  C   UNL     1      65.941  29.745  59.662  1.00  0.00     0.053 C 
BRANCH   8   9
ATOM      9  C   UNL     1      67.209  30.069  58.933  1.00  0.00     0.041 C 
ATOM     10  O   UNL     1      67.169  30.670  57.827  1.00  0.00    -0.550 OA
ATOM     11  O   UNL     1      68.436  29.734  59.490  1.00  0.00    -0.550 OA
ENDBRANCH   8   9
ENDBRANCH   7   8
ENDBRANCH   6   7
ENDBRANCH   5   6
ENDBRANCH   4   5
ENDBRANCH   3   4
ENDBRANCH   2   3
ENDBRANCH   1   2
BRANCH   1  12
ATOM     12  C   UNL     1      61.543  32.628  59.526  1.00  0.00     0.000 C 
BRANCH  12  13
ATOM     13  C   UNL     1      62.850  33.015  58.813  1.00  0.00    -0.000 C 
BRANCH  13  14
ATOM     14  C   UNL     1      64.065  32.998  59.756  1.00  0.00    -0.000 C 
BRANCH  14  15
ATOM     15  C   UNL     1      64.661  34.398  59.974  1.00  0.00    -0.000 C 
BRANCH  15  16
ATOM     16  C   UNL     1      64.367  34.958  61.376  1.00  0.00    -0.000 C 
BRANCH  16  17
ATOM     17  C   UNL     1      63.529  36.249  61.337  1.00  0.00    -0.000 C 
BRANCH  17  18
ATOM     18  C   UNL     1      62.042  36.049  60.982  1.00  0.00    -0.000 C 
BRANCH  18  19
ATOM     19  C   UNL     1      61.641  36.516  59.572  1.00  0.00    -0.003 C 
ATOM     20  C   UNL     1      60.205  36.143  59.207  1.00  0.00     0.004 C 
ENDBRANCH  18  19
ENDBRANCH  17  18
ENDBRANCH  16  17
ENDBRANCH  15  16
ENDBRANCH  14  15
ENDBRANCH  13  14
ENDBRANCH  12  13
ENDBRANCH   1  12
TORSDOF 16
ENDMDL
