MODEL 1
REMARK VINA RESULT:    -5.141      0.000      0.000
REMARK INTER + INTRA:         -11.081
REMARK INTER:                  -9.949
REMARK INTRA:                  -1.132
REMARK UNBOUND:                -1.132
REMARK SMILES CCCCCCCCCCCCCCCCCC(=O)[O-]
REMARK SMILES IDX 10 1 11 2 12 3 13 4 14 5 15 6 16 7 17 8 18 9 19 10 20 11
REMARK SMILES IDX 9 12 8 13 7 14 6 15 5 16 4 17 3 18 2 19 1 20
REMARK H PARENT
REMARK Flexibility Score: inf
ROOT
ATOM      1  C   UNL     1      -0.042  -3.848   9.415  1.00  0.00     0.000 C 
ENDROOT
BRANCH   1   2
ATOM      2  C   UNL     1       0.177  -5.290   8.923  1.00  0.00     0.000 C 
BRANCH   2   3
ATOM      3  C   UNL     1      -0.127  -5.442   7.417  1.00  0.00     0.000 C 
BRANCH   3   4
ATOM      4  C   UNL     1      -0.681  -6.826   7.036  1.00  0.00     0.000 C 
BRANCH   4   5
ATOM      5  C   UNL     1      -1.745  -7.335   8.023  1.00  0.00     0.000 C 
BRANCH   5   6
ATOM      6  C   UNL     1      -2.004  -8.845   7.886  1.00  0.00     0.000 C 
BRANCH   6   7
ATOM      7  C   UNL     1      -3.293  -9.291   8.599  1.00  0.00     0.006 C 
BRANCH   7   8
ATOM      8  C   UNL     1      -4.310  -9.901   7.625  1.00  0.00     0.053 C 
BRANCH   8   9
ATOM      9  C   UNL     1      -5.543  -9.057   7.509  1.00  0.00     0.041 C 
ATOM     10  O   UNL     1      -6.655  -9.591   7.258  1.00  0.00    -0.550 OA
ATOM     11  O   UNL     1      -5.469  -7.684   7.712  1.00  0.00    -0.550 OA
ENDBRANCH   8   9
ENDBRANCH   7   8
ENDBRANCH   6   7
ENDBRANCH   5   6
ENDBRANCH   4   5
ENDBRANCH   3   4
ENDBRANCH   2   3
ENDBRANCH   1   2
BRANCH   1  12
ATOM     12  C   UNL     1       1.252  -3.191   9.922  1.00  0.00     0.000 C 
BRANCH  12  13
ATOM     13  C   UNL     1       1.159  -1.654   9.948  1.00  0.00    -0.000 C 
BRANCH  13  14
ATOM     14  C   UNL     1      -0.271  -1.148   9.703  1.00  0.00    -0.000 C 
BRANCH  14  15
ATOM     15  C   UNL     1      -0.310   0.087   8.785  1.00  0.00    -0.000 C 
BRANCH  15  16
ATOM     16  C   UNL     1      -1.391  -0.019   7.693  1.00  0.00    -0.000 C 
BRANCH  16  17
ATOM     17  C   UNL     1      -1.094  -1.048   6.585  1.00  0.00    -0.000 C 
BRANCH  17  18
ATOM     18  C   UNL     1      -1.409  -0.577   5.151  1.00  0.00    -0.000 C 
BRANCH  18  19
ATOM     19  C   UNL     1      -1.534  -1.705   4.112  1.00  0.00    -0.003 C 
ATOM     20  C   UNL     1      -1.619  -3.093   4.747  1.00  0.00     0.004 C 
ENDBRANCH  18  19
ENDBRANCH  17  18
ENDBRANCH  16  17
ENDBRANCH  15  16
ENDBRANCH  14  15
ENDBRANCH  13  14
ENDBRANCH  12  13
ENDBRANCH   1  12
TORSDOF 16
ENDMDL
MODEL 2
REMARK VINA RESULT:    -4.922      1.089      2.143
REMARK INTER + INTRA:         -10.657
REMARK INTER:                  -9.692
REMARK INTRA:                  -0.965
REMARK UNBOUND:                -1.132
REMARK SMILES CCCCCCCCCCCCCCCCCC(=O)[O-]
REMARK SMILES IDX 10 1 11 2 12 3 13 4 14 5 15 6 16 7 17 8 18 9 19 10 20 11
REMARK SMILES IDX 9 12 8 13 7 14 6 15 5 16 4 17 3 18 2 19 1 20
REMARK H PARENT
REMARK Flexibility Score: inf
ROOT
ATOM      1  C   UNL     1       0.254  -2.578   9.474  1.00  0.00     0.000 C 
ENDROOT
BRANCH   1   2
ATOM      2  C   UNL     1       1.421  -3.473   9.928  1.00  0.00     0.000 C 
BRANCH   2   3
ATOM      3  C   UNL     1       1.650  -4.660   8.968  1.00  0.00     0.000 C 
BRANCH   3   4
ATOM      4  C   UNL     1       0.439  -5.602   8.852  1.00  0.00     0.000 C 
BRANCH   4   5
ATOM      5  C   UNL     1      -0.116  -5.687   7.421  1.00  0.00     0.000 C 
BRANCH   5   6
ATOM      6  C   UNL     1      -0.870  -7.001   7.155  1.00  0.00     0.000 C 
BRANCH   6   7
ATOM      7  C   UNL     1      -1.760  -7.422   8.338  1.00  0.00     0.006 C 
BRANCH   7   8
ATOM      8  C   UNL     1      -2.718  -8.560   7.962  1.00  0.00     0.053 C 
BRANCH   8   9
ATOM      9  C   UNL     1      -4.135  -8.240   8.334  1.00  0.00     0.041 C 
ATOM     10  O   UNL     1      -4.623  -8.680   9.408  1.00  0.00    -0.550 OA
ATOM     11  O   UNL     1      -4.904  -7.427   7.510  1.00  0.00    -0.550 OA
ENDBRANCH   8   9
ENDBRANCH   7   8
ENDBRANCH   6   7
ENDBRANCH   5   6
ENDBRANCH   4   5
ENDBRANCH   3   4
ENDBRANCH   2   3
ENDBRANCH   1   2
BRANCH   1  12
ATOM     12  C   UNL     1       0.322  -1.164  10.071  1.00  0.00     0.000 C 
BRANCH  12  13
ATOM     13  C   UNL     1       0.106  -0.068   9.012  1.00  0.00    -0.000 C 
BRANCH  13  14
ATOM     14  C   UNL     1      -1.257  -0.187   8.312  1.00  0.00    -0.000 C 
BRANCH  14  15
ATOM     15  C   UNL     1      -1.126  -0.578   6.829  1.00  0.00    -0.000 C 
BRANCH  15  16
ATOM     16  C   UNL     1      -1.119  -2.102   6.615  1.00  0.00    -0.000 C 
BRANCH  16  17
ATOM     17  C   UNL     1      -1.427  -2.556   5.174  1.00  0.00    -0.000 C 
BRANCH  17  18
ATOM     18  C   UNL     1      -1.497  -1.423   4.130  1.00  0.00    -0.000 C 
BRANCH  18  19
ATOM     19  C   UNL     1      -1.467  -1.892   2.664  1.00  0.00    -0.003 C 
ATOM     20  C   UNL     1      -1.111  -3.371   2.518  1.00  0.00     0.004 C 
ENDBRANCH  18  19
ENDBRANCH  17  18
ENDBRANCH  16  17
ENDBRANCH  15  16
ENDBRANCH  14  15
ENDBRANCH  13  14
ENDBRANCH  12  13
ENDBRANCH   1  12
TORSDOF 16
ENDMDL
MODEL 3
REMARK VINA RESULT:    -4.872      2.384      7.217
REMARK INTER + INTRA:         -10.561
REMARK INTER:                  -9.106
REMARK INTRA:                  -1.455
REMARK UNBOUND:                -1.132
REMARK SMILES CCCCCCCCCCCCCCCCCC(=O)[O-]
REMARK SMILES IDX 10 1 11 2 12 3 13 4 14 5 15 6 16 7 17 8 18 9 19 10 20 11
REMARK SMILES IDX 9 12 8 13 7 14 6 15 5 16 4 17 3 18 2 19 1 20
REMARK H PARENT
REMARK Flexibility Score: inf
ROOT
ATOM      1  C   UNL     1       1.132  -4.270   9.599  1.00  0.00     0.000 C 
ENDROOT
BRANCH   1   2
ATOM      2  C   UNL     1      -0.320  -3.783   9.760  1.00  0.00     0.000 C 
BRANCH   2   3
ATOM      3  C   UNL     1      -0.394  -2.278  10.093  1.00  0.00     0.000 C 
BRANCH   3   4
ATOM      4  C   UNL     1       0.108  -1.369   8.958  1.00  0.00     0.000 C 
BRANCH   4   5
ATOM      5  C   UNL     1      -0.820  -0.172   8.698  1.00  0.00     0.000 C 
BRANCH   5   6
ATOM      6  C   UNL     1      -1.192  -0.023   7.213  1.00  0.00     0.000 C 
BRANCH   6   7
ATOM      7  C   UNL     1      -1.172  -1.365   6.460  1.00  0.00     0.006 C 
BRANCH   7   8
ATOM      8  C   UNL     1      -1.559  -1.206   4.984  1.00  0.00     0.053 C 
BRANCH   8   9
ATOM      9  C   UNL     1      -1.562  -2.520   4.264  1.00  0.00     0.041 C 
ATOM     10  O   UNL     1      -1.252  -2.576   3.045  1.00  0.00    -0.550 OA
ATOM     11  O   UNL     1      -1.872  -3.688   4.950  1.00  0.00    -0.550 OA
ENDBRANCH   8   9
ENDBRANCH   7   8
ENDBRANCH   6   7
ENDBRANCH   5   6
ENDBRANCH   4   5
ENDBRANCH   3   4
ENDBRANCH   2   3
ENDBRANCH   1   2
BRANCH   1  12
ATOM     12  C   UNL     1       1.301  -5.258   8.435  1.00  0.00     0.000 C 
BRANCH  12  13
ATOM     13  C   UNL     1       0.089  -5.262   7.486  1.00  0.00    -0.000 C 
BRANCH  13  14
ATOM     14  C   UNL     1      -0.331  -6.682   7.075  1.00  0.00    -0.000 C 
BRANCH  14  15
ATOM     15  C   UNL     1      -1.757  -7.033   7.539  1.00  0.00    -0.000 C 
BRANCH  15  16
ATOM     16  C   UNL     1      -1.799  -7.552   8.988  1.00  0.00    -0.000 C 
BRANCH  16  17
ATOM     17  C   UNL     1      -3.133  -8.203   9.405  1.00  0.00    -0.000 C 
BRANCH  17  18
ATOM     18  C   UNL     1      -3.388  -9.607   8.820  1.00  0.00    -0.000 C 
BRANCH  18  19
ATOM     19  C   UNL     1      -4.844  -9.877   8.401  1.00  0.00    -0.003 C 
ATOM     20  C   UNL     1      -5.443  -8.748   7.561  1.00  0.00     0.004 C 
ENDBRANCH  18  19
ENDBRANCH  17  18
ENDBRANCH  16  17
ENDBRANCH  15  16
ENDBRANCH  14  15
ENDBRANCH  13  14
ENDBRANCH  12  13
ENDBRANCH   1  12
TORSDOF 16
ENDMDL
MODEL 4
REMARK VINA RESULT:    -4.732      3.166      8.089
REMARK INTER + INTRA:         -10.289
REMARK INTER:                  -9.043
REMARK INTRA:                  -1.246
REMARK UNBOUND:                -1.132
REMARK SMILES CCCCCCCCCCCCCCCCCC(=O)[O-]
REMARK SMILES IDX 10 1 11 2 12 3 13 4 14 5 15 6 16 7 17 8 18 9 19 10 20 11
REMARK SMILES IDX 9 12 8 13 7 14 6 15 5 16 4 17 3 18 2 19 1 20
REMARK H PARENT
REMARK Flexibility Score: inf
ROOT
ATOM      1  C   UNL     1       0.455  -5.430   7.752  1.00  0.00     0.000 C 
ENDROOT
BRANCH   1   2
ATOM      2  C   UNL     1       0.003  -4.175   8.519  1.00  0.00     0.000 C 
BRANCH   2   3
ATOM      3  C   UNL     1       1.014  -3.768   9.613  1.00  0.00     0.000 C 
BRANCH   3   4
ATOM      4  C   UNL     1       0.981  -2.268   9.956  1.00  0.00     0.000 C 
BRANCH   4   5
ATOM      5  C   UNL     1      -0.374  -1.614   9.644  1.00  0.00     0.000 C 
BRANCH   5   6
ATOM      6  C   UNL     1      -0.227  -0.236   8.978  1.00  0.00     0.000 C 
BRANCH   6   7
ATOM      7  C   UNL     1      -1.285   0.011   7.888  1.00  0.00     0.006 C 
BRANCH   7   8
ATOM      8  C   UNL     1      -1.139  -0.962   6.711  1.00  0.00     0.053 C 
BRANCH   8   9
ATOM      9  C   UNL     1      -1.305  -0.270   5.392  1.00  0.00     0.041 C 
ATOM     10  O   UNL     1      -1.148   0.976   5.306  1.00  0.00    -0.550 OA
ATOM     11  O   UNL     1      -1.600  -1.008   4.252  1.00  0.00    -0.550 OA
ENDBRANCH   8   9
ENDBRANCH   7   8
ENDBRANCH   6   7
ENDBRANCH   5   6
ENDBRANCH   4   5
ENDBRANCH   3   4
ENDBRANCH   2   3
ENDBRANCH   1   2
BRANCH   1  12
ATOM     12  C   UNL     1      -0.684  -6.079   6.952  1.00  0.00     0.000 C 
BRANCH  12  13
ATOM     13  C   UNL     1      -1.461  -7.122   7.776  1.00  0.00    -0.000 C 
BRANCH  13  14
ATOM     14  C   UNL     1      -1.111  -8.565   7.377  1.00  0.00    -0.000 C 
BRANCH  14  15
ATOM     15  C   UNL     1      -2.219  -9.566   7.753  1.00  0.00    -0.000 C 
BRANCH  15  16
ATOM     16  C   UNL     1      -2.515  -9.585   9.263  1.00  0.00    -0.000 C 
BRANCH  16  17
ATOM     17  C   UNL     1      -4.012  -9.583   9.631  1.00  0.00    -0.000 C 
BRANCH  17  18
ATOM     18  C   UNL     1      -4.970  -9.946   8.479  1.00  0.00    -0.000 C 
BRANCH  18  19
ATOM     19  C   UNL     1      -5.910  -8.810   8.037  1.00  0.00    -0.003 C 
ATOM     20  C   UNL     1      -5.207  -7.456   7.944  1.00  0.00     0.004 C 
ENDBRANCH  18  19
ENDBRANCH  17  18
ENDBRANCH  16  17
ENDBRANCH  15  16
ENDBRANCH  14  15
ENDBRANCH  13  14
ENDBRANCH  12  13
ENDBRANCH   1  12
TORSDOF 16
ENDMDL
MODEL 5
REMARK VINA RESULT:    -4.670      5.155      9.029
REMARK INTER + INTRA:         -10.169
REMARK INTER:                  -8.789
REMARK INTRA:                  -1.380
REMARK UNBOUND:                -1.132
REMARK SMILES CCCCCCCCCCCCCCCCCC(=O)[O-]
REMARK SMILES IDX 10 1 11 2 12 3 13 4 14 5 15 6 16 7 17 8 18 9 19 10 20 11
REMARK SMILES IDX 9 12 8 13 7 14 6 15 5 16 4 17 3 18 2 19 1 20
REMARK H PARENT
REMARK Flexibility Score: inf
ROOT
ATOM      1  C   UNL     1      -1.769  -1.252   6.010  1.00  0.00     0.000 C 
ENDROOT
BRANCH   1   2
ATOM      2  C   UNL     1      -1.126   0.101   6.361  1.00  0.00     0.000 C 
BRANCH   2   3
ATOM      3  C   UNL     1      -0.908   0.264   7.880  1.00  0.00     0.000 C 
BRANCH   3   4
ATOM      4  C   UNL     1      -0.372  -1.004   8.566  1.00  0.00     0.000 C 
BRANCH   4   5
ATOM      5  C   UNL     1       0.330  -0.709   9.902  1.00  0.00     0.000 C 
BRANCH   5   6
ATOM      6  C   UNL     1       1.077   0.636   9.893  1.00  0.00     0.000 C 
BRANCH   6   7
ATOM      7  C   UNL     1       2.599   0.468  10.050  1.00  0.00     0.006 C 
BRANCH   7   8
ATOM      8  C   UNL     1       3.354   1.776   9.780  1.00  0.00     0.053 C 
BRANCH   8   9
ATOM      9  C   UNL     1       4.672   1.530   9.111  1.00  0.00     0.041 C 
ATOM     10  O   UNL     1       4.752   0.727   8.144  1.00  0.00    -0.550 OA
ATOM     11  O   UNL     1       5.806   2.214   9.534  1.00  0.00    -0.550 OA
ENDBRANCH   8   9
ENDBRANCH   7   8
ENDBRANCH   6   7
ENDBRANCH   5   6
ENDBRANCH   4   5
ENDBRANCH   3   4
ENDBRANCH   2   3
ENDBRANCH   1   2
BRANCH   1  12
ATOM     12  C   UNL     1      -1.466  -1.699   4.571  1.00  0.00     0.000 C 
BRANCH  12  13
ATOM     13  C   UNL     1      -1.284  -3.223   4.455  1.00  0.00    -0.000 C 
BRANCH  13  14
ATOM     14  C   UNL     1      -1.476  -3.942   5.800  1.00  0.00    -0.000 C 
BRANCH  14  15
ATOM     15  C   UNL     1      -0.401  -5.015   6.055  1.00  0.00    -0.000 C 
BRANCH  15  16
ATOM     16  C   UNL     1      -0.585  -5.729   7.406  1.00  0.00    -0.000 C 
BRANCH  16  17
ATOM     17  C   UNL     1      -0.194  -4.893   8.640  1.00  0.00    -0.000 C 
BRANCH  17  18
ATOM     18  C   UNL     1       0.832  -5.554   9.582  1.00  0.00    -0.000 C 
BRANCH  18  19
ATOM     19  C   UNL     1       2.224  -4.897   9.586  1.00  0.00    -0.003 C 
ATOM     20  C   UNL     1       3.029  -5.200   8.323  1.00  0.00     0.004 C 
ENDBRANCH  18  19
ENDBRANCH  17  18
ENDBRANCH  16  17
ENDBRANCH  15  16
ENDBRANCH  14  15
ENDBRANCH  13  14
ENDBRANCH  12  13
ENDBRANCH   1  12
TORSDOF 16
ENDMDL
MODEL 6
REMARK VINA RESULT:    -4.600      2.879      7.293
REMARK INTER + INTRA:         -10.033
REMARK INTER:                  -8.570
REMARK INTRA:                  -1.464
REMARK UNBOUND:                -1.132
REMARK SMILES CCCCCCCCCCCCCCCCCC(=O)[O-]
REMARK SMILES IDX 10 1 11 2 12 3 13 4 14 5 15 6 16 7 17 8 18 9 19 10 20 11
REMARK SMILES IDX 9 12 8 13 7 14 6 15 5 16 4 17 3 18 2 19 1 20
REMARK H PARENT
REMARK Flexibility Score: inf
ROOT
ATOM      1  C   UNL     1      -1.527  -2.055   4.114  1.00  0.00     0.000 C 
ENDROOT
BRANCH   1   2
ATOM      2  C   UNL     1      -1.421  -0.739   4.905  1.00  0.00     0.000 C 
BRANCH   2   3
ATOM      3  C   UNL     1      -1.144  -0.984   6.404  1.00  0.00     0.000 C 
BRANCH   3   4
ATOM      4  C   UNL     1      -1.396   0.250   7.287  1.00  0.00     0.000 C 
BRANCH   4   5
ATOM      5  C   UNL     1      -0.993   0.027   8.754  1.00  0.00     0.000 C 
BRANCH   5   6
ATOM      6  C   UNL     1       0.127  -1.016   8.907  1.00  0.00     0.000 C 
BRANCH   6   7
ATOM      7  C   UNL     1      -0.090  -1.944  10.116  1.00  0.00     0.006 C 
BRANCH   7   8
ATOM      8  C   UNL     1      -0.078  -3.425   9.716  1.00  0.00     0.053 C 
BRANCH   8   9
ATOM      9  C   UNL     1       1.272  -4.044   9.914  1.00  0.00     0.041 C 
ATOM     10  O   UNL     1       2.279  -3.317  10.120  1.00  0.00    -0.550 OA
ATOM     11  O   UNL     1       1.411  -5.427   9.907  1.00  0.00    -0.550 OA
ENDBRANCH   8   9
ENDBRANCH   7   8
ENDBRANCH   6   7
ENDBRANCH   5   6
ENDBRANCH   4   5
ENDBRANCH   3   4
ENDBRANCH   2   3
ENDBRANCH   1   2
BRANCH   1  12
ATOM     12  C   UNL     1      -1.965  -3.240   4.989  1.00  0.00     0.000 C 
BRANCH  12  13
ATOM     13  C   UNL     1      -0.869  -4.314   5.116  1.00  0.00    -0.000 C 
BRANCH  13  14
ATOM     14  C   UNL     1      -0.640  -4.751   6.571  1.00  0.00    -0.000 C 
BRANCH  14  15
ATOM     15  C   UNL     1      -0.007  -6.150   6.675  1.00  0.00    -0.000 C 
BRANCH  15  16
ATOM     16  C   UNL     1      -0.955  -7.186   7.306  1.00  0.00    -0.000 C 
BRANCH  16  17
ATOM     17  C   UNL     1      -1.537  -6.782   8.676  1.00  0.00    -0.000 C 
BRANCH  17  18
ATOM     18  C   UNL     1      -2.581  -7.756   9.258  1.00  0.00    -0.000 C 
BRANCH  18  19
ATOM     19  C   UNL     1      -3.442  -8.483   8.210  1.00  0.00    -0.003 C 
ATOM     20  C   UNL     1      -4.778  -7.787   7.950  1.00  0.00     0.004 C 
ENDBRANCH  18  19
ENDBRANCH  17  18
ENDBRANCH  16  17
ENDBRANCH  15  16
ENDBRANCH  14  15
ENDBRANCH  13  14
ENDBRANCH  12  13
ENDBRANCH   1  12
TORSDOF 16
ENDMDL
MODEL 7
REMARK VINA RESULT:    -4.517      4.902      8.887
REMARK INTER + INTRA:          -9.874
REMARK INTER:                  -8.723
REMARK INTRA:                  -1.151
REMARK UNBOUND:                -1.132
REMARK SMILES CCCCCCCCCCCCCCCCCC(=O)[O-]
REMARK SMILES IDX 10 1 11 2 12 3 13 4 14 5 15 6 16 7 17 8 18 9 19 10 20 11
REMARK SMILES IDX 9 12 8 13 7 14 6 15 5 16 4 17 3 18 2 19 1 20
REMARK H PARENT
REMARK Flexibility Score: inf
ROOT
ATOM      1  C   UNL     1      -1.825  -0.979   5.690  1.00  0.00     0.000 C 
ENDROOT
BRANCH   1   2
ATOM      2  C   UNL     1      -1.118   0.257   6.273  1.00  0.00     0.000 C 
BRANCH   2   3
ATOM      3  C   UNL     1      -1.314   0.372   7.800  1.00  0.00     0.000 C 
BRANCH   3   4
ATOM      4  C   UNL     1      -0.714  -0.805   8.589  1.00  0.00     0.000 C 
BRANCH   4   5
ATOM      5  C   UNL     1      -0.168  -0.386   9.963  1.00  0.00     0.000 C 
BRANCH   5   6
ATOM      6  C   UNL     1       1.329  -0.699  10.125  1.00  0.00     0.000 C 
BRANCH   6   7
ATOM      7  C   UNL     1       2.223   0.523   9.848  1.00  0.00     0.006 C 
BRANCH   7   8
ATOM      8  C   UNL     1       3.711   0.152   9.805  1.00  0.00     0.053 C 
BRANCH   8   9
ATOM      9  C   UNL     1       4.537   1.240   9.188  1.00  0.00     0.041 C 
ATOM     10  O   UNL     1       3.980   2.217   8.624  1.00  0.00    -0.550 OA
ATOM     11  O   UNL     1       5.924   1.190   9.268  1.00  0.00    -0.550 OA
ENDBRANCH   8   9
ENDBRANCH   7   8
ENDBRANCH   6   7
ENDBRANCH   5   6
ENDBRANCH   4   5
ENDBRANCH   3   4
ENDBRANCH   2   3
ENDBRANCH   1   2
BRANCH   1  12
ATOM     12  C   UNL     1      -1.449  -1.242   4.223  1.00  0.00     0.000 C 
BRANCH  12  13
ATOM     13  C   UNL     1      -1.525  -2.735   3.856  1.00  0.00    -0.000 C 
BRANCH  13  14
ATOM     14  C   UNL     1      -1.881  -3.620   5.061  1.00  0.00    -0.000 C 
BRANCH  14  15
ATOM     15  C   UNL     1      -0.678  -4.436   5.569  1.00  0.00    -0.000 C 
BRANCH  15  16
ATOM     16  C   UNL     1      -0.524  -4.376   7.100  1.00  0.00    -0.000 C 
BRANCH  16  17
ATOM     17  C   UNL     1      -0.026  -5.680   7.753  1.00  0.00    -0.000 C 
BRANCH  17  18
ATOM     18  C   UNL     1      -0.696  -6.970   7.237  1.00  0.00    -0.000 C 
BRANCH  18  19
ATOM     19  C   UNL     1      -2.074  -7.272   7.852  1.00  0.00    -0.003 C 
ATOM     20  C   UNL     1      -2.276  -8.755   8.163  1.00  0.00     0.004 C 
ENDBRANCH  18  19
ENDBRANCH  17  18
ENDBRANCH  16  17
ENDBRANCH  15  16
ENDBRANCH  14  15
ENDBRANCH  13  14
ENDBRANCH  12  13
ENDBRANCH   1  12
TORSDOF 16
ENDMDL
MODEL 8
REMARK VINA RESULT:    -4.223      2.946      4.702
REMARK INTER + INTRA:          -9.305
REMARK INTER:                  -8.804
REMARK INTRA:                  -0.501
REMARK UNBOUND:                -1.132
REMARK SMILES CCCCCCCCCCCCCCCCCC(=O)[O-]
REMARK SMILES IDX 10 1 11 2 12 3 13 4 14 5 15 6 16 7 17 8 18 9 19 10 20 11
REMARK SMILES IDX 9 12 8 13 7 14 6 15 5 16 4 17 3 18 2 19 1 20
REMARK H PARENT
REMARK Flexibility Score: inf
ROOT
ATOM      1  C   UNL     1       2.106  -5.239   8.022  1.00  0.00     0.000 C 
ENDROOT
BRANCH   1   2
ATOM      2  C   UNL     1       0.652  -5.560   8.410  1.00  0.00     0.000 C 
BRANCH   2   3
ATOM      3  C   UNL     1      -0.215  -5.906   7.181  1.00  0.00     0.000 C 
BRANCH   3   4
ATOM      4  C   UNL     1      -1.139  -7.117   7.398  1.00  0.00     0.000 C 
BRANCH   4   5
ATOM      5  C   UNL     1      -1.843  -7.093   8.764  1.00  0.00     0.000 C 
BRANCH   5   6
ATOM      6  C   UNL     1      -2.441  -8.457   9.145  1.00  0.00     0.000 C 
BRANCH   6   7
ATOM      7  C   UNL     1      -3.110  -9.164   7.953  1.00  0.00     0.006 C 
BRANCH   7   8
ATOM      8  C   UNL     1      -4.552  -9.586   8.268  1.00  0.00     0.053 C 
BRANCH   8   9
ATOM      9  C   UNL     1      -5.528  -8.486   7.981  1.00  0.00     0.041 C 
ATOM     10  O   UNL     1      -5.140  -7.421   7.432  1.00  0.00    -0.550 OA
ATOM     11  O   UNL     1      -6.873  -8.652   8.289  1.00  0.00    -0.550 OA
ENDBRANCH   8   9
ENDBRANCH   7   8
ENDBRANCH   6   7
ENDBRANCH   5   6
ENDBRANCH   4   5
ENDBRANCH   3   4
ENDBRANCH   2   3
ENDBRANCH   1   2
BRANCH   1  12
ATOM     12  C   UNL     1       3.103  -5.541   9.151  1.00  0.00     0.000 C 
BRANCH  12  13
ATOM     13  C   UNL     1       3.264  -4.360  10.125  1.00  0.00    -0.000 C 
BRANCH  13  14
ATOM     14  C   UNL     1       2.158  -3.306   9.958  1.00  0.00    -0.000 C 
BRANCH  14  15
ATOM     15  C   UNL     1       2.694  -1.866  10.054  1.00  0.00    -0.000 C 
BRANCH  15  16
ATOM     16  C   UNL     1       4.231  -1.807  10.101  1.00  0.00    -0.000 C 
BRANCH  16  17
ATOM     17  C   UNL     1       4.876  -0.860   9.070  1.00  0.00    -0.000 C 
BRANCH  17  18
ATOM     18  C   UNL     1       6.062  -0.027   9.596  1.00  0.00    -0.000 C 
BRANCH  18  19
ATOM     19  C   UNL     1       7.448  -0.514   9.137  1.00  0.00    -0.003 C 
ATOM     20  C   UNL     1       7.779  -0.103   7.702  1.00  0.00     0.004 C 
ENDBRANCH  18  19
ENDBRANCH  17  18
ENDBRANCH  16  17
ENDBRANCH  15  16
ENDBRANCH  14  15
ENDBRANCH  13  14
ENDBRANCH  12  13
ENDBRANCH   1  12
TORSDOF 16
ENDMDL
MODEL 9
REMARK VINA RESULT:    -4.179      6.294     10.248
REMARK INTER + INTRA:          -9.220
REMARK INTER:                  -8.555
REMARK INTRA:                  -0.665
REMARK UNBOUND:                -1.132
REMARK SMILES CCCCCCCCCCCCCCCCCC(=O)[O-]
REMARK SMILES IDX 10 1 11 2 12 3 13 4 14 5 15 6 16 7 17 8 18 9 19 10 20 11
REMARK SMILES IDX 9 12 8 13 7 14 6 15 5 16 4 17 3 18 2 19 1 20
REMARK H PARENT
REMARK Flexibility Score: inf
ROOT
ATOM      1  C   UNL     1       2.604  -4.899   8.936  1.00  0.00     0.000 C 
ENDROOT
BRANCH   1   2
ATOM      2  C   UNL     1       3.272  -4.185  10.125  1.00  0.00     0.000 C 
BRANCH   2   3
ATOM      3  C   UNL     1       3.129  -2.650  10.034  1.00  0.00     0.000 C 
BRANCH   3   4
ATOM      4  C   UNL     1       4.476  -1.907   9.989  1.00  0.00     0.000 C 
BRANCH   4   5
ATOM      5  C   UNL     1       4.366  -0.510   9.357  1.00  0.00     0.000 C 
BRANCH   5   6
ATOM      6  C   UNL     1       5.347  -0.310   8.190  1.00  0.00     0.000 C 
BRANCH   6   7
ATOM      7  C   UNL     1       6.609   0.468   8.605  1.00  0.00     0.006 C 
BRANCH   7   8
ATOM      8  C   UNL     1       7.783  -0.466   8.929  1.00  0.00     0.053 C 
BRANCH   8   9
ATOM      9  C   UNL     1       8.865  -0.377   7.897  1.00  0.00     0.041 C 
ATOM     10  O   UNL     1       8.680   0.279   6.838  1.00  0.00    -0.550 OA
ATOM     11  O   UNL     1      10.093  -0.990   8.121  1.00  0.00    -0.550 OA
ENDBRANCH   8   9
ENDBRANCH   7   8
ENDBRANCH   6   7
ENDBRANCH   5   6
ENDBRANCH   4   5
ENDBRANCH   3   4
ENDBRANCH   2   3
ENDBRANCH   1   2
BRANCH   1  12
ATOM     12  C   UNL     1       1.083  -4.688   8.896  1.00  0.00     0.000 C 
BRANCH  12  13
ATOM     13  C   UNL     1       0.390  -5.603   7.869  1.00  0.00    -0.000 C 
BRANCH  13  14
ATOM     14  C   UNL     1      -0.814  -6.350   8.466  1.00  0.00    -0.000 C 
BRANCH  14  15
ATOM     15  C   UNL     1      -1.443  -7.344   7.473  1.00  0.00    -0.000 C 
BRANCH  15  16
ATOM     16  C   UNL     1      -2.139  -8.524   8.176  1.00  0.00    -0.000 C 
BRANCH  16  17
ATOM     17  C   UNL     1      -2.784  -8.181   9.534  1.00  0.00    -0.000 C 
BRANCH  17  18
ATOM     18  C   UNL     1      -4.318  -8.034   9.512  1.00  0.00    -0.000 C 
BRANCH  18  19
ATOM     19  C   UNL     1      -4.914  -7.671   8.140  1.00  0.00    -0.003 C 
ATOM     20  C   UNL     1      -5.576  -8.860   7.445  1.00  0.00     0.004 C 
ENDBRANCH  18  19
ENDBRANCH  17  18
ENDBRANCH  16  17
ENDBRANCH  15  16
ENDBRANCH  14  15
ENDBRANCH  13  14
ENDBRANCH  12  13
ENDBRANCH   1  12
TORSDOF 16
ENDMDL
