MODEL 1
REMARK VINA RESULT:    -4.439      0.000      0.000
REMARK INTER + INTRA:         -10.544
REMARK INTER:                  -8.331
REMARK INTRA:                  -2.214
REMARK UNBOUND:                -2.214
REMARK SMILES O=C([O-])CCCCCCCCCCCCCCC(=O)[O-]
REMARK SMILES IDX 10 1 9 2 8 3 7 4 6 5 5 6 4 7 2 8 1 9 3 10 11 11 12 12 13 13
REMARK SMILES IDX 14 14 15 15 16 16 17 17 18 18 19 19 20 20
REMARK H PARENT
REMARK Flexibility Score: inf
ROOT
ATOM      1  C   UNL     1      13.199 -14.451  38.835  1.00  0.00     0.000 C 
ENDROOT
BRANCH   1   2
ATOM      2  C   UNL     1      13.668 -13.136  38.198  1.00  0.00     0.000 C 
BRANCH   2   3
ATOM      3  C   UNL     1      15.065 -12.751  38.699  1.00  0.00     0.000 C 
BRANCH   3   4
ATOM      4  C   UNL     1      15.853 -13.989  39.143  1.00  0.00     0.000 C 
BRANCH   4   5
ATOM      5  C   UNL     1      17.058 -14.234  38.228  1.00  0.00     0.000 C 
BRANCH   5   6
ATOM      6  C   UNL     1      16.908 -15.556  37.461  1.00  0.00     0.006 C 
BRANCH   6   7
ATOM      7  C   UNL     1      16.070 -15.395  36.187  1.00  0.00     0.053 C 
BRANCH   7   8
ATOM      8  C   UNL     1      16.540 -14.243  35.354  1.00  0.00     0.041 C 
ATOM      9  O   UNL     1      17.583 -14.348  34.655  1.00  0.00    -0.550 OA
ATOM     10  O   UNL     1      15.809 -13.062  35.323  1.00  0.00    -0.550 OA
ENDBRANCH   7   8
ENDBRANCH   6   7
ENDBRANCH   5   6
ENDBRANCH   4   5
ENDBRANCH   3   4
ENDBRANCH   2   3
ENDBRANCH   1   2
BRANCH   1  11
ATOM     11  C   UNL     1      12.752 -15.488  37.793  1.00  0.00     0.000 C 
BRANCH  11  12
ATOM     12  C   UNL     1      13.255 -16.907  38.113  1.00  0.00     0.000 C 
BRANCH  12  13
ATOM     13  C   UNL     1      13.678 -17.055  39.590  1.00  0.00     0.000 C 
BRANCH  13  14
ATOM     14  C   UNL     1      15.142 -17.494  39.771  1.00  0.00     0.000 C 
BRANCH  14  15
ATOM     15  C   UNL     1      15.438 -18.865  39.142  1.00  0.00     0.000 C 
BRANCH  15  16
ATOM     16  C   UNL     1      14.623 -19.999  39.795  1.00  0.00     0.006 C 
BRANCH  16  17
ATOM     17  C   UNL     1      13.659 -20.699  38.823  1.00  0.00     0.053 C 
BRANCH  17  18
ATOM     18  C   UNL     1      14.064 -22.113  38.542  1.00  0.00     0.041 C 
ATOM     19  O   UNL     1      13.639 -22.701  37.513  1.00  0.00    -0.550 OA
ATOM     20  O   UNL     1      14.890 -22.789  39.431  1.00  0.00    -0.550 OA
ENDBRANCH  17  18
ENDBRANCH  16  17
ENDBRANCH  15  16
ENDBRANCH  14  15
ENDBRANCH  13  14
ENDBRANCH  12  13
ENDBRANCH  11  12
ENDBRANCH   1  11
TORSDOF 15
ENDMDL
MODEL 2
REMARK VINA RESULT:    -4.438      3.161      5.944
REMARK INTER + INTRA:         -10.543
REMARK INTER:                  -8.240
REMARK INTRA:                  -2.304
REMARK UNBOUND:                -2.214
REMARK SMILES O=C([O-])CCCCCCCCCCCCCCC(=O)[O-]
REMARK SMILES IDX 10 1 9 2 8 3 7 4 6 5 5 6 4 7 2 8 1 9 3 10 11 11 12 12 13 13
REMARK SMILES IDX 14 14 15 15 16 16 17 17 18 18 19 19 20 20
REMARK H PARENT
REMARK Flexibility Score: inf
ROOT
ATOM      1  C   UNL     1      15.419 -16.508  39.961  1.00  0.00     0.000 C 
ENDROOT
BRANCH   1   2
ATOM      2  C   UNL     1      14.767 -15.118  40.019  1.00  0.00     0.000 C 
BRANCH   2   3
ATOM      3  C   UNL     1      15.730 -14.039  39.508  1.00  0.00     0.000 C 
BRANCH   3   4
ATOM      4  C   UNL     1      14.984 -12.975  38.695  1.00  0.00     0.000 C 
BRANCH   4   5
ATOM      5  C   UNL     1      13.828 -13.596  37.901  1.00  0.00     0.000 C 
BRANCH   5   6
ATOM      6  C   UNL     1      12.538 -12.782  38.078  1.00  0.00     0.006 C 
BRANCH   6   7
ATOM      7  C   UNL     1      11.551 -13.459  39.036  1.00  0.00     0.053 C 
BRANCH   7   8
ATOM      8  C   UNL     1      10.760 -14.531  38.352  1.00  0.00     0.041 C 
ATOM      9  O   UNL     1      10.215 -15.446  39.026  1.00  0.00    -0.550 OA
ATOM     10  O   UNL     1      10.596 -14.502  36.973  1.00  0.00    -0.550 OA
ENDBRANCH   7   8
ENDBRANCH   6   7
ENDBRANCH   5   6
ENDBRANCH   4   5
ENDBRANCH   3   4
ENDBRANCH   2   3
ENDBRANCH   1   2
BRANCH   1  11
ATOM     11  C   UNL     1      14.472 -17.583  39.405  1.00  0.00     0.000 C 
BRANCH  11  12
ATOM     12  C   UNL     1      13.485 -17.025  38.364  1.00  0.00     0.000 C 
BRANCH  12  13
ATOM     13  C   UNL     1      13.680 -17.669  36.974  1.00  0.00     0.000 C 
BRANCH  13  14
ATOM     14  C   UNL     1      14.645 -16.890  36.064  1.00  0.00     0.000 C 
BRANCH  14  15
ATOM     15  C   UNL     1      16.121 -17.101  36.436  1.00  0.00     0.000 C 
BRANCH  15  16
ATOM     16  C   UNL     1      16.928 -15.787  36.415  1.00  0.00     0.006 C 
BRANCH  16  17
ATOM     17  C   UNL     1      16.270 -14.677  35.579  1.00  0.00     0.053 C 
BRANCH  17  18
ATOM     18  C   UNL     1      17.079 -13.419  35.569  1.00  0.00     0.041 C 
ATOM     19  O   UNL     1      18.309 -13.457  35.297  1.00  0.00    -0.550 OA
ATOM     20  O   UNL     1      16.482 -12.204  35.884  1.00  0.00    -0.550 OA
ENDBRANCH  17  18
ENDBRANCH  16  17
ENDBRANCH  15  16
ENDBRANCH  14  15
ENDBRANCH  13  14
ENDBRANCH  12  13
ENDBRANCH  11  12
ENDBRANCH   1  11
TORSDOF 15
ENDMDL
MODEL 3
REMARK VINA RESULT:    -4.428      2.090      3.260
REMARK INTER + INTRA:         -10.525
REMARK INTER:                  -8.571
REMARK INTRA:                  -1.954
REMARK UNBOUND:                -2.214
REMARK SMILES O=C([O-])CCCCCCCCCCCCCCC(=O)[O-]
REMARK SMILES IDX 10 1 9 2 8 3 7 4 6 5 5 6 4 7 2 8 1 9 3 10 11 11 12 12 13 13
REMARK SMILES IDX 14 14 15 15 16 16 17 17 18 18 19 19 20 20
REMARK H PARENT
REMARK Flexibility Score: inf
ROOT
ATOM      1  C   UNL     1      15.280 -16.758  35.776  1.00  0.00     0.000 C 
ENDROOT
BRANCH   1   2
ATOM      2  C   UNL     1      16.665 -16.105  35.893  1.00  0.00     0.000 C 
BRANCH   2   3
ATOM      3  C   UNL     1      16.657 -14.691  35.301  1.00  0.00     0.000 C 
BRANCH   3   4
ATOM      4  C   UNL     1      17.082 -13.653  36.345  1.00  0.00     0.000 C 
BRANCH   4   5
ATOM      5  C   UNL     1      17.328 -14.310  37.709  1.00  0.00     0.000 C 
BRANCH   5   6
ATOM      6  C   UNL     1      16.251 -13.895  38.722  1.00  0.00     0.006 C 
BRANCH   6   7
ATOM      7  C   UNL     1      15.233 -12.920  38.120  1.00  0.00     0.053 C 
BRANCH   7   8
ATOM      8  C   UNL     1      13.826 -13.395  38.314  1.00  0.00     0.041 C 
ATOM      9  O   UNL     1      13.598 -14.472  38.927  1.00  0.00    -0.550 OA
ATOM     10  O   UNL     1      12.763 -12.632  37.848  1.00  0.00    -0.550 OA
ENDBRANCH   7   8
ENDBRANCH   6   7
ENDBRANCH   5   6
ENDBRANCH   4   5
ENDBRANCH   3   4
ENDBRANCH   2   3
ENDBRANCH   1   2
BRANCH   1  11
ATOM     11  C   UNL     1      14.723 -17.213  37.134  1.00  0.00     0.000 C 
BRANCH  11  12
ATOM     12  C   UNL     1      15.830 -17.590  38.135  1.00  0.00     0.000 C 
BRANCH  12  13
ATOM     13  C   UNL     1      15.358 -17.465  39.599  1.00  0.00     0.000 C 
BRANCH  13  14
ATOM     14  C   UNL     1      14.259 -18.471  39.981  1.00  0.00     0.000 C 
BRANCH  14  15
ATOM     15  C   UNL     1      14.723 -19.933  39.876  1.00  0.00     0.000 C 
BRANCH  15  16
ATOM     16  C   UNL     1      13.589 -20.880  39.433  1.00  0.00     0.006 C 
BRANCH  16  17
ATOM     17  C   UNL     1      12.491 -20.180  38.616  1.00  0.00     0.053 C 
BRANCH  17  18
ATOM     18  C   UNL     1      12.490 -20.611  37.182  1.00  0.00     0.041 C 
ATOM     19  O   UNL     1      12.625 -21.827  36.885  1.00  0.00    -0.550 OA
ATOM     20  O   UNL     1      12.364 -19.665  36.172  1.00  0.00    -0.550 OA
ENDBRANCH  17  18
ENDBRANCH  16  17
ENDBRANCH  15  16
ENDBRANCH  14  15
ENDBRANCH  13  14
ENDBRANCH  12  13
ENDBRANCH  11  12
ENDBRANCH   1  11
TORSDOF 15
ENDMDL
MODEL 4
REMARK VINA RESULT:    -4.408      3.281      5.317
REMARK INTER + INTRA:         -10.487
REMARK INTER:                  -7.933
REMARK INTRA:                  -2.554
REMARK UNBOUND:                -2.214
REMARK SMILES O=C([O-])CCCCCCCCCCCCCCC(=O)[O-]
REMARK SMILES IDX 10 1 9 2 8 3 7 4 6 5 5 6 4 7 2 8 1 9 3 10 11 11 12 12 13 13
REMARK SMILES IDX 14 14 15 15 16 16 17 17 18 18 19 19 20 20
REMARK H PARENT
REMARK Flexibility Score: inf
ROOT
ATOM      1  C   UNL     1      14.073 -17.675  39.563  1.00  0.00     0.000 C 
ENDROOT
BRANCH   1   2
ATOM      2  C   UNL     1      12.804 -16.990  39.035  1.00  0.00     0.000 C 
BRANCH   2   3
ATOM      3  C   UNL     1      12.562 -17.345  37.563  1.00  0.00     0.000 C 
BRANCH   3   4
ATOM      4  C   UNL     1      13.836 -17.895  36.911  1.00  0.00     0.000 C 
BRANCH   4   5
ATOM      5  C   UNL     1      14.422 -16.891  35.911  1.00  0.00     0.000 C 
BRANCH   5   6
ATOM      6  C   UNL     1      15.836 -16.459  36.328  1.00  0.00     0.006 C 
BRANCH   6   7
ATOM      7  C   UNL     1      16.376 -15.321  35.454  1.00  0.00     0.053 C 
BRANCH   7   8
ATOM      8  C   UNL     1      17.470 -14.563  36.142  1.00  0.00     0.041 C 
ATOM      9  O   UNL     1      17.815 -13.426  35.724  1.00  0.00    -0.550 OA
ATOM     10  O   UNL     1      18.086 -15.098  37.266  1.00  0.00    -0.550 OA
ENDBRANCH   7   8
ENDBRANCH   6   7
ENDBRANCH   5   6
ENDBRANCH   4   5
ENDBRANCH   3   4
ENDBRANCH   2   3
ENDBRANCH   1   2
BRANCH   1  11
ATOM     11  C   UNL     1      15.186 -16.673  39.908  1.00  0.00     0.000 C 
BRANCH  11  12
ATOM     12  C   UNL     1      14.660 -15.237  40.084  1.00  0.00     0.000 C 
BRANCH  12  13
ATOM     13  C   UNL     1      15.689 -14.181  39.628  1.00  0.00     0.000 C 
BRANCH  13  14
ATOM     14  C   UNL     1      15.119 -13.153  38.635  1.00  0.00     0.000 C 
BRANCH  14  15
ATOM     15  C   UNL     1      13.955 -13.710  37.800  1.00  0.00     0.000 C 
BRANCH  15  16
ATOM     16  C   UNL     1      12.723 -12.782  37.817  1.00  0.00     0.006 C 
BRANCH  16  17
ATOM     17  C   UNL     1      11.687 -13.159  38.888  1.00  0.00     0.053 C 
BRANCH  17  18
ATOM     18  C   UNL     1      10.703 -14.173  38.394  1.00  0.00     0.041 C 
ATOM     19  O   UNL     1      10.586 -14.394  37.160  1.00  0.00    -0.550 OA
ATOM     20  O   UNL     1       9.897 -14.858  39.296  1.00  0.00    -0.550 OA
ENDBRANCH  17  18
ENDBRANCH  16  17
ENDBRANCH  15  16
ENDBRANCH  14  15
ENDBRANCH  13  14
ENDBRANCH  12  13
ENDBRANCH  11  12
ENDBRANCH   1  11
TORSDOF 15
ENDMDL
MODEL 5
REMARK VINA RESULT:    -4.355      2.228      2.889
REMARK INTER + INTRA:         -10.387
REMARK INTER:                  -8.722
REMARK INTRA:                  -1.665
REMARK UNBOUND:                -2.214
REMARK SMILES O=C([O-])CCCCCCCCCCCCCCC(=O)[O-]
REMARK SMILES IDX 10 1 9 2 8 3 7 4 6 5 5 6 4 7 2 8 1 9 3 10 11 11 12 12 13 13
REMARK SMILES IDX 14 14 15 15 16 16 17 17 18 18 19 19 20 20
REMARK H PARENT
REMARK Flexibility Score: inf
ROOT
ATOM      1  C   UNL     1      15.267 -14.936  40.336  1.00  0.00     0.000 C 
ENDROOT
BRANCH   1   2
ATOM      2  C   UNL     1      16.002 -13.913  39.457  1.00  0.00     0.000 C 
BRANCH   2   3
ATOM      3  C   UNL     1      15.013 -12.933  38.814  1.00  0.00     0.000 C 
BRANCH   3   4
ATOM      4  C   UNL     1      14.739 -13.307  37.352  1.00  0.00     0.000 C 
BRANCH   4   5
ATOM      5  C   UNL     1      15.962 -13.027  36.472  1.00  0.00     0.000 C 
BRANCH   5   6
ATOM      6  C   UNL     1      16.281 -14.231  35.572  1.00  0.00     0.006 C 
BRANCH   6   7
ATOM      7  C   UNL     1      17.229 -15.226  36.251  1.00  0.00     0.053 C 
BRANCH   7   8
ATOM      8  C   UNL     1      16.592 -16.571  36.424  1.00  0.00     0.041 C 
ATOM      9  O   UNL     1      15.448 -16.798  35.948  1.00  0.00    -0.550 OA
ATOM     10  O   UNL     1      17.276 -17.585  37.082  1.00  0.00    -0.550 OA
ENDBRANCH   7   8
ENDBRANCH   6   7
ENDBRANCH   5   6
ENDBRANCH   4   5
ENDBRANCH   3   4
ENDBRANCH   2   3
ENDBRANCH   1   2
BRANCH   1  11
ATOM     11  C   UNL     1      15.064 -16.286  39.629  1.00  0.00     0.000 C 
BRANCH  11  12
ATOM     12  C   UNL     1      13.588 -16.564  39.292  1.00  0.00     0.000 C 
BRANCH  12  13
ATOM     13  C   UNL     1      13.173 -18.007  39.647  1.00  0.00     0.000 C 
BRANCH  13  14
ATOM     14  C   UNL     1      14.361 -18.930  39.968  1.00  0.00     0.000 C 
BRANCH  14  15
ATOM     15  C   UNL     1      14.185 -20.349  39.404  1.00  0.00     0.000 C 
BRANCH  15  16
ATOM     16  C   UNL     1      12.745 -20.616  38.920  1.00  0.00     0.006 C 
BRANCH  16  17
ATOM     17  C   UNL     1      12.662 -21.023  37.440  1.00  0.00     0.053 C 
BRANCH  17  18
ATOM     18  C   UNL     1      12.088 -19.937  36.584  1.00  0.00     0.041 C 
ATOM     19  O   UNL     1      12.832 -19.028  36.129  1.00  0.00    -0.550 OA
ATOM     20  O   UNL     1      10.726 -19.915  36.309  1.00  0.00    -0.550 OA
ENDBRANCH  17  18
ENDBRANCH  16  17
ENDBRANCH  15  16
ENDBRANCH  14  15
ENDBRANCH  13  14
ENDBRANCH  12  13
ENDBRANCH  11  12
ENDBRANCH   1  11
TORSDOF 15
ENDMDL
MODEL 6
REMARK VINA RESULT:    -4.346      2.098      2.958
REMARK INTER + INTRA:         -10.370
REMARK INTER:                  -8.063
REMARK INTRA:                  -2.307
REMARK UNBOUND:                -2.214
REMARK SMILES O=C([O-])CCCCCCCCCCCCCCC(=O)[O-]
REMARK SMILES IDX 10 1 9 2 8 3 7 4 6 5 5 6 4 7 2 8 1 9 3 10 11 11 12 12 13 13
REMARK SMILES IDX 14 14 15 15 16 16 17 17 18 18 19 19 20 20
REMARK H PARENT
REMARK Flexibility Score: inf
ROOT
ATOM      1  C   UNL     1      15.356 -14.674  40.325  1.00  0.00     0.000 C 
ENDROOT
BRANCH   1   2
ATOM      2  C   UNL     1      15.995 -13.770  39.261  1.00  0.00     0.000 C 
BRANCH   2   3
ATOM      3  C   UNL     1      14.932 -12.922  38.552  1.00  0.00     0.000 C 
BRANCH   3   4
ATOM      4  C   UNL     1      14.983 -13.127  37.034  1.00  0.00     0.000 C 
BRANCH   4   5
ATOM      5  C   UNL     1      16.429 -13.121  36.525  1.00  0.00     0.000 C 
BRANCH   5   6
ATOM      6  C   UNL     1      16.664 -14.258  35.518  1.00  0.00     0.006 C 
BRANCH   6   7
ATOM      7  C   UNL     1      16.070 -15.588  35.997  1.00  0.00     0.053 C 
BRANCH   7   8
ATOM      8  C   UNL     1      16.998 -16.307  36.928  1.00  0.00     0.041 C 
ATOM      9  O   UNL     1      18.114 -15.805  37.226  1.00  0.00    -0.550 OA
ATOM     10  O   UNL     1      16.615 -17.517  37.494  1.00  0.00    -0.550 OA
ENDBRANCH   7   8
ENDBRANCH   6   7
ENDBRANCH   5   6
ENDBRANCH   4   5
ENDBRANCH   3   4
ENDBRANCH   2   3
ENDBRANCH   1   2
BRANCH   1  11
ATOM     11  C   UNL     1      14.484 -15.782  39.715  1.00  0.00     0.000 C 
BRANCH  11  12
ATOM     12  C   UNL     1      12.994 -15.630  40.071  1.00  0.00     0.000 C 
BRANCH  12  13
ATOM     13  C   UNL     1      12.077 -15.882  38.855  1.00  0.00     0.000 C 
BRANCH  13  14
ATOM     14  C   UNL     1      12.838 -16.013  37.525  1.00  0.00     0.000 C 
BRANCH  14  15
ATOM     15  C   UNL     1      12.623 -17.373  36.843  1.00  0.00     0.000 C 
BRANCH  15  16
ATOM     16  C   UNL     1      12.120 -18.450  37.826  1.00  0.00     0.006 C 
BRANCH  16  17
ATOM     17  C   UNL     1      13.223 -19.409  38.302  1.00  0.00     0.053 C 
BRANCH  17  18
ATOM     18  C   UNL     1      13.419 -19.357  39.785  1.00  0.00     0.041 C 
ATOM     19  O   UNL     1      12.446 -19.106  40.545  1.00  0.00    -0.550 OA
ATOM     20  O   UNL     1      14.681 -19.561  40.328  1.00  0.00    -0.550 OA
ENDBRANCH  17  18
ENDBRANCH  16  17
ENDBRANCH  15  16
ENDBRANCH  14  15
ENDBRANCH  13  14
ENDBRANCH  12  13
ENDBRANCH  11  12
ENDBRANCH   1  11
TORSDOF 15
ENDMDL
MODEL 7
REMARK VINA RESULT:    -4.319      2.774      5.130
REMARK INTER + INTRA:         -10.320
REMARK INTER:                  -7.925
REMARK INTRA:                  -2.395
REMARK UNBOUND:                -2.214
REMARK SMILES O=C([O-])CCCCCCCCCCCCCCC(=O)[O-]
REMARK SMILES IDX 10 1 9 2 8 3 7 4 6 5 5 6 4 7 2 8 1 9 3 10 11 11 12 12 13 13
REMARK SMILES IDX 14 14 15 15 16 16 17 17 18 18 19 19 20 20
REMARK H PARENT
REMARK Flexibility Score: inf
ROOT
ATOM      1  C   UNL     1      15.056 -17.005  39.779  1.00  0.00     0.000 C 
ENDROOT
BRANCH   1   2
ATOM      2  C   UNL     1      14.498 -15.596  40.028  1.00  0.00     0.000 C 
BRANCH   2   3
ATOM      3  C   UNL     1      15.568 -14.529  39.769  1.00  0.00     0.000 C 
BRANCH   3   4
ATOM      4  C   UNL     1      15.023 -13.405  38.881  1.00  0.00     0.000 C 
BRANCH   4   5
ATOM      5  C   UNL     1      13.823 -13.885  38.056  1.00  0.00     0.000 C 
BRANCH   5   6
ATOM      6  C   UNL     1      12.841 -12.734  37.790  1.00  0.00     0.006 C 
BRANCH   6   7
ATOM      7  C   UNL     1      11.804 -12.586  38.911  1.00  0.00     0.053 C 
BRANCH   7   8
ATOM      8  C   UNL     1      11.013 -13.843  39.105  1.00  0.00     0.041 C 
ATOM      9  O   UNL     1      10.372 -14.346  38.145  1.00  0.00    -0.550 OA
ATOM     10  O   UNL     1      11.011 -14.480  40.340  1.00  0.00    -0.550 OA
ENDBRANCH   7   8
ENDBRANCH   6   7
ENDBRANCH   5   6
ENDBRANCH   4   5
ENDBRANCH   3   4
ENDBRANCH   2   3
ENDBRANCH   1   2
BRANCH   1  11
ATOM     11  C   UNL     1      13.953 -18.070  39.680  1.00  0.00     0.000 C 
BRANCH  11  12
ATOM     12  C   UNL     1      12.566 -17.465  39.396  1.00  0.00     0.000 C 
BRANCH  12  13
ATOM     13  C   UNL     1      11.938 -18.029  38.104  1.00  0.00     0.000 C 
BRANCH  13  14
ATOM     14  C   UNL     1      12.965 -18.327  36.998  1.00  0.00     0.000 C 
BRANCH  14  15
ATOM     15  C   UNL     1      13.476 -17.058  36.298  1.00  0.00     0.000 C 
BRANCH  15  16
ATOM     16  C   UNL     1      14.937 -17.195  35.824  1.00  0.00     0.006 C 
BRANCH  16  17
ATOM     17  C   UNL     1      15.750 -15.897  35.960  1.00  0.00     0.053 C 
BRANCH  17  18
ATOM     18  C   UNL     1      17.019 -16.100  36.728  1.00  0.00     0.041 C 
ATOM     19  O   UNL     1      17.747 -15.115  37.022  1.00  0.00    -0.550 OA
ATOM     20  O   UNL     1      17.411 -17.381  37.097  1.00  0.00    -0.550 OA
ENDBRANCH  17  18
ENDBRANCH  16  17
ENDBRANCH  15  16
ENDBRANCH  14  15
ENDBRANCH  13  14
ENDBRANCH  12  13
ENDBRANCH  11  12
ENDBRANCH   1  11
TORSDOF 15
ENDMDL
MODEL 8
REMARK VINA RESULT:    -4.280      2.101      6.182
REMARK INTER + INTRA:         -10.247
REMARK INTER:                  -8.503
REMARK INTRA:                  -1.745
REMARK UNBOUND:                -2.214
REMARK SMILES O=C([O-])CCCCCCCCCCCCCCC(=O)[O-]
REMARK SMILES IDX 10 1 9 2 8 3 7 4 6 5 5 6 4 7 2 8 1 9 3 10 11 11 12 12 13 13
REMARK SMILES IDX 14 14 15 15 16 16 17 17 18 18 19 19 20 20
REMARK H PARENT
REMARK Flexibility Score: inf
ROOT
ATOM      1  C   UNL     1      13.476 -16.819  38.944  1.00  0.00     0.000 C 
ENDROOT
BRANCH   1   2
ATOM      2  C   UNL     1      13.565 -18.004  39.916  1.00  0.00     0.000 C 
BRANCH   2   3
ATOM      3  C   UNL     1      14.735 -18.926  39.551  1.00  0.00     0.000 C 
BRANCH   3   4
ATOM      4  C   UNL     1      14.592 -20.293  40.229  1.00  0.00     0.000 C 
BRANCH   4   5
ATOM      5  C   UNL     1      14.552 -21.422  39.192  1.00  0.00     0.000 C 
BRANCH   5   6
ATOM      6  C   UNL     1      13.105 -21.764  38.807  1.00  0.00     0.006 C 
BRANCH   6   7
ATOM      7  C   UNL     1      12.825 -21.509  37.321  1.00  0.00     0.053 C 
BRANCH   7   8
ATOM      8  C   UNL     1      12.218 -20.159  37.094  1.00  0.00     0.041 C 
ATOM      9  O   UNL     1      12.590 -19.451  36.120  1.00  0.00    -0.550 OA
ATOM     10  O   UNL     1      11.217 -19.695  37.938  1.00  0.00    -0.550 OA
ENDBRANCH   7   8
ENDBRANCH   6   7
ENDBRANCH   5   6
ENDBRANCH   4   5
ENDBRANCH   3   4
ENDBRANCH   2   3
ENDBRANCH   1   2
BRANCH   1  11
ATOM     11  C   UNL     1      13.757 -15.471  39.626  1.00  0.00     0.000 C 
BRANCH  11  12
ATOM     12  C   UNL     1      15.234 -15.300  40.020  1.00  0.00     0.000 C 
BRANCH  12  13
ATOM     13  C   UNL     1      15.809 -13.946  39.551  1.00  0.00     0.000 C 
BRANCH  13  14
ATOM     14  C   UNL     1      15.056 -13.338  38.356  1.00  0.00     0.000 C 
BRANCH  14  15
ATOM     15  C   UNL     1      15.970 -13.061  37.151  1.00  0.00     0.000 C 
BRANCH  15  16
ATOM     16  C   UNL     1      17.032 -14.161  36.953  1.00  0.00     0.006 C 
BRANCH  16  17
ATOM     17  C   UNL     1      16.725 -15.106  35.780  1.00  0.00     0.053 C 
BRANCH  17  18
ATOM     18  C   UNL     1      16.150 -16.410  36.237  1.00  0.00     0.041 C 
ATOM     19  O   UNL     1      15.093 -16.855  35.715  1.00  0.00    -0.550 OA
ATOM     20  O   UNL     1      16.766 -17.122  37.258  1.00  0.00    -0.550 OA
ENDBRANCH  17  18
ENDBRANCH  16  17
ENDBRANCH  15  16
ENDBRANCH  14  15
ENDBRANCH  13  14
ENDBRANCH  12  13
ENDBRANCH  11  12
ENDBRANCH   1  11
TORSDOF 15
ENDMDL
MODEL 9
REMARK VINA RESULT:    -4.270      1.322      6.131
REMARK INTER + INTRA:         -10.227
REMARK INTER:                  -8.224
REMARK INTRA:                  -2.004
REMARK UNBOUND:                -2.214
REMARK SMILES O=C([O-])CCCCCCCCCCCCCCC(=O)[O-]
REMARK SMILES IDX 10 1 9 2 8 3 7 4 6 5 5 6 4 7 2 8 1 9 3 10 11 11 12 12 13 13
REMARK SMILES IDX 14 14 15 15 16 16 17 17 18 18 19 19 20 20
REMARK H PARENT
REMARK Flexibility Score: inf
ROOT
ATOM      1  C   UNL     1      12.266 -15.282  38.195  1.00  0.00     0.000 C 
ENDROOT
BRANCH   1   2
ATOM      2  C   UNL     1      12.737 -16.389  39.150  1.00  0.00     0.000 C 
BRANCH   2   3
ATOM      3  C   UNL     1      13.900 -17.180  38.541  1.00  0.00     0.000 C 
BRANCH   3   4
ATOM      4  C   UNL     1      14.861 -17.674  39.629  1.00  0.00     0.000 C 
BRANCH   4   5
ATOM      5  C   UNL     1      15.442 -19.047  39.271  1.00  0.00     0.000 C 
BRANCH   5   6
ATOM      6  C   UNL     1      14.727 -20.166  40.043  1.00  0.00     0.006 C 
BRANCH   6   7
ATOM      7  C   UNL     1      14.180 -21.255  39.112  1.00  0.00     0.053 C 
BRANCH   7   8
ATOM      8  C   UNL     1      12.913 -20.825  38.438  1.00  0.00     0.041 C 
ATOM      9  O   UNL     1      12.054 -20.154  39.069  1.00  0.00    -0.550 OA
ATOM     10  O   UNL     1      12.696 -21.136  37.101  1.00  0.00    -0.550 OA
ENDBRANCH   7   8
ENDBRANCH   6   7
ENDBRANCH   5   6
ENDBRANCH   4   5
ENDBRANCH   3   4
ENDBRANCH   2   3
ENDBRANCH   1   2
BRANCH   1  11
ATOM     11  C   UNL     1      11.803 -14.018  38.936  1.00  0.00     0.000 C 
BRANCH  11  12
ATOM     12  C   UNL     1      12.521 -12.746  38.449  1.00  0.00     0.000 C 
BRANCH  12  13
ATOM     13  C   UNL     1      13.804 -13.071  37.655  1.00  0.00     0.000 C 
BRANCH  13  14
ATOM     14  C   UNL     1      15.100 -12.790  38.436  1.00  0.00     0.000 C 
BRANCH  14  15
ATOM     15  C   UNL     1      15.856 -14.072  38.820  1.00  0.00     0.000 C 
BRANCH  15  16
ATOM     16  C   UNL     1      17.115 -14.293  37.958  1.00  0.00     0.006 C 
BRANCH  16  17
ATOM     17  C   UNL     1      17.062 -15.576  37.113  1.00  0.00     0.053 C 
BRANCH  17  18
ATOM     18  C   UNL     1      16.178 -15.428  35.914  1.00  0.00     0.041 C 
ATOM     19  O   UNL     1      15.420 -16.371  35.565  1.00  0.00    -0.550 OA
ATOM     20  O   UNL     1      16.210 -14.258  35.165  1.00  0.00    -0.550 OA
ENDBRANCH  17  18
ENDBRANCH  16  17
ENDBRANCH  15  16
ENDBRANCH  14  15
ENDBRANCH  13  14
ENDBRANCH  12  13
ENDBRANCH  11  12
ENDBRANCH   1  11
TORSDOF 15
ENDMDL
