MODEL 1
REMARK VINA RESULT:    -6.111      0.000      0.000
REMARK INTER + INTRA:          -9.657
REMARK INTER:                  -8.433
REMARK INTRA:                  -1.225
REMARK UNBOUND:                -1.225
REMARK SMILES O=C([O-])[C@@H]1O[C@H](Oc2cc3oc(-c4ccccc4)cc(=O)c3c(O)c2O)[C@H](O)[C@@H](O)[C@@H]1O
REMARK SMILES IDX 7 1 6 2 4 3 31 4 5 5 29 6 27 7 2 8 1 9 3 10 32 11 30 13
REMARK SMILES IDX 28 15 8 17 25 18 9 19 23 20 10 21 22 22 11 23 20 24 12 25
REMARK SMILES IDX 19 26 21 27 26 28 24 30 13 32 14 33 18 34 15 35 17 36 16 37
REMARK H PARENT 32 12 30 14 28 16 26 29 24 31
REMARK Flexibility Score: inf
ROOT
ATOM      1  O   UNL     1      -5.698  -3.776   6.886  1.00  0.00    -0.458 OA
ENDROOT
BRANCH   1   2
ATOM      2  C   UNL     1      -6.009  -4.612   8.003  1.00  0.00     0.339 C 
ATOM      3  C   UNL     1      -5.387  -6.669   6.974  1.00  0.00     0.199 C 
ATOM      4  C   UNL     1      -4.118  -6.783   7.861  1.00  0.00     0.180 C 
ATOM      5  O   UNL     1      -6.422  -5.910   7.589  1.00  0.00    -0.328 OA
ATOM      6  C   UNL     1      -3.645  -5.411   8.349  1.00  0.00     0.181 C 
ATOM      7  C   UNL     1      -4.827  -4.666   8.985  1.00  0.00     0.214 C 
BRANCH   3   8
ATOM      8  C   UNL     1      -5.141  -6.227   5.548  1.00  0.00     0.073 C 
ATOM      9  O   UNL     1      -6.041  -6.398   4.685  1.00  0.00    -0.547 OA
ATOM     10  O   UNL     1      -3.953  -5.611   5.175  1.00  0.00    -0.547 OA
ENDBRANCH   3   8
BRANCH   4  11
ATOM     11  O   UNL     1      -3.077  -7.426   7.170  1.00  0.00    -0.387 OA
ATOM     12  H   UNL     1      -2.698  -6.758   6.540  1.00  0.00     0.211 HD
ENDBRANCH   4  11
BRANCH   6  13
ATOM     13  O   UNL     1      -2.625  -5.590   9.299  1.00  0.00    -0.387 OA
ATOM     14  H   UNL     1      -2.465  -6.567   9.373  1.00  0.00     0.211 HD
ENDBRANCH   6  13
BRANCH   7  15
ATOM     15  O   UNL     1      -4.451  -3.356   9.327  1.00  0.00    -0.384 OA
ATOM     16  H   UNL     1      -4.373  -3.326  10.316  1.00  0.00     0.211 HD
ENDBRANCH   7  15
ENDBRANCH   1   2
BRANCH   1  17
ATOM     17  C   UNL     1      -6.309  -2.543   6.598  1.00  0.00     0.172 A 
ATOM     18  C   UNL     1      -7.124  -2.460   5.460  1.00  0.00     0.201 A 
ATOM     19  C   UNL     1      -6.133  -1.415   7.415  1.00  0.00     0.098 A 
ATOM     20  C   UNL     1      -7.771  -1.241   5.131  1.00  0.00     0.176 A 
ATOM     21  C   UNL     1      -6.766  -0.212   7.107  1.00  0.00     0.146 A 
ATOM     22  C   UNL     1      -7.591  -0.109   5.965  1.00  0.00     0.111 A 
ATOM     23  O   UNL     1      -6.579   0.834   7.906  1.00  0.00    -0.456 OA
ATOM     24  C   UNL     1      -8.205   1.137   5.718  1.00  0.00     0.197 A 
ATOM     25  C   UNL     1      -7.135   2.024   7.696  1.00  0.00     0.138 A 
ATOM     26  C   UNL     1      -7.977   2.205   6.588  1.00  0.00     0.100 A 
ATOM     27  O   UNL     1      -8.965   1.314   4.727  1.00  0.00    -0.289 OA
BRANCH  18  28
ATOM     28  O   UNL     1      -7.266  -3.617   4.688  1.00  0.00    -0.502 OA
ATOM     29  H   UNL     1      -7.726  -4.461   4.999  1.00  0.00     0.293 HD
ENDBRANCH  18  28
BRANCH  20  30
ATOM     30  O   UNL     1      -8.584  -1.130   3.998  1.00  0.00    -0.504 OA
ATOM     31  H   UNL     1      -8.742  -0.275   3.485  1.00  0.00     0.293 HD
ENDBRANCH  20  30
BRANCH  25  32
ATOM     32  C   UNL     1      -6.856   3.122   8.655  1.00  0.00     0.017 A 
ATOM     33  C   UNL     1      -5.731   3.098   9.504  1.00  0.00     0.012 A 
ATOM     34  C   UNL     1      -7.750   4.206   8.748  1.00  0.00     0.012 A 
ATOM     35  C   UNL     1      -5.500   4.143  10.404  1.00  0.00     0.001 A 
ATOM     36  C   UNL     1      -7.514   5.247   9.649  1.00  0.00     0.001 A 
ATOM     37  C   UNL     1      -6.388   5.218  10.475  1.00  0.00     0.000 A 
ENDBRANCH  25  32
ENDBRANCH   1  17
TORSDOF 9
ENDMDL
MODEL 2
REMARK VINA RESULT:    -5.885      1.247      1.815
REMARK INTER + INTRA:          -9.346
REMARK INTER:                  -8.110
REMARK INTRA:                  -1.237
REMARK UNBOUND:                -1.225
REMARK SMILES O=C([O-])[C@@H]1O[C@H](Oc2cc3oc(-c4ccccc4)cc(=O)c3c(O)c2O)[C@H](O)[C@@H](O)[C@@H]1O
REMARK SMILES IDX 7 1 6 2 4 3 31 4 5 5 29 6 27 7 2 8 1 9 3 10 32 11 30 13
REMARK SMILES IDX 28 15 8 17 25 18 9 19 23 20 10 21 22 22 11 23 20 24 12 25
REMARK SMILES IDX 19 26 21 27 26 28 24 30 13 32 14 33 18 34 15 35 17 36 16 37
REMARK H PARENT 32 12 30 14 28 16 26 29 24 31
REMARK Flexibility Score: inf
ROOT
ATOM      1  O   UNL     1      -5.317  -5.046   7.686  1.00  0.00    -0.458 OA
ENDROOT
BRANCH   1   2
ATOM      2  C   UNL     1      -5.775  -5.728   8.858  1.00  0.00     0.339 C 
ATOM      3  C   UNL     1      -4.873  -7.859   8.290  1.00  0.00     0.199 C 
ATOM      4  C   UNL     1      -3.775  -7.737   9.380  1.00  0.00     0.180 C 
ATOM      5  O   UNL     1      -6.039  -7.102   8.596  1.00  0.00    -0.328 OA
ATOM      6  C   UNL     1      -3.468  -6.273   9.712  1.00  0.00     0.181 C 
ATOM      7  C   UNL     1      -4.781  -5.539  10.016  1.00  0.00     0.214 C 
BRANCH   3   8
ATOM      8  C   UNL     1      -4.406  -7.618   6.872  1.00  0.00     0.073 C 
ATOM      9  O   UNL     1      -5.221  -7.748   5.923  1.00  0.00    -0.547 OA
ATOM     10  O   UNL     1      -3.100  -7.229   6.595  1.00  0.00    -0.547 OA
ENDBRANCH   3   8
BRANCH   4  11
ATOM     11  O   UNL     1      -2.596  -8.390   8.984  1.00  0.00    -0.387 OA
ATOM     12  H   UNL     1      -2.649  -8.502   7.998  1.00  0.00     0.211 HD
ENDBRANCH   4  11
BRANCH   6  13
ATOM     13  O   UNL     1      -2.622  -6.226  10.833  1.00  0.00    -0.387 OA
ATOM     14  H   UNL     1      -2.849  -7.007  11.402  1.00  0.00     0.211 HD
ENDBRANCH   6  13
BRANCH   7  15
ATOM     15  O   UNL     1      -4.541  -4.166  10.199  1.00  0.00    -0.384 OA
ATOM     16  H   UNL     1      -5.420  -3.739  10.374  1.00  0.00     0.211 HD
ENDBRANCH   7  15
ENDBRANCH   1   2
BRANCH   1  17
ATOM     17  C   UNL     1      -5.898  -3.887   7.142  1.00  0.00     0.172 A 
ATOM     18  C   UNL     1      -6.520  -3.987   5.890  1.00  0.00     0.201 A 
ATOM     19  C   UNL     1      -5.876  -2.656   7.816  1.00  0.00     0.098 A 
ATOM     20  C   UNL     1      -7.129  -2.848   5.302  1.00  0.00     0.176 A 
ATOM     21  C   UNL     1      -6.473  -1.529   7.253  1.00  0.00     0.146 A 
ATOM     22  C   UNL     1      -7.106  -1.610   5.993  1.00  0.00     0.111 A 
ATOM     23  O   UNL     1      -6.437  -0.381   7.922  1.00  0.00    -0.456 OA
ATOM     24  C   UNL     1      -7.696  -0.432   5.486  1.00  0.00     0.197 A 
ATOM     25  C   UNL     1      -6.974   0.748   7.468  1.00  0.00     0.138 A 
ATOM     26  C   UNL     1      -7.630   0.748   6.228  1.00  0.00     0.100 A 
ATOM     27  O   UNL     1      -8.290  -0.417   4.374  1.00  0.00    -0.289 OA
BRANCH  18  28
ATOM     28  O   UNL     1      -6.516  -5.239   5.270  1.00  0.00    -0.502 OA
ATOM     29  H   UNL     1      -5.961  -6.027   5.572  1.00  0.00     0.293 HD
ENDBRANCH  18  28
BRANCH  20  30
ATOM     30  O   UNL     1      -7.752  -2.918   4.051  1.00  0.00    -0.504 OA
ATOM     31  H   UNL     1      -7.560  -2.299   3.277  1.00  0.00     0.293 HD
ENDBRANCH  20  30
BRANCH  25  32
ATOM     32  C   UNL     1      -6.873   1.972   8.302  1.00  0.00     0.017 A 
ATOM     33  C   UNL     1      -7.744   3.066   8.124  1.00  0.00     0.012 A 
ATOM     34  C   UNL     1      -5.863   2.062   9.280  1.00  0.00     0.012 A 
ATOM     35  C   UNL     1      -7.617   4.209   8.919  1.00  0.00     0.001 A 
ATOM     36  C   UNL     1      -5.742   3.207  10.072  1.00  0.00     0.001 A 
ATOM     37  C   UNL     1      -6.620   4.279   9.894  1.00  0.00     0.000 A 
ENDBRANCH  25  32
ENDBRANCH   1  17
TORSDOF 9
ENDMDL
MODEL 3
REMARK VINA RESULT:    -5.485      1.299      2.390
REMARK INTER + INTRA:          -8.794
REMARK INTER:                  -7.333
REMARK INTRA:                  -1.462
REMARK UNBOUND:                -1.225
REMARK SMILES O=C([O-])[C@@H]1O[C@H](Oc2cc3oc(-c4ccccc4)cc(=O)c3c(O)c2O)[C@H](O)[C@@H](O)[C@@H]1O
REMARK SMILES IDX 7 1 6 2 4 3 31 4 5 5 29 6 27 7 2 8 1 9 3 10 32 11 30 13
REMARK SMILES IDX 28 15 8 17 25 18 9 19 23 20 10 21 22 22 11 23 20 24 12 25
REMARK SMILES IDX 19 26 21 27 26 28 24 30 13 32 14 33 18 34 15 35 17 36 16 37
REMARK H PARENT 32 12 30 14 28 16 26 29 24 31
REMARK Flexibility Score: inf
ROOT
ATOM      1  O   UNL     1      -6.210  -4.554   6.962  1.00  0.00    -0.458 OA
ENDROOT
BRANCH   1   2
ATOM      2  C   UNL     1      -4.863  -5.020   7.083  1.00  0.00     0.339 C 
ATOM      3  C   UNL     1      -5.312  -6.703   8.709  1.00  0.00     0.199 C 
ATOM      4  C   UNL     1      -5.096  -7.833   7.668  1.00  0.00     0.180 C 
ATOM      5  O   UNL     1      -4.595  -5.516   8.390  1.00  0.00    -0.328 OA
ATOM      6  C   UNL     1      -5.354  -7.343   6.240  1.00  0.00     0.181 C 
ATOM      7  C   UNL     1      -4.550  -6.059   5.994  1.00  0.00     0.214 C 
BRANCH   3   8
ATOM      8  C   UNL     1      -6.755  -6.409   9.053  1.00  0.00     0.073 C 
ATOM      9  O   UNL     1      -7.017  -5.546   9.932  1.00  0.00    -0.547 OA
ATOM     10  O   UNL     1      -7.801  -7.050   8.401  1.00  0.00    -0.547 OA
ENDBRANCH   3   8
BRANCH   4  11
ATOM     11  O   UNL     1      -5.917  -8.938   7.946  1.00  0.00    -0.387 OA
ATOM     12  H   UNL     1      -6.698  -8.874   7.336  1.00  0.00     0.211 HD
ENDBRANCH   4  11
BRANCH   6  13
ATOM     13  O   UNL     1      -4.954  -8.340   5.334  1.00  0.00    -0.387 OA
ATOM     14  H   UNL     1      -4.346  -7.910   4.678  1.00  0.00     0.211 HD
ENDBRANCH   6  13
BRANCH   7  15
ATOM     15  O   UNL     1      -4.867  -5.519   4.736  1.00  0.00    -0.384 OA
ATOM     16  H   UNL     1      -4.414  -6.082   4.056  1.00  0.00     0.211 HD
ENDBRANCH   7  15
ENDBRANCH   1   2
BRANCH   1  17
ATOM     17  C   UNL     1      -6.589  -3.234   6.665  1.00  0.00     0.172 A 
ATOM     18  C   UNL     1      -7.236  -2.992   5.445  1.00  0.00     0.201 A 
ATOM     19  C   UNL     1      -6.348  -2.172   7.551  1.00  0.00     0.098 A 
ATOM     20  C   UNL     1      -7.647  -1.677   5.103  1.00  0.00     0.176 A 
ATOM     21  C   UNL     1      -6.749  -0.877   7.230  1.00  0.00     0.146 A 
ATOM     22  C   UNL     1      -7.403  -0.613   6.006  1.00  0.00     0.111 A 
ATOM     23  O   UNL     1      -6.507   0.103   8.096  1.00  0.00    -0.456 OA
ATOM     24  C   UNL     1      -7.787   0.721   5.750  1.00  0.00     0.197 A 
ATOM     25  C   UNL     1      -6.848   1.371   7.880  1.00  0.00     0.138 A 
ATOM     26  C   UNL     1      -7.510   1.713   6.691  1.00  0.00     0.100 A 
ATOM     27  O   UNL     1      -8.385   1.043   4.687  1.00  0.00    -0.289 OA
BRANCH  18  28
ATOM     28  O   UNL     1      -7.455  -4.088   4.607  1.00  0.00    -0.502 OA
ATOM     29  H   UNL     1      -7.967  -4.053   3.738  1.00  0.00     0.293 HD
ENDBRANCH  18  28
BRANCH  20  30
ATOM     30  O   UNL     1      -8.289  -1.407   3.889  1.00  0.00    -0.504 OA
ATOM     31  H   UNL     1      -8.667  -2.108   3.270  1.00  0.00     0.293 HD
ENDBRANCH  20  30
BRANCH  25  32
ATOM     32  C   UNL     1      -6.527   2.382   8.918  1.00  0.00     0.017 A 
ATOM     33  C   UNL     1      -5.620   2.112   9.963  1.00  0.00     0.012 A 
ATOM     34  C   UNL     1      -7.163   3.638   8.882  1.00  0.00     0.012 A 
ATOM     35  C   UNL     1      -5.346   3.082  10.932  1.00  0.00     0.001 A 
ATOM     36  C   UNL     1      -6.884   4.604   9.853  1.00  0.00     0.001 A 
ATOM     37  C   UNL     1      -5.974   4.328  10.876  1.00  0.00     0.000 A 
ENDBRANCH  25  32
ENDBRANCH   1  17
TORSDOF 9
ENDMDL
MODEL 4
REMARK VINA RESULT:    -5.385      1.863      3.231
REMARK INTER + INTRA:          -8.655
REMARK INTER:                  -7.177
REMARK INTRA:                  -1.478
REMARK UNBOUND:                -1.225
REMARK SMILES O=C([O-])[C@@H]1O[C@H](Oc2cc3oc(-c4ccccc4)cc(=O)c3c(O)c2O)[C@H](O)[C@@H](O)[C@@H]1O
REMARK SMILES IDX 7 1 6 2 4 3 31 4 5 5 29 6 27 7 2 8 1 9 3 10 32 11 30 13
REMARK SMILES IDX 28 15 8 17 25 18 9 19 23 20 10 21 22 22 11 23 20 24 12 25
REMARK SMILES IDX 19 26 21 27 26 28 24 30 13 32 14 33 18 34 15 35 17 36 16 37
REMARK H PARENT 32 12 30 14 28 16 26 29 24 31
REMARK Flexibility Score: inf
ROOT
ATOM      1  O   UNL     1      -5.038  -5.226   7.924  1.00  0.00    -0.458 OA
ENDROOT
BRANCH   1   2
ATOM      2  C   UNL     1      -4.588  -4.868   9.234  1.00  0.00     0.339 C 
ATOM      3  C   UNL     1      -5.976  -6.401  10.417  1.00  0.00     0.199 C 
ATOM      4  C   UNL     1      -4.761  -7.300  10.773  1.00  0.00     0.180 C 
ATOM      5  O   UNL     1      -5.612  -5.042  10.207  1.00  0.00    -0.328 OA
ATOM      6  C   UNL     1      -3.621  -7.134   9.763  1.00  0.00     0.181 C 
ATOM      7  C   UNL     1      -3.309  -5.640   9.595  1.00  0.00     0.214 C 
BRANCH   3   8
ATOM      8  C   UNL     1      -6.861  -6.922   9.307  1.00  0.00     0.073 C 
ATOM      9  O   UNL     1      -7.986  -6.391   9.113  1.00  0.00    -0.547 OA
ATOM     10  O   UNL     1      -6.449  -7.957   8.476  1.00  0.00    -0.547 OA
ENDBRANCH   3   8
BRANCH   4  11
ATOM     11  O   UNL     1      -5.137  -8.651  10.845  1.00  0.00    -0.387 OA
ATOM     12  H   UNL     1      -4.472  -9.162  10.313  1.00  0.00     0.211 HD
ENDBRANCH   4  11
BRANCH   6  13
ATOM     13  O   UNL     1      -2.486  -7.810  10.239  1.00  0.00    -0.387 OA
ATOM     14  H   UNL     1      -1.721  -7.181  10.170  1.00  0.00     0.211 HD
ENDBRANCH   6  13
BRANCH   7  15
ATOM     15  O   UNL     1      -2.354  -5.453   8.581  1.00  0.00    -0.384 OA
ATOM     16  H   UNL     1      -1.723  -4.758   8.902  1.00  0.00     0.211 HD
ENDBRANCH   7  15
ENDBRANCH   1   2
BRANCH   1  17
ATOM     17  C   UNL     1      -5.842  -4.425   7.094  1.00  0.00     0.172 A 
ATOM     18  C   UNL     1      -6.516  -5.044   6.032  1.00  0.00     0.201 A 
ATOM     19  C   UNL     1      -5.989  -3.045   7.306  1.00  0.00     0.098 A 
ATOM     20  C   UNL     1      -7.346  -4.280   5.172  1.00  0.00     0.176 A 
ATOM     21  C   UNL     1      -6.804  -2.283   6.472  1.00  0.00     0.146 A 
ATOM     22  C   UNL     1      -7.493  -2.889   5.397  1.00  0.00     0.111 A 
ATOM     23  O   UNL     1      -6.923  -0.980   6.705  1.00  0.00    -0.456 OA
ATOM     24  C   UNL     1      -8.306  -2.058   4.596  1.00  0.00     0.197 A 
ATOM     25  C   UNL     1      -7.673  -0.169   5.964  1.00  0.00     0.138 A 
ATOM     26  C   UNL     1      -8.396  -0.695   4.884  1.00  0.00     0.100 A 
ATOM     27  O   UNL     1      -8.963  -2.518   3.623  1.00  0.00    -0.289 OA
BRANCH  18  28
ATOM     28  O   UNL     1      -6.336  -6.421   5.874  1.00  0.00    -0.502 OA
ATOM     29  H   UNL     1      -5.545  -6.940   6.226  1.00  0.00     0.293 HD
ENDBRANCH  18  28
BRANCH  20  30
ATOM     30  O   UNL     1      -8.025  -4.872   4.100  1.00  0.00    -0.504 OA
ATOM     31  H   UNL     1      -9.002  -4.731   3.890  1.00  0.00     0.293 HD
ENDBRANCH  20  30
BRANCH  25  32
ATOM     32  C   UNL     1      -7.731   1.272   6.319  1.00  0.00     0.017 A 
ATOM     33  C   UNL     1      -7.074   1.784   7.457  1.00  0.00     0.012 A 
ATOM     34  C   UNL     1      -8.483   2.153   5.518  1.00  0.00     0.012 A 
ATOM     35  C   UNL     1      -7.155   3.144   7.769  1.00  0.00     0.001 A 
ATOM     36  C   UNL     1      -8.560   3.512   5.836  1.00  0.00     0.001 A 
ATOM     37  C   UNL     1      -7.894   4.008   6.959  1.00  0.00     0.000 A 
ENDBRANCH  25  32
ENDBRANCH   1  17
TORSDOF 9
ENDMDL
MODEL 5
REMARK VINA RESULT:    -5.124      1.923      8.212
REMARK INTER + INTRA:          -8.296
REMARK INTER:                  -7.032
REMARK INTRA:                  -1.263
REMARK UNBOUND:                -1.225
REMARK SMILES O=C([O-])[C@@H]1O[C@H](Oc2cc3oc(-c4ccccc4)cc(=O)c3c(O)c2O)[C@H](O)[C@@H](O)[C@@H]1O
REMARK SMILES IDX 7 1 6 2 4 3 31 4 5 5 29 6 27 7 2 8 1 9 3 10 32 11 30 13
REMARK SMILES IDX 28 15 8 17 25 18 9 19 23 20 10 21 22 22 11 23 20 24 12 25
REMARK SMILES IDX 19 26 21 27 26 28 24 30 13 32 14 33 18 34 15 35 17 36 16 37
REMARK H PARENT 32 12 30 14 28 16 26 29 24 31
REMARK Flexibility Score: inf
ROOT
ATOM      1  O   UNL     1      -7.594   1.096   6.892  1.00  0.00    -0.458 OA
ENDROOT
BRANCH   1   2
ATOM      2  C   UNL     1      -8.855   1.652   7.273  1.00  0.00     0.339 C 
ATOM      3  C   UNL     1      -8.059   2.816   9.194  1.00  0.00     0.199 C 
ATOM      4  C   UNL     1      -8.215   4.189   8.485  1.00  0.00     0.180 C 
ATOM      5  O   UNL     1      -8.947   1.828   8.682  1.00  0.00    -0.328 OA
ATOM      6  C   UNL     1      -8.143   4.049   6.961  1.00  0.00     0.181 C 
ATOM      7  C   UNL     1      -9.123   2.958   6.507  1.00  0.00     0.214 C 
BRANCH   3   8
ATOM      8  C   UNL     1      -6.642   2.298   9.292  1.00  0.00     0.073 C 
ATOM      9  O   UNL     1      -5.731   2.860   8.629  1.00  0.00    -0.547 OA
ATOM     10  O   UNL     1      -6.316   1.229  10.120  1.00  0.00    -0.547 OA
ENDBRANCH   3   8
BRANCH   4  11
ATOM     11  O   UNL     1      -7.238   5.097   8.925  1.00  0.00    -0.387 OA
ATOM     12  H   UNL     1      -6.725   5.376   8.122  1.00  0.00     0.211 HD
ENDBRANCH   4  11
BRANCH   6  13
ATOM     13  O   UNL     1      -8.486   5.278   6.373  1.00  0.00    -0.387 OA
ATOM     14  H   UNL     1      -7.669   5.628   5.931  1.00  0.00     0.211 HD
ENDBRANCH   6  13
BRANCH   7  15
ATOM     15  O   UNL     1      -8.984   2.722   5.129  1.00  0.00    -0.384 OA
ATOM     16  H   UNL     1      -8.464   3.481   4.755  1.00  0.00     0.211 HD
ENDBRANCH   7  15
ENDBRANCH   1   2
BRANCH   1  17
ATOM     17  C   UNL     1      -7.343  -0.269   6.666  1.00  0.00     0.172 A 
ATOM     18  C   UNL     1      -7.808  -0.836   5.470  1.00  0.00     0.201 A 
ATOM     19  C   UNL     1      -6.644  -1.061   7.589  1.00  0.00     0.098 A 
ATOM     20  C   UNL     1      -7.572  -2.207   5.191  1.00  0.00     0.176 A 
ATOM     21  C   UNL     1      -6.401  -2.408   7.326  1.00  0.00     0.146 A 
ATOM     22  C   UNL     1      -6.860  -2.997   6.127  1.00  0.00     0.111 A 
ATOM     23  O   UNL     1      -5.731  -3.127   8.222  1.00  0.00    -0.456 OA
ATOM     24  C   UNL     1      -6.574  -4.364   5.924  1.00  0.00     0.197 A 
ATOM     25  C   UNL     1      -5.454  -4.418   8.065  1.00  0.00     0.138 A 
ATOM     26  C   UNL     1      -5.867  -5.074   6.896  1.00  0.00     0.100 A 
ATOM     27  O   UNL     1      -6.938  -4.966   4.877  1.00  0.00    -0.289 OA
BRANCH  18  28
ATOM     28  O   UNL     1      -8.493   0.004   4.587  1.00  0.00    -0.502 OA
ATOM     29  H   UNL     1      -8.324   0.994   4.490  1.00  0.00     0.293 HD
ENDBRANCH  18  28
BRANCH  20  30
ATOM     30  O   UNL     1      -8.031  -2.799   4.008  1.00  0.00    -0.504 OA
ATOM     31  H   UNL     1      -8.931  -2.622   3.588  1.00  0.00     0.293 HD
ENDBRANCH  20  30
BRANCH  25  32
ATOM     32  C   UNL     1      -4.698  -5.121   9.133  1.00  0.00     0.017 A 
ATOM     33  C   UNL     1      -3.808  -4.437   9.985  1.00  0.00     0.012 A 
ATOM     34  C   UNL     1      -4.848  -6.513   9.286  1.00  0.00     0.012 A 
ATOM     35  C   UNL     1      -3.104  -5.129  10.975  1.00  0.00     0.001 A 
ATOM     36  C   UNL     1      -4.141  -7.198  10.278  1.00  0.00     0.001 A 
ATOM     37  C   UNL     1      -3.272  -6.506  11.125  1.00  0.00     0.000 A 
ENDBRANCH  25  32
ENDBRANCH   1  17
TORSDOF 9
ENDMDL
MODEL 6
REMARK VINA RESULT:    -4.904      2.189      9.063
REMARK INTER + INTRA:          -7.991
REMARK INTER:                  -6.651
REMARK INTRA:                  -1.340
REMARK UNBOUND:                -1.225
REMARK SMILES O=C([O-])[C@@H]1O[C@H](Oc2cc3oc(-c4ccccc4)cc(=O)c3c(O)c2O)[C@H](O)[C@@H](O)[C@@H]1O
REMARK SMILES IDX 7 1 6 2 4 3 31 4 5 5 29 6 27 7 2 8 1 9 3 10 32 11 30 13
REMARK SMILES IDX 28 15 8 17 25 18 9 19 23 20 10 21 22 22 11 23 20 24 12 25
REMARK SMILES IDX 19 26 21 27 26 28 24 30 13 32 14 33 18 34 15 35 17 36 16 37
REMARK H PARENT 32 12 30 14 28 16 26 29 24 31
REMARK Flexibility Score: inf
ROOT
ATOM      1  O   UNL     1      -6.816  -0.869   7.732  1.00  0.00    -0.458 OA
ENDROOT
BRANCH   1   2
ATOM      2  C   UNL     1      -8.165  -0.399   7.656  1.00  0.00     0.339 C 
ATOM      3  C   UNL     1      -7.858   1.510   9.048  1.00  0.00     0.199 C 
ATOM      4  C   UNL     1      -7.967   2.471   7.834  1.00  0.00     0.180 C 
ATOM      5  O   UNL     1      -8.551   0.284   8.844  1.00  0.00    -0.328 OA
ATOM      6  C   UNL     1      -7.580   1.775   6.526  1.00  0.00     0.181 C 
ATOM      7  C   UNL     1      -8.367   0.463   6.399  1.00  0.00     0.214 C 
BRANCH   3   8
ATOM      8  C   UNL     1      -6.455   1.280   9.565  1.00  0.00     0.073 C 
ATOM      9  O   UNL     1      -6.288   0.615  10.621  1.00  0.00    -0.547 OA
ATOM     10  O   UNL     1      -5.343   1.764   8.886  1.00  0.00    -0.547 OA
ENDBRANCH   3   8
BRANCH   4  11
ATOM     11  O   UNL     1      -7.167   3.611   8.020  1.00  0.00    -0.387 OA
ATOM     12  H   UNL     1      -7.739   4.398   7.821  1.00  0.00     0.211 HD
ENDBRANCH   4  11
BRANCH   6  13
ATOM     13  O   UNL     1      -7.887   2.624   5.448  1.00  0.00    -0.387 OA
ATOM     14  H   UNL     1      -7.281   2.376   4.701  1.00  0.00     0.211 HD
ENDBRANCH   6  13
BRANCH   7  15
ATOM     15  O   UNL     1      -7.938  -0.256   5.271  1.00  0.00    -0.384 OA
ATOM     16  H   UNL     1      -7.477   0.389   4.674  1.00  0.00     0.211 HD
ENDBRANCH   7  15
ENDBRANCH   1   2
BRANCH   1  17
ATOM     17  C   UNL     1      -6.421  -2.217   7.688  1.00  0.00     0.172 A 
ATOM     18  C   UNL     1      -5.746  -2.743   8.798  1.00  0.00     0.201 A 
ATOM     19  C   UNL     1      -6.691  -3.037   6.581  1.00  0.00     0.098 A 
ATOM     20  C   UNL     1      -5.335  -4.101   8.807  1.00  0.00     0.176 A 
ATOM     21  C   UNL     1      -6.297  -4.374   6.576  1.00  0.00     0.146 A 
ATOM     22  C   UNL     1      -5.617  -4.922   7.686  1.00  0.00     0.111 A 
ATOM     23  O   UNL     1      -6.573  -5.121   5.512  1.00  0.00    -0.456 OA
ATOM     24  C   UNL     1      -5.253  -6.284   7.616  1.00  0.00     0.197 A 
ATOM     25  C   UNL     1      -6.236  -6.404   5.412  1.00  0.00     0.138 A 
ATOM     26  C   UNL     1      -5.566  -7.026   6.476  1.00  0.00     0.100 A 
ATOM     27  O   UNL     1      -4.653  -6.857   8.566  1.00  0.00    -0.289 OA
BRANCH  18  28
ATOM     28  O   UNL     1      -5.511  -1.881   9.873  1.00  0.00    -0.502 OA
ATOM     29  H   UNL     1      -4.632  -1.800  10.362  1.00  0.00     0.293 HD
ENDBRANCH  18  28
BRANCH  20  30
ATOM     30  O   UNL     1      -4.654  -4.650   9.900  1.00  0.00    -0.504 OA
ATOM     31  H   UNL     1      -3.971  -4.159  10.456  1.00  0.00     0.293 HD
ENDBRANCH  20  30
BRANCH  25  32
ATOM     32  C   UNL     1      -6.596  -7.141   4.174  1.00  0.00     0.017 A 
ATOM     33  C   UNL     1      -7.516  -6.621   3.241  1.00  0.00     0.012 A 
ATOM     34  C   UNL     1      -6.029  -8.408   3.932  1.00  0.00     0.012 A 
ATOM     35  C   UNL     1      -7.842  -7.344   2.090  1.00  0.00     0.001 A 
ATOM     36  C   UNL     1      -6.359  -9.125   2.779  1.00  0.00     0.001 A 
ATOM     37  C   UNL     1      -7.262  -8.593   1.856  1.00  0.00     0.000 A 
ENDBRANCH  25  32
ENDBRANCH   1  17
TORSDOF 9
ENDMDL
MODEL 7
REMARK VINA RESULT:    -4.827      2.194      8.389
REMARK INTER + INTRA:          -7.886
REMARK INTER:                  -6.563
REMARK INTRA:                  -1.324
REMARK UNBOUND:                -1.225
REMARK SMILES O=C([O-])[C@@H]1O[C@H](Oc2cc3oc(-c4ccccc4)cc(=O)c3c(O)c2O)[C@H](O)[C@@H](O)[C@@H]1O
REMARK SMILES IDX 7 1 6 2 4 3 31 4 5 5 29 6 27 7 2 8 1 9 3 10 32 11 30 13
REMARK SMILES IDX 28 15 8 17 25 18 9 19 23 20 10 21 22 22 11 23 20 24 12 25
REMARK SMILES IDX 19 26 21 27 26 28 24 30 13 32 14 33 18 34 15 35 17 36 16 37
REMARK H PARENT 32 12 30 14 28 16 26 29 24 31
REMARK Flexibility Score: inf
ROOT
ATOM      1  O   UNL     1      -7.652   2.285   7.331  1.00  0.00    -0.458 OA
ENDROOT
BRANCH   1   2
ATOM      2  C   UNL     1      -8.802   2.908   7.911  1.00  0.00     0.339 C 
ATOM      3  C   UNL     1      -7.744   3.578   9.938  1.00  0.00     0.199 C 
ATOM      4  C   UNL     1      -7.755   5.069   9.506  1.00  0.00     0.180 C 
ATOM      5  O   UNL     1      -8.785   2.821   9.332  1.00  0.00    -0.328 OA
ATOM      6  C   UNL     1      -7.792   5.215   7.982  1.00  0.00     0.181 C 
ATOM      7  C   UNL     1      -8.935   4.359   7.420  1.00  0.00     0.214 C 
BRANCH   3   8
ATOM      8  C   UNL     1      -6.406   2.882   9.822  1.00  0.00     0.073 C 
ATOM      9  O   UNL     1      -6.265   1.730  10.309  1.00  0.00    -0.547 OA
ATOM     10  O   UNL     1      -5.335   3.474   9.163  1.00  0.00    -0.547 OA
ENDBRANCH   3   8
BRANCH   4  11
ATOM     11  O   UNL     1      -6.640   5.751  10.021  1.00  0.00    -0.387 OA
ATOM     12  H   UNL     1      -5.835   5.307   9.645  1.00  0.00     0.211 HD
ENDBRANCH   4  11
BRANCH   6  13
ATOM     13  O   UNL     1      -8.001   6.566   7.657  1.00  0.00    -0.387 OA
ATOM     14  H   UNL     1      -8.192   6.605   6.683  1.00  0.00     0.211 HD
ENDBRANCH   6  13
BRANCH   7  15
ATOM     15  O   UNL     1      -8.912   4.375   6.015  1.00  0.00    -0.384 OA
ATOM     16  H   UNL     1      -8.534   5.251   5.742  1.00  0.00     0.211 HD
ENDBRANCH   7  15
ENDBRANCH   1   2
BRANCH   1  17
ATOM     17  C   UNL     1      -7.605   0.971   6.832  1.00  0.00     0.172 A 
ATOM     18  C   UNL     1      -8.255   0.703   5.619  1.00  0.00     0.201 A 
ATOM     19  C   UNL     1      -6.927  -0.057   7.504  1.00  0.00     0.098 A 
ATOM     20  C   UNL     1      -8.229  -0.604   5.069  1.00  0.00     0.176 A 
ATOM     21  C   UNL     1      -6.888  -1.345   6.974  1.00  0.00     0.146 A 
ATOM     22  C   UNL     1      -7.536  -1.635   5.752  1.00  0.00     0.111 A 
ATOM     23  O   UNL     1      -6.233  -2.294   7.636  1.00  0.00    -0.456 OA
ATOM     24  C   UNL     1      -7.452  -2.959   5.271  1.00  0.00     0.197 A 
ATOM     25  C   UNL     1      -6.143  -3.552   7.214  1.00  0.00     0.138 A 
ATOM     26  C   UNL     1      -6.751  -3.918   6.004  1.00  0.00     0.100 A 
ATOM     27  O   UNL     1      -7.992  -3.302   4.184  1.00  0.00    -0.289 OA
BRANCH  18  28
ATOM     28  O   UNL     1      -8.909   1.768   4.993  1.00  0.00    -0.502 OA
ATOM     29  H   UNL     1      -8.476   2.399   4.334  1.00  0.00     0.293 HD
ENDBRANCH  18  28
BRANCH  20  30
ATOM     30  O   UNL     1      -8.875  -0.901   3.863  1.00  0.00    -0.504 OA
ATOM     31  H   UNL     1      -8.440  -1.356   3.075  1.00  0.00     0.293 HD
ENDBRANCH  20  30
BRANCH  25  32
ATOM     32  C   UNL     1      -5.383  -4.527   8.036  1.00  0.00     0.017 A 
ATOM     33  C   UNL     1      -5.106  -5.831   7.576  1.00  0.00     0.012 A 
ATOM     34  C   UNL     1      -4.950  -4.158   9.324  1.00  0.00     0.012 A 
ATOM     35  C   UNL     1      -4.397  -6.729   8.378  1.00  0.00     0.001 A 
ATOM     36  C   UNL     1      -4.241  -5.061  10.121  1.00  0.00     0.001 A 
ATOM     37  C   UNL     1      -3.961  -6.345   9.648  1.00  0.00     0.000 A 
ENDBRANCH  25  32
ENDBRANCH   1  17
TORSDOF 9
ENDMDL
MODEL 8
REMARK VINA RESULT:    -4.778      1.938      8.271
REMARK INTER + INTRA:          -7.818
REMARK INTER:                  -6.502
REMARK INTRA:                  -1.316
REMARK UNBOUND:                -1.225
REMARK SMILES O=C([O-])[C@@H]1O[C@H](Oc2cc3oc(-c4ccccc4)cc(=O)c3c(O)c2O)[C@H](O)[C@@H](O)[C@@H]1O
REMARK SMILES IDX 7 1 6 2 4 3 31 4 5 5 29 6 27 7 2 8 1 9 3 10 32 11 30 13
REMARK SMILES IDX 28 15 8 17 25 18 9 19 23 20 10 21 22 22 11 23 20 24 12 25
REMARK SMILES IDX 19 26 21 27 26 28 24 30 13 32 14 33 18 34 15 35 17 36 16 37
REMARK H PARENT 32 12 30 14 28 16 26 29 24 31
REMARK Flexibility Score: inf
ROOT
ATOM      1  O   UNL     1      -7.140  -0.328   7.963  1.00  0.00    -0.458 OA
ENDROOT
BRANCH   1   2
ATOM      2  C   UNL     1      -6.152   0.523   8.551  1.00  0.00     0.339 C 
ATOM      3  C   UNL     1      -6.909   2.543   7.540  1.00  0.00     0.199 C 
ATOM      4  C   UNL     1      -7.465   3.067   8.891  1.00  0.00     0.180 C 
ATOM      5  O   UNL     1      -5.836   1.623   7.705  1.00  0.00    -0.328 OA
ATOM      6  C   UNL     1      -7.803   1.917   9.846  1.00  0.00     0.181 C 
ATOM      7  C   UNL     1      -6.594   0.977   9.952  1.00  0.00     0.214 C 
BRANCH   3   8
ATOM      8  C   UNL     1      -7.948   2.022   6.572  1.00  0.00     0.073 C 
ATOM      9  O   UNL     1      -9.119   1.807   6.980  1.00  0.00    -0.547 OA
ATOM     10  O   UNL     1      -7.646   1.802   5.233  1.00  0.00    -0.547 OA
ENDBRANCH   3   8
BRANCH   4  11
ATOM     11  O   UNL     1      -8.601   3.867   8.692  1.00  0.00    -0.387 OA
ATOM     12  H   UNL     1      -9.297   3.538   9.320  1.00  0.00     0.211 HD
ENDBRANCH   4  11
BRANCH   6  13
ATOM     13  O   UNL     1      -8.109   2.448  11.111  1.00  0.00    -0.387 OA
ATOM     14  H   UNL     1      -7.807   3.394  11.110  1.00  0.00     0.211 HD
ENDBRANCH   6  13
BRANCH   7  15
ATOM     15  O   UNL     1      -6.922  -0.152  10.721  1.00  0.00    -0.384 OA
ATOM     16  H   UNL     1      -6.261  -0.201  11.460  1.00  0.00     0.211 HD
ENDBRANCH   7  15
ENDBRANCH   1   2
BRANCH   1  17
ATOM     17  C   UNL     1      -6.909  -1.628   7.481  1.00  0.00     0.172 A 
ATOM     18  C   UNL     1      -7.407  -1.959   6.212  1.00  0.00     0.201 A 
ATOM     19  C   UNL     1      -6.198  -2.583   8.224  1.00  0.00     0.098 A 
ATOM     20  C   UNL     1      -7.193  -3.256   5.678  1.00  0.00     0.176 A 
ATOM     21  C   UNL     1      -5.977  -3.860   7.710  1.00  0.00     0.146 A 
ATOM     22  C   UNL     1      -6.469  -4.212   6.433  1.00  0.00     0.111 A 
ATOM     23  O   UNL     1      -5.295  -4.737   8.440  1.00  0.00    -0.456 OA
ATOM     24  C   UNL     1      -6.202  -5.519   5.973  1.00  0.00     0.197 A 
ATOM     25  C   UNL     1      -5.035  -5.978   8.039  1.00  0.00     0.138 A 
ATOM     26  C   UNL     1      -5.481  -6.402   6.778  1.00  0.00     0.100 A 
ATOM     27  O   UNL     1      -6.595  -5.913   4.841  1.00  0.00    -0.289 OA
BRANCH  18  28
ATOM     28  O   UNL     1      -8.102  -0.966   5.517  1.00  0.00    -0.502 OA
ATOM     29  H   UNL     1      -8.095  -0.856   4.514  1.00  0.00     0.293 HD
ENDBRANCH  18  28
BRANCH  20  30
ATOM     30  O   UNL     1      -7.684  -3.614   4.417  1.00  0.00    -0.504 OA
ATOM     31  H   UNL     1      -7.418  -4.447   3.912  1.00  0.00     0.293 HD
ENDBRANCH  20  30
BRANCH  25  32
ATOM     32  C   UNL     1      -4.264  -6.872   8.939  1.00  0.00     0.017 A 
ATOM     33  C   UNL     1      -4.083  -6.574  10.305  1.00  0.00     0.012 A 
ATOM     34  C   UNL     1      -3.670  -8.037   8.416  1.00  0.00     0.012 A 
ATOM     35  C   UNL     1      -3.343  -7.431  11.125  1.00  0.00     0.001 A 
ATOM     36  C   UNL     1      -2.932  -8.890   9.241  1.00  0.00     0.001 A 
ATOM     37  C   UNL     1      -2.771  -8.589  10.596  1.00  0.00     0.000 A 
ENDBRANCH  25  32
ENDBRANCH   1  17
TORSDOF 9
ENDMDL
MODEL 9
REMARK VINA RESULT:    -4.616      2.641      8.894
REMARK INTER + INTRA:          -7.595
REMARK INTER:                  -6.444
REMARK INTRA:                  -1.150
REMARK UNBOUND:                -1.225
REMARK SMILES O=C([O-])[C@@H]1O[C@H](Oc2cc3oc(-c4ccccc4)cc(=O)c3c(O)c2O)[C@H](O)[C@@H](O)[C@@H]1O
REMARK SMILES IDX 7 1 6 2 4 3 31 4 5 5 29 6 27 7 2 8 1 9 3 10 32 11 30 13
REMARK SMILES IDX 28 15 8 17 25 18 9 19 23 20 10 21 22 22 11 23 20 24 12 25
REMARK SMILES IDX 19 26 21 27 26 28 24 30 13 32 14 33 18 34 15 35 17 36 16 37
REMARK H PARENT 32 12 30 14 28 16 26 29 24 31
REMARK Flexibility Score: inf
ROOT
ATOM      1  O   UNL     1      -6.144  -2.010   8.385  1.00  0.00    -0.458 OA
ENDROOT
BRANCH   1   2
ATOM      2  C   UNL     1      -6.951  -1.111   7.619  1.00  0.00     0.339 C 
ATOM      3  C   UNL     1      -8.335  -0.399   9.423  1.00  0.00     0.199 C 
ATOM      4  C   UNL     1      -7.661   0.999   9.451  1.00  0.00     0.180 C 
ATOM      5  O   UNL     1      -8.272  -1.016   8.142  1.00  0.00    -0.328 OA
ATOM      6  C   UNL     1      -6.241   0.952   8.878  1.00  0.00     0.181 C 
ATOM      7  C   UNL     1      -6.272   0.263   7.507  1.00  0.00     0.214 C 
BRANCH   3   8
ATOM      8  C   UNL     1      -7.906  -1.345  10.522  1.00  0.00     0.073 C 
ATOM      9  O   UNL     1      -8.687  -2.262  10.888  1.00  0.00    -0.547 OA
ATOM     10  O   UNL     1      -6.654  -1.244  11.118  1.00  0.00    -0.547 OA
ENDBRANCH   3   8
BRANCH   4  11
ATOM     11  O   UNL     1      -7.629   1.517  10.756  1.00  0.00    -0.387 OA
ATOM     12  H   UNL     1      -8.555   1.458  11.110  1.00  0.00     0.211 HD
ENDBRANCH   4  11
BRANCH   6  13
ATOM     13  O   UNL     1      -5.758   2.265   8.745  1.00  0.00    -0.387 OA
ATOM     14  H   UNL     1      -5.497   2.384   7.794  1.00  0.00     0.211 HD
ENDBRANCH   6  13
BRANCH   7  15
ATOM     15  O   UNL     1      -4.966   0.094   7.017  1.00  0.00    -0.384 OA
ATOM     16  H   UNL     1      -4.432   0.866   7.341  1.00  0.00     0.211 HD
ENDBRANCH   7  15
ENDBRANCH   1   2
BRANCH   1  17
ATOM     17  C   UNL     1      -5.805  -3.321   8.006  1.00  0.00     0.172 A 
ATOM     18  C   UNL     1      -4.990  -4.067   8.869  1.00  0.00     0.201 A 
ATOM     19  C   UNL     1      -6.261  -3.892   6.808  1.00  0.00     0.098 A 
ATOM     20  C   UNL     1      -4.627  -5.397   8.536  1.00  0.00     0.176 A 
ATOM     21  C   UNL     1      -5.916  -5.199   6.469  1.00  0.00     0.146 A 
ATOM     22  C   UNL     1      -5.097  -5.967   7.327  1.00  0.00     0.111 A 
ATOM     23  O   UNL     1      -6.370  -5.708   5.328  1.00  0.00    -0.456 OA
ATOM     24  C   UNL     1      -4.792  -7.285   6.924  1.00  0.00     0.197 A 
ATOM     25  C   UNL     1      -6.094  -6.943   4.916  1.00  0.00     0.138 A 
ATOM     26  C   UNL     1      -5.295  -7.773   5.717  1.00  0.00     0.100 A 
ATOM     27  O   UNL     1      -4.077  -8.043   7.634  1.00  0.00    -0.289 OA
BRANCH  18  28
ATOM     28  O   UNL     1      -4.571  -3.448  10.050  1.00  0.00    -0.502 OA
ATOM     29  H   UNL     1      -4.209  -3.935  10.856  1.00  0.00     0.293 HD
ENDBRANCH  18  28
BRANCH  20  30
ATOM     30  O   UNL     1      -3.810  -6.162   9.377  1.00  0.00    -0.504 OA
ATOM     31  H   UNL     1      -3.948  -6.268  10.371  1.00  0.00     0.293 HD
ENDBRANCH  20  30
BRANCH  25  32
ATOM     32  C   UNL     1      -6.657  -7.406   3.623  1.00  0.00     0.017 A 
ATOM     33  C   UNL     1      -6.092  -8.483   2.910  1.00  0.00     0.012 A 
ATOM     34  C   UNL     1      -7.767  -6.738   3.072  1.00  0.00     0.012 A 
ATOM     35  C   UNL     1      -6.640  -8.889   1.690  1.00  0.00     0.001 A 
ATOM     36  C   UNL     1      -8.310  -7.149   1.852  1.00  0.00     0.001 A 
ATOM     37  C   UNL     1      -7.749  -8.226   1.162  1.00  0.00     0.000 A 
ENDBRANCH  25  32
ENDBRANCH   1  17
TORSDOF 9
ENDMDL
