MODEL 1
REMARK VINA RESULT:    -3.213      0.000      0.000
REMARK INTER + INTRA:          -3.213
REMARK INTER:                  -3.213
REMARK INTRA:                   0.000
REMARK UNBOUND:                 0.000
REMARK SMILES CC(=O)[O-]
REMARK SMILES IDX 1 1 2 2 3 3 4 4
REMARK H PARENT
REMARK Flexibility Score: inf
ROOT
ATOM      1  C   UNL     1      -5.509   8.376   4.848  1.00  0.00     0.063 C 
ATOM      2  C   UNL     1      -6.754   8.224   4.041  1.00  0.00     0.038 C 
ATOM      3  O   UNL     1      -7.185   7.076   3.755  1.00  0.00    -0.550 OA
ATOM      4  O   UNL     1      -7.470   9.347   3.649  1.00  0.00    -0.550 OA
ENDROOT
TORSDOF 0
ENDMDL
MODEL 2
REMARK VINA RESULT:    -2.945      1.479      1.953
REMARK INTER + INTRA:          -2.945
REMARK INTER:                  -2.945
REMARK INTRA:                   0.000
REMARK UNBOUND:                 0.000
REMARK SMILES CC(=O)[O-]
REMARK SMILES IDX 1 1 2 2 3 3 4 4
REMARK H PARENT
REMARK Flexibility Score: inf
ROOT
ATOM      1  C   UNL     1      -6.620   7.364   3.758  1.00  0.00     0.063 C 
ATOM      2  C   UNL     1      -6.593   8.820   4.078  1.00  0.00     0.038 C 
ATOM      3  O   UNL     1      -7.521   9.572   3.679  1.00  0.00    -0.550 OA
ATOM      4  O   UNL     1      -5.574   9.341   4.863  1.00  0.00    -0.550 OA
ENDROOT
TORSDOF 0
ENDMDL
MODEL 3
REMARK VINA RESULT:    -2.516      9.825     10.132
REMARK INTER + INTRA:          -2.516
REMARK INTER:                  -2.516
REMARK INTRA:                   0.000
REMARK UNBOUND:                 0.000
REMARK SMILES CC(=O)[O-]
REMARK SMILES IDX 1 1 2 2 3 3 4 4
REMARK H PARENT
REMARK Flexibility Score: inf
ROOT
ATOM      1  C   UNL     1      -0.737   3.335  -1.388  1.00  0.00     0.063 C 
ATOM      2  C   UNL     1      -1.426   2.656  -2.523  1.00  0.00     0.038 C 
ATOM      3  O   UNL     1      -0.890   1.666  -3.086  1.00  0.00    -0.550 OA
ATOM      4  O   UNL     1      -2.685   3.080  -2.926  1.00  0.00    -0.550 OA
ENDROOT
TORSDOF 0
ENDMDL
MODEL 4
REMARK VINA RESULT:    -2.485      9.911     10.232
REMARK INTER + INTRA:          -2.485
REMARK INTER:                  -2.485
REMARK INTRA:                   0.000
REMARK UNBOUND:                 0.000
REMARK SMILES CC(=O)[O-]
REMARK SMILES IDX 1 1 2 2 3 3 4 4
REMARK H PARENT
REMARK Flexibility Score: inf
ROOT
ATOM      1  C   UNL     1      -0.822   1.563  -3.170  1.00  0.00     0.063 C 
ATOM      2  C   UNL     1      -1.505   2.702  -2.491  1.00  0.00     0.038 C 
ATOM      3  O   UNL     1      -2.660   3.051  -2.850  1.00  0.00    -0.550 OA
ATOM      4  O   UNL     1      -0.891   3.346  -1.425  1.00  0.00    -0.550 OA
ENDROOT
TORSDOF 0
ENDMDL
MODEL 5
REMARK VINA RESULT:    -2.376     16.362     16.882
REMARK INTER + INTRA:          -2.376
REMARK INTER:                  -2.376
REMARK INTRA:                   0.000
REMARK UNBOUND:                 0.000
REMARK SMILES CC(=O)[O-]
REMARK SMILES IDX 1 1 2 2 3 3 4 4
REMARK H PARENT
REMARK Flexibility Score: inf
ROOT
ATOM      1  C   UNL     1       9.087   0.917   8.618  1.00  0.00     0.063 C 
ATOM      2  C   UNL     1       8.404   2.073   7.970  1.00  0.00     0.038 C 
ATOM      3  O   UNL     1       7.473   1.876   7.145  1.00  0.00    -0.550 OA
ATOM      4  O   UNL     1       8.755   3.371   8.315  1.00  0.00    -0.550 OA
ENDROOT
TORSDOF 0
ENDMDL
MODEL 6
REMARK VINA RESULT:    -2.374     10.644     10.892
REMARK INTER + INTRA:          -2.374
REMARK INTER:                  -2.374
REMARK INTRA:                   0.000
REMARK UNBOUND:                 0.000
REMARK SMILES CC(=O)[O-]
REMARK SMILES IDX 1 1 2 2 3 3 4 4
REMARK H PARENT
REMARK Flexibility Score: inf
ROOT
ATOM      1  C   UNL     1      -3.726   7.579  -7.056  1.00  0.00     0.063 C 
ATOM      2  C   UNL     1      -4.118   6.414  -6.212  1.00  0.00     0.038 C 
ATOM      3  O   UNL     1      -4.724   5.437  -6.725  1.00  0.00    -0.550 OA
ATOM      4  O   UNL     1      -3.767   6.378  -4.869  1.00  0.00    -0.550 OA
ENDROOT
TORSDOF 0
ENDMDL
MODEL 7
REMARK VINA RESULT:    -2.362      9.981     10.351
REMARK INTER + INTRA:          -2.362
REMARK INTER:                  -2.362
REMARK INTRA:                   0.000
REMARK UNBOUND:                 0.000
REMARK SMILES CC(=O)[O-]
REMARK SMILES IDX 1 1 2 2 3 3 4 4
REMARK H PARENT
REMARK Flexibility Score: inf
ROOT
ATOM      1  C   UNL     1      -2.668   3.083  -2.981  1.00  0.00     0.063 C 
ATOM      2  C   UNL     1      -1.331   2.608  -2.521  1.00  0.00     0.038 C 
ATOM      3  O   UNL     1      -0.767   1.645  -3.104  1.00  0.00    -0.550 OA
ATOM      4  O   UNL     1      -0.680   3.261  -1.483  1.00  0.00    -0.550 OA
ENDROOT
TORSDOF 0
ENDMDL
MODEL 8
REMARK VINA RESULT:    -2.281     10.238     10.437
REMARK INTER + INTRA:          -2.281
REMARK INTER:                  -2.281
REMARK INTRA:                   0.000
REMARK UNBOUND:                 0.000
REMARK SMILES CC(=O)[O-]
REMARK SMILES IDX 1 1 2 2 3 3 4 4
REMARK H PARENT
REMARK Flexibility Score: inf
ROOT
ATOM      1  C   UNL     1      -4.178   5.262  -6.653  1.00  0.00     0.063 C 
ATOM      2  C   UNL     1      -4.123   6.386  -5.674  1.00  0.00     0.038 C 
ATOM      3  O   UNL     1      -3.342   6.328  -4.688  1.00  0.00    -0.550 OA
ATOM      4  O   UNL     1      -4.893   7.523  -5.876  1.00  0.00    -0.550 OA
ENDROOT
TORSDOF 0
ENDMDL
MODEL 9
REMARK VINA RESULT:    -2.174     10.630     10.912
REMARK INTER + INTRA:          -2.174
REMARK INTER:                  -2.174
REMARK INTRA:                   0.000
REMARK UNBOUND:                 0.000
REMARK SMILES CC(=O)[O-]
REMARK SMILES IDX 1 1 2 2 3 3 4 4
REMARK H PARENT
REMARK Flexibility Score: inf
ROOT
ATOM      1  C   UNL     1      -5.739   7.824  -6.538  1.00  0.00     0.063 C 
ATOM      2  C   UNL     1      -4.371   7.259  -6.349  1.00  0.00     0.038 C 
ATOM      3  O   UNL     1      -3.481   7.454  -7.218  1.00  0.00    -0.550 OA
ATOM      4  O   UNL     1      -4.061   6.563  -5.188  1.00  0.00    -0.550 OA
ENDROOT
TORSDOF 0
ENDMDL
