MODEL 1
REMARK VINA RESULT:    -1.735      0.000      0.000
REMARK INTER + INTRA:          -5.183
REMARK INTER:                  -3.764
REMARK INTRA:                  -1.418
REMARK UNBOUND:                -1.418
REMARK SMILES CCCCCCCCCCCCCCCCCCCCCC(=O)[O-]
REMARK SMILES IDX 12 1 11 2 10 3 9 4 8 5 7 6 6 7 5 8 4 9 3 10 2 11 1 12 13 13
REMARK SMILES IDX 14 14 15 15 16 16 17 17 18 18 19 19 20 20 21 21 22 22 23 23
REMARK SMILES IDX 24 24
REMARK H PARENT
REMARK Flexibility Score: inf
ROOT
ATOM      1  C   UNL     1      30.765  -7.043 -16.124  1.00  0.00     0.000 C 
ENDROOT
BRANCH   1   2
ATOM      2  C   UNL     1      29.592  -7.795 -15.473  1.00  0.00     0.000 C 
BRANCH   2   3
ATOM      3  C   UNL     1      29.967  -8.411 -14.116  1.00  0.00     0.000 C 
BRANCH   3   4
ATOM      4  C   UNL     1      29.264  -7.726 -12.935  1.00  0.00    -0.000 C 
BRANCH   4   5
ATOM      5  C   UNL     1      28.585  -6.428 -13.387  1.00  0.00    -0.000 C 
BRANCH   5   6
ATOM      6  C   UNL     1      28.803  -5.302 -12.367  1.00  0.00    -0.000 C 
BRANCH   6   7
ATOM      7  C   UNL     1      30.159  -4.595 -12.536  1.00  0.00    -0.000 C 
BRANCH   7   8
ATOM      8  C   UNL     1      31.243  -5.098 -11.559  1.00  0.00    -0.000 C 
BRANCH   8   9
ATOM      9  C   UNL     1      32.254  -6.031 -12.245  1.00  0.00    -0.000 C 
BRANCH   9  10
ATOM     10  C   UNL     1      32.888  -6.997 -11.233  1.00  0.00    -0.000 C 
BRANCH  10  11
ATOM     11  C   UNL     1      32.972  -6.394  -9.821  1.00  0.00    -0.003 C 
ATOM     12  C   UNL     1      33.671  -7.320  -8.827  1.00  0.00     0.004 C 
ENDBRANCH  10  11
ENDBRANCH   9  10
ENDBRANCH   8   9
ENDBRANCH   7   8
ENDBRANCH   6   7
ENDBRANCH   5   6
ENDBRANCH   4   5
ENDBRANCH   3   4
ENDBRANCH   2   3
ENDBRANCH   1   2
BRANCH   1  13
ATOM     13  C   UNL     1      30.925  -5.610 -15.588  1.00  0.00     0.000 C 
BRANCH  13  14
ATOM     14  C   UNL     1      32.075  -4.802 -16.222  1.00  0.00     0.000 C 
BRANCH  14  15
ATOM     15  C   UNL     1      33.189  -5.676 -16.835  1.00  0.00     0.000 C 
BRANCH  15  16
ATOM     16  C   UNL     1      33.715  -5.101 -18.163  1.00  0.00     0.000 C 
BRANCH  16  17
ATOM     17  C   UNL     1      34.992  -5.814 -18.656  1.00  0.00     0.000 C 
BRANCH  17  18
ATOM     18  C   UNL     1      36.220  -4.890 -18.769  1.00  0.00     0.000 C 
BRANCH  18  19
ATOM     19  C   UNL     1      36.407  -3.905 -17.600  1.00  0.00     0.000 C 
BRANCH  19  20
ATOM     20  C   UNL     1      36.552  -4.558 -16.214  1.00  0.00     0.006 C 
BRANCH  20  21
ATOM     21  C   UNL     1      37.908  -5.247 -16.016  1.00  0.00     0.053 C 
BRANCH  21  22
ATOM     22  C   UNL     1      37.814  -6.701 -16.358  1.00  0.00     0.041 C 
ATOM     23  O   UNL     1      36.692  -7.230 -16.582  1.00  0.00    -0.550 OA
ATOM     24  O   UNL     1      38.968  -7.472 -16.437  1.00  0.00    -0.550 OA
ENDBRANCH  21  22
ENDBRANCH  20  21
ENDBRANCH  19  20
ENDBRANCH  18  19
ENDBRANCH  17  18
ENDBRANCH  16  17
ENDBRANCH  15  16
ENDBRANCH  14  15
ENDBRANCH  13  14
ENDBRANCH   1  13
TORSDOF 20
ENDMDL
MODEL 2
REMARK VINA RESULT:    -1.702      2.587      7.169
REMARK INTER + INTRA:          -5.110
REMARK INTER:                  -5.086
REMARK INTRA:                  -0.025
REMARK UNBOUND:                -1.418
REMARK SMILES CCCCCCCCCCCCCCCCCCCCCC(=O)[O-]
REMARK SMILES IDX 12 1 11 2 10 3 9 4 8 5 7 6 6 7 5 8 4 9 3 10 2 11 1 12 13 13
REMARK SMILES IDX 14 14 15 15 16 16 17 17 18 18 19 19 20 20 21 21 22 22 23 23
REMARK SMILES IDX 24 24
REMARK H PARENT
REMARK Flexibility Score: inf
ROOT
ATOM      1  C   UNL     1      29.759  -7.459 -16.276  1.00  0.00     0.000 C 
ENDROOT
BRANCH   1   2
ATOM      2  C   UNL     1      31.212  -7.037 -15.994  1.00  0.00     0.000 C 
BRANCH   2   3
ATOM      3  C   UNL     1      31.348  -5.528 -15.738  1.00  0.00     0.000 C 
BRANCH   3   4
ATOM      4  C   UNL     1      32.125  -4.803 -16.847  1.00  0.00    -0.000 C 
BRANCH   4   5
ATOM      5  C   UNL     1      33.574  -5.296 -16.906  1.00  0.00    -0.000 C 
BRANCH   5   6
ATOM      6  C   UNL     1      33.958  -5.725 -18.329  1.00  0.00    -0.000 C 
BRANCH   6   7
ATOM      7  C   UNL     1      35.412  -6.218 -18.435  1.00  0.00    -0.000 C 
BRANCH   7   8
ATOM      8  C   UNL     1      36.048  -6.561 -17.071  1.00  0.00    -0.000 C 
BRANCH   8   9
ATOM      9  C   UNL     1      37.503  -6.075 -16.972  1.00  0.00    -0.000 C 
BRANCH   9  10
ATOM     10  C   UNL     1      37.565  -4.586 -16.599  1.00  0.00    -0.000 C 
BRANCH  10  11
ATOM     11  C   UNL     1      36.672  -3.720 -17.502  1.00  0.00    -0.003 C 
ATOM     12  C   UNL     1      37.396  -3.242 -18.760  1.00  0.00     0.004 C 
ENDBRANCH  10  11
ENDBRANCH   9  10
ENDBRANCH   8   9
ENDBRANCH   7   8
ENDBRANCH   6   7
ENDBRANCH   5   6
ENDBRANCH   4   5
ENDBRANCH   3   4
ENDBRANCH   2   3
ENDBRANCH   1   2
BRANCH   1  13
ATOM     13  C   UNL     1      29.487  -8.931 -15.925  1.00  0.00     0.000 C 
BRANCH  13  14
ATOM     14  C   UNL     1      29.512  -9.258 -14.419  1.00  0.00     0.000 C 
BRANCH  14  15
ATOM     15  C   UNL     1      30.148  -8.151 -13.550  1.00  0.00     0.000 C 
BRANCH  15  16
ATOM     16  C   UNL     1      29.090  -7.332 -12.788  1.00  0.00     0.000 C 
BRANCH  16  17
ATOM     17  C   UNL     1      28.836  -5.948 -13.425  1.00  0.00     0.000 C 
BRANCH  17  18
ATOM     18  C   UNL     1      29.757  -4.835 -12.890  1.00  0.00     0.000 C 
BRANCH  18  19
ATOM     19  C   UNL     1      30.660  -5.242 -11.710  1.00  0.00     0.000 C 
BRANCH  19  20
ATOM     20  C   UNL     1      32.107  -5.603 -12.092  1.00  0.00     0.006 C 
BRANCH  20  21
ATOM     21  C   UNL     1      32.656  -6.793 -11.295  1.00  0.00     0.053 C 
BRANCH  21  22
ATOM     22  C   UNL     1      32.911  -6.400  -9.873  1.00  0.00     0.041 C 
ATOM     23  O   UNL     1      32.363  -5.374  -9.389  1.00  0.00    -0.550 OA
ATOM     24  O   UNL     1      33.750  -7.173  -9.079  1.00  0.00    -0.550 OA
ENDBRANCH  21  22
ENDBRANCH  20  21
ENDBRANCH  19  20
ENDBRANCH  18  19
ENDBRANCH  17  18
ENDBRANCH  16  17
ENDBRANCH  15  16
ENDBRANCH  14  15
ENDBRANCH  13  14
ENDBRANCH   1  13
TORSDOF 20
ENDMDL
MODEL 3
REMARK VINA RESULT:    -1.611      0.620      1.244
REMARK INTER + INTRA:          -4.914
REMARK INTER:                  -4.874
REMARK INTRA:                  -0.040
REMARK UNBOUND:                -1.418
REMARK SMILES CCCCCCCCCCCCCCCCCCCCCC(=O)[O-]
REMARK SMILES IDX 12 1 11 2 10 3 9 4 8 5 7 6 6 7 5 8 4 9 3 10 2 11 1 12 13 13
REMARK SMILES IDX 14 14 15 15 16 16 17 17 18 18 19 19 20 20 21 21 22 22 23 23
REMARK SMILES IDX 24 24
REMARK H PARENT
REMARK Flexibility Score: inf
ROOT
ATOM      1  C   UNL     1      29.722  -8.479 -16.353  1.00  0.00     0.000 C 
ENDROOT
BRANCH   1   2
ATOM      2  C   UNL     1      29.493  -8.970 -14.912  1.00  0.00     0.000 C 
BRANCH   2   3
ATOM      3  C   UNL     1      30.101  -8.023 -13.865  1.00  0.00     0.000 C 
BRANCH   3   4
ATOM      4  C   UNL     1      29.231  -7.892 -12.605  1.00  0.00    -0.000 C 
BRANCH   4   5
ATOM      5  C   UNL     1      28.568  -6.512 -12.545  1.00  0.00    -0.000 C 
BRANCH   5   6
ATOM      6  C   UNL     1      29.376  -5.472 -13.333  1.00  0.00    -0.000 C 
BRANCH   6   7
ATOM      7  C   UNL     1      29.965  -4.367 -12.439  1.00  0.00    -0.000 C 
BRANCH   7   8
ATOM      8  C   UNL     1      31.033  -4.878 -11.449  1.00  0.00    -0.000 C 
BRANCH   8   9
ATOM      9  C   UNL     1      32.146  -5.669 -12.155  1.00  0.00    -0.000 C 
BRANCH   9  10
ATOM     10  C   UNL     1      32.689  -6.786 -11.250  1.00  0.00    -0.000 C 
BRANCH  10  11
ATOM     11  C   UNL     1      32.842  -6.333  -9.789  1.00  0.00    -0.003 C 
ATOM     12  C   UNL     1      33.693  -7.295  -8.962  1.00  0.00     0.004 C 
ENDBRANCH  10  11
ENDBRANCH   9  10
ENDBRANCH   8   9
ENDBRANCH   7   8
ENDBRANCH   6   7
ENDBRANCH   5   6
ENDBRANCH   4   5
ENDBRANCH   3   4
ENDBRANCH   2   3
ENDBRANCH   1   2
BRANCH   1  13
ATOM     13  C   UNL     1      30.862  -7.452 -16.458  1.00  0.00     0.000 C 
BRANCH  13  14
ATOM     14  C   UNL     1      30.632  -6.141 -15.681  1.00  0.00     0.000 C 
BRANCH  14  15
ATOM     15  C   UNL     1      31.532  -4.975 -16.144  1.00  0.00     0.000 C 
BRANCH  15  16
ATOM     16  C   UNL     1      32.957  -5.444 -16.494  1.00  0.00     0.000 C 
BRANCH  16  17
ATOM     17  C   UNL     1      33.494  -4.801 -17.790  1.00  0.00     0.000 C 
BRANCH  17  18
ATOM     18  C   UNL     1      34.502  -5.680 -18.553  1.00  0.00     0.000 C 
BRANCH  18  19
ATOM     19  C   UNL     1      35.941  -5.133 -18.604  1.00  0.00     0.000 C 
BRANCH  19  20
ATOM     20  C   UNL     1      36.335  -4.225 -17.425  1.00  0.00     0.006 C 
BRANCH  20  21
ATOM     21  C   UNL     1      37.478  -4.801 -16.582  1.00  0.00     0.053 C 
BRANCH  21  22
ATOM     22  C   UNL     1      37.392  -6.295 -16.531  1.00  0.00     0.041 C 
ATOM     23  O   UNL     1      36.286  -6.861 -16.320  1.00  0.00    -0.550 OA
ATOM     24  O   UNL     1      38.534  -7.064 -16.722  1.00  0.00    -0.550 OA
ENDBRANCH  21  22
ENDBRANCH  20  21
ENDBRANCH  19  20
ENDBRANCH  18  19
ENDBRANCH  17  18
ENDBRANCH  16  17
ENDBRANCH  15  16
ENDBRANCH  14  15
ENDBRANCH  13  14
ENDBRANCH   1  13
TORSDOF 20
ENDMDL
MODEL 4
REMARK VINA RESULT:    -1.567      2.585      7.038
REMARK INTER + INTRA:          -4.817
REMARK INTER:                  -4.534
REMARK INTRA:                  -0.284
REMARK UNBOUND:                -1.418
REMARK SMILES CCCCCCCCCCCCCCCCCCCCCC(=O)[O-]
REMARK SMILES IDX 12 1 11 2 10 3 9 4 8 5 7 6 6 7 5 8 4 9 3 10 2 11 1 12 13 13
REMARK SMILES IDX 14 14 15 15 16 16 17 17 18 18 19 19 20 20 21 21 22 22 23 23
REMARK SMILES IDX 24 24
REMARK H PARENT
REMARK Flexibility Score: inf
ROOT
ATOM      1  C   UNL     1      30.801  -7.570 -16.308  1.00  0.00     0.000 C 
ENDROOT
BRANCH   1   2
ATOM      2  C   UNL     1      30.403  -6.197 -15.738  1.00  0.00     0.000 C 
BRANCH   2   3
ATOM      3  C   UNL     1      31.422  -5.099 -16.083  1.00  0.00     0.000 C 
BRANCH   3   4
ATOM      4  C   UNL     1      32.833  -5.653 -16.333  1.00  0.00    -0.000 C 
BRANCH   4   5
ATOM      5  C   UNL     1      33.495  -4.937 -17.515  1.00  0.00    -0.000 C 
BRANCH   5   6
ATOM      6  C   UNL     1      34.432  -5.879 -18.283  1.00  0.00    -0.000 C 
BRANCH   6   7
ATOM      7  C   UNL     1      35.853  -5.310 -18.445  1.00  0.00    -0.000 C 
BRANCH   7   8
ATOM      8  C   UNL     1      36.267  -4.351 -17.308  1.00  0.00    -0.000 C 
BRANCH   8   9
ATOM      9  C   UNL     1      37.099  -5.058 -16.227  1.00  0.00    -0.000 C 
BRANCH   9  10
ATOM     10  C   UNL     1      37.238  -6.558 -16.529  1.00  0.00    -0.000 C 
BRANCH  10  11
ATOM     11  C   UNL     1      38.672  -6.943 -16.929  1.00  0.00    -0.003 C 
ATOM     12  C   UNL     1      39.409  -7.694 -15.821  1.00  0.00     0.004 C 
ENDBRANCH  10  11
ENDBRANCH   9  10
ENDBRANCH   8   9
ENDBRANCH   7   8
ENDBRANCH   6   7
ENDBRANCH   5   6
ENDBRANCH   4   5
ENDBRANCH   3   4
ENDBRANCH   2   3
ENDBRANCH   1   2
BRANCH   1  13
ATOM     13  C   UNL     1      29.724  -8.645 -16.078  1.00  0.00     0.000 C 
BRANCH  13  14
ATOM     14  C   UNL     1      29.505  -9.044 -14.606  1.00  0.00     0.000 C 
BRANCH  14  15
ATOM     15  C   UNL     1      30.192  -8.103 -13.595  1.00  0.00     0.000 C 
BRANCH  15  16
ATOM     16  C   UNL     1      29.183  -7.437 -12.642  1.00  0.00     0.000 C 
BRANCH  16  17
ATOM     17  C   UNL     1      28.737  -6.041 -13.126  1.00  0.00     0.000 C 
BRANCH  17  18
ATOM     18  C   UNL     1      29.819  -4.954 -12.983  1.00  0.00     0.000 C 
BRANCH  18  19
ATOM     19  C   UNL     1      30.697  -5.067 -11.721  1.00  0.00     0.000 C 
BRANCH  19  20
ATOM     20  C   UNL     1      32.160  -5.472 -11.979  1.00  0.00     0.006 C 
BRANCH  20  21
ATOM     21  C   UNL     1      32.583  -6.717 -11.192  1.00  0.00     0.053 C 
BRANCH  21  22
ATOM     22  C   UNL     1      32.910  -6.358  -9.776  1.00  0.00     0.041 C 
ATOM     23  O   UNL     1      32.436  -5.311  -9.260  1.00  0.00    -0.550 OA
ATOM     24  O   UNL     1      33.734  -7.186  -9.022  1.00  0.00    -0.550 OA
ENDBRANCH  21  22
ENDBRANCH  20  21
ENDBRANCH  19  20
ENDBRANCH  18  19
ENDBRANCH  17  18
ENDBRANCH  16  17
ENDBRANCH  15  16
ENDBRANCH  14  15
ENDBRANCH  13  14
ENDBRANCH   1  13
TORSDOF 20
ENDMDL
MODEL 5
REMARK VINA RESULT:    -1.538      2.486      6.985
REMARK INTER + INTRA:          -4.754
REMARK INTER:                  -3.602
REMARK INTRA:                  -1.152
REMARK UNBOUND:                -1.418
REMARK SMILES CCCCCCCCCCCCCCCCCCCCCC(=O)[O-]
REMARK SMILES IDX 12 1 11 2 10 3 9 4 8 5 7 6 6 7 5 8 4 9 3 10 2 11 1 12 13 13
REMARK SMILES IDX 14 14 15 15 16 16 17 17 18 18 19 19 20 20 21 21 22 22 23 23
REMARK SMILES IDX 24 24
REMARK H PARENT
REMARK Flexibility Score: inf
ROOT
ATOM      1  C   UNL     1      29.495  -7.637 -15.321  1.00  0.00     0.000 C 
ENDROOT
BRANCH   1   2
ATOM      2  C   UNL     1      30.642  -6.972 -16.101  1.00  0.00     0.000 C 
BRANCH   2   3
ATOM      3  C   UNL     1      31.021  -5.596 -15.532  1.00  0.00     0.000 C 
BRANCH   3   4
ATOM      4  C   UNL     1      31.934  -4.793 -16.471  1.00  0.00    -0.000 C 
BRANCH   4   5
ATOM      5  C   UNL     1      33.255  -5.534 -16.708  1.00  0.00    -0.000 C 
BRANCH   5   6
ATOM      6  C   UNL     1      33.977  -4.998 -17.952  1.00  0.00    -0.000 C 
BRANCH   6   7
ATOM      7  C   UNL     1      35.146  -5.894 -18.399  1.00  0.00    -0.000 C 
BRANCH   7   8
ATOM      8  C   UNL     1      36.485  -5.139 -18.535  1.00  0.00    -0.000 C 
BRANCH   8   9
ATOM      9  C   UNL     1      36.821  -4.324 -17.276  1.00  0.00    -0.000 C 
BRANCH   9  10
ATOM     10  C   UNL     1      37.216  -5.243 -16.111  1.00  0.00    -0.000 C 
BRANCH  10  11
ATOM     11  C   UNL     1      37.452  -6.693 -16.564  1.00  0.00    -0.003 C 
ATOM     12  C   UNL     1      38.919  -7.110 -16.459  1.00  0.00     0.004 C 
ENDBRANCH  10  11
ENDBRANCH   9  10
ENDBRANCH   8   9
ENDBRANCH   7   8
ENDBRANCH   6   7
ENDBRANCH   5   6
ENDBRANCH   4   5
ENDBRANCH   3   4
ENDBRANCH   2   3
ENDBRANCH   1   2
BRANCH   1  13
ATOM     13  C   UNL     1      29.947  -8.205 -13.965  1.00  0.00     0.000 C 
BRANCH  13  14
ATOM     14  C   UNL     1      29.353  -7.497 -12.731  1.00  0.00     0.000 C 
BRANCH  14  15
ATOM     15  C   UNL     1      28.375  -6.354 -13.078  1.00  0.00     0.000 C 
BRANCH  15  16
ATOM     16  C   UNL     1      28.799  -5.015 -12.447  1.00  0.00     0.000 C 
BRANCH  16  17
ATOM     17  C   UNL     1      30.285  -4.680 -12.704  1.00  0.00     0.000 C 
BRANCH  17  18
ATOM     18  C   UNL     1      31.241  -5.206 -11.617  1.00  0.00     0.000 C 
BRANCH  18  19
ATOM     19  C   UNL     1      32.438  -6.024 -12.140  1.00  0.00     0.000 C 
BRANCH  19  20
ATOM     20  C   UNL     1      33.010  -7.050 -11.145  1.00  0.00     0.006 C 
BRANCH  20  21
ATOM     21  C   UNL     1      33.088  -6.513  -9.711  1.00  0.00     0.053 C 
BRANCH  21  22
ATOM     22  C   UNL     1      33.921  -7.416  -8.856  1.00  0.00     0.041 C 
ATOM     23  O   UNL     1      33.465  -7.860  -7.768  1.00  0.00    -0.550 OA
ATOM     24  O   UNL     1      35.201  -7.774  -9.263  1.00  0.00    -0.550 OA
ENDBRANCH  21  22
ENDBRANCH  20  21
ENDBRANCH  19  20
ENDBRANCH  18  19
ENDBRANCH  17  18
ENDBRANCH  16  17
ENDBRANCH  15  16
ENDBRANCH  14  15
ENDBRANCH  13  14
ENDBRANCH   1  13
TORSDOF 20
ENDMDL
MODEL 6
REMARK VINA RESULT:    -0.980      3.716      7.677
REMARK INTER + INTRA:          -3.544
REMARK INTER:                  -2.682
REMARK INTRA:                  -0.862
REMARK UNBOUND:                -1.418
REMARK SMILES CCCCCCCCCCCCCCCCCCCCCC(=O)[O-]
REMARK SMILES IDX 12 1 11 2 10 3 9 4 8 5 7 6 6 7 5 8 4 9 3 10 2 11 1 12 13 13
REMARK SMILES IDX 14 14 15 15 16 16 17 17 18 18 19 19 20 20 21 21 22 22 23 23
REMARK SMILES IDX 24 24
REMARK H PARENT
REMARK Flexibility Score: inf
ROOT
ATOM      1  C   UNL     1      30.221  -8.112 -13.841  1.00  0.00     0.000 C 
ENDROOT
BRANCH   1   2
ATOM      2  C   UNL     1      29.612  -8.161 -15.253  1.00  0.00     0.000 C 
BRANCH   2   3
ATOM      3  C   UNL     1      30.182  -7.074 -16.178  1.00  0.00     0.000 C 
BRANCH   3   4
ATOM      4  C   UNL     1      31.317  -6.271 -15.525  1.00  0.00    -0.000 C 
BRANCH   4   5
ATOM      5  C   UNL     1      31.872  -5.225 -16.499  1.00  0.00    -0.000 C 
BRANCH   5   6
ATOM      6  C   UNL     1      33.401  -5.313 -16.597  1.00  0.00    -0.000 C 
BRANCH   6   7
ATOM      7  C   UNL     1      33.906  -5.367 -18.050  1.00  0.00    -0.000 C 
BRANCH   7   8
ATOM      8  C   UNL     1      35.427  -5.597 -18.166  1.00  0.00    -0.000 C 
BRANCH   8   9
ATOM      9  C   UNL     1      36.236  -4.381 -17.689  1.00  0.00    -0.000 C 
BRANCH   9  10
ATOM     10  C   UNL     1      37.474  -4.820 -16.890  1.00  0.00    -0.000 C 
BRANCH  10  11
ATOM     11  C   UNL     1      37.328  -6.240 -16.320  1.00  0.00    -0.003 C 
ATOM     12  C   UNL     1      38.605  -7.066 -16.468  1.00  0.00     0.004 C 
ENDBRANCH  10  11
ENDBRANCH   9  10
ENDBRANCH   8   9
ENDBRANCH   7   8
ENDBRANCH   6   7
ENDBRANCH   5   6
ENDBRANCH   4   5
ENDBRANCH   3   4
ENDBRANCH   2   3
ENDBRANCH   1   2
BRANCH   1  13
ATOM     13  C   UNL     1      29.249  -7.543 -12.793  1.00  0.00     0.000 C 
BRANCH  13  14
ATOM     14  C   UNL     1      28.709  -6.133 -13.102  1.00  0.00     0.000 C 
BRANCH  14  15
ATOM     15  C   UNL     1      29.813  -5.073 -13.304  1.00  0.00     0.000 C 
BRANCH  15  16
ATOM     16  C   UNL     1      30.650  -4.855 -12.031  1.00  0.00     0.000 C 
BRANCH  16  17
ATOM     17  C   UNL     1      32.079  -5.428 -12.152  1.00  0.00     0.000 C 
BRANCH  17  18
ATOM     18  C   UNL     1      32.373  -6.586 -11.180  1.00  0.00     0.000 C 
BRANCH  18  19
ATOM     19  C   UNL     1      32.704  -6.160  -9.736  1.00  0.00     0.000 C 
BRANCH  19  20
ATOM     20  C   UNL     1      31.874  -4.981  -9.198  1.00  0.00     0.006 C 
BRANCH  20  21
ATOM     21  C   UNL     1      31.435  -5.175  -7.742  1.00  0.00     0.053 C 
BRANCH  21  22
ATOM     22  C   UNL     1      30.469  -4.105  -7.337  1.00  0.00     0.041 C 
ATOM     23  O   UNL     1      30.757  -3.308  -6.404  1.00  0.00    -0.550 OA
ATOM     24  O   UNL     1      29.251  -3.983  -7.996  1.00  0.00    -0.550 OA
ENDBRANCH  21  22
ENDBRANCH  20  21
ENDBRANCH  19  20
ENDBRANCH  18  19
ENDBRANCH  17  18
ENDBRANCH  16  17
ENDBRANCH  15  16
ENDBRANCH  14  15
ENDBRANCH  13  14
ENDBRANCH   1  13
TORSDOF 20
ENDMDL
MODEL 7
REMARK VINA RESULT:    -0.753      2.919      7.385
REMARK INTER + INTRA:          -3.053
REMARK INTER:                  -2.485
REMARK INTRA:                  -0.568
REMARK UNBOUND:                -1.418
REMARK SMILES CCCCCCCCCCCCCCCCCCCCCC(=O)[O-]
REMARK SMILES IDX 12 1 11 2 10 3 9 4 8 5 7 6 6 7 5 8 4 9 3 10 2 11 1 12 13 13
REMARK SMILES IDX 14 14 15 15 16 16 17 17 18 18 19 19 20 20 21 21 22 22 23 23
REMARK SMILES IDX 24 24
REMARK H PARENT
REMARK Flexibility Score: inf
ROOT
ATOM      1  C   UNL     1      30.016  -4.338 -13.968  1.00  0.00     0.000 C 
ENDROOT
BRANCH   1   2
ATOM      2  C   UNL     1      29.683  -5.462 -14.965  1.00  0.00     0.000 C 
BRANCH   2   3
ATOM      3  C   UNL     1      30.936  -6.032 -15.649  1.00  0.00     0.000 C 
BRANCH   3   4
ATOM      4  C   UNL     1      31.885  -4.938 -16.162  1.00  0.00    -0.000 C 
BRANCH   4   5
ATOM      5  C   UNL     1      33.206  -5.549 -16.644  1.00  0.00    -0.000 C 
BRANCH   5   6
ATOM      6  C   UNL     1      33.711  -4.848 -17.912  1.00  0.00    -0.000 C 
BRANCH   6   7
ATOM      7  C   UNL     1      34.639  -5.738 -18.759  1.00  0.00    -0.000 C 
BRANCH   7   8
ATOM      8  C   UNL     1      36.121  -5.310 -18.706  1.00  0.00    -0.000 C 
BRANCH   8   9
ATOM      9  C   UNL     1      36.420  -4.402 -17.504  1.00  0.00    -0.000 C 
BRANCH   9  10
ATOM     10  C   UNL     1      36.742  -5.231 -16.251  1.00  0.00    -0.000 C 
BRANCH  10  11
ATOM     11  C   UNL     1      37.270  -6.633 -16.597  1.00  0.00    -0.003 C 
ATOM     12  C   UNL     1      38.749  -6.805 -16.253  1.00  0.00     0.004 C 
ENDBRANCH  10  11
ENDBRANCH   9  10
ENDBRANCH   8   9
ENDBRANCH   7   8
ENDBRANCH   6   7
ENDBRANCH   5   6
ENDBRANCH   4   5
ENDBRANCH   3   4
ENDBRANCH   2   3
ENDBRANCH   1   2
BRANCH   1  13
ATOM     13  C   UNL     1      30.004  -4.816 -12.506  1.00  0.00     0.000 C 
BRANCH  13  14
ATOM     14  C   UNL     1      31.384  -5.190 -11.931  1.00  0.00     0.000 C 
BRANCH  14  15
ATOM     15  C   UNL     1      31.551  -6.696 -11.637  1.00  0.00     0.000 C 
BRANCH  15  16
ATOM     16  C   UNL     1      31.175  -7.569 -12.848  1.00  0.00     0.000 C 
BRANCH  16  17
ATOM     17  C   UNL     1      29.672  -7.918 -12.888  1.00  0.00     0.000 C 
BRANCH  17  18
ATOM     18  C   UNL     1      29.219  -8.587 -14.199  1.00  0.00     0.000 C 
BRANCH  18  19
ATOM     19  C   UNL     1      30.347  -9.232 -15.028  1.00  0.00     0.000 C 
BRANCH  19  20
ATOM     20  C   UNL     1      30.123  -9.223 -16.551  1.00  0.00     0.006 C 
BRANCH  20  21
ATOM     21  C   UNL     1      28.700  -8.806 -16.943  1.00  0.00     0.053 C 
BRANCH  21  22
ATOM     22  C   UNL     1      28.418  -9.176 -18.366  1.00  0.00     0.041 C 
ATOM     23  O   UNL     1      29.353  -9.548 -19.124  1.00  0.00    -0.550 OA
ATOM     24  O   UNL     1      27.117  -9.118 -18.854  1.00  0.00    -0.550 OA
ENDBRANCH  21  22
ENDBRANCH  20  21
ENDBRANCH  19  20
ENDBRANCH  18  19
ENDBRANCH  17  18
ENDBRANCH  16  17
ENDBRANCH  15  16
ENDBRANCH  14  15
ENDBRANCH  13  14
ENDBRANCH   1  13
TORSDOF 20
ENDMDL
MODEL 8
REMARK VINA RESULT:    -0.514      1.711      3.317
REMARK INTER + INTRA:          -2.534
REMARK INTER:                  -2.304
REMARK INTRA:                  -0.229
REMARK UNBOUND:                -1.418
REMARK SMILES CCCCCCCCCCCCCCCCCCCCCC(=O)[O-]
REMARK SMILES IDX 12 1 11 2 10 3 9 4 8 5 7 6 6 7 5 8 4 9 3 10 2 11 1 12 13 13
REMARK SMILES IDX 14 14 15 15 16 16 17 17 18 18 19 19 20 20 21 21 22 22 23 23
REMARK SMILES IDX 24 24
REMARK H PARENT
REMARK Flexibility Score: inf
ROOT
ATOM      1  C   UNL     1      29.303  -7.788 -13.185  1.00  0.00     0.000 C 
ENDROOT
BRANCH   1   2
ATOM      2  C   UNL     1      28.696  -6.416 -13.530  1.00  0.00     0.000 C 
BRANCH   2   3
ATOM      3  C   UNL     1      28.998  -5.353 -12.462  1.00  0.00     0.000 C 
BRANCH   3   4
ATOM      4  C   UNL     1      30.428  -4.799 -12.560  1.00  0.00    -0.000 C 
BRANCH   4   5
ATOM      5  C   UNL     1      31.422  -5.918 -12.890  1.00  0.00    -0.000 C 
BRANCH   5   6
ATOM      6  C   UNL     1      32.713  -5.773 -12.073  1.00  0.00    -0.000 C 
BRANCH   6   7
ATOM      7  C   UNL     1      32.857  -6.850 -10.983  1.00  0.00    -0.000 C 
BRANCH   7   8
ATOM      8  C   UNL     1      32.777  -6.288  -9.547  1.00  0.00    -0.000 C 
BRANCH   8   9
ATOM      9  C   UNL     1      31.638  -5.269  -9.385  1.00  0.00    -0.000 C 
BRANCH   9  10
ATOM     10  C   UNL     1      31.807  -4.452  -8.095  1.00  0.00    -0.000 C 
BRANCH  10  11
ATOM     11  C   UNL     1      30.461  -4.123  -7.431  1.00  0.00    -0.003 C 
ATOM     12  C   UNL     1      30.627  -3.439  -6.074  1.00  0.00     0.004 C 
ENDBRANCH  10  11
ENDBRANCH   9  10
ENDBRANCH   8   9
ENDBRANCH   7   8
ENDBRANCH   6   7
ENDBRANCH   5   6
ENDBRANCH   4   5
ENDBRANCH   3   4
ENDBRANCH   2   3
ENDBRANCH   1   2
BRANCH   1  13
ATOM     13  C   UNL     1      29.652  -8.616 -14.433  1.00  0.00     0.000 C 
BRANCH  13  14
ATOM     14  C   UNL     1      29.612  -7.839 -15.764  1.00  0.00     0.000 C 
BRANCH  14  15
ATOM     15  C   UNL     1      30.948  -7.156 -16.128  1.00  0.00     0.000 C 
BRANCH  15  16
ATOM     16  C   UNL     1      30.956  -5.661 -15.762  1.00  0.00     0.000 C 
BRANCH  16  17
ATOM     17  C   UNL     1      32.009  -4.858 -16.555  1.00  0.00     0.000 C 
BRANCH  17  18
ATOM     18  C   UNL     1      33.371  -5.568 -16.682  1.00  0.00     0.000 C 
BRANCH  18  19
ATOM     19  C   UNL     1      34.098  -5.354 -18.023  1.00  0.00     0.000 C 
BRANCH  19  20
ATOM     20  C   UNL     1      35.528  -4.795 -17.907  1.00  0.00     0.006 C 
BRANCH  20  21
ATOM     21  C   UNL     1      36.597  -5.892 -17.865  1.00  0.00     0.053 C 
BRANCH  21  22
ATOM     22  C   UNL     1      37.317  -5.875 -16.553  1.00  0.00     0.041 C 
ATOM     23  O   UNL     1      36.984  -5.055 -15.655  1.00  0.00    -0.550 OA
ATOM     24  O   UNL     1      38.354  -6.770 -16.317  1.00  0.00    -0.550 OA
ENDBRANCH  21  22
ENDBRANCH  20  21
ENDBRANCH  19  20
ENDBRANCH  18  19
ENDBRANCH  17  18
ENDBRANCH  16  17
ENDBRANCH  15  16
ENDBRANCH  14  15
ENDBRANCH  13  14
ENDBRANCH   1  13
TORSDOF 20
ENDMDL
MODEL 9
REMARK VINA RESULT:    -0.432      1.869      5.198
REMARK INTER + INTRA:          -2.356
REMARK INTER:                  -1.616
REMARK INTRA:                  -0.740
REMARK UNBOUND:                -1.418
REMARK SMILES CCCCCCCCCCCCCCCCCCCCCC(=O)[O-]
REMARK SMILES IDX 12 1 11 2 10 3 9 4 8 5 7 6 6 7 5 8 4 9 3 10 2 11 1 12 13 13
REMARK SMILES IDX 14 14 15 15 16 16 17 17 18 18 19 19 20 20 21 21 22 22 23 23
REMARK SMILES IDX 24 24
REMARK H PARENT
REMARK Flexibility Score: inf
ROOT
ATOM      1  C   UNL     1      31.684  -5.187 -11.381  1.00  0.00     0.000 C 
ENDROOT
BRANCH   1   2
ATOM      2  C   UNL     1      30.148  -5.142 -11.453  1.00  0.00     0.000 C 
BRANCH   2   3
ATOM      3  C   UNL     1      29.634  -4.850 -12.872  1.00  0.00     0.000 C 
BRANCH   3   4
ATOM      4  C   UNL     1      28.754  -5.979 -13.430  1.00  0.00    -0.000 C 
BRANCH   4   5
ATOM      5  C   UNL     1      29.118  -7.321 -12.784  1.00  0.00    -0.000 C 
BRANCH   5   6
ATOM      6  C   UNL     1      29.596  -8.332 -13.835  1.00  0.00    -0.000 C 
BRANCH   6   7
ATOM      7  C   UNL     1      29.625  -7.749 -15.259  1.00  0.00    -0.000 C 
BRANCH   7   8
ATOM      8  C   UNL     1      30.144  -8.741 -16.322  1.00  0.00    -0.000 C 
BRANCH   8   9
ATOM      9  C   UNL     1      29.000  -9.498 -17.016  1.00  0.00    -0.000 C 
BRANCH   9  10
ATOM     10  C   UNL     1      29.064  -9.318 -18.540  1.00  0.00    -0.000 C 
BRANCH  10  11
ATOM     11  C   UNL     1      27.735  -8.812 -19.125  1.00  0.00    -0.003 C 
ATOM     12  C   UNL     1      26.642  -9.879 -19.108  1.00  0.00     0.004 C 
ENDBRANCH  10  11
ENDBRANCH   9  10
ENDBRANCH   8   9
ENDBRANCH   7   8
ENDBRANCH   6   7
ENDBRANCH   5   6
ENDBRANCH   4   5
ENDBRANCH   3   4
ENDBRANCH   2   3
ENDBRANCH   1   2
BRANCH   1  13
ATOM     13  C   UNL     1      32.255  -6.580 -11.696  1.00  0.00     0.000 C 
BRANCH  13  14
ATOM     14  C   UNL     1      32.628  -6.813 -13.173  1.00  0.00     0.000 C 
BRANCH  14  15
ATOM     15  C   UNL     1      32.678  -5.520 -14.016  1.00  0.00     0.000 C 
BRANCH  15  16
ATOM     16  C   UNL     1      31.502  -5.425 -15.005  1.00  0.00     0.000 C 
BRANCH  16  17
ATOM     17  C   UNL     1      31.961  -5.142 -16.451  1.00  0.00     0.000 C 
BRANCH  17  18
ATOM     18  C   UNL     1      33.259  -5.869 -16.849  1.00  0.00     0.000 C 
BRANCH  18  19
ATOM     19  C   UNL     1      34.144  -5.120 -17.864  1.00  0.00     0.000 C 
BRANCH  19  20
ATOM     20  C   UNL     1      35.430  -5.859 -18.277  1.00  0.00     0.006 C 
BRANCH  20  21
ATOM     21  C   UNL     1      36.703  -5.063 -17.965  1.00  0.00     0.053 C 
BRANCH  21  22
ATOM     22  C   UNL     1      37.342  -5.565 -16.708  1.00  0.00     0.041 C 
ATOM     23  O   UNL     1      37.336  -4.858 -15.665  1.00  0.00    -0.550 OA
ATOM     24  O   UNL     1      37.940  -6.820 -16.686  1.00  0.00    -0.550 OA
ENDBRANCH  21  22
ENDBRANCH  20  21
ENDBRANCH  19  20
ENDBRANCH  18  19
ENDBRANCH  17  18
ENDBRANCH  16  17
ENDBRANCH  15  16
ENDBRANCH  14  15
ENDBRANCH  13  14
ENDBRANCH   1  13
TORSDOF 20
ENDMDL
