MODEL 1
REMARK VINA RESULT:    -5.716      0.000      0.000
REMARK INTER + INTRA:          -5.883
REMARK INTER:                  -5.883
REMARK INTRA:                   0.000
REMARK UNBOUND:                 0.000
REMARK SMILES O=c1ccc2ccc(O)cc2o1
REMARK SMILES IDX 6 1 7 2 8 3 10 4 11 5 5 6 4 7 3 8 2 9 1 10 12 11 9 12
REMARK H PARENT 9 13
REMARK Flexibility Score: inf
ROOT
ATOM      1  C   UNL     1      10.085  28.336  -0.139  1.00  0.00     0.016 A 
ATOM      2  C   UNL     1      10.431  27.634  -1.299  1.00  0.00     0.047 A 
ATOM      3  C   UNL     1       9.454  27.313  -2.250  1.00  0.00     0.119 A 
ATOM      4  C   UNL     1       8.121  27.694  -2.039  1.00  0.00     0.094 A 
ATOM      5  C   UNL     1       7.766  28.396  -0.882  1.00  0.00     0.142 A 
ATOM      6  C   UNL     1       8.754  28.719   0.074  1.00  0.00     0.018 A 
ATOM      7  C   UNL     1       8.368  29.421   1.220  1.00  0.00     0.019 A 
ATOM      8  C   UNL     1       7.030  29.780   1.385  1.00  0.00     0.094 A 
ATOM      9  C   UNL     1       6.106  29.426   0.395  1.00  0.00     0.336 A 
ATOM     10  O   UNL     1       4.894  29.741   0.527  1.00  0.00    -0.246 OA
ATOM     11  O   UNL     1       6.500  28.757  -0.685  1.00  0.00    -0.423 OA
ENDROOT
BRANCH   3  12
ATOM     12  O   UNL     1       9.818  26.613  -3.398  1.00  0.00    -0.508 OA
ATOM     13  H   UNL     1       9.137  26.369  -4.107  1.00  0.00     0.293 HD
ENDBRANCH   3  12
TORSDOF 1
ENDMDL
MODEL 2
REMARK VINA RESULT:    -5.704      1.663      2.261
REMARK INTER + INTRA:          -5.871
REMARK INTER:                  -5.871
REMARK INTRA:                   0.000
REMARK UNBOUND:                 0.000
REMARK SMILES O=c1ccc2ccc(O)cc2o1
REMARK SMILES IDX 6 1 7 2 8 3 10 4 11 5 5 6 4 7 3 8 2 9 1 10 12 11 9 12
REMARK H PARENT 9 13
REMARK Flexibility Score: inf
ROOT
ATOM      1  C   UNL     1      10.471  28.939   0.435  1.00  0.00     0.016 A 
ATOM      2  C   UNL     1      11.674  28.480  -0.113  1.00  0.00     0.047 A 
ATOM      3  C   UNL     1      11.667  27.659  -1.248  1.00  0.00     0.119 A 
ATOM      4  C   UNL     1      10.449  27.292  -1.839  1.00  0.00     0.094 A 
ATOM      5  C   UNL     1       9.241  27.746  -1.297  1.00  0.00     0.142 A 
ATOM      6  C   UNL     1       9.252  28.575  -0.154  1.00  0.00     0.018 A 
ATOM      7  C   UNL     1       8.029  29.013   0.364  1.00  0.00     0.019 A 
ATOM      8  C   UNL     1       6.843  28.623  -0.259  1.00  0.00     0.094 A 
ATOM      9  C   UNL     1       6.910  27.800  -1.389  1.00  0.00     0.336 A 
ATOM     10  O   UNL     1       5.850  27.437  -1.964  1.00  0.00    -0.246 OA
ATOM     11  O   UNL     1       8.087  27.397  -1.860  1.00  0.00    -0.423 OA
ENDROOT
BRANCH   3  12
ATOM     12  O   UNL     1      12.875  27.212  -1.778  1.00  0.00    -0.508 OA
ATOM     13  H   UNL     1      13.746  27.694  -1.593  1.00  0.00     0.293 HD
ENDBRANCH   3  12
TORSDOF 1
ENDMDL
MODEL 3
REMARK VINA RESULT:    -5.677      0.781      4.224
REMARK INTER + INTRA:          -5.843
REMARK INTER:                  -5.843
REMARK INTRA:                   0.000
REMARK UNBOUND:                 0.000
REMARK SMILES O=c1ccc2ccc(O)cc2o1
REMARK SMILES IDX 6 1 7 2 8 3 10 4 11 5 5 6 4 7 3 8 2 9 1 10 12 11 9 12
REMARK H PARENT 9 13
REMARK Flexibility Score: inf
ROOT
ATOM      1  C   UNL     1       8.357  29.497   1.246  1.00  0.00     0.016 A 
ATOM      2  C   UNL     1       7.036  29.934   1.394  1.00  0.00     0.047 A 
ATOM      3  C   UNL     1       6.067  29.597   0.440  1.00  0.00     0.119 A 
ATOM      4  C   UNL     1       6.422  28.817  -0.671  1.00  0.00     0.094 A 
ATOM      5  C   UNL     1       7.740  28.376  -0.827  1.00  0.00     0.142 A 
ATOM      6  C   UNL     1       8.714  28.717   0.137  1.00  0.00     0.018 A 
ATOM      7  C   UNL     1      10.023  28.261  -0.047  1.00  0.00     0.019 A 
ATOM      8  C   UNL     1      10.327  27.487  -1.167  1.00  0.00     0.094 A 
ATOM      9  C   UNL     1       9.310  27.188  -2.081  1.00  0.00     0.336 A 
ATOM     10  O   UNL     1       9.566  26.492  -3.098  1.00  0.00    -0.246 OA
ATOM     11  O   UNL     1       8.073  27.636  -1.882  1.00  0.00    -0.423 OA
ENDROOT
BRANCH   3  12
ATOM     12  O   UNL     1       4.758  30.042   0.605  1.00  0.00    -0.508 OA
ATOM     13  H   UNL     1       4.446  30.924   0.217  1.00  0.00     0.293 HD
ENDBRANCH   3  12
TORSDOF 1
ENDMDL
MODEL 4
REMARK VINA RESULT:    -5.663      1.715      4.280
REMARK INTER + INTRA:          -5.828
REMARK INTER:                  -5.828
REMARK INTRA:                   0.000
REMARK UNBOUND:                 0.000
REMARK SMILES O=c1ccc2ccc(O)cc2o1
REMARK SMILES IDX 6 1 7 2 8 3 10 4 11 5 5 6 4 7 3 8 2 9 1 10 12 11 9 12
REMARK H PARENT 9 13
REMARK Flexibility Score: inf
ROOT
ATOM      1  C   UNL     1       8.361  28.842   0.324  1.00  0.00     0.016 A 
ATOM      2  C   UNL     1       7.214  28.369  -0.323  1.00  0.00     0.047 A 
ATOM      3  C   UNL     1       7.325  27.568  -1.466  1.00  0.00     0.119 A 
ATOM      4  C   UNL     1       8.593  27.236  -1.967  1.00  0.00     0.094 A 
ATOM      5  C   UNL     1       9.745  27.704  -1.327  1.00  0.00     0.142 A 
ATOM      6  C   UNL     1       9.629  28.512  -0.174  1.00  0.00     0.018 A 
ATOM      7  C   UNL     1      10.799  28.965   0.443  1.00  0.00     0.019 A 
ATOM      8  C   UNL     1      12.037  28.608  -0.091  1.00  0.00     0.094 A 
ATOM      9  C   UNL     1      12.075  27.804  -1.236  1.00  0.00     0.336 A 
ATOM     10  O   UNL     1      13.184  27.473  -1.733  1.00  0.00    -0.246 OA
ATOM     11  O   UNL     1      10.947  27.388  -1.804  1.00  0.00    -0.423 OA
ENDROOT
BRANCH   3  12
ATOM     12  O   UNL     1       6.172  27.107  -2.096  1.00  0.00    -0.508 OA
ATOM     13  H   UNL     1       6.198  26.716  -3.030  1.00  0.00     0.293 HD
ENDBRANCH   3  12
TORSDOF 1
ENDMDL
MODEL 5
REMARK VINA RESULT:    -5.631      1.594      2.296
REMARK INTER + INTRA:          -5.796
REMARK INTER:                  -5.796
REMARK INTRA:                   0.000
REMARK UNBOUND:                 0.000
REMARK SMILES O=c1ccc2ccc(O)cc2o1
REMARK SMILES IDX 6 1 7 2 8 3 10 4 11 5 5 6 4 7 3 8 2 9 1 10 12 11 9 12
REMARK H PARENT 9 13
REMARK Flexibility Score: inf
ROOT
ATOM      1  C   UNL     1       8.392  27.577  -2.123  1.00  0.00     0.016 A 
ATOM      2  C   UNL     1       9.696  27.143  -2.388  1.00  0.00     0.047 A 
ATOM      3  C   UNL     1      10.733  27.427  -1.491  1.00  0.00     0.119 A 
ATOM      4  C   UNL     1      10.466  28.151  -0.320  1.00  0.00     0.094 A 
ATOM      5  C   UNL     1       9.166  28.590  -0.046  1.00  0.00     0.142 A 
ATOM      6  C   UNL     1       8.122  28.302  -0.953  1.00  0.00     0.018 A 
ATOM      7  C   UNL     1       6.834  28.754  -0.652  1.00  0.00     0.019 A 
ATOM      8  C   UNL     1       6.618  29.470   0.525  1.00  0.00     0.094 A 
ATOM      9  C   UNL     1       7.700  29.718   1.377  1.00  0.00     0.336 A 
ATOM     10  O   UNL     1       7.524  30.364   2.443  1.00  0.00    -0.246 OA
ATOM     11  O   UNL     1       8.916  29.278   1.066  1.00  0.00    -0.423 OA
ENDROOT
BRANCH   3  12
ATOM     12  O   UNL     1      12.024  26.986  -1.773  1.00  0.00    -0.508 OA
ATOM     13  H   UNL     1      12.661  27.538  -2.335  1.00  0.00     0.293 HD
ENDBRANCH   3  12
TORSDOF 1
ENDMDL
MODEL 6
REMARK VINA RESULT:    -5.598      8.928     11.846
REMARK INTER + INTRA:          -5.761
REMARK INTER:                  -5.761
REMARK INTRA:                   0.000
REMARK UNBOUND:                 0.000
REMARK SMILES O=c1ccc2ccc(O)cc2o1
REMARK SMILES IDX 6 1 7 2 8 3 10 4 11 5 5 6 4 7 3 8 2 9 1 10 12 11 9 12
REMARK H PARENT 9 13
REMARK Flexibility Score: inf
ROOT
ATOM      1  C   UNL     1       3.979  38.765   4.629  1.00  0.00     0.016 A 
ATOM      2  C   UNL     1       3.519  39.236   5.864  1.00  0.00     0.047 A 
ATOM      3  C   UNL     1       2.950  38.354   6.791  1.00  0.00     0.119 A 
ATOM      4  C   UNL     1       2.838  36.990   6.481  1.00  0.00     0.094 A 
ATOM      5  C   UNL     1       3.295  36.510   5.249  1.00  0.00     0.142 A 
ATOM      6  C   UNL     1       3.869  37.403   4.317  1.00  0.00     0.018 A 
ATOM      7  C   UNL     1       4.316  36.893   3.094  1.00  0.00     0.019 A 
ATOM      8  C   UNL     1       4.185  35.529   2.832  1.00  0.00     0.094 A 
ATOM      9  C   UNL     1       3.606  34.705   3.803  1.00  0.00     0.336 A 
ATOM     10  O   UNL     1       3.478  33.472   3.584  1.00  0.00    -0.246 OA
ATOM     11  O   UNL     1       3.188  35.216   4.958  1.00  0.00    -0.423 OA
ENDROOT
BRANCH   3  12
ATOM     12  O   UNL     1       2.498  38.842   8.014  1.00  0.00    -0.508 OA
ATOM     13  H   UNL     1       1.963  39.700   8.077  1.00  0.00     0.293 HD
ENDBRANCH   3  12
TORSDOF 1
ENDMDL
MODEL 7
REMARK VINA RESULT:    -5.583      1.885      4.510
REMARK INTER + INTRA:          -5.746
REMARK INTER:                  -5.746
REMARK INTRA:                   0.000
REMARK UNBOUND:                 0.000
REMARK SMILES O=c1ccc2ccc(O)cc2o1
REMARK SMILES IDX 6 1 7 2 8 3 10 4 11 5 5 6 4 7 3 8 2 9 1 10 12 11 9 12
REMARK H PARENT 9 13
REMARK Flexibility Score: inf
ROOT
ATOM      1  C   UNL     1       6.935  27.735  -1.479  1.00  0.00     0.016 A 
ATOM      2  C   UNL     1       5.889  28.477  -0.921  1.00  0.00     0.047 A 
ATOM      3  C   UNL     1       6.132  29.350   0.148  1.00  0.00     0.119 A 
ATOM      4  C   UNL     1       7.431  29.481   0.662  1.00  0.00     0.094 A 
ATOM      5  C   UNL     1       8.483  28.743   0.110  1.00  0.00     0.142 A 
ATOM      6  C   UNL     1       8.234  27.864  -0.968  1.00  0.00     0.018 A 
ATOM      7  C   UNL     1       9.306  27.140  -1.498  1.00  0.00     0.019 A 
ATOM      8  C   UNL     1      10.580  27.305  -0.954  1.00  0.00     0.094 A 
ATOM      9  C   UNL     1      10.751  28.193   0.114  1.00  0.00     0.336 A 
ATOM     10  O   UNL     1      11.893  28.354   0.619  1.00  0.00    -0.246 OA
ATOM     11  O   UNL     1       9.714  28.869   0.600  1.00  0.00    -0.423 OA
ENDROOT
BRANCH   3  12
ATOM     12  O   UNL     1       5.078  30.080   0.691  1.00  0.00    -0.508 OA
ATOM     13  H   UNL     1       4.391  30.536   0.102  1.00  0.00     0.293 HD
ENDBRANCH   3  12
TORSDOF 1
ENDMDL
MODEL 8
REMARK VINA RESULT:    -5.482      7.573      9.952
REMARK INTER + INTRA:          -5.642
REMARK INTER:                  -5.642
REMARK INTRA:                   0.000
REMARK UNBOUND:                 0.000
REMARK SMILES O=c1ccc2ccc(O)cc2o1
REMARK SMILES IDX 6 1 7 2 8 3 10 4 11 5 5 6 4 7 3 8 2 9 1 10 12 11 9 12
REMARK H PARENT 9 13
REMARK Flexibility Score: inf
ROOT
ATOM      1  C   UNL     1      -0.936  31.036   1.727  1.00  0.00     0.016 A 
ATOM      2  C   UNL     1      -1.460  32.145   2.400  1.00  0.00     0.047 A 
ATOM      3  C   UNL     1      -0.992  32.485   3.675  1.00  0.00     0.119 A 
ATOM      4  C   UNL     1       0.006  31.710   4.284  1.00  0.00     0.094 A 
ATOM      5  C   UNL     1       0.535  30.599   3.618  1.00  0.00     0.142 A 
ATOM      6  C   UNL     1       0.062  30.259   2.331  1.00  0.00     0.018 A 
ATOM      7  C   UNL     1       0.610  29.143   1.693  1.00  0.00     0.019 A 
ATOM      8  C   UNL     1       1.602  28.404   2.337  1.00  0.00     0.094 A 
ATOM      9  C   UNL     1       2.022  28.800   3.612  1.00  0.00     0.336 A 
ATOM     10  O   UNL     1       2.915  28.144   4.210  1.00  0.00    -0.246 OA
ATOM     11  O   UNL     1       1.483  29.865   4.198  1.00  0.00    -0.423 OA
ENDROOT
BRANCH   3  12
ATOM     12  O   UNL     1      -1.526  33.592   4.329  1.00  0.00    -0.508 OA
ATOM     13  H   UNL     1      -2.361  33.520   4.898  1.00  0.00     0.293 HD
ENDBRANCH   3  12
TORSDOF 1
ENDMDL
MODEL 9
REMARK VINA RESULT:    -5.446      8.320     10.627
REMARK INTER + INTRA:          -5.605
REMARK INTER:                  -5.605
REMARK INTRA:                   0.000
REMARK UNBOUND:                 0.000
REMARK SMILES O=c1ccc2ccc(O)cc2o1
REMARK SMILES IDX 6 1 7 2 8 3 10 4 11 5 5 6 4 7 3 8 2 9 1 10 12 11 9 12
REMARK H PARENT 9 13
REMARK Flexibility Score: inf
ROOT
ATOM      1  C   UNL     1       4.340  36.167   2.768  1.00  0.00     0.016 A 
ATOM      2  C   UNL     1       4.277  34.775   2.643  1.00  0.00     0.047 A 
ATOM      3  C   UNL     1       3.711  33.997   3.661  1.00  0.00     0.119 A 
ATOM      4  C   UNL     1       3.203  34.616   4.813  1.00  0.00     0.094 A 
ATOM      5  C   UNL     1       3.261  36.008   4.946  1.00  0.00     0.142 A 
ATOM      6  C   UNL     1       3.833  36.789   3.917  1.00  0.00     0.018 A 
ATOM      7  C   UNL     1       3.876  38.176   4.080  1.00  0.00     0.019 A 
ATOM      8  C   UNL     1       3.358  38.746   5.243  1.00  0.00     0.094 A 
ATOM      9  C   UNL     1       2.807  37.909   6.220  1.00  0.00     0.336 A 
ATOM     10  O   UNL     1       2.335  38.406   7.277  1.00  0.00    -0.246 OA
ATOM     11  O   UNL     1       2.779  36.592   6.041  1.00  0.00    -0.423 OA
ENDROOT
BRANCH   3  12
ATOM     12  O   UNL     1       3.658  32.613   3.518  1.00  0.00    -0.508 OA
ATOM     13  H   UNL     1       3.670  31.997   4.322  1.00  0.00     0.293 HD
ENDBRANCH   3  12
TORSDOF 1
ENDMDL
