MODEL 1
REMARK VINA RESULT:    70.950      0.000      0.000
REMARK INTER + INTRA:         103.537
REMARK INTER:                 104.132
REMARK INTRA:                  -0.595
REMARK UNBOUND:                -0.595
REMARK SMILES O=c1c(O[C@H]2O[C@H](CO)[C@H](O)[C@H](O)[C@@H]2O)c(-c2ccc(O)c(O)c2)oc2cc(O)cc(O)c12
REMARK SMILES IDX 4 1 3 2 16 3 25 4 2 5 26 6 1 7 33 8 27 9 31 10 28 11 30 12
REMARK SMILES IDX 17 13 18 14 19 15 20 16 24 17 22 18 21 19 23 21 32 23 29 25
REMARK SMILES IDX 5 27 14 28 6 29 12 30 7 31 10 32 15 33 13 35 8 37 9 38 11 40
REMARK H PARENT 21 20 23 22 32 24 29 26 15 34 13 36 9 39 11 41
REMARK Flexibility Score: inf
ROOT
ATOM      1  O   UNL     1      19.757  42.872   9.149  1.00  0.00    -0.454 OA
ENDROOT
BRANCH   1   2
ATOM      2  C   UNL     1      19.508  42.923   7.761  1.00  0.00     0.214 A 
ATOM      3  C   UNL     1      18.211  42.607   7.310  1.00  0.00     0.180 A 
ATOM      4  O   UNL     1      17.938  42.592   6.010  1.00  0.00    -0.452 OA
ATOM      5  C   UNL     1      20.491  43.242   6.795  1.00  0.00     0.239 A 
ATOM      6  C   UNL     1      18.828  42.887   5.074  1.00  0.00     0.146 A 
ATOM      7  O   UNL     1      21.667  43.522   7.149  1.00  0.00    -0.285 OA
ATOM      8  C   UNL     1      20.152  43.235   5.425  1.00  0.00     0.111 A 
ATOM      9  C   UNL     1      18.439  42.852   3.731  1.00  0.00     0.094 A 
ATOM     10  C   UNL     1      21.076  43.549   4.396  1.00  0.00     0.134 A 
ATOM     11  C   UNL     1      19.352  43.162   2.723  1.00  0.00     0.123 A 
ATOM     12  C   UNL     1      20.665  43.509   3.055  1.00  0.00     0.093 A 
BRANCH   3  13
ATOM     13  C   UNL     1      17.122  42.260   8.250  1.00  0.00     0.025 A 
ATOM     14  C   UNL     1      16.218  43.254   8.657  1.00  0.00     0.016 A 
ATOM     15  C   UNL     1      15.186  42.946   9.549  1.00  0.00     0.051 A 
ATOM     16  C   UNL     1      15.054  41.646  10.055  1.00  0.00     0.157 A 
ATOM     17  C   UNL     1      17.001  40.965   8.780  1.00  0.00     0.062 A 
ATOM     18  C   UNL     1      15.969  40.652   9.671  1.00  0.00     0.158 A 
BRANCH  16  19
ATOM     19  O   UNL     1      14.020  41.341  10.939  1.00  0.00    -0.504 OA
ATOM     20  H   UNL     1      13.175  40.876  10.628  1.00  0.00     0.293 HD
ENDBRANCH  16  19
BRANCH  18  21
ATOM     21  O   UNL     1      15.873  39.352  10.165  1.00  0.00    -0.504 OA
ATOM     22  H   UNL     1      16.629  38.913  10.676  1.00  0.00     0.293 HD
ENDBRANCH  18  21
ENDBRANCH   3  13
BRANCH  10  23
ATOM     23  O   UNL     1      22.393  43.901   4.695  1.00  0.00    -0.507 OA
ATOM     24  H   UNL     1      23.173  43.571   4.137  1.00  0.00     0.293 HD
ENDBRANCH  10  23
BRANCH  11  25
ATOM     25  O   UNL     1      18.943  43.121   1.391  1.00  0.00    -0.508 OA
ATOM     26  H   UNL     1      19.126  43.891   0.757  1.00  0.00     0.293 HD
ENDBRANCH  11  25
ENDBRANCH   1   2
BRANCH   1  27
ATOM     27  C   UNL     1      20.673  42.016   9.841  1.00  0.00     0.339 C 
ATOM     28  C   UNL     1      20.007  40.658  10.133  1.00  0.00     0.214 C 
ATOM     29  O   UNL     1      21.158  42.618  11.034  1.00  0.00    -0.332 OA
ATOM     30  C   UNL     1      18.902  40.824  11.200  1.00  0.00     0.180 C 
ATOM     31  C   UNL     1      20.106  42.898  11.942  1.00  0.00     0.179 C 
ATOM     32  C   UNL     1      19.431  41.592  12.420  1.00  0.00     0.177 C 
BRANCH  28  33
ATOM     33  O   UNL     1      20.987  39.752  10.572  1.00  0.00    -0.384 OA
ATOM     34  H   UNL     1      20.522  39.062  11.113  1.00  0.00     0.211 HD
ENDBRANCH  28  33
BRANCH  30  35
ATOM     35  O   UNL     1      18.408  39.572  11.604  1.00  0.00    -0.387 OA
ATOM     36  H   UNL     1      17.870  39.728  12.424  1.00  0.00     0.211 HD
ENDBRANCH  30  35
BRANCH  31  37
ATOM     37  C   UNL     1      20.669  43.703  13.123  1.00  0.00     0.191 C 
BRANCH  37  38
ATOM     38  O   UNL     1      20.657  45.073  12.827  1.00  0.00    -0.394 OA
ATOM     39  H   UNL     1      20.535  45.152  11.845  1.00  0.00     0.210 HD
ENDBRANCH  37  38
ENDBRANCH  31  37
BRANCH  32  40
ATOM     40  O   UNL     1      20.349  40.791  13.123  1.00  0.00    -0.387 OA
ATOM     41  H   UNL     1      19.904  40.501  13.962  1.00  0.00     0.211 HD
ENDBRANCH  32  40
ENDBRANCH   1  27
TORSDOF 12
ENDMDL
