MODEL 1
REMARK VINA RESULT:    -2.934      0.000      0.000
REMARK INTER + INTRA:          -3.416
REMARK INTER:                  -3.362
REMARK INTRA:                  -0.054
REMARK UNBOUND:                -0.054
REMARK SMILES CC(C)[C@H]([NH3+])C(=O)[O-]
REMARK SMILES IDX 4 1 5 2 6 6 7 7 8 8 2 9 1 10 3 11
REMARK H PARENT 5 3 5 4 5 5
REMARK Flexibility Score: inf
ROOT
ATOM      1  C   UNL     1     190.898 194.583 192.596  1.00  0.00     0.230 C 
ENDROOT
BRANCH   1   2
ATOM      2  N   UNL     1     190.466 193.182 192.483  1.00  0.00    -0.350 N 
ATOM      3  H   UNL     1     191.088 192.678 191.809  1.00  0.00     0.345 HD
ATOM      4  H   UNL     1     189.488 193.138 192.115  1.00  0.00     0.345 HD
ATOM      5  H   UNL     1     190.509 192.692 193.405  1.00  0.00     0.345 HD
ENDBRANCH   1   2
BRANCH   1   6
ATOM      6  C   UNL     1     191.400 195.099 191.268  1.00  0.00     0.099 C 
ATOM      7  O   UNL     1     192.334 194.513 190.660  1.00  0.00    -0.544 OA
ATOM      8  O   UNL     1     190.848 196.251 190.722  1.00  0.00    -0.544 OA
ENDBRANCH   1   6
BRANCH   1   9
ATOM      9  C   UNL     1     191.928 194.779 193.748  1.00  0.00     0.047 C 
ATOM     10  C   UNL     1     191.282 194.538 195.122  1.00  0.00     0.014 C 
ATOM     11  C   UNL     1     192.624 196.151 193.729  1.00  0.00     0.014 C 
ENDBRANCH   1   9
TORSDOF 3
ENDMDL
MODEL 2
REMARK VINA RESULT:    -2.891      1.081      1.548
REMARK INTER + INTRA:          -3.367
REMARK INTER:                  -3.308
REMARK INTRA:                  -0.058
REMARK UNBOUND:                -0.054
REMARK SMILES CC(C)[C@H]([NH3+])C(=O)[O-]
REMARK SMILES IDX 4 1 5 2 6 6 7 7 8 8 2 9 1 10 3 11
REMARK H PARENT 5 3 5 4 5 5
REMARK Flexibility Score: inf
ROOT
ATOM      1  C   UNL     1     191.533 194.689 192.549  1.00  0.00     0.230 C 
ENDROOT
BRANCH   1   2
ATOM      2  N   UNL     1     190.680 193.578 192.996  1.00  0.00    -0.350 N 
ATOM      3  H   UNL     1     190.184 193.851 193.876  1.00  0.00     0.345 HD
ATOM      4  H   UNL     1     191.267 192.737 193.203  1.00  0.00     0.345 HD
ATOM      5  H   UNL     1     189.965 193.331 192.275  1.00  0.00     0.345 HD
ENDBRANCH   1   2
BRANCH   1   6
ATOM      6  C   UNL     1     192.376 194.278 191.365  1.00  0.00     0.099 C 
ATOM      7  O   UNL     1     191.932 194.378 190.191  1.00  0.00    -0.544 OA
ATOM      8  O   UNL     1     193.646 193.753 191.571  1.00  0.00    -0.544 OA
ENDBRANCH   1   6
BRANCH   1   9
ATOM      9  C   UNL     1     192.380 195.274 193.719  1.00  0.00     0.047 C 
ATOM     10  C   UNL     1     191.616 195.206 195.050  1.00  0.00     0.014 C 
ATOM     11  C   UNL     1     192.871 196.711 193.468  1.00  0.00     0.014 C 
ENDBRANCH   1   9
TORSDOF 3
ENDMDL
MODEL 3
REMARK VINA RESULT:    -2.835      1.705      1.937
REMARK INTER + INTRA:          -3.303
REMARK INTER:                  -3.248
REMARK INTRA:                  -0.055
REMARK UNBOUND:                -0.054
REMARK SMILES CC(C)[C@H]([NH3+])C(=O)[O-]
REMARK SMILES IDX 4 1 5 2 6 6 7 7 8 8 2 9 1 10 3 11
REMARK H PARENT 5 3 5 4 5 5
REMARK Flexibility Score: inf
ROOT
ATOM      1  C   UNL     1     191.279 194.505 193.383  1.00  0.00     0.230 C 
ENDROOT
BRANCH   1   2
ATOM      2  N   UNL     1     191.332 193.447 194.403  1.00  0.00    -0.350 N 
ATOM      3  H   UNL     1     190.557 192.763 194.237  1.00  0.00     0.345 HD
ATOM      4  H   UNL     1     191.199 193.860 195.355  1.00  0.00     0.345 HD
ATOM      5  H   UNL     1     192.240 192.932 194.374  1.00  0.00     0.345 HD
ENDBRANCH   1   2
BRANCH   1   6
ATOM      6  C   UNL     1     190.544 194.028 192.153  1.00  0.00     0.099 C 
ATOM      7  O   UNL     1     191.174 193.684 191.118  1.00  0.00    -0.544 OA
ATOM      8  O   UNL     1     189.155 193.994 192.147  1.00  0.00    -0.544 OA
ENDBRANCH   1   6
BRANCH   1   9
ATOM      9  C   UNL     1     192.695 195.067 193.060  1.00  0.00     0.047 C 
ATOM     10  C   UNL     1     193.796 194.219 193.716  1.00  0.00     0.014 C 
ATOM     11  C   UNL     1     192.874 196.547 193.443  1.00  0.00     0.014 C 
ENDBRANCH   1   9
TORSDOF 3
ENDMDL
MODEL 4
REMARK VINA RESULT:    -2.734      2.990      3.670
REMARK INTER + INTRA:          -3.187
REMARK INTER:                  -3.111
REMARK INTRA:                  -0.076
REMARK UNBOUND:                -0.054
REMARK SMILES CC(C)[C@H]([NH3+])C(=O)[O-]
REMARK SMILES IDX 4 1 5 2 6 6 7 7 8 8 2 9 1 10 3 11
REMARK H PARENT 5 3 5 4 5 5
REMARK Flexibility Score: inf
ROOT
ATOM      1  C   UNL     1     193.884 194.765 192.806  1.00  0.00     0.230 C 
ENDROOT
BRANCH   1   2
ATOM      2  N   UNL     1     194.001 193.322 193.062  1.00  0.00    -0.350 N 
ATOM      3  H   UNL     1     194.859 193.137 193.633  1.00  0.00     0.345 HD
ATOM      4  H   UNL     1     194.096 192.804 192.159  1.00  0.00     0.345 HD
ATOM      5  H   UNL     1     193.172 192.957 193.583  1.00  0.00     0.345 HD
ENDBRANCH   1   2
BRANCH   1   6
ATOM      6  C   UNL     1     195.016 195.521 193.463  1.00  0.00     0.099 C 
ATOM      7  O   UNL     1     195.214 196.737 193.206  1.00  0.00    -0.544 OA
ATOM      8  O   UNL     1     195.869 194.861 194.339  1.00  0.00    -0.544 OA
ENDBRANCH   1   6
BRANCH   1   9
ATOM      9  C   UNL     1     192.481 195.312 193.206  1.00  0.00     0.047 C 
ATOM     10  C   UNL     1     192.222 195.138 194.711  1.00  0.00     0.014 C 
ATOM     11  C   UNL     1     191.325 194.696 192.399  1.00  0.00     0.014 C 
ENDBRANCH   1   9
TORSDOF 3
ENDMDL
MODEL 5
REMARK VINA RESULT:    -2.723      2.436      3.490
REMARK INTER + INTRA:          -3.174
REMARK INTER:                  -3.128
REMARK INTRA:                  -0.047
REMARK UNBOUND:                -0.054
REMARK SMILES CC(C)[C@H]([NH3+])C(=O)[O-]
REMARK SMILES IDX 4 1 5 2 6 6 7 7 8 8 2 9 1 10 3 11
REMARK H PARENT 5 3 5 4 5 5
REMARK Flexibility Score: inf
ROOT
ATOM      1  C   UNL     1     190.116 193.737 191.386  1.00  0.00     0.230 C 
ENDROOT
BRANCH   1   2
ATOM      2  N   UNL     1     190.003 192.330 191.796  1.00  0.00    -0.350 N 
ATOM      3  H   UNL     1     190.354 191.713 191.025  1.00  0.00     0.345 HD
ATOM      4  H   UNL     1     189.002 192.087 191.974  1.00  0.00     0.345 HD
ATOM      5  H   UNL     1     190.563 192.135 192.656  1.00  0.00     0.345 HD
ENDBRANCH   1   2
BRANCH   1   6
ATOM      6  C   UNL     1     190.978 194.511 192.355  1.00  0.00     0.099 C 
ATOM      7  O   UNL     1     191.119 194.124 193.545  1.00  0.00    -0.544 OA
ATOM      8  O   UNL     1     191.601 195.683 191.941  1.00  0.00    -0.544 OA
ENDBRANCH   1   6
BRANCH   1   9
ATOM      9  C   UNL     1     188.718 194.389 191.168  1.00  0.00     0.047 C 
ATOM     10  C   UNL     1     187.607 193.328 191.129  1.00  0.00     0.014 C 
ATOM     11  C   UNL     1     188.639 195.278 189.915  1.00  0.00     0.014 C 
ENDBRANCH   1   9
TORSDOF 3
ENDMDL
MODEL 6
REMARK VINA RESULT:    -2.700      2.379      3.065
REMARK INTER + INTRA:          -3.149
REMARK INTER:                  -3.072
REMARK INTRA:                  -0.077
REMARK UNBOUND:                -0.054
REMARK SMILES CC(C)[C@H]([NH3+])C(=O)[O-]
REMARK SMILES IDX 4 1 5 2 6 6 7 7 8 8 2 9 1 10 3 11
REMARK H PARENT 5 3 5 4 5 5
REMARK Flexibility Score: inf
ROOT
ATOM      1  C   UNL     1     191.902 194.376 192.635  1.00  0.00     0.230 C 
ENDROOT
BRANCH   1   2
ATOM      2  N   UNL     1     190.643 193.646 192.845  1.00  0.00    -0.350 N 
ATOM      3  H   UNL     1     190.060 193.699 191.977  1.00  0.00     0.345 HD
ATOM      4  H   UNL     1     190.101 194.084 193.625  1.00  0.00     0.345 HD
ATOM      5  H   UNL     1     190.816 192.640 193.067  1.00  0.00     0.345 HD
ENDBRANCH   1   2
BRANCH   1   6
ATOM      6  C   UNL     1     192.717 194.418 193.906  1.00  0.00     0.099 C 
ATOM      7  O   UNL     1     193.850 193.873 193.964  1.00  0.00    -0.544 OA
ATOM      8  O   UNL     1     192.200 195.039 195.037  1.00  0.00    -0.544 OA
ENDBRANCH   1   6
BRANCH   1   9
ATOM      9  C   UNL     1     191.657 195.789 192.027  1.00  0.00     0.047 C 
ATOM     10  C   UNL     1     190.874 195.702 190.708  1.00  0.00     0.014 C 
ATOM     11  C   UNL     1     192.945 196.605 191.821  1.00  0.00     0.014 C 
ENDBRANCH   1   9
TORSDOF 3
ENDMDL
MODEL 7
REMARK VINA RESULT:    -2.682      3.108      3.730
REMARK INTER + INTRA:          -3.127
REMARK INTER:                  -3.050
REMARK INTRA:                  -0.077
REMARK UNBOUND:                -0.054
REMARK SMILES CC(C)[C@H]([NH3+])C(=O)[O-]
REMARK SMILES IDX 4 1 5 2 6 6 7 7 8 8 2 9 1 10 3 11
REMARK H PARENT 5 3 5 4 5 5
REMARK Flexibility Score: inf
ROOT
ATOM      1  C   UNL     1     194.017 193.889 193.704  1.00  0.00     0.230 C 
ENDROOT
BRANCH   1   2
ATOM      2  N   UNL     1     194.176 193.218 192.406  1.00  0.00    -0.350 N 
ATOM      3  H   UNL     1     195.101 192.727 192.378  1.00  0.00     0.345 HD
ATOM      4  H   UNL     1     194.161 193.923 191.633  1.00  0.00     0.345 HD
ATOM      5  H   UNL     1     193.422 192.513 192.244  1.00  0.00     0.345 HD
ENDBRANCH   1   2
BRANCH   1   6
ATOM      6  C   UNL     1     192.634 194.481 193.836  1.00  0.00     0.099 C 
ATOM      7  O   UNL     1     191.841 194.493 192.858  1.00  0.00    -0.544 OA
ATOM      8  O   UNL     1     192.237 195.048 195.042  1.00  0.00    -0.544 OA
ENDBRANCH   1   6
BRANCH   1   9
ATOM      9  C   UNL     1     195.146 194.932 193.958  1.00  0.00     0.047 C 
ATOM     10  C   UNL     1     195.042 196.117 192.986  1.00  0.00     0.014 C 
ATOM     11  C   UNL     1     196.563 194.334 193.906  1.00  0.00     0.014 C 
ENDBRANCH   1   9
TORSDOF 3
ENDMDL
MODEL 8
REMARK VINA RESULT:    -2.595      6.578      7.166
REMARK INTER + INTRA:          -3.028
REMARK INTER:                  -2.972
REMARK INTRA:                  -0.056
REMARK UNBOUND:                -0.054
REMARK SMILES CC(C)[C@H]([NH3+])C(=O)[O-]
REMARK SMILES IDX 4 1 5 2 6 6 7 7 8 8 2 9 1 10 3 11
REMARK H PARENT 5 3 5 4 5 5
REMARK Flexibility Score: inf
ROOT
ATOM      1  C   UNL     1     197.629 193.471 193.186  1.00  0.00     0.230 C 
ENDROOT
BRANCH   1   2
ATOM      2  N   UNL     1     196.339 193.083 193.775  1.00  0.00    -0.350 N 
ATOM      3  H   UNL     1     196.468 192.229 194.366  1.00  0.00     0.345 HD
ATOM      4  H   UNL     1     195.655 192.852 193.018  1.00  0.00     0.345 HD
ATOM      5  H   UNL     1     195.946 193.845 194.373  1.00  0.00     0.345 HD
ENDBRANCH   1   2
BRANCH   1   6
ATOM      6  C   UNL     1     198.476 192.254 192.899  1.00  0.00     0.099 C 
ATOM      7  O   UNL     1     199.446 191.953 193.643  1.00  0.00    -0.544 OA
ATOM      8  O   UNL     1     198.204 191.470 191.784  1.00  0.00    -0.544 OA
ENDBRANCH   1   6
BRANCH   1   9
ATOM      9  C   UNL     1     198.368 194.529 194.059  1.00  0.00     0.047 C 
ATOM     10  C   UNL     1     197.399 195.240 195.015  1.00  0.00     0.014 C 
ATOM     11  C   UNL     1     199.153 195.567 193.238  1.00  0.00     0.014 C 
ENDBRANCH   1   9
TORSDOF 3
ENDMDL
MODEL 9
REMARK VINA RESULT:    -1.861      2.648      3.339
REMARK INTER + INTRA:          -2.187
REMARK INTER:                  -2.114
REMARK INTRA:                  -0.072
REMARK UNBOUND:                -0.054
REMARK SMILES CC(C)[C@H]([NH3+])C(=O)[O-]
REMARK SMILES IDX 4 1 5 2 6 6 7 7 8 8 2 9 1 10 3 11
REMARK H PARENT 5 3 5 4 5 5
REMARK Flexibility Score: inf
ROOT
ATOM      1  C   UNL     1     193.424 194.839 193.807  1.00  0.00     0.230 C 
ENDROOT
BRANCH   1   2
ATOM      2  N   UNL     1     193.997 193.554 193.381  1.00  0.00    -0.350 N 
ATOM      3  H   UNL     1     194.896 193.725 192.872  1.00  0.00     0.345 HD
ATOM      4  H   UNL     1     193.342 193.069 192.725  1.00  0.00     0.345 HD
ATOM      5  H   UNL     1     194.192 192.932 194.197  1.00  0.00     0.345 HD
ENDBRANCH   1   2
BRANCH   1   6
ATOM      6  C   UNL     1     191.922 194.742 193.931  1.00  0.00     0.099 C 
ATOM      7  O   UNL     1     191.216 194.371 192.956  1.00  0.00    -0.544 OA
ATOM      8  O   UNL     1     191.303 195.094 195.125  1.00  0.00    -0.544 OA
ENDBRANCH   1   6
BRANCH   1   9
ATOM      9  C   UNL     1     193.879 196.010 192.885  1.00  0.00     0.047 C 
ATOM     10  C   UNL     1     195.410 196.138 192.859  1.00  0.00     0.014 C 
ATOM     11  C   UNL     1     193.245 197.364 193.248  1.00  0.00     0.014 C 
ENDBRANCH   1   9
TORSDOF 3
ENDMDL
