MODEL 1
REMARK VINA RESULT:    -4.521      0.000      0.000
REMARK INTER + INTRA:          -5.212
REMARK INTER:                  -5.181
REMARK INTRA:                  -0.031
REMARK UNBOUND:                -0.031
REMARK SMILES CC(C)[C@H]([NH3+])C(=O)[O-]
REMARK SMILES IDX 4 1 5 2 6 6 7 7 8 8 2 9 1 10 3 11
REMARK H PARENT 5 3 5 4 5 5
REMARK Flexibility Score: inf
ROOT
ATOM      1  C   UNL     1     -34.980  -3.942  -7.596  1.00  0.00     0.230 C 
ENDROOT
BRANCH   1   2
ATOM      2  N   UNL     1     -34.364  -2.807  -6.894  1.00  0.00    -0.350 N 
ATOM      3  H   UNL     1     -35.016  -1.990  -6.910  1.00  0.00     0.345 HD
ATOM      4  H   UNL     1     -34.151  -3.042  -5.898  1.00  0.00     0.345 HD
ATOM      5  H   UNL     1     -33.479  -2.524  -7.376  1.00  0.00     0.345 HD
ENDBRANCH   1   2
BRANCH   1   6
ATOM      6  C   UNL     1     -35.502  -4.958  -6.609  1.00  0.00     0.099 C 
ATOM      7  O   UNL     1     -35.044  -4.989  -5.435  1.00  0.00    -0.544 OA
ATOM      8  O   UNL     1     -36.507  -5.847  -6.971  1.00  0.00    -0.544 OA
ENDBRANCH   1   6
BRANCH   1   9
ATOM      9  C   UNL     1     -34.012  -4.565  -8.646  1.00  0.00     0.047 C 
ATOM     10  C   UNL     1     -33.172  -5.730  -8.097  1.00  0.00     0.014 C 
ATOM     11  C   UNL     1     -34.768  -5.011  -9.907  1.00  0.00     0.014 C 
ENDBRANCH   1   9
TORSDOF 3
ENDMDL
MODEL 2
REMARK VINA RESULT:    -4.468      2.360      2.702
REMARK INTER + INTRA:          -5.152
REMARK INTER:                  -5.194
REMARK INTRA:                   0.042
REMARK UNBOUND:                -0.031
REMARK SMILES CC(C)[C@H]([NH3+])C(=O)[O-]
REMARK SMILES IDX 4 1 5 2 6 6 7 7 8 8 2 9 1 10 3 11
REMARK H PARENT 5 3 5 4 5 5
REMARK Flexibility Score: inf
ROOT
ATOM      1  C   UNL     1     -35.986  -4.650  -7.101  1.00  0.00     0.230 C 
ENDROOT
BRANCH   1   2
ATOM      2  N   UNL     1     -36.148  -5.797  -6.195  1.00  0.00    -0.350 N 
ATOM      3  H   UNL     1     -37.147  -5.864  -5.892  1.00  0.00     0.345 HD
ATOM      4  H   UNL     1     -35.881  -6.693  -6.660  1.00  0.00     0.345 HD
ATOM      5  H   UNL     1     -35.559  -5.665  -5.340  1.00  0.00     0.345 HD
ENDBRANCH   1   2
BRANCH   1   6
ATOM      6  C   UNL     1     -36.182  -5.076  -8.537  1.00  0.00     0.099 C 
ATOM      7  O   UNL     1     -37.123  -4.587  -9.216  1.00  0.00    -0.544 OA
ATOM      8  O   UNL     1     -35.314  -5.985  -9.131  1.00  0.00    -0.544 OA
ENDBRANCH   1   6
BRANCH   1   9
ATOM      9  C   UNL     1     -34.630  -3.920  -6.870  1.00  0.00     0.047 C 
ATOM     10  C   UNL     1     -33.434  -4.873  -6.705  1.00  0.00     0.014 C 
ATOM     11  C   UNL     1     -34.343  -2.908  -7.990  1.00  0.00     0.014 C 
ENDBRANCH   1   9
TORSDOF 3
ENDMDL
MODEL 3
REMARK VINA RESULT:    -4.455      2.402      3.270
REMARK INTER + INTRA:          -5.137
REMARK INTER:                  -5.154
REMARK INTRA:                   0.017
REMARK UNBOUND:                -0.031
REMARK SMILES CC(C)[C@H]([NH3+])C(=O)[O-]
REMARK SMILES IDX 4 1 5 2 6 6 7 7 8 8 2 9 1 10 3 11
REMARK H PARENT 5 3 5 4 5 5
REMARK Flexibility Score: inf
ROOT
ATOM      1  C   UNL     1     -34.133  -5.681  -7.972  1.00  0.00     0.230 C 
ENDROOT
BRANCH   1   2
ATOM      2  N   UNL     1     -32.805  -5.839  -7.361  1.00  0.00    -0.350 N 
ATOM      3  H   UNL     1     -32.466  -6.817  -7.509  1.00  0.00     0.345 HD
ATOM      4  H   UNL     1     -32.110  -5.180  -7.780  1.00  0.00     0.345 HD
ATOM      5  H   UNL     1     -32.861  -5.667  -6.330  1.00  0.00     0.345 HD
ENDBRANCH   1   2
BRANCH   1   6
ATOM      6  C   UNL     1     -34.169  -4.460  -8.860  1.00  0.00     0.099 C 
ATOM      7  O   UNL     1     -34.492  -4.573 -10.072  1.00  0.00    -0.544 OA
ATOM      8  O   UNL     1     -33.875  -3.202  -8.347  1.00  0.00    -0.544 OA
ENDBRANCH   1   6
BRANCH   1   9
ATOM      9  C   UNL     1     -35.264  -5.678  -6.900  1.00  0.00     0.047 C 
ATOM     10  C   UNL     1     -34.935  -4.834  -5.657  1.00  0.00     0.014 C 
ATOM     11  C   UNL     1     -36.603  -5.227  -7.502  1.00  0.00     0.014 C 
ENDBRANCH   1   9
TORSDOF 3
ENDMDL
MODEL 4
REMARK VINA RESULT:    -4.437      1.848      2.262
REMARK INTER + INTRA:          -5.117
REMARK INTER:                  -5.238
REMARK INTRA:                   0.122
REMARK UNBOUND:                -0.031
REMARK SMILES CC(C)[C@H]([NH3+])C(=O)[O-]
REMARK SMILES IDX 4 1 5 2 6 6 7 7 8 8 2 9 1 10 3 11
REMARK H PARENT 5 3 5 4 5 5
REMARK Flexibility Score: inf
ROOT
ATOM      1  C   UNL     1     -33.713  -4.891  -7.925  1.00  0.00     0.230 C 
ENDROOT
BRANCH   1   2
ATOM      2  N   UNL     1     -32.752  -5.719  -7.181  1.00  0.00    -0.350 N 
ATOM      3  H   UNL     1     -31.814  -5.662  -7.640  1.00  0.00     0.345 HD
ATOM      4  H   UNL     1     -32.658  -5.400  -6.191  1.00  0.00     0.345 HD
ATOM      5  H   UNL     1     -33.057  -6.720  -7.192  1.00  0.00     0.345 HD
ENDBRANCH   1   2
BRANCH   1   6
ATOM      6  C   UNL     1     -34.504  -4.017  -6.980  1.00  0.00     0.099 C 
ATOM      7  O   UNL     1     -34.778  -2.830  -7.301  1.00  0.00    -0.544 OA
ATOM      8  O   UNL     1     -34.961  -4.518  -5.767  1.00  0.00    -0.544 OA
ENDBRANCH   1   6
BRANCH   1   9
ATOM      9  C   UNL     1     -34.622  -5.753  -8.850  1.00  0.00     0.047 C 
ATOM     10  C   UNL     1     -36.124  -5.610  -8.549  1.00  0.00     0.014 C 
ATOM     11  C   UNL     1     -34.354  -5.453 -10.333  1.00  0.00     0.014 C 
ENDBRANCH   1   9
TORSDOF 3
ENDMDL
MODEL 5
REMARK VINA RESULT:    -4.364      2.166      2.568
REMARK INTER + INTRA:          -5.033
REMARK INTER:                  -5.072
REMARK INTRA:                   0.039
REMARK UNBOUND:                -0.031
REMARK SMILES CC(C)[C@H]([NH3+])C(=O)[O-]
REMARK SMILES IDX 4 1 5 2 6 6 7 7 8 8 2 9 1 10 3 11
REMARK H PARENT 5 3 5 4 5 5
REMARK Flexibility Score: inf
ROOT
ATOM      1  C   UNL     1     -35.415  -5.641  -7.411  1.00  0.00     0.230 C 
ENDROOT
BRANCH   1   2
ATOM      2  N   UNL     1     -36.030  -5.625  -6.076  1.00  0.00    -0.350 N 
ATOM      3  H   UNL     1     -37.068  -5.539  -6.170  1.00  0.00     0.345 HD
ATOM      4  H   UNL     1     -35.817  -6.500  -5.545  1.00  0.00     0.345 HD
ATOM      5  H   UNL     1     -35.685  -4.801  -5.531  1.00  0.00     0.345 HD
ENDBRANCH   1   2
BRANCH   1   6
ATOM      6  C   UNL     1     -33.928  -5.399  -7.314  1.00  0.00     0.099 C 
ATOM      7  O   UNL     1     -33.450  -4.811  -6.308  1.00  0.00    -0.544 OA
ATOM      8  O   UNL     1     -33.071  -5.844  -8.314  1.00  0.00    -0.544 OA
ENDBRANCH   1   6
BRANCH   1   9
ATOM      9  C   UNL     1     -36.124  -4.653  -8.384  1.00  0.00     0.047 C 
ATOM     10  C   UNL     1     -35.280  -3.414  -8.729  1.00  0.00     0.014 C 
ATOM     11  C   UNL     1     -36.568  -5.360  -9.674  1.00  0.00     0.014 C 
ENDBRANCH   1   9
TORSDOF 3
ENDMDL
MODEL 6
REMARK VINA RESULT:    -4.281      1.586      2.145
REMARK INTER + INTRA:          -4.937
REMARK INTER:                  -4.890
REMARK INTRA:                  -0.047
REMARK UNBOUND:                -0.031
REMARK SMILES CC(C)[C@H]([NH3+])C(=O)[O-]
REMARK SMILES IDX 4 1 5 2 6 6 7 7 8 8 2 9 1 10 3 11
REMARK H PARENT 5 3 5 4 5 5
REMARK Flexibility Score: inf
ROOT
ATOM      1  C   UNL     1     -35.067  -3.859  -7.267  1.00  0.00     0.230 C 
ENDROOT
BRANCH   1   2
ATOM      2  N   UNL     1     -34.399  -2.561  -7.092  1.00  0.00    -0.350 N 
ATOM      3  H   UNL     1     -33.870  -2.559  -6.190  1.00  0.00     0.345 HD
ATOM      4  H   UNL     1     -33.730  -2.366  -7.870  1.00  0.00     0.345 HD
ATOM      5  H   UNL     1     -35.110  -1.794  -7.051  1.00  0.00     0.345 HD
ENDBRANCH   1   2
BRANCH   1   6
ATOM      6  C   UNL     1     -34.276  -4.958  -6.600  1.00  0.00     0.099 C 
ATOM      7  O   UNL     1     -34.856  -5.783  -5.844  1.00  0.00    -0.544 OA
ATOM      8  O   UNL     1     -32.912  -5.091  -6.833  1.00  0.00    -0.544 OA
ENDBRANCH   1   6
BRANCH   1   9
ATOM      9  C   UNL     1     -35.364  -4.157  -8.767  1.00  0.00     0.047 C 
ATOM     10  C   UNL     1     -36.673  -4.932  -8.996  1.00  0.00     0.014 C 
ATOM     11  C   UNL     1     -35.364  -2.868  -9.603  1.00  0.00     0.014 C 
ENDBRANCH   1   9
TORSDOF 3
ENDMDL
MODEL 7
REMARK VINA RESULT:    -4.264      2.027      2.604
REMARK INTER + INTRA:          -4.918
REMARK INTER:                  -4.960
REMARK INTRA:                   0.042
REMARK UNBOUND:                -0.031
REMARK SMILES CC(C)[C@H]([NH3+])C(=O)[O-]
REMARK SMILES IDX 4 1 5 2 6 6 7 7 8 8 2 9 1 10 3 11
REMARK H PARENT 5 3 5 4 5 5
REMARK Flexibility Score: inf
ROOT
ATOM      1  C   UNL     1     -34.010  -3.675  -7.927  1.00  0.00     0.230 C 
ENDROOT
BRANCH   1   2
ATOM      2  N   UNL     1     -34.442  -2.715  -6.900  1.00  0.00    -0.350 N 
ATOM      3  H   UNL     1     -34.042  -1.773  -7.113  1.00  0.00     0.345 HD
ATOM      4  H   UNL     1     -35.483  -2.634  -6.866  1.00  0.00     0.345 HD
ATOM      5  H   UNL     1     -34.090  -3.012  -5.960  1.00  0.00     0.345 HD
ENDBRANCH   1   2
BRANCH   1   6
ATOM      6  C   UNL     1     -34.993  -3.704  -9.074  1.00  0.00     0.099 C 
ATOM      7  O   UNL     1     -34.623  -3.363 -10.229  1.00  0.00    -0.544 OA
ATOM      8  O   UNL     1     -36.300  -4.132  -8.876  1.00  0.00    -0.544 OA
ENDBRANCH   1   6
BRANCH   1   9
ATOM      9  C   UNL     1     -33.749  -5.087  -7.323  1.00  0.00     0.047 C 
ATOM     10  C   UNL     1     -34.753  -5.487  -6.229  1.00  0.00     0.014 C 
ATOM     11  C   UNL     1     -33.708  -6.163  -8.418  1.00  0.00     0.014 C 
ENDBRANCH   1   9
TORSDOF 3
ENDMDL
MODEL 8
REMARK VINA RESULT:    -4.202      2.522      3.334
REMARK INTER + INTRA:          -4.848
REMARK INTER:                  -4.773
REMARK INTRA:                  -0.075
REMARK UNBOUND:                -0.031
REMARK SMILES CC(C)[C@H]([NH3+])C(=O)[O-]
REMARK SMILES IDX 4 1 5 2 6 6 7 7 8 8 2 9 1 10 3 11
REMARK H PARENT 5 3 5 4 5 5
REMARK Flexibility Score: inf
ROOT
ATOM      1  C   UNL     1     -34.711  -5.762  -8.161  1.00  0.00     0.230 C 
ENDROOT
BRANCH   1   2
ATOM      2  N   UNL     1     -33.270  -5.999  -7.990  1.00  0.00    -0.350 N 
ATOM      3  H   UNL     1     -32.734  -5.364  -8.624  1.00  0.00     0.345 HD
ATOM      4  H   UNL     1     -32.967  -5.820  -7.006  1.00  0.00     0.345 HD
ATOM      5  H   UNL     1     -33.036  -6.986  -8.247  1.00  0.00     0.345 HD
ENDBRANCH   1   2
BRANCH   1   6
ATOM      6  C   UNL     1     -35.056  -5.618  -9.624  1.00  0.00     0.099 C 
ATOM      7  O   UNL     1     -36.258  -5.675  -9.997  1.00  0.00    -0.544 OA
ATOM      8  O   UNL     1     -34.061  -5.395 -10.568  1.00  0.00    -0.544 OA
ENDBRANCH   1   6
BRANCH   1   9
ATOM      9  C   UNL     1     -35.203  -4.556  -7.307  1.00  0.00     0.047 C 
ATOM     10  C   UNL     1     -35.069  -4.777  -5.790  1.00  0.00     0.014 C 
ATOM     11  C   UNL     1     -34.490  -3.257  -7.712  1.00  0.00     0.014 C 
ENDBRANCH   1   9
TORSDOF 3
ENDMDL
MODEL 9
REMARK VINA RESULT:    -3.957      1.732      2.094
REMARK INTER + INTRA:          -4.566
REMARK INTER:                  -4.507
REMARK INTRA:                  -0.059
REMARK UNBOUND:                -0.031
REMARK SMILES CC(C)[C@H]([NH3+])C(=O)[O-]
REMARK SMILES IDX 4 1 5 2 6 6 7 7 8 8 2 9 1 10 3 11
REMARK H PARENT 5 3 5 4 5 5
REMARK Flexibility Score: inf
ROOT
ATOM      1  C   UNL     1     -35.077  -5.407  -7.965  1.00  0.00     0.230 C 
ENDROOT
BRANCH   1   2
ATOM      2  N   UNL     1     -36.495  -5.021  -7.933  1.00  0.00    -0.350 N 
ATOM      3  H   UNL     1     -36.782  -4.664  -8.873  1.00  0.00     0.345 HD
ATOM      4  H   UNL     1     -37.107  -5.831  -7.684  1.00  0.00     0.345 HD
ATOM      5  H   UNL     1     -36.642  -4.254  -7.236  1.00  0.00     0.345 HD
ENDBRANCH   1   2
BRANCH   1   6
ATOM      6  C   UNL     1     -34.394  -5.032  -6.671  1.00  0.00     0.099 C 
ATOM      7  O   UNL     1     -33.136  -4.979  -6.616  1.00  0.00    -0.544 OA
ATOM      8  O   UNL     1     -35.140  -4.715  -5.542  1.00  0.00    -0.544 OA
ENDBRANCH   1   6
BRANCH   1   9
ATOM      9  C   UNL     1     -34.351  -4.831  -9.217  1.00  0.00     0.047 C 
ATOM     10  C   UNL     1     -34.519  -5.692 -10.480  1.00  0.00     0.014 C 
ATOM     11  C   UNL     1     -34.792  -3.388  -9.504  1.00  0.00     0.014 C 
ENDBRANCH   1   9
TORSDOF 3
ENDMDL
