MODEL 1
REMARK VINA RESULT:    -3.555      0.000      0.000
REMARK INTER + INTRA:          -8.260
REMARK INTER:                  -6.672
REMARK INTRA:                  -1.588
REMARK UNBOUND:                -1.588
REMARK SMILES O=C([O-])CCCCCCCCCCCCCCC(=O)[O-]
REMARK SMILES IDX 10 1 9 2 8 3 7 4 6 5 5 6 4 7 2 8 1 9 3 10 11 11 12 12 13 13
REMARK SMILES IDX 14 14 15 15 16 16 17 17 18 18 19 19 20 20
REMARK H PARENT
REMARK Flexibility Score: inf
ROOT
ATOM      1  C   UNL     1      27.151  42.255   4.273  1.00  0.00     0.000 C 
ENDROOT
BRANCH   1   2
ATOM      2  C   UNL     1      27.580  43.733   4.282  1.00  0.00     0.000 C 
BRANCH   2   3
ATOM      3  C   UNL     1      27.210  44.446   5.592  1.00  0.00     0.000 C 
BRANCH   3   4
ATOM      4  C   UNL     1      25.802  45.058   5.554  1.00  0.00     0.000 C 
BRANCH   4   5
ATOM      5  C   UNL     1      24.828  44.248   6.419  1.00  0.00     0.000 C 
BRANCH   5   6
ATOM      6  C   UNL     1      25.505  43.774   7.711  1.00  0.00     0.006 C 
BRANCH   6   7
ATOM      7  C   UNL     1      25.315  42.267   7.909  1.00  0.00     0.053 C 
BRANCH   7   8
ATOM      8  C   UNL     1      25.608  41.884   9.325  1.00  0.00     0.041 C 
ATOM      9  O   UNL     1      25.787  42.772  10.198  1.00  0.00    -0.550 OA
ATOM     10  O   UNL     1      25.638  40.543   9.690  1.00  0.00    -0.550 OA
ENDBRANCH   7   8
ENDBRANCH   6   7
ENDBRANCH   5   6
ENDBRANCH   4   5
ENDBRANCH   3   4
ENDBRANCH   2   3
ENDBRANCH   1   2
BRANCH   1  11
ATOM     11  C   UNL     1      25.975  41.986   3.321  1.00  0.00     0.000 C 
BRANCH  11  12
ATOM     12  C   UNL     1      24.753  41.400   4.044  1.00  0.00     0.000 C 
BRANCH  12  13
ATOM     13  C   UNL     1      24.180  40.203   3.270  1.00  0.00     0.000 C 
BRANCH  13  14
ATOM     14  C   UNL     1      23.929  40.519   1.786  1.00  0.00     0.000 C 
BRANCH  14  15
ATOM     15  C   UNL     1      23.999  39.266   0.896  1.00  0.00     0.000 C 
BRANCH  15  16
ATOM     16  C   UNL     1      25.411  38.651   0.844  1.00  0.00     0.006 C 
BRANCH  16  17
ATOM     17  C   UNL     1      26.498  39.598   0.310  1.00  0.00     0.053 C 
BRANCH  17  18
ATOM     18  C   UNL     1      26.559  39.598  -1.186  1.00  0.00     0.041 C 
ATOM     19  O   UNL     1      25.810  40.361  -1.851  1.00  0.00    -0.550 OA
ATOM     20  O   UNL     1      27.467  38.779  -1.846  1.00  0.00    -0.550 OA
ENDBRANCH  17  18
ENDBRANCH  16  17
ENDBRANCH  15  16
ENDBRANCH  14  15
ENDBRANCH  13  14
ENDBRANCH  12  13
ENDBRANCH  11  12
ENDBRANCH   1  11
TORSDOF 15
ENDMDL
MODEL 2
REMARK VINA RESULT:    -3.542     18.615     20.800
REMARK INTER + INTRA:          -8.235
REMARK INTER:                  -5.638
REMARK INTRA:                  -2.597
REMARK UNBOUND:                -1.588
REMARK SMILES O=C([O-])CCCCCCCCCCCCCCC(=O)[O-]
REMARK SMILES IDX 10 1 9 2 8 3 7 4 6 5 5 6 4 7 2 8 1 9 3 10 11 11 12 12 13 13
REMARK SMILES IDX 14 14 15 15 16 16 17 17 18 18 19 19 20 20
REMARK H PARENT
REMARK Flexibility Score: inf
ROOT
ATOM      1  C   UNL     1      40.224  32.203   5.010  1.00  0.00     0.000 C 
ENDROOT
BRANCH   1   2
ATOM      2  C   UNL     1      40.987  32.883   6.160  1.00  0.00     0.000 C 
BRANCH   2   3
ATOM      3  C   UNL     1      42.397  33.334   5.748  1.00  0.00     0.000 C 
BRANCH   3   4
ATOM      4  C   UNL     1      42.591  33.346   4.225  1.00  0.00     0.000 C 
BRANCH   4   5
ATOM      5  C   UNL     1      43.974  32.803   3.844  1.00  0.00     0.000 C 
BRANCH   5   6
ATOM      6  C   UNL     1      43.882  31.864   2.634  1.00  0.00     0.006 C 
BRANCH   6   7
ATOM      7  C   UNL     1      42.657  32.192   1.776  1.00  0.00     0.053 C 
BRANCH   7   8
ATOM      8  C   UNL     1      43.079  32.677   0.426  1.00  0.00     0.041 C 
ATOM      9  O   UNL     1      44.114  33.383   0.300  1.00  0.00    -0.550 OA
ATOM     10  O   UNL     1      42.355  32.310  -0.702  1.00  0.00    -0.550 OA
ENDBRANCH   7   8
ENDBRANCH   6   7
ENDBRANCH   5   6
ENDBRANCH   4   5
ENDBRANCH   3   4
ENDBRANCH   2   3
ENDBRANCH   1   2
BRANCH   1  11
ATOM     11  C   UNL     1      39.641  30.839   5.412  1.00  0.00     0.000 C 
BRANCH  11  12
ATOM     12  C   UNL     1      40.003  29.725   4.418  1.00  0.00     0.000 C 
BRANCH  12  13
ATOM     13  C   UNL     1      41.526  29.612   4.254  1.00  0.00     0.000 C 
BRANCH  13  14
ATOM     14  C   UNL     1      42.225  29.105   5.526  1.00  0.00     0.000 C 
BRANCH  14  15
ATOM     15  C   UNL     1      43.565  29.816   5.787  1.00  0.00     0.000 C 
BRANCH  15  16
ATOM     16  C   UNL     1      43.923  29.879   7.283  1.00  0.00     0.006 C 
BRANCH  16  17
ATOM     17  C   UNL     1      42.809  30.440   8.181  1.00  0.00     0.053 C 
BRANCH  17  18
ATOM     18  C   UNL     1      42.557  29.572   9.376  1.00  0.00     0.041 C 
ATOM     19  O   UNL     1      43.077  29.856  10.487  1.00  0.00    -0.550 OA
ATOM     20  O   UNL     1      41.721  28.468   9.270  1.00  0.00    -0.550 OA
ENDBRANCH  17  18
ENDBRANCH  16  17
ENDBRANCH  15  16
ENDBRANCH  14  15
ENDBRANCH  13  14
ENDBRANCH  12  13
ENDBRANCH  11  12
ENDBRANCH   1  11
TORSDOF 15
ENDMDL
MODEL 3
REMARK VINA RESULT:    -3.517      3.118      7.237
REMARK INTER + INTRA:          -8.190
REMARK INTER:                  -6.373
REMARK INTRA:                  -1.817
REMARK UNBOUND:                -1.588
REMARK SMILES O=C([O-])CCCCCCCCCCCCCCC(=O)[O-]
REMARK SMILES IDX 10 1 9 2 8 3 7 4 6 5 5 6 4 7 2 8 1 9 3 10 11 11 12 12 13 13
REMARK SMILES IDX 14 14 15 15 16 16 17 17 18 18 19 19 20 20
REMARK H PARENT
REMARK Flexibility Score: inf
ROOT
ATOM      1  C   UNL     1      24.988  38.854   2.710  1.00  0.00     0.000 C 
ENDROOT
BRANCH   1   2
ATOM      2  C   UNL     1      23.909  38.378   1.722  1.00  0.00     0.000 C 
BRANCH   2   3
ATOM      3  C   UNL     1      23.917  39.177   0.409  1.00  0.00     0.000 C 
BRANCH   3   4
ATOM      4  C   UNL     1      25.259  39.876   0.152  1.00  0.00     0.000 C 
BRANCH   4   5
ATOM      5  C   UNL     1      25.694  39.708  -1.310  1.00  0.00     0.000 C 
BRANCH   5   6
ATOM      6  C   UNL     1      27.085  39.069  -1.401  1.00  0.00     0.006 C 
BRANCH   6   7
ATOM      7  C   UNL     1      27.790  39.093  -0.041  1.00  0.00     0.053 C 
BRANCH   7   8
ATOM      8  C   UNL     1      29.105  38.386  -0.121  1.00  0.00     0.041 C 
ATOM      9  O   UNL     1      29.608  37.863   0.908  1.00  0.00    -0.550 OA
ATOM     10  O   UNL     1      29.754  38.262  -1.343  1.00  0.00    -0.550 OA
ENDBRANCH   7   8
ENDBRANCH   6   7
ENDBRANCH   5   6
ENDBRANCH   4   5
ENDBRANCH   3   4
ENDBRANCH   2   3
ENDBRANCH   1   2
BRANCH   1  11
ATOM     11  C   UNL     1      24.406  39.675   3.872  1.00  0.00     0.000 C 
BRANCH  11  12
ATOM     12  C   UNL     1      24.180  41.148   3.499  1.00  0.00     0.000 C 
BRANCH  12  13
ATOM     13  C   UNL     1      24.058  42.019   4.759  1.00  0.00     0.000 C 
BRANCH  13  14
ATOM     14  C   UNL     1      25.254  42.966   4.945  1.00  0.00     0.000 C 
BRANCH  14  15
ATOM     15  C   UNL     1      26.260  42.883   3.783  1.00  0.00     0.000 C 
BRANCH  15  16
ATOM     16  C   UNL     1      27.498  42.034   4.128  1.00  0.00     0.006 C 
BRANCH  16  17
ATOM     17  C   UNL     1      27.852  40.970   3.077  1.00  0.00     0.053 C 
BRANCH  17  18
ATOM     18  C   UNL     1      28.903  40.022   3.567  1.00  0.00     0.041 C 
ATOM     19  O   UNL     1      28.573  38.940   4.120  1.00  0.00    -0.550 OA
ATOM     20  O   UNL     1      30.248  40.319   3.383  1.00  0.00    -0.550 OA
ENDBRANCH  17  18
ENDBRANCH  16  17
ENDBRANCH  15  16
ENDBRANCH  14  15
ENDBRANCH  13  14
ENDBRANCH  12  13
ENDBRANCH  11  12
ENDBRANCH   1  11
TORSDOF 15
ENDMDL
MODEL 4
REMARK VINA RESULT:    -3.504     18.206     19.730
REMARK INTER + INTRA:          -8.164
REMARK INTER:                  -6.697
REMARK INTRA:                  -1.468
REMARK UNBOUND:                -1.588
REMARK SMILES O=C([O-])CCCCCCCCCCCCCCC(=O)[O-]
REMARK SMILES IDX 10 1 9 2 8 3 7 4 6 5 5 6 4 7 2 8 1 9 3 10 11 11 12 12 13 13
REMARK SMILES IDX 14 14 15 15 16 16 17 17 18 18 19 19 20 20
REMARK H PARENT
REMARK Flexibility Score: inf
ROOT
ATOM      1  C   UNL     1      40.665  30.686   4.175  1.00  0.00     0.000 C 
ENDROOT
BRANCH   1   2
ATOM      2  C   UNL     1      41.336  29.356   4.565  1.00  0.00     0.000 C 
BRANCH   2   3
ATOM      3  C   UNL     1      41.391  29.146   6.086  1.00  0.00     0.000 C 
BRANCH   3   4
ATOM      4  C   UNL     1      42.621  28.341   6.527  1.00  0.00     0.000 C 
BRANCH   4   5
ATOM      5  C   UNL     1      43.906  29.159   6.346  1.00  0.00     0.000 C 
BRANCH   5   6
ATOM      6  C   UNL     1      44.123  30.111   7.529  1.00  0.00     0.006 C 
BRANCH   6   7
ATOM      7  C   UNL     1      43.863  31.564   7.120  1.00  0.00     0.053 C 
BRANCH   7   8
ATOM      8  C   UNL     1      42.993  32.244   8.128  1.00  0.00     0.041 C 
ATOM      9  O   UNL     1      41.739  32.204   8.014  1.00  0.00    -0.550 OA
ATOM     10  O   UNL     1      43.565  32.882   9.222  1.00  0.00    -0.550 OA
ENDBRANCH   7   8
ENDBRANCH   6   7
ENDBRANCH   5   6
ENDBRANCH   4   5
ENDBRANCH   3   4
ENDBRANCH   2   3
ENDBRANCH   1   2
BRANCH   1  11
ATOM     11  C   UNL     1      41.538  31.537   3.240  1.00  0.00     0.000 C 
BRANCH  11  12
ATOM     12  C   UNL     1      43.039  31.277   3.434  1.00  0.00     0.000 C 
BRANCH  12  13
ATOM     13  C   UNL     1      43.852  31.869   2.273  1.00  0.00     0.000 C 
BRANCH  13  14
ATOM     14  C   UNL     1      43.379  33.276   1.873  1.00  0.00     0.000 C 
BRANCH  14  15
ATOM     15  C   UNL     1      43.452  33.514   0.354  1.00  0.00     0.000 C 
BRANCH  15  16
ATOM     16  C   UNL     1      42.532  32.568  -0.441  1.00  0.00     0.006 C 
BRANCH  16  17
ATOM     17  C   UNL     1      41.590  33.277  -1.426  1.00  0.00     0.053 C 
BRANCH  17  18
ATOM     18  C   UNL     1      40.153  33.143  -1.026  1.00  0.00     0.041 C 
ATOM     19  O   UNL     1      39.303  32.711  -1.848  1.00  0.00    -0.550 OA
ATOM     20  O   UNL     1      39.758  33.464   0.268  1.00  0.00    -0.550 OA
ENDBRANCH  17  18
ENDBRANCH  16  17
ENDBRANCH  15  16
ENDBRANCH  14  15
ENDBRANCH  13  14
ENDBRANCH  12  13
ENDBRANCH  11  12
ENDBRANCH   1  11
TORSDOF 15
ENDMDL
MODEL 5
REMARK VINA RESULT:    -3.458      1.913      2.994
REMARK INTER + INTRA:          -8.078
REMARK INTER:                  -5.684
REMARK INTRA:                  -2.394
REMARK UNBOUND:                -1.588
REMARK SMILES O=C([O-])CCCCCCCCCCCCCCC(=O)[O-]
REMARK SMILES IDX 10 1 9 2 8 3 7 4 6 5 5 6 4 7 2 8 1 9 3 10 11 11 12 12 13 13
REMARK SMILES IDX 14 14 15 15 16 16 17 17 18 18 19 19 20 20
REMARK H PARENT
REMARK Flexibility Score: inf
ROOT
ATOM      1  C   UNL     1      27.392  42.763   4.621  1.00  0.00     0.000 C 
ENDROOT
BRANCH   1   2
ATOM      2  C   UNL     1      28.461  41.912   3.912  1.00  0.00     0.000 C 
BRANCH   2   3
ATOM      3  C   UNL     1      27.870  40.661   3.243  1.00  0.00     0.000 C 
BRANCH   3   4
ATOM      4  C   UNL     1      28.073  39.390   4.081  1.00  0.00     0.000 C 
BRANCH   4   5
ATOM      5  C   UNL     1      26.776  38.990   4.794  1.00  0.00     0.000 C 
BRANCH   5   6
ATOM      6  C   UNL     1      26.987  38.901   6.311  1.00  0.00     0.006 C 
BRANCH   6   7
ATOM      7  C   UNL     1      26.379  40.114   7.022  1.00  0.00     0.053 C 
BRANCH   7   8
ATOM      8  C   UNL     1      25.094  39.739   7.689  1.00  0.00     0.041 C 
ATOM      9  O   UNL     1      24.707  38.541   7.693  1.00  0.00    -0.550 OA
ATOM     10  O   UNL     1      24.347  40.706   8.350  1.00  0.00    -0.550 OA
ENDBRANCH   7   8
ENDBRANCH   6   7
ENDBRANCH   5   6
ENDBRANCH   4   5
ENDBRANCH   3   4
ENDBRANCH   2   3
ENDBRANCH   1   2
BRANCH   1  11
ATOM     11  C   UNL     1      26.073  42.831   3.835  1.00  0.00     0.000 C 
BRANCH  11  12
ATOM     12  C   UNL     1      24.850  42.502   4.706  1.00  0.00     0.000 C 
BRANCH  12  13
ATOM     13  C   UNL     1      24.096  41.283   4.153  1.00  0.00     0.000 C 
BRANCH  13  14
ATOM     14  C   UNL     1      24.222  41.148   2.626  1.00  0.00     0.000 C 
BRANCH  14  15
ATOM     15  C   UNL     1      24.237  39.681   2.162  1.00  0.00     0.000 C 
BRANCH  15  16
ATOM     16  C   UNL     1      24.525  39.537   0.656  1.00  0.00     0.006 C 
BRANCH  16  17
ATOM     17  C   UNL     1      26.019  39.512   0.294  1.00  0.00     0.053 C 
BRANCH  17  18
ATOM     18  C   UNL     1      26.239  39.456  -1.186  1.00  0.00     0.041 C 
ATOM     19  O   UNL     1      25.743  40.338  -1.935  1.00  0.00    -0.550 OA
ATOM     20  O   UNL     1      27.021  38.447  -1.736  1.00  0.00    -0.550 OA
ENDBRANCH  17  18
ENDBRANCH  16  17
ENDBRANCH  15  16
ENDBRANCH  14  15
ENDBRANCH  13  14
ENDBRANCH  12  13
ENDBRANCH  11  12
ENDBRANCH   1  11
TORSDOF 15
ENDMDL
MODEL 6
REMARK VINA RESULT:    -3.413      1.561      8.830
REMARK INTER + INTRA:          -7.993
REMARK INTER:                  -6.641
REMARK INTRA:                  -1.352
REMARK UNBOUND:                -1.588
REMARK SMILES O=C([O-])CCCCCCCCCCCCCCC(=O)[O-]
REMARK SMILES IDX 10 1 9 2 8 3 7 4 6 5 5 6 4 7 2 8 1 9 3 10 11 11 12 12 13 13
REMARK SMILES IDX 14 14 15 15 16 16 17 17 18 18 19 19 20 20
REMARK H PARENT
REMARK Flexibility Score: inf
ROOT
ATOM      1  C   UNL     1      26.753  42.236   4.338  1.00  0.00     0.000 C 
ENDROOT
BRANCH   1   2
ATOM      2  C   UNL     1      25.634  41.207   4.576  1.00  0.00     0.000 C 
BRANCH   2   3
ATOM      3  C   UNL     1      24.363  41.521   3.770  1.00  0.00     0.000 C 
BRANCH   3   4
ATOM      4  C   UNL     1      24.331  40.801   2.414  1.00  0.00     0.000 C 
BRANCH   4   5
ATOM      5  C   UNL     1      24.958  39.405   2.519  1.00  0.00     0.000 C 
BRANCH   5   6
ATOM      6  C   UNL     1      24.856  38.655   1.185  1.00  0.00     0.006 C 
BRANCH   6   7
ATOM      7  C   UNL     1      24.644  39.629   0.022  1.00  0.00     0.053 C 
BRANCH   7   8
ATOM      8  C   UNL     1      25.835  39.630  -0.883  1.00  0.00     0.041 C 
ATOM      9  O   UNL     1      25.853  40.362  -1.907  1.00  0.00    -0.550 OA
ATOM     10  O   UNL     1      26.946  38.857  -0.570  1.00  0.00    -0.550 OA
ENDBRANCH   7   8
ENDBRANCH   6   7
ENDBRANCH   5   6
ENDBRANCH   4   5
ENDBRANCH   3   4
ENDBRANCH   2   3
ENDBRANCH   1   2
BRANCH   1  11
ATOM     11  C   UNL     1      26.224  43.677   4.253  1.00  0.00     0.000 C 
BRANCH  11  12
ATOM     12  C   UNL     1      26.298  44.413   5.599  1.00  0.00     0.000 C 
BRANCH  12  13
ATOM     13  C   UNL     1      24.892  44.756   6.114  1.00  0.00     0.000 C 
BRANCH  13  14
ATOM     14  C   UNL     1      24.278  43.631   6.962  1.00  0.00     0.000 C 
BRANCH  14  15
ATOM     15  C   UNL     1      25.254  43.090   8.022  1.00  0.00     0.000 C 
BRANCH  15  16
ATOM     16  C   UNL     1      25.408  44.037   9.227  1.00  0.00     0.006 C 
BRANCH  16  17
ATOM     17  C   UNL     1      25.954  43.367  10.497  1.00  0.00     0.053 C 
BRANCH  17  18
ATOM     18  C   UNL     1      27.024  44.186  11.151  1.00  0.00     0.041 C 
ATOM     19  O   UNL     1      27.296  44.019  12.369  1.00  0.00    -0.550 OA
ATOM     20  O   UNL     1      27.745  45.112  10.406  1.00  0.00    -0.550 OA
ENDBRANCH  17  18
ENDBRANCH  16  17
ENDBRANCH  15  16
ENDBRANCH  14  15
ENDBRANCH  13  14
ENDBRANCH  12  13
ENDBRANCH  11  12
ENDBRANCH   1  11
TORSDOF 15
ENDMDL
MODEL 7
REMARK VINA RESULT:    -3.337      3.029      4.969
REMARK INTER + INTRA:          -7.851
REMARK INTER:                  -5.528
REMARK INTRA:                  -2.322
REMARK UNBOUND:                -1.588
REMARK SMILES O=C([O-])CCCCCCCCCCCCCCC(=O)[O-]
REMARK SMILES IDX 10 1 9 2 8 3 7 4 6 5 5 6 4 7 2 8 1 9 3 10 11 11 12 12 13 13
REMARK SMILES IDX 14 14 15 15 16 16 17 17 18 18 19 19 20 20
REMARK H PARENT
REMARK Flexibility Score: inf
ROOT
ATOM      1  C   UNL     1      27.576  38.306   0.245  1.00  0.00     0.000 C 
ENDROOT
BRANCH   1   2
ATOM      2  C   UNL     1      28.599  38.923   1.216  1.00  0.00     0.000 C 
BRANCH   2   3
ATOM      3  C   UNL     1      28.027  39.119   2.629  1.00  0.00     0.000 C 
BRANCH   3   4
ATOM      4  C   UNL     1      27.591  40.568   2.893  1.00  0.00     0.000 C 
BRANCH   4   5
ATOM      5  C   UNL     1      26.342  40.611   3.782  1.00  0.00     0.000 C 
BRANCH   5   6
ATOM      6  C   UNL     1      25.483  41.842   3.465  1.00  0.00     0.006 C 
BRANCH   6   7
ATOM      7  C   UNL     1      26.251  43.136   3.752  1.00  0.00     0.053 C 
BRANCH   7   8
ATOM      8  C   UNL     1      26.130  43.507   5.195  1.00  0.00     0.041 C 
ATOM      9  O   UNL     1      27.149  43.518   5.935  1.00  0.00    -0.550 OA
ATOM     10  O   UNL     1      24.899  43.889   5.713  1.00  0.00    -0.550 OA
ENDBRANCH   7   8
ENDBRANCH   6   7
ENDBRANCH   5   6
ENDBRANCH   4   5
ENDBRANCH   3   4
ENDBRANCH   2   3
ENDBRANCH   1   2
BRANCH   1  11
ATOM     11  C   UNL     1      27.330  39.185  -0.992  1.00  0.00     0.000 C 
BRANCH  11  12
ATOM     12  C   UNL     1      25.843  39.514  -1.195  1.00  0.00     0.000 C 
BRANCH  12  13
ATOM     13  C   UNL     1      25.201  39.981   0.120  1.00  0.00     0.000 C 
BRANCH  13  14
ATOM     14  C   UNL     1      23.936  39.183   0.480  1.00  0.00     0.000 C 
BRANCH  14  15
ATOM     15  C   UNL     1      23.920  38.735   1.952  1.00  0.00     0.000 C 
BRANCH  15  16
ATOM     16  C   UNL     1      24.627  37.385   2.171  1.00  0.00     0.006 C 
BRANCH  16  17
ATOM     17  C   UNL     1      25.072  37.127   3.619  1.00  0.00     0.053 C 
BRANCH  17  18
ATOM     18  C   UNL     1      26.323  36.307   3.687  1.00  0.00     0.041 C 
ATOM     19  O   UNL     1      26.688  35.625   2.694  1.00  0.00    -0.550 OA
ATOM     20  O   UNL     1      27.105  36.323   4.836  1.00  0.00    -0.550 OA
ENDBRANCH  17  18
ENDBRANCH  16  17
ENDBRANCH  15  16
ENDBRANCH  14  15
ENDBRANCH  13  14
ENDBRANCH  12  13
ENDBRANCH  11  12
ENDBRANCH   1  11
TORSDOF 15
ENDMDL
MODEL 8
REMARK VINA RESULT:    -3.330      2.282      7.300
REMARK INTER + INTRA:          -7.837
REMARK INTER:                  -5.837
REMARK INTRA:                  -2.000
REMARK UNBOUND:                -1.588
REMARK SMILES O=C([O-])CCCCCCCCCCCCCCC(=O)[O-]
REMARK SMILES IDX 10 1 9 2 8 3 7 4 6 5 5 6 4 7 2 8 1 9 3 10 11 11 12 12 13 13
REMARK SMILES IDX 14 14 15 15 16 16 17 17 18 18 19 19 20 20
REMARK H PARENT
REMARK Flexibility Score: inf
ROOT
ATOM      1  C   UNL     1      24.958  41.992   6.095  1.00  0.00     0.000 C 
ENDROOT
BRANCH   1   2
ATOM      2  C   UNL     1      23.875  41.110   5.448  1.00  0.00     0.000 C 
BRANCH   2   3
ATOM      3  C   UNL     1      24.401  40.324   4.236  1.00  0.00     0.000 C 
BRANCH   3   4
ATOM      4  C   UNL     1      24.239  41.094   2.918  1.00  0.00     0.000 C 
BRANCH   4   5
ATOM      5  C   UNL     1      24.296  40.142   1.716  1.00  0.00     0.000 C 
BRANCH   5   6
ATOM      6  C   UNL     1      25.675  40.185   1.046  1.00  0.00     0.006 C 
BRANCH   6   7
ATOM      7  C   UNL     1      25.858  39.002   0.090  1.00  0.00     0.053 C 
BRANCH   7   8
ATOM      8  C   UNL     1      26.446  39.462  -1.206  1.00  0.00     0.041 C 
ATOM      9  O   UNL     1      27.539  38.986  -1.611  1.00  0.00    -0.550 OA
ATOM     10  O   UNL     1      25.763  40.383  -1.990  1.00  0.00    -0.550 OA
ENDBRANCH   7   8
ENDBRANCH   6   7
ENDBRANCH   5   6
ENDBRANCH   4   5
ENDBRANCH   3   4
ENDBRANCH   2   3
ENDBRANCH   1   2
BRANCH   1  11
ATOM     11  C   UNL     1      24.802  43.479   5.737  1.00  0.00     0.000 C 
BRANCH  11  12
ATOM     12  C   UNL     1      26.105  44.098   5.208  1.00  0.00     0.000 C 
BRANCH  12  13
ATOM     13  C   UNL     1      26.507  43.465   3.867  1.00  0.00     0.000 C 
BRANCH  13  14
ATOM     14  C   UNL     1      27.982  43.029   3.834  1.00  0.00     0.000 C 
BRANCH  14  15
ATOM     15  C   UNL     1      28.151  41.546   3.460  1.00  0.00     0.000 C 
BRANCH  15  16
ATOM     16  C   UNL     1      28.035  40.609   4.677  1.00  0.00     0.006 C 
BRANCH  16  17
ATOM     17  C   UNL     1      28.596  41.192   5.984  1.00  0.00     0.053 C 
BRANCH  17  18
ATOM     18  C   UNL     1      29.700  40.351   6.547  1.00  0.00     0.041 C 
ATOM     19  O   UNL     1      30.437  40.802   7.463  1.00  0.00    -0.550 OA
ATOM     20  O   UNL     1      29.895  39.056   6.083  1.00  0.00    -0.550 OA
ENDBRANCH  17  18
ENDBRANCH  16  17
ENDBRANCH  15  16
ENDBRANCH  14  15
ENDBRANCH  13  14
ENDBRANCH  12  13
ENDBRANCH  11  12
ENDBRANCH   1  11
TORSDOF 15
ENDMDL
MODEL 9
REMARK VINA RESULT:    -3.327      1.164      7.842
REMARK INTER + INTRA:          -7.832
REMARK INTER:                  -6.219
REMARK INTRA:                  -1.613
REMARK UNBOUND:                -1.588
REMARK SMILES O=C([O-])CCCCCCCCCCCCCCC(=O)[O-]
REMARK SMILES IDX 10 1 9 2 8 3 7 4 6 5 5 6 4 7 2 8 1 9 3 10 11 11 12 12 13 13
REMARK SMILES IDX 14 14 15 15 16 16 17 17 18 18 19 19 20 20
REMARK H PARENT
REMARK Flexibility Score: inf
ROOT
ATOM      1  C   UNL     1      26.560  43.459   3.937  1.00  0.00     0.000 C 
ENDROOT
BRANCH   1   2
ATOM      2  C   UNL     1      26.608  41.922   3.868  1.00  0.00     0.000 C 
BRANCH   2   3
ATOM      3  C   UNL     1      25.403  41.262   4.558  1.00  0.00     0.000 C 
BRANCH   3   4
ATOM      4  C   UNL     1      24.193  41.119   3.624  1.00  0.00     0.000 C 
BRANCH   4   5
ATOM      5  C   UNL     1      24.641  40.825   2.187  1.00  0.00     0.000 C 
BRANCH   5   6
ATOM      6  C   UNL     1      24.276  39.392   1.779  1.00  0.00     0.006 C 
BRANCH   6   7
ATOM      7  C   UNL     1      24.109  39.279   0.261  1.00  0.00     0.053 C 
BRANCH   7   8
ATOM      8  C   UNL     1      25.432  39.417  -0.423  1.00  0.00     0.041 C 
ATOM      9  O   UNL     1      26.392  38.667  -0.105  1.00  0.00    -0.550 OA
ATOM     10  O   UNL     1      25.592  40.343  -1.446  1.00  0.00    -0.550 OA
ENDBRANCH   7   8
ENDBRANCH   6   7
ENDBRANCH   5   6
ENDBRANCH   4   5
ENDBRANCH   3   4
ENDBRANCH   2   3
ENDBRANCH   1   2
BRANCH   1  11
ATOM     11  C   UNL     1      26.926  44.001   5.328  1.00  0.00     0.000 C 
BRANCH  11  12
ATOM     12  C   UNL     1      25.989  45.127   5.788  1.00  0.00     0.000 C 
BRANCH  12  13
ATOM     13  C   UNL     1      24.569  44.593   6.029  1.00  0.00     0.000 C 
BRANCH  13  14
ATOM     14  C   UNL     1      24.516  43.514   7.123  1.00  0.00     0.000 C 
BRANCH  14  15
ATOM     15  C   UNL     1      25.072  44.011   8.469  1.00  0.00     0.000 C 
BRANCH  15  16
ATOM     16  C   UNL     1      26.022  42.996   9.131  1.00  0.00     0.006 C 
BRANCH  16  17
ATOM     17  C   UNL     1      26.466  41.848   8.211  1.00  0.00     0.053 C 
BRANCH  17  18
ATOM     18  C   UNL     1      26.295  40.508   8.860  1.00  0.00     0.041 C 
ATOM     19  O   UNL     1      27.143  39.598   8.668  1.00  0.00    -0.550 OA
ATOM     20  O   UNL     1      25.215  40.277   9.704  1.00  0.00    -0.550 OA
ENDBRANCH  17  18
ENDBRANCH  16  17
ENDBRANCH  15  16
ENDBRANCH  14  15
ENDBRANCH  13  14
ENDBRANCH  12  13
ENDBRANCH  11  12
ENDBRANCH   1  11
TORSDOF 15
ENDMDL
