MODEL 1
REMARK VINA RESULT:    -5.414      0.000      0.000
REMARK INTER + INTRA:          -5.817
REMARK INTER:                  -5.731
REMARK INTRA:                  -0.087
REMARK UNBOUND:                -0.087
REMARK SMILES C=C(C)[C@@H]1CC=C(C)C(=O)C1
REMARK SMILES IDX 8 1 7 2 6 3 5 4 4 5 11 6 9 7 10 8 2 9 1 10 3 11
REMARK H PARENT
REMARK Flexibility Score: inf
ROOT
ATOM      1  C   UNL     1     -30.179  19.126 -33.125  1.00  0.00     0.048 C 
ATOM      2  C   UNL     1     -28.729  19.520 -33.146  1.00  0.00    -0.012 C 
ATOM      3  C   UNL     1     -28.331  20.569 -33.886  1.00  0.00    -0.019 C 
ATOM      4  C   UNL     1     -26.893  21.018 -33.928  1.00  0.00     0.036 C 
ATOM      5  C   UNL     1     -25.936  19.823 -33.776  1.00  0.00     0.025 C 
ATOM      6  C   UNL     1     -26.263  19.035 -32.494  1.00  0.00     0.089 C 
ATOM      7  C   UNL     1     -27.723  18.677 -32.452  1.00  0.00     0.158 C 
ATOM      8  O   UNL     1     -28.090  17.672 -31.786  1.00  0.00    -0.295 OA
ENDROOT
BRANCH   5   9
ATOM      9  C   UNL     1     -24.480  20.268 -33.798  1.00  0.00    -0.077 C 
ATOM     10  C   UNL     1     -23.674  19.890 -34.803  1.00  0.00     0.008 C 
ATOM     11  C   UNL     1     -23.906  21.136 -32.705  1.00  0.00     0.039 C 
ENDBRANCH   5   9
TORSDOF 1
ENDMDL
MODEL 2
REMARK VINA RESULT:    -4.910     11.334     13.077
REMARK INTER + INTRA:          -5.284
REMARK INTER:                  -5.185
REMARK INTRA:                  -0.099
REMARK UNBOUND:                -0.087
REMARK SMILES C=C(C)[C@@H]1CC=C(C)C(=O)C1
REMARK SMILES IDX 8 1 7 2 6 3 5 4 4 5 11 6 9 7 10 8 2 9 1 10 3 11
REMARK H PARENT
REMARK Flexibility Score: inf
ROOT
ATOM      1  C   UNL     1     -18.718  13.144 -30.584  1.00  0.00     0.048 C 
ATOM      2  C   UNL     1     -17.241  13.383 -30.725  1.00  0.00    -0.012 C 
ATOM      3  C   UNL     1     -16.400  12.957 -29.767  1.00  0.00    -0.019 C 
ATOM      4  C   UNL     1     -14.910  13.154 -29.867  1.00  0.00     0.036 C 
ATOM      5  C   UNL     1     -14.572  14.457 -30.612  1.00  0.00     0.025 C 
ATOM      6  C   UNL     1     -15.256  14.477 -31.992  1.00  0.00     0.089 C 
ATOM      7  C   UNL     1     -16.727  14.196 -31.856  1.00  0.00     0.158 C 
ATOM      8  O   UNL     1     -17.519  14.627 -32.737  1.00  0.00    -0.295 OA
ENDROOT
BRANCH   5   9
ATOM      9  C   UNL     1     -13.067  14.656 -30.735  1.00  0.00    -0.077 C 
ATOM     10  C   UNL     1     -12.510  14.860 -31.938  1.00  0.00     0.008 C 
ATOM     11  C   UNL     1     -12.169  14.629 -29.522  1.00  0.00     0.039 C 
ENDBRANCH   5   9
TORSDOF 1
ENDMDL
MODEL 3
REMARK VINA RESULT:    -4.755      1.069      4.528
REMARK INTER + INTRA:          -5.120
REMARK INTER:                  -5.030
REMARK INTRA:                  -0.091
REMARK UNBOUND:                -0.087
REMARK SMILES C=C(C)[C@@H]1CC=C(C)C(=O)C1
REMARK SMILES IDX 8 1 7 2 6 3 5 4 4 5 11 6 9 7 10 8 2 9 1 10 3 11
REMARK H PARENT
REMARK Flexibility Score: inf
ROOT
ATOM      1  C   UNL     1     -24.725  20.595 -33.511  1.00  0.00     0.048 C 
ATOM      2  C   UNL     1     -26.167  20.173 -33.468  1.00  0.00    -0.012 C 
ATOM      3  C   UNL     1     -27.089  20.866 -34.159  1.00  0.00    -0.019 C 
ATOM      4  C   UNL     1     -28.543  20.477 -34.165  1.00  0.00     0.036 C 
ATOM      5  C   UNL     1     -28.954  19.849 -32.821  1.00  0.00     0.025 C 
ATOM      6  C   UNL     1     -28.034  18.662 -32.481  1.00  0.00     0.089 C 
ATOM      7  C   UNL     1     -26.589  19.072 -32.566  1.00  0.00     0.158 C 
ATOM      8  O   UNL     1     -25.732  18.443 -31.890  1.00  0.00    -0.295 OA
ENDROOT
BRANCH   5   9
ATOM      9  C   UNL     1     -30.419  19.434 -32.823  1.00  0.00    -0.077 C 
ATOM     10  C   UNL     1     -31.114  19.408 -31.675  1.00  0.00     0.008 C 
ATOM     11  C   UNL     1     -31.124  19.045 -34.100  1.00  0.00     0.039 C 
ENDBRANCH   5   9
TORSDOF 1
ENDMDL
MODEL 4
REMARK VINA RESULT:    -4.623     12.138     14.366
REMARK INTER + INTRA:          -4.980
REMARK INTER:                  -4.883
REMARK INTRA:                  -0.097
REMARK UNBOUND:                -0.087
REMARK SMILES C=C(C)[C@@H]1CC=C(C)C(=O)C1
REMARK SMILES IDX 8 1 7 2 6 3 5 4 4 5 11 6 9 7 10 8 2 9 1 10 3 11
REMARK H PARENT
REMARK Flexibility Score: inf
ROOT
ATOM      1  C   UNL     1     -11.212  14.521 -30.232  1.00  0.00     0.048 C 
ATOM      2  C   UNL     1     -12.656  14.353 -30.615  1.00  0.00    -0.012 C 
ATOM      3  C   UNL     1     -13.497  15.399 -30.534  1.00  0.00    -0.019 C 
ATOM      4  C   UNL     1     -14.948  15.290 -30.923  1.00  0.00     0.036 C 
ATOM      5  C   UNL     1     -15.497  13.883 -30.623  1.00  0.00     0.025 C 
ATOM      6  C   UNL     1     -14.628  12.812 -31.310  1.00  0.00     0.089 C 
ATOM      7  C   UNL     1     -13.178  13.006 -30.961  1.00  0.00     0.158 C 
ATOM      8  O   UNL     1     -12.398  12.017 -31.004  1.00  0.00    -0.295 OA
ENDROOT
BRANCH   5   9
ATOM      9  C   UNL     1     -16.959  13.757 -31.030  1.00  0.00    -0.077 C 
ATOM     10  C   UNL     1     -17.403  14.361 -32.143  1.00  0.00     0.008 C 
ATOM     11  C   UNL     1     -17.939  12.959 -30.205  1.00  0.00     0.039 C 
ENDBRANCH   5   9
TORSDOF 1
ENDMDL
MODEL 5
REMARK VINA RESULT:    -4.527      6.719      8.892
REMARK INTER + INTRA:          -4.879
REMARK INTER:                  -4.792
REMARK INTRA:                  -0.087
REMARK UNBOUND:                -0.087
REMARK SMILES C=C(C)[C@@H]1CC=C(C)C(=O)C1
REMARK SMILES IDX 8 1 7 2 6 3 5 4 4 5 11 6 9 7 10 8 2 9 1 10 3 11
REMARK H PARENT
REMARK Flexibility Score: inf
ROOT
ATOM      1  C   UNL     1     -23.385  14.052 -30.204  1.00  0.00     0.048 C 
ATOM      2  C   UNL     1     -24.758  13.564 -29.835  1.00  0.00    -0.012 C 
ATOM      3  C   UNL     1     -24.916  12.325 -29.338  1.00  0.00    -0.019 C 
ATOM      4  C   UNL     1     -26.266  11.793 -28.934  1.00  0.00     0.036 C 
ATOM      5  C   UNL     1     -27.379  12.374 -29.825  1.00  0.00     0.025 C 
ATOM      6  C   UNL     1     -27.330  13.913 -29.807  1.00  0.00     0.089 C 
ATOM      7  C   UNL     1     -25.946  14.402 -30.135  1.00  0.00     0.158 C 
ATOM      8  O   UNL     1     -25.803  15.550 -30.634  1.00  0.00    -0.295 OA
ENDROOT
BRANCH   5   9
ATOM      9  C   UNL     1     -28.750  11.856 -29.413  1.00  0.00    -0.077 C 
ATOM     10  C   UNL     1     -29.340  10.877 -30.116  1.00  0.00     0.008 C 
ATOM     11  C   UNL     1     -29.478  12.422 -28.218  1.00  0.00     0.039 C 
ENDBRANCH   5   9
TORSDOF 1
ENDMDL
MODEL 6
REMARK VINA RESULT:    -4.464      8.292      8.974
REMARK INTER + INTRA:          -4.812
REMARK INTER:                  -4.714
REMARK INTRA:                  -0.098
REMARK UNBOUND:                -0.087
REMARK SMILES C=C(C)[C@@H]1CC=C(C)C(=O)C1
REMARK SMILES IDX 8 1 7 2 6 3 5 4 4 5 11 6 9 7 10 8 2 9 1 10 3 11
REMARK H PARENT
REMARK Flexibility Score: inf
ROOT
ATOM      1  C   UNL     1     -30.704  10.877 -31.471  1.00  0.00     0.048 C 
ATOM      2  C   UNL     1     -29.368  11.295 -30.923  1.00  0.00    -0.012 C 
ATOM      3  C   UNL     1     -28.254  11.093 -31.648  1.00  0.00    -0.019 C 
ATOM      4  C   UNL     1     -26.893  11.509 -31.155  1.00  0.00     0.036 C 
ATOM      5  C   UNL     1     -26.801  11.396 -29.623  1.00  0.00     0.025 C 
ATOM      6  C   UNL     1     -27.933  12.202 -28.958  1.00  0.00     0.089 C 
ATOM      7  C   UNL     1     -29.266  11.814 -29.536  1.00  0.00     0.158 C 
ATOM      8  O   UNL     1     -30.306  11.972 -28.841  1.00  0.00    -0.295 OA
ENDROOT
BRANCH   5   9
ATOM      9  C   UNL     1     -25.434  11.833 -29.113  1.00  0.00    -0.077 C 
ATOM     10  C   UNL     1     -24.776  12.833 -29.720  1.00  0.00     0.008 C 
ATOM     11  C   UNL     1     -24.787  11.164 -27.925  1.00  0.00     0.039 C 
ENDBRANCH   5   9
TORSDOF 1
ENDMDL
MODEL 7
REMARK VINA RESULT:    -4.461     11.458     13.398
REMARK INTER + INTRA:          -4.809
REMARK INTER:                  -4.711
REMARK INTRA:                  -0.098
REMARK UNBOUND:                -0.087
REMARK SMILES C=C(C)[C@@H]1CC=C(C)C(=O)C1
REMARK SMILES IDX 8 1 7 2 6 3 5 4 4 5 11 6 9 7 10 8 2 9 1 10 3 11
REMARK H PARENT
REMARK Flexibility Score: inf
ROOT
ATOM      1  C   UNL     1     -13.850  14.366 -32.392  1.00  0.00     0.048 C 
ATOM      2  C   UNL     1     -15.037  13.675 -31.781  1.00  0.00    -0.012 C 
ATOM      3  C   UNL     1     -16.258  14.228 -31.881  1.00  0.00    -0.019 C 
ATOM      4  C   UNL     1     -17.483  13.569 -31.303  1.00  0.00     0.036 C 
ATOM      5  C   UNL     1     -17.137  12.779 -30.028  1.00  0.00     0.025 C 
ATOM      6  C   UNL     1     -16.011  11.767 -30.314  1.00  0.00     0.089 C 
ATOM      7  C   UNL     1     -14.840  12.450 -30.964  1.00  0.00     0.158 C 
ATOM      8  O   UNL     1     -13.690  11.949 -30.840  1.00  0.00    -0.295 OA
ENDROOT
BRANCH   5   9
ATOM      9  C   UNL     1     -18.366  12.093 -29.447  1.00  0.00    -0.077 C 
ATOM     10  C   UNL     1     -18.226  11.043 -28.623  1.00  0.00     0.008 C 
ATOM     11  C   UNL     1     -19.761  12.567 -29.776  1.00  0.00     0.039 C 
ENDBRANCH   5   9
TORSDOF 1
ENDMDL
MODEL 8
REMARK VINA RESULT:    -4.408     11.120     12.177
REMARK INTER + INTRA:          -4.753
REMARK INTER:                  -4.665
REMARK INTRA:                  -0.087
REMARK UNBOUND:                -0.087
REMARK SMILES C=C(C)[C@@H]1CC=C(C)C(=O)C1
REMARK SMILES IDX 8 1 7 2 6 3 5 4 4 5 11 6 9 7 10 8 2 9 1 10 3 11
REMARK H PARENT
REMARK Flexibility Score: inf
ROOT
ATOM      1  C   UNL     1     -19.505  12.385 -29.762  1.00  0.00     0.048 C 
ATOM      2  C   UNL     1     -18.271  13.140 -30.170  1.00  0.00    -0.012 C 
ATOM      3  C   UNL     1     -18.086  13.474 -31.459  1.00  0.00    -0.019 C 
ATOM      4  C   UNL     1     -16.877  14.246 -31.919  1.00  0.00     0.036 C 
ATOM      5  C   UNL     1     -15.643  13.902 -31.066  1.00  0.00     0.025 C 
ATOM      6  C   UNL     1     -15.945  14.127 -29.572  1.00  0.00     0.089 C 
ATOM      7  C   UNL     1     -17.203  13.406 -29.173  1.00  0.00     0.158 C 
ATOM      8  O   UNL     1     -17.359  13.063 -27.971  1.00  0.00    -0.295 OA
ENDROOT
BRANCH   5   9
ATOM      9  C   UNL     1     -14.419  14.692 -31.511  1.00  0.00    -0.077 C 
ATOM     10  C   UNL     1     -13.508  14.125 -32.316  1.00  0.00     0.008 C 
ATOM     11  C   UNL     1     -14.198  16.117 -31.064  1.00  0.00     0.039 C 
ENDBRANCH   5   9
TORSDOF 1
ENDMDL
