MODEL 1
REMARK VINA RESULT:    -3.954      0.000      0.000
REMARK INTER + INTRA:         -13.810
REMARK INTER:                  -9.964
REMARK INTRA:                  -3.846
REMARK UNBOUND:                -3.846
REMARK SMILES CCCCCCCCCCCCCCCCCCCCCCCCCCCC(=O)[O-]
REMARK SMILES IDX 15 1 16 2 17 3 18 4 19 5 20 6 21 7 22 8 23 9 24 10 25 11
REMARK SMILES IDX 26 12 27 13 28 14 29 15 30 16 14 17 13 18 12 19 11 20 10 21
REMARK SMILES IDX 9 22 8 23 7 24 6 25 5 26 4 27 3 28 2 29 1 30
REMARK H PARENT
REMARK Flexibility Score: inf
ROOT
ATOM      1  C   UNL     1      -2.006 -11.307 -34.334  1.00  0.00     0.000 C 
ENDROOT
BRANCH   1   2
ATOM      2  C   UNL     1      -0.770 -11.241 -35.244  1.00  0.00     0.000 C 
BRANCH   2   3
ATOM      3  C   UNL     1      -0.186  -9.820 -35.345  1.00  0.00     0.000 C 
BRANCH   3   4
ATOM      4  C   UNL     1      -1.061  -8.883 -36.193  1.00  0.00     0.000 C 
BRANCH   4   5
ATOM      5  C   UNL     1      -0.385  -7.530 -36.465  1.00  0.00     0.000 C 
BRANCH   5   6
ATOM      6  C   UNL     1      -0.744  -7.009 -37.862  1.00  0.00     0.000 C 
BRANCH   6   7
ATOM      7  C   UNL     1      -0.907  -8.168 -38.858  1.00  0.00     0.000 C 
BRANCH   7   8
ATOM      8  C   UNL     1      -2.187  -8.049 -39.702  1.00  0.00     0.000 C 
BRANCH   8   9
ATOM      9  C   UNL     1      -2.047  -8.710 -41.084  1.00  0.00     0.000 C 
BRANCH   9  10
ATOM     10  C   UNL     1      -0.722  -9.477 -41.243  1.00  0.00     0.000 C 
BRANCH  10  11
ATOM     11  C   UNL     1      -0.443 -10.002 -42.664  1.00  0.00     0.000 C 
BRANCH  11  12
ATOM     12  C   UNL     1       0.871 -10.807 -42.787  1.00  0.00     0.006 C 
BRANCH  12  13
ATOM     13  C   UNL     1       2.054 -10.172 -42.038  1.00  0.00     0.053 C 
BRANCH  13  14
ATOM     14  C   UNL     1       3.089 -11.188 -41.660  1.00  0.00     0.041 C 
ATOM     15  O   UNL     1       2.773 -12.402 -41.540  1.00  0.00    -0.550 OA
ATOM     16  O   UNL     1       4.406 -10.796 -41.455  1.00  0.00    -0.550 OA
ENDBRANCH  13  14
ENDBRANCH  12  13
ENDBRANCH  11  12
ENDBRANCH  10  11
ENDBRANCH   9  10
ENDBRANCH   8   9
ENDBRANCH   7   8
ENDBRANCH   6   7
ENDBRANCH   5   6
ENDBRANCH   4   5
ENDBRANCH   3   4
ENDBRANCH   2   3
ENDBRANCH   1   2
BRANCH   1  17
ATOM     17  C   UNL     1      -1.669 -11.802 -32.917  1.00  0.00     0.000 C 
BRANCH  17  18
ATOM     18  C   UNL     1      -1.846 -13.321 -32.762  1.00  0.00     0.000 C 
BRANCH  18  19
ATOM     19  C   UNL     1      -0.511 -14.048 -32.521  1.00  0.00     0.000 C 
BRANCH  19  20
ATOM     20  C   UNL     1       0.678 -13.080 -32.405  1.00  0.00     0.000 C 
BRANCH  20  21
ATOM     21  C   UNL     1       1.696 -13.254 -33.546  1.00  0.00     0.000 C 
BRANCH  21  22
ATOM     22  C   UNL     1       1.732 -14.691 -34.089  1.00  0.00    -0.000 C 
BRANCH  22  23
ATOM     23  C   UNL     1       1.512 -14.756 -35.611  1.00  0.00    -0.000 C 
BRANCH  23  24
ATOM     24  C   UNL     1       0.212 -15.486 -35.992  1.00  0.00    -0.000 C 
BRANCH  24  25
ATOM     25  C   UNL     1      -1.002 -14.564 -36.223  1.00  0.00    -0.000 C 
BRANCH  25  26
ATOM     26  C   UNL     1      -1.165 -14.045 -37.666  1.00  0.00    -0.000 C 
BRANCH  26  27
ATOM     27  C   UNL     1      -2.300 -13.024 -37.870  1.00  0.00    -0.000 C 
BRANCH  27  28
ATOM     28  C   UNL     1      -2.180 -12.254 -39.196  1.00  0.00    -0.000 C 
BRANCH  28  29
ATOM     29  C   UNL     1      -2.068 -13.187 -40.412  1.00  0.00    -0.003 C 
ATOM     30  C   UNL     1      -2.735 -12.615 -41.664  1.00  0.00     0.004 C 
ENDBRANCH  28  29
ENDBRANCH  27  28
ENDBRANCH  26  27
ENDBRANCH  25  26
ENDBRANCH  24  25
ENDBRANCH  23  24
ENDBRANCH  22  23
ENDBRANCH  21  22
ENDBRANCH  20  21
ENDBRANCH  19  20
ENDBRANCH  18  19
ENDBRANCH  17  18
ENDBRANCH   1  17
TORSDOF 26
ENDMDL
MODEL 2
REMARK VINA RESULT:    -3.846      1.582      3.372
REMARK INTER + INTRA:         -13.537
REMARK INTER:                  -9.696
REMARK INTRA:                  -3.841
REMARK UNBOUND:                -3.846
REMARK SMILES CCCCCCCCCCCCCCCCCCCCCCCCCCCC(=O)[O-]
REMARK SMILES IDX 15 1 16 2 17 3 18 4 19 5 20 6 21 7 22 8 23 9 24 10 25 11
REMARK SMILES IDX 26 12 27 13 28 14 29 15 30 16 14 17 13 18 12 19 11 20 10 21
REMARK SMILES IDX 9 22 8 23 7 24 6 25 5 26 4 27 3 28 2 29 1 30
REMARK H PARENT
REMARK Flexibility Score: inf
ROOT
ATOM      1  C   UNL     1      -0.528  -9.016 -36.361  1.00  0.00     0.000 C 
ENDROOT
BRANCH   1   2
ATOM      2  C   UNL     1      -0.828  -9.472 -37.797  1.00  0.00     0.000 C 
BRANCH   2   3
ATOM      3  C   UNL     1      -0.569  -8.366 -38.835  1.00  0.00     0.000 C 
BRANCH   3   4
ATOM      4  C   UNL     1      -1.866  -7.709 -39.333  1.00  0.00     0.000 C 
BRANCH   4   5
ATOM      5  C   UNL     1      -2.725  -8.663 -40.177  1.00  0.00     0.000 C 
BRANCH   5   6
ATOM      6  C   UNL     1      -3.092  -8.024 -41.522  1.00  0.00     0.000 C 
BRANCH   6   7
ATOM      7  C   UNL     1      -2.668  -8.923 -42.694  1.00  0.00     0.000 C 
BRANCH   7   8
ATOM      8  C   UNL     1      -1.357  -9.678 -42.418  1.00  0.00     0.000 C 
BRANCH   8   9
ATOM      9  C   UNL     1      -1.537 -11.206 -42.448  1.00  0.00     0.000 C 
BRANCH   9  10
ATOM     10  C   UNL     1      -0.941 -11.898 -41.209  1.00  0.00     0.000 C 
BRANCH  10  11
ATOM     11  C   UNL     1       0.402 -11.319 -40.726  1.00  0.00     0.000 C 
BRANCH  11  12
ATOM     12  C   UNL     1       1.620 -11.782 -41.558  1.00  0.00     0.006 C 
BRANCH  12  13
ATOM     13  C   UNL     1       2.156 -10.704 -42.514  1.00  0.00     0.053 C 
BRANCH  13  14
ATOM     14  C   UNL     1       2.139 -11.162 -43.941  1.00  0.00     0.041 C 
ATOM     15  O   UNL     1       1.907 -12.369 -44.218  1.00  0.00    -0.550 OA
ATOM     16  O   UNL     1       2.364 -10.252 -44.967  1.00  0.00    -0.550 OA
ENDBRANCH  13  14
ENDBRANCH  12  13
ENDBRANCH  11  12
ENDBRANCH  10  11
ENDBRANCH   9  10
ENDBRANCH   8   9
ENDBRANCH   7   8
ENDBRANCH   6   7
ENDBRANCH   5   6
ENDBRANCH   4   5
ENDBRANCH   3   4
ENDBRANCH   2   3
ENDBRANCH   1   2
BRANCH   1  17
ATOM     17  C   UNL     1      -0.372 -10.197 -35.388  1.00  0.00     0.000 C 
BRANCH  17  18
ATOM     18  C   UNL     1      -1.499 -10.257 -34.343  1.00  0.00     0.000 C 
BRANCH  18  19
ATOM     19  C   UNL     1      -1.130 -11.127 -33.128  1.00  0.00     0.000 C 
BRANCH  19  20
ATOM     20  C   UNL     1      -0.005 -12.129 -33.437  1.00  0.00     0.000 C 
BRANCH  20  21
ATOM     21  C   UNL     1       0.108 -13.239 -32.377  1.00  0.00     0.000 C 
BRANCH  21  22
ATOM     22  C   UNL     1      -0.870 -14.396 -32.631  1.00  0.00    -0.000 C 
BRANCH  22  23
ATOM     23  C   UNL     1      -0.153 -15.732 -32.894  1.00  0.00    -0.000 C 
BRANCH  23  24
ATOM     24  C   UNL     1       1.288 -15.542 -33.402  1.00  0.00    -0.000 C 
BRANCH  24  25
ATOM     25  C   UNL     1       1.496 -15.875 -34.893  1.00  0.00    -0.000 C 
BRANCH  25  26
ATOM     26  C   UNL     1       1.005 -14.796 -35.880  1.00  0.00    -0.000 C 
BRANCH  26  27
ATOM     27  C   UNL     1      -0.391 -15.046 -36.480  1.00  0.00    -0.000 C 
BRANCH  27  28
ATOM     28  C   UNL     1      -1.324 -13.830 -36.347  1.00  0.00    -0.000 C 
BRANCH  28  29
ATOM     29  C   UNL     1      -2.779 -14.231 -36.058  1.00  0.00    -0.003 C 
ATOM     30  C   UNL     1      -3.499 -13.241 -35.142  1.00  0.00     0.004 C 
ENDBRANCH  28  29
ENDBRANCH  27  28
ENDBRANCH  26  27
ENDBRANCH  25  26
ENDBRANCH  24  25
ENDBRANCH  23  24
ENDBRANCH  22  23
ENDBRANCH  21  22
ENDBRANCH  20  21
ENDBRANCH  19  20
ENDBRANCH  18  19
ENDBRANCH  17  18
ENDBRANCH   1  17
TORSDOF 26
ENDMDL
MODEL 3
REMARK VINA RESULT:    -3.844      2.073      6.387
REMARK INTER + INTRA:         -13.534
REMARK INTER:                  -9.038
REMARK INTRA:                  -4.496
REMARK UNBOUND:                -3.846
REMARK SMILES CCCCCCCCCCCCCCCCCCCCCCCCCCCC(=O)[O-]
REMARK SMILES IDX 15 1 16 2 17 3 18 4 19 5 20 6 21 7 22 8 23 9 24 10 25 11
REMARK SMILES IDX 26 12 27 13 28 14 29 15 30 16 14 17 13 18 12 19 11 20 10 21
REMARK SMILES IDX 9 22 8 23 7 24 6 25 5 26 4 27 3 28 2 29 1 30
REMARK H PARENT
REMARK Flexibility Score: inf
ROOT
ATOM      1  C   UNL     1      -1.788 -11.574 -33.526  1.00  0.00     0.000 C 
ENDROOT
BRANCH   1   2
ATOM      2  C   UNL     1      -1.122 -11.756 -32.154  1.00  0.00     0.000 C 
BRANCH   2   3
ATOM      3  C   UNL     1      -0.240 -13.016 -32.087  1.00  0.00     0.000 C 
BRANCH   3   4
ATOM      4  C   UNL     1       0.843 -13.037 -33.178  1.00  0.00     0.000 C 
BRANCH   4   5
ATOM      5  C   UNL     1       1.406 -14.445 -33.423  1.00  0.00     0.000 C 
BRANCH   5   6
ATOM      6  C   UNL     1       1.316 -14.820 -34.907  1.00  0.00     0.000 C 
BRANCH   6   7
ATOM      7  C   UNL     1       0.253 -13.974 -35.626  1.00  0.00     0.000 C 
BRANCH   7   8
ATOM      8  C   UNL     1      -0.833 -14.832 -36.296  1.00  0.00     0.000 C 
BRANCH   8   9
ATOM      9  C   UNL     1      -2.213 -14.151 -36.287  1.00  0.00     0.000 C 
BRANCH   9  10
ATOM     10  C   UNL     1      -2.189 -12.754 -36.931  1.00  0.00     0.000 C 
BRANCH  10  11
ATOM     11  C   UNL     1      -2.535 -12.725 -38.432  1.00  0.00     0.000 C 
BRANCH  11  12
ATOM     12  C   UNL     1      -3.047 -14.076 -38.982  1.00  0.00     0.006 C 
BRANCH  12  13
ATOM     13  C   UNL     1      -2.131 -14.691 -40.052  1.00  0.00     0.053 C 
BRANCH  13  14
ATOM     14  C   UNL     1      -1.698 -16.079 -39.689  1.00  0.00     0.041 C 
ATOM     15  O   UNL     1      -2.445 -16.815 -38.990  1.00  0.00    -0.550 OA
ATOM     16  O   UNL     1      -0.476 -16.567 -40.136  1.00  0.00    -0.550 OA
ENDBRANCH  13  14
ENDBRANCH  12  13
ENDBRANCH  11  12
ENDBRANCH  10  11
ENDBRANCH   9  10
ENDBRANCH   8   9
ENDBRANCH   7   8
ENDBRANCH   6   7
ENDBRANCH   5   6
ENDBRANCH   4   5
ENDBRANCH   3   4
ENDBRANCH   2   3
ENDBRANCH   1   2
BRANCH   1  17
ATOM     17  C   UNL     1      -1.471 -10.208 -34.158  1.00  0.00     0.000 C 
BRANCH  17  18
ATOM     18  C   UNL     1      -0.407 -10.299 -35.265  1.00  0.00     0.000 C 
BRANCH  18  19
ATOM     19  C   UNL     1      -0.403  -9.063 -36.181  1.00  0.00     0.000 C 
BRANCH  19  20
ATOM     20  C   UNL     1      -1.303  -9.237 -37.416  1.00  0.00     0.000 C 
BRANCH  20  21
ATOM     21  C   UNL     1      -0.498  -9.413 -38.715  1.00  0.00     0.000 C 
BRANCH  21  22
ATOM     22  C   UNL     1      -0.848  -8.353 -39.771  1.00  0.00    -0.000 C 
BRANCH  22  23
ATOM     23  C   UNL     1      -2.291  -8.486 -40.290  1.00  0.00    -0.000 C 
BRANCH  23  24
ATOM     24  C   UNL     1      -2.353  -8.896 -41.772  1.00  0.00    -0.000 C 
BRANCH  24  25
ATOM     25  C   UNL     1      -2.891 -10.319 -42.026  1.00  0.00    -0.000 C 
BRANCH  25  26
ATOM     26  C   UNL     1      -1.867 -11.453 -41.816  1.00  0.00    -0.000 C 
BRANCH  26  27
ATOM     27  C   UNL     1      -0.504 -11.239 -42.500  1.00  0.00    -0.000 C 
BRANCH  27  28
ATOM     28  C   UNL     1       0.679 -11.365 -41.525  1.00  0.00    -0.000 C 
BRANCH  28  29
ATOM     29  C   UNL     1       1.695 -10.223 -41.680  1.00  0.00    -0.003 C 
ATOM     30  C   UNL     1       1.366  -9.287 -42.843  1.00  0.00     0.004 C 
ENDBRANCH  28  29
ENDBRANCH  27  28
ENDBRANCH  26  27
ENDBRANCH  25  26
ENDBRANCH  24  25
ENDBRANCH  23  24
ENDBRANCH  22  23
ENDBRANCH  21  22
ENDBRANCH  20  21
ENDBRANCH  19  20
ENDBRANCH  18  19
ENDBRANCH  17  18
ENDBRANCH   1  17
TORSDOF 26
ENDMDL
MODEL 4
REMARK VINA RESULT:    -3.840      3.141      7.219
REMARK INTER + INTRA:         -13.524
REMARK INTER:                  -9.087
REMARK INTRA:                  -4.436
REMARK UNBOUND:                -3.846
REMARK SMILES CCCCCCCCCCCCCCCCCCCCCCCCCCCC(=O)[O-]
REMARK SMILES IDX 15 1 16 2 17 3 18 4 19 5 20 6 21 7 22 8 23 9 24 10 25 11
REMARK SMILES IDX 26 12 27 13 28 14 29 15 30 16 14 17 13 18 12 19 11 20 10 21
REMARK SMILES IDX 9 22 8 23 7 24 6 25 5 26 4 27 3 28 2 29 1 30
REMARK H PARENT
REMARK Flexibility Score: inf
ROOT
ATOM      1  C   UNL     1      -0.588 -10.623 -39.788  1.00  0.00     0.000 C 
ENDROOT
BRANCH   1   2
ATOM      2  C   UNL     1       0.186  -9.900 -40.901  1.00  0.00     0.000 C 
BRANCH   2   3
ATOM      3  C   UNL     1      -0.062 -10.515 -42.290  1.00  0.00     0.000 C 
BRANCH   3   4
ATOM      4  C   UNL     1      -1.406 -11.256 -42.375  1.00  0.00     0.000 C 
BRANCH   4   5
ATOM      5  C   UNL     1      -2.575 -10.322 -42.722  1.00  0.00     0.000 C 
BRANCH   5   6
ATOM      6  C   UNL     1      -3.920 -10.982 -42.394  1.00  0.00     0.000 C 
BRANCH   6   7
ATOM      7  C   UNL     1      -3.752 -12.076 -41.328  1.00  0.00     0.000 C 
BRANCH   7   8
ATOM      8  C   UNL     1      -5.070 -12.411 -40.609  1.00  0.00     0.000 C 
BRANCH   8   9
ATOM      9  C   UNL     1      -4.852 -12.848 -39.150  1.00  0.00     0.000 C 
BRANCH   9  10
ATOM     10  C   UNL     1      -3.363 -13.008 -38.794  1.00  0.00     0.000 C 
BRANCH  10  11
ATOM     11  C   UNL     1      -2.995 -12.615 -37.351  1.00  0.00     0.000 C 
BRANCH  11  12
ATOM     12  C   UNL     1      -2.289 -13.738 -36.557  1.00  0.00     0.006 C 
BRANCH  12  13
ATOM     13  C   UNL     1      -2.698 -13.795 -35.077  1.00  0.00     0.053 C 
BRANCH  13  14
ATOM     14  C   UNL     1      -4.186 -13.738 -34.904  1.00  0.00     0.041 C 
ATOM     15  O   UNL     1      -4.712 -12.820 -34.219  1.00  0.00    -0.550 OA
ATOM     16  O   UNL     1      -4.994 -14.690 -35.513  1.00  0.00    -0.550 OA
ENDBRANCH  13  14
ENDBRANCH  12  13
ENDBRANCH  11  12
ENDBRANCH  10  11
ENDBRANCH   9  10
ENDBRANCH   8   9
ENDBRANCH   7   8
ENDBRANCH   6   7
ENDBRANCH   5   6
ENDBRANCH   4   5
ENDBRANCH   3   4
ENDBRANCH   2   3
ENDBRANCH   1   2
BRANCH   1  17
ATOM     17  C   UNL     1      -1.613  -9.710 -39.094  1.00  0.00     0.000 C 
BRANCH  17  18
ATOM     18  C   UNL     1      -1.562  -8.262 -39.610  1.00  0.00     0.000 C 
BRANCH  18  19
ATOM     19  C   UNL     1      -1.092  -7.269 -38.533  1.00  0.00     0.000 C 
BRANCH  19  20
ATOM     20  C   UNL     1      -0.316  -7.953 -37.395  1.00  0.00     0.000 C 
BRANCH  20  21
ATOM     21  C   UNL     1      -0.854  -7.577 -36.003  1.00  0.00     0.000 C 
BRANCH  21  22
ATOM     22  C   UNL     1      -1.437  -8.785 -35.253  1.00  0.00    -0.000 C 
BRANCH  22  23
ATOM     23  C   UNL     1      -0.798 -10.117 -35.685  1.00  0.00    -0.000 C 
BRANCH  23  24
ATOM     24  C   UNL     1      -0.270 -10.936 -34.495  1.00  0.00    -0.000 C 
BRANCH  24  25
ATOM     25  C   UNL     1      -1.241 -11.043 -33.302  1.00  0.00    -0.000 C 
BRANCH  25  26
ATOM     26  C   UNL     1      -0.752 -11.925 -32.135  1.00  0.00    -0.000 C 
BRANCH  26  27
ATOM     27  C   UNL     1       0.378 -12.910 -32.490  1.00  0.00    -0.000 C 
BRANCH  27  28
ATOM     28  C   UNL     1      -0.124 -14.352 -32.676  1.00  0.00    -0.000 C 
BRANCH  28  29
ATOM     29  C   UNL     1       0.603 -15.088 -33.811  1.00  0.00    -0.003 C 
ATOM     30  C   UNL     1       1.447 -14.155 -34.681  1.00  0.00     0.004 C 
ENDBRANCH  28  29
ENDBRANCH  27  28
ENDBRANCH  26  27
ENDBRANCH  25  26
ENDBRANCH  24  25
ENDBRANCH  23  24
ENDBRANCH  22  23
ENDBRANCH  21  22
ENDBRANCH  20  21
ENDBRANCH  19  20
ENDBRANCH  18  19
ENDBRANCH  17  18
ENDBRANCH   1  17
TORSDOF 26
ENDMDL
MODEL 5
REMARK VINA RESULT:    -3.831      4.549     10.002
REMARK INTER + INTRA:         -13.501
REMARK INTER:                 -10.459
REMARK INTRA:                  -3.042
REMARK UNBOUND:                -3.846
REMARK SMILES CCCCCCCCCCCCCCCCCCCCCCCCCCCC(=O)[O-]
REMARK SMILES IDX 15 1 16 2 17 3 18 4 19 5 20 6 21 7 22 8 23 9 24 10 25 11
REMARK SMILES IDX 26 12 27 13 28 14 29 15 30 16 14 17 13 18 12 19 11 20 10 21
REMARK SMILES IDX 9 22 8 23 7 24 6 25 5 26 4 27 3 28 2 29 1 30
REMARK H PARENT
REMARK Flexibility Score: inf
ROOT
ATOM      1  C   UNL     1      -4.119  -7.325 -44.859  1.00  0.00     0.000 C 
ENDROOT
BRANCH   1   2
ATOM      2  C   UNL     1      -3.398  -8.357 -43.980  1.00  0.00     0.000 C 
BRANCH   2   3
ATOM      3  C   UNL     1      -3.586  -8.088 -42.476  1.00  0.00     0.000 C 
BRANCH   3   4
ATOM      4  C   UNL     1      -2.326  -8.412 -41.658  1.00  0.00     0.000 C 
BRANCH   4   5
ATOM      5  C   UNL     1      -2.577  -8.362 -40.143  1.00  0.00     0.000 C 
BRANCH   5   6
ATOM      6  C   UNL     1      -1.255  -8.260 -39.372  1.00  0.00     0.000 C 
BRANCH   6   7
ATOM      7  C   UNL     1      -1.284  -7.089 -38.378  1.00  0.00     0.000 C 
BRANCH   7   8
ATOM      8  C   UNL     1      -0.384  -7.327 -37.154  1.00  0.00     0.000 C 
BRANCH   8   9
ATOM      9  C   UNL     1      -1.137  -7.992 -35.988  1.00  0.00     0.000 C 
BRANCH   9  10
ATOM     10  C   UNL     1      -0.517  -9.338 -35.573  1.00  0.00     0.000 C 
BRANCH  10  11
ATOM     11  C   UNL     1      -1.267 -10.583 -36.083  1.00  0.00     0.000 C 
BRANCH  11  12
ATOM     12  C   UNL     1      -1.309 -11.748 -35.068  1.00  0.00     0.006 C 
BRANCH  12  13
ATOM     13  C   UNL     1      -0.589 -11.438 -33.746  1.00  0.00     0.053 C 
BRANCH  13  14
ATOM     14  C   UNL     1      -0.329 -12.678 -32.945  1.00  0.00     0.041 C 
ATOM     15  O   UNL     1       0.851 -13.073 -32.751  1.00  0.00    -0.550 OA
ATOM     16  O   UNL     1      -1.392 -13.389 -32.399  1.00  0.00    -0.550 OA
ENDBRANCH  13  14
ENDBRANCH  12  13
ENDBRANCH  11  12
ENDBRANCH  10  11
ENDBRANCH   9  10
ENDBRANCH   8   9
ENDBRANCH   7   8
ENDBRANCH   6   7
ENDBRANCH   5   6
ENDBRANCH   4   5
ENDBRANCH   3   4
ENDBRANCH   2   3
ENDBRANCH   1   2
BRANCH   1  17
ATOM     17  C   UNL     1      -3.359  -7.028 -46.163  1.00  0.00     0.000 C 
BRANCH  17  18
ATOM     18  C   UNL     1      -3.685  -8.033 -47.281  1.00  0.00     0.000 C 
BRANCH  18  19
ATOM     19  C   UNL     1      -4.858  -7.571 -48.165  1.00  0.00     0.000 C 
BRANCH  19  20
ATOM     20  C   UNL     1      -6.203  -8.175 -47.728  1.00  0.00     0.000 C 
BRANCH  20  21
ATOM     21  C   UNL     1      -6.325  -9.667 -48.082  1.00  0.00     0.000 C 
BRANCH  21  22
ATOM     22  C   UNL     1      -7.016 -10.480 -46.976  1.00  0.00    -0.000 C 
BRANCH  22  23
ATOM     23  C   UNL     1      -6.778  -9.893 -45.573  1.00  0.00    -0.000 C 
BRANCH  23  24
ATOM     24  C   UNL     1      -5.938 -10.820 -44.678  1.00  0.00    -0.000 C 
BRANCH  24  25
ATOM     25  C   UNL     1      -6.246 -10.716 -43.171  1.00  0.00    -0.000 C 
BRANCH  25  26
ATOM     26  C   UNL     1      -5.638 -11.834 -42.299  1.00  0.00    -0.000 C 
BRANCH  26  27
ATOM     27  C   UNL     1      -4.269 -11.505 -41.674  1.00  0.00    -0.000 C 
BRANCH  27  28
ATOM     28  C   UNL     1      -3.142 -12.412 -42.195  1.00  0.00    -0.000 C 
BRANCH  28  29
ATOM     29  C   UNL     1      -1.785 -12.100 -41.544  1.00  0.00    -0.003 C 
ATOM     30  C   UNL     1      -0.850 -11.316 -42.465  1.00  0.00     0.004 C 
ENDBRANCH  28  29
ENDBRANCH  27  28
ENDBRANCH  26  27
ENDBRANCH  25  26
ENDBRANCH  24  25
ENDBRANCH  23  24
ENDBRANCH  22  23
ENDBRANCH  21  22
ENDBRANCH  20  21
ENDBRANCH  19  20
ENDBRANCH  18  19
ENDBRANCH  17  18
ENDBRANCH   1  17
TORSDOF 26
ENDMDL
MODEL 6
REMARK VINA RESULT:    -3.798      1.587      5.739
REMARK INTER + INTRA:         -13.418
REMARK INTER:                  -9.049
REMARK INTRA:                  -4.369
REMARK UNBOUND:                -3.846
REMARK SMILES CCCCCCCCCCCCCCCCCCCCCCCCCCCC(=O)[O-]
REMARK SMILES IDX 15 1 16 2 17 3 18 4 19 5 20 6 21 7 22 8 23 9 24 10 25 11
REMARK SMILES IDX 26 12 27 13 28 14 29 15 30 16 14 17 13 18 12 19 11 20 10 21
REMARK SMILES IDX 9 22 8 23 7 24 6 25 5 26 4 27 3 28 2 29 1 30
REMARK H PARENT
REMARK Flexibility Score: inf
ROOT
ATOM      1  C   UNL     1      -2.156  -9.106 -42.076  1.00  0.00     0.000 C 
ENDROOT
BRANCH   1   2
ATOM      2  C   UNL     1      -3.378  -9.075 -43.007  1.00  0.00     0.000 C 
BRANCH   2   3
ATOM      3  C   UNL     1      -4.133 -10.416 -43.036  1.00  0.00     0.000 C 
BRANCH   3   4
ATOM      4  C   UNL     1      -5.137 -10.553 -41.879  1.00  0.00     0.000 C 
BRANCH   4   5
ATOM      5  C   UNL     1      -4.870 -11.791 -41.010  1.00  0.00     0.000 C 
BRANCH   5   6
ATOM      6  C   UNL     1      -4.665 -11.395 -39.542  1.00  0.00     0.000 C 
BRANCH   6   7
ATOM      7  C   UNL     1      -3.645 -12.319 -38.858  1.00  0.00     0.000 C 
BRANCH   7   8
ATOM      8  C   UNL     1      -2.535 -11.541 -38.131  1.00  0.00     0.000 C 
BRANCH   8   9
ATOM      9  C   UNL     1      -1.267 -11.381 -38.988  1.00  0.00     0.000 C 
BRANCH   9  10
ATOM     10  C   UNL     1      -1.238 -12.343 -40.189  1.00  0.00     0.000 C 
BRANCH  10  11
ATOM     11  C   UNL     1      -0.248 -11.957 -41.306  1.00  0.00     0.000 C 
BRANCH  11  12
ATOM     12  C   UNL     1       0.802 -10.907 -40.876  1.00  0.00     0.006 C 
BRANCH  12  13
ATOM     13  C   UNL     1       1.448 -10.165 -42.057  1.00  0.00     0.053 C 
BRANCH  13  14
ATOM     14  C   UNL     1       2.674 -10.868 -42.557  1.00  0.00     0.041 C 
ATOM     15  O   UNL     1       2.666 -11.439 -43.680  1.00  0.00    -0.550 OA
ATOM     16  O   UNL     1       3.832 -10.880 -41.788  1.00  0.00    -0.550 OA
ENDBRANCH  13  14
ENDBRANCH  12  13
ENDBRANCH  11  12
ENDBRANCH  10  11
ENDBRANCH   9  10
ENDBRANCH   8   9
ENDBRANCH   7   8
ENDBRANCH   6   7
ENDBRANCH   5   6
ENDBRANCH   4   5
ENDBRANCH   3   4
ENDBRANCH   2   3
ENDBRANCH   1   2
BRANCH   1  17
ATOM     17  C   UNL     1      -2.389  -8.322 -40.773  1.00  0.00     0.000 C 
BRANCH  17  18
ATOM     18  C   UNL     1      -1.113  -8.191 -39.924  1.00  0.00     0.000 C 
BRANCH  18  19
ATOM     19  C   UNL     1      -1.391  -7.600 -38.530  1.00  0.00     0.000 C 
BRANCH  19  20
ATOM     20  C   UNL     1      -0.374  -8.067 -37.476  1.00  0.00     0.000 C 
BRANCH  20  21
ATOM     21  C   UNL     1      -1.046  -8.604 -36.201  1.00  0.00     0.000 C 
BRANCH  21  22
ATOM     22  C   UNL     1      -0.341  -9.852 -35.646  1.00  0.00    -0.000 C 
BRANCH  22  23
ATOM     23  C   UNL     1      -1.284 -10.749 -34.824  1.00  0.00    -0.000 C 
BRANCH  23  24
ATOM     24  C   UNL     1      -0.752 -11.028 -33.407  1.00  0.00    -0.000 C 
BRANCH  24  25
ATOM     25  C   UNL     1      -0.216 -12.456 -33.188  1.00  0.00    -0.000 C 
BRANCH  25  26
ATOM     26  C   UNL     1       1.099 -12.783 -33.926  1.00  0.00    -0.000 C 
BRANCH  26  27
ATOM     27  C   UNL     1       1.128 -14.151 -34.634  1.00  0.00    -0.000 C 
BRANCH  27  28
ATOM     28  C   UNL     1      -0.257 -14.814 -34.710  1.00  0.00    -0.000 C 
BRANCH  28  29
ATOM     29  C   UNL     1      -1.033 -14.416 -35.975  1.00  0.00    -0.003 C 
ATOM     30  C   UNL     1      -2.534 -14.257 -35.728  1.00  0.00     0.004 C 
ENDBRANCH  28  29
ENDBRANCH  27  28
ENDBRANCH  26  27
ENDBRANCH  25  26
ENDBRANCH  24  25
ENDBRANCH  23  24
ENDBRANCH  22  23
ENDBRANCH  21  22
ENDBRANCH  20  21
ENDBRANCH  19  20
ENDBRANCH  18  19
ENDBRANCH  17  18
ENDBRANCH   1  17
TORSDOF 26
ENDMDL
MODEL 7
REMARK VINA RESULT:    -3.775      1.515      4.165
REMARK INTER + INTRA:         -13.361
REMARK INTER:                  -9.178
REMARK INTRA:                  -4.182
REMARK UNBOUND:                -3.846
REMARK SMILES CCCCCCCCCCCCCCCCCCCCCCCCCCCC(=O)[O-]
REMARK SMILES IDX 15 1 16 2 17 3 18 4 19 5 20 6 21 7 22 8 23 9 24 10 25 11
REMARK SMILES IDX 26 12 27 13 28 14 29 15 30 16 14 17 13 18 12 19 11 20 10 21
REMARK SMILES IDX 9 22 8 23 7 24 6 25 5 26 4 27 3 28 2 29 1 30
REMARK H PARENT
REMARK Flexibility Score: inf
ROOT
ATOM      1  C   UNL     1      -0.352  -9.260 -36.100  1.00  0.00     0.000 C 
ENDROOT
BRANCH   1   2
ATOM      2  C   UNL     1      -0.414  -7.740 -36.316  1.00  0.00     0.000 C 
BRANCH   2   3
ATOM      3  C   UNL     1      -0.522  -7.358 -37.803  1.00  0.00     0.000 C 
BRANCH   3   4
ATOM      4  C   UNL     1      -0.688  -8.583 -38.716  1.00  0.00     0.000 C 
BRANCH   4   5
ATOM      5  C   UNL     1      -1.864  -8.436 -39.693  1.00  0.00     0.000 C 
BRANCH   5   6
ATOM      6  C   UNL     1      -2.796  -9.652 -39.616  1.00  0.00     0.000 C 
BRANCH   6   7
ATOM      7  C   UNL     1      -2.180 -10.765 -38.755  1.00  0.00     0.000 C 
BRANCH   7   8
ATOM      8  C   UNL     1      -3.083 -12.005 -38.654  1.00  0.00     0.000 C 
BRANCH   8   9
ATOM      9  C   UNL     1      -3.445 -12.587 -40.032  1.00  0.00     0.000 C 
BRANCH   9  10
ATOM     10  C   UNL     1      -2.210 -12.815 -40.922  1.00  0.00     0.000 C 
BRANCH  10  11
ATOM     11  C   UNL     1      -2.262 -12.118 -42.296  1.00  0.00     0.000 C 
BRANCH  11  12
ATOM     12  C   UNL     1      -1.203 -11.008 -42.475  1.00  0.00     0.006 C 
BRANCH  12  13
ATOM     13  C   UNL     1       0.193 -11.402 -41.966  1.00  0.00     0.053 C 
BRANCH  13  14
ATOM     14  C   UNL     1       1.140 -10.240 -41.971  1.00  0.00     0.041 C 
ATOM     15  O   UNL     1       0.757  -9.110 -42.372  1.00  0.00    -0.550 OA
ATOM     16  O   UNL     1       2.444 -10.404 -41.517  1.00  0.00    -0.550 OA
ENDBRANCH  13  14
ENDBRANCH  12  13
ENDBRANCH  11  12
ENDBRANCH  10  11
ENDBRANCH   9  10
ENDBRANCH   8   9
ENDBRANCH   7   8
ENDBRANCH   6   7
ENDBRANCH   5   6
ENDBRANCH   4   5
ENDBRANCH   3   4
ENDBRANCH   2   3
ENDBRANCH   1   2
BRANCH   1  17
ATOM     17  C   UNL     1      -1.318  -9.738 -35.002  1.00  0.00     0.000 C 
BRANCH  17  18
ATOM     18  C   UNL     1      -0.830 -11.017 -34.300  1.00  0.00     0.000 C 
BRANCH  18  19
ATOM     19  C   UNL     1      -0.924 -10.920 -32.767  1.00  0.00     0.000 C 
BRANCH  19  20
ATOM     20  C   UNL     1      -1.463 -12.208 -32.124  1.00  0.00     0.000 C 
BRANCH  20  21
ATOM     21  C   UNL     1      -2.995 -12.202 -31.979  1.00  0.00     0.000 C 
BRANCH  21  22
ATOM     22  C   UNL     1      -3.594 -13.616 -32.012  1.00  0.00    -0.000 C 
BRANCH  22  23
ATOM     23  C   UNL     1      -4.412 -13.884 -33.289  1.00  0.00    -0.000 C 
BRANCH  23  24
ATOM     24  C   UNL     1      -3.835 -13.169 -34.523  1.00  0.00    -0.000 C 
BRANCH  24  25
ATOM     25  C   UNL     1      -3.020 -14.071 -35.470  1.00  0.00    -0.000 C 
BRANCH  25  26
ATOM     26  C   UNL     1      -1.611 -14.447 -34.966  1.00  0.00    -0.000 C 
BRANCH  26  27
ATOM     27  C   UNL     1      -0.495 -14.369 -36.025  1.00  0.00    -0.000 C 
BRANCH  27  28
ATOM     28  C   UNL     1       0.913 -14.494 -35.420  1.00  0.00    -0.000 C 
BRANCH  28  29
ATOM     29  C   UNL     1       0.912 -14.346 -33.890  1.00  0.00    -0.003 C 
ATOM     30  C   UNL     1       1.955 -13.347 -33.388  1.00  0.00     0.004 C 
ENDBRANCH  28  29
ENDBRANCH  27  28
ENDBRANCH  26  27
ENDBRANCH  25  26
ENDBRANCH  24  25
ENDBRANCH  23  24
ENDBRANCH  22  23
ENDBRANCH  21  22
ENDBRANCH  20  21
ENDBRANCH  19  20
ENDBRANCH  18  19
ENDBRANCH  17  18
ENDBRANCH   1  17
TORSDOF 26
ENDMDL
MODEL 8
REMARK VINA RESULT:    -3.772      4.868      8.706
REMARK INTER + INTRA:         -13.353
REMARK INTER:                  -8.317
REMARK INTRA:                  -5.036
REMARK UNBOUND:                -3.846
REMARK SMILES CCCCCCCCCCCCCCCCCCCCCCCCCCCC(=O)[O-]
REMARK SMILES IDX 15 1 16 2 17 3 18 4 19 5 20 6 21 7 22 8 23 9 24 10 25 11
REMARK SMILES IDX 26 12 27 13 28 14 29 15 30 16 14 17 13 18 12 19 11 20 10 21
REMARK SMILES IDX 9 22 8 23 7 24 6 25 5 26 4 27 3 28 2 29 1 30
REMARK H PARENT
REMARK Flexibility Score: inf
ROOT
ATOM      1  C   UNL     1      -3.778  -8.092 -43.732  1.00  0.00     0.000 C 
ENDROOT
BRANCH   1   2
ATOM      2  C   UNL     1      -4.297  -7.016 -44.697  1.00  0.00     0.000 C 
BRANCH   2   3
ATOM      3  C   UNL     1      -3.686  -7.138 -46.104  1.00  0.00     0.000 C 
BRANCH   3   4
ATOM      4  C   UNL     1      -4.120  -8.423 -46.826  1.00  0.00     0.000 C 
BRANCH   4   5
ATOM      5  C   UNL     1      -5.004  -8.142 -48.050  1.00  0.00     0.000 C 
BRANCH   5   6
ATOM      6  C   UNL     1      -6.458  -8.550 -47.780  1.00  0.00     0.000 C 
BRANCH   6   7
ATOM      7  C   UNL     1      -7.234  -7.411 -47.103  1.00  0.00     0.000 C 
BRANCH   7   8
ATOM      8  C   UNL     1      -7.815  -7.818 -45.738  1.00  0.00     0.000 C 
BRANCH   8   9
ATOM      9  C   UNL     1      -7.816  -9.343 -45.528  1.00  0.00     0.000 C 
BRANCH   9  10
ATOM     10  C   UNL     1      -7.032  -9.769 -44.274  1.00  0.00     0.000 C 
BRANCH  10  11
ATOM     11  C   UNL     1      -6.085 -10.967 -44.477  1.00  0.00     0.000 C 
BRANCH  11  12
ATOM     12  C   UNL     1      -5.388 -11.441 -43.182  1.00  0.00     0.006 C 
BRANCH  12  13
ATOM     13  C   UNL     1      -6.263 -12.361 -42.315  1.00  0.00     0.053 C 
BRANCH  13  14
ATOM     14  C   UNL     1      -6.838 -11.638 -41.134  1.00  0.00     0.041 C 
ATOM     15  O   UNL     1      -6.088 -10.973 -40.370  1.00  0.00    -0.550 OA
ATOM     16  O   UNL     1      -8.204 -11.686 -40.886  1.00  0.00    -0.550 OA
ENDBRANCH  13  14
ENDBRANCH  12  13
ENDBRANCH  11  12
ENDBRANCH  10  11
ENDBRANCH   9  10
ENDBRANCH   8   9
ENDBRANCH   7   8
ENDBRANCH   6   7
ENDBRANCH   5   6
ENDBRANCH   4   5
ENDBRANCH   3   4
ENDBRANCH   2   3
ENDBRANCH   1   2
BRANCH   1  17
ATOM     17  C   UNL     1      -4.394  -7.971 -42.327  1.00  0.00     0.000 C 
BRANCH  17  18
ATOM     18  C   UNL     1      -3.604  -8.754 -41.265  1.00  0.00     0.000 C 
BRANCH  18  19
ATOM     19  C   UNL     1      -2.335  -8.013 -40.810  1.00  0.00     0.000 C 
BRANCH  19  20
ATOM     20  C   UNL     1      -1.529  -8.804 -39.766  1.00  0.00     0.000 C 
BRANCH  20  21
ATOM     21  C   UNL     1      -2.375  -9.870 -39.048  1.00  0.00     0.000 C 
BRANCH  21  22
ATOM     22  C   UNL     1      -1.514 -10.969 -38.406  1.00  0.00    -0.000 C 
BRANCH  22  23
ATOM     23  C   UNL     1      -1.642 -12.321 -39.131  1.00  0.00    -0.000 C 
BRANCH  23  24
ATOM     24  C   UNL     1      -2.760 -12.325 -40.187  1.00  0.00    -0.000 C 
BRANCH  24  25
ATOM     25  C   UNL     1      -2.302 -12.696 -41.612  1.00  0.00    -0.000 C 
BRANCH  25  26
ATOM     26  C   UNL     1      -1.825 -11.512 -42.476  1.00  0.00    -0.000 C 
BRANCH  26  27
ATOM     27  C   UNL     1      -0.308 -11.247 -42.443  1.00  0.00    -0.000 C 
BRANCH  27  28
ATOM     28  C   UNL     1       0.051  -9.789 -42.773  1.00  0.00    -0.000 C 
BRANCH  28  29
ATOM     29  C   UNL     1       1.526  -9.465 -42.487  1.00  0.00    -0.003 C 
ATOM     30  C   UNL     1       2.239 -10.572 -41.711  1.00  0.00     0.004 C 
ENDBRANCH  28  29
ENDBRANCH  27  28
ENDBRANCH  26  27
ENDBRANCH  25  26
ENDBRANCH  24  25
ENDBRANCH  23  24
ENDBRANCH  22  23
ENDBRANCH  21  22
ENDBRANCH  20  21
ENDBRANCH  19  20
ENDBRANCH  18  19
ENDBRANCH  17  18
ENDBRANCH   1  17
TORSDOF 26
ENDMDL
MODEL 9
REMARK VINA RESULT:    -3.716      3.140      5.973
REMARK INTER + INTRA:         -13.212
REMARK INTER:                  -9.189
REMARK INTRA:                  -4.023
REMARK UNBOUND:                -3.846
REMARK SMILES CCCCCCCCCCCCCCCCCCCCCCCCCCCC(=O)[O-]
REMARK SMILES IDX 15 1 16 2 17 3 18 4 19 5 20 6 21 7 22 8 23 9 24 10 25 11
REMARK SMILES IDX 26 12 27 13 28 14 29 15 30 16 14 17 13 18 12 19 11 20 10 21
REMARK SMILES IDX 9 22 8 23 7 24 6 25 5 26 4 27 3 28 2 29 1 30
REMARK H PARENT
REMARK Flexibility Score: inf
ROOT
ATOM      1  C   UNL     1      -2.756 -12.814 -35.433  1.00  0.00     0.000 C 
ENDROOT
BRANCH   1   2
ATOM      2  C   UNL     1      -1.358 -12.514 -34.870  1.00  0.00     0.000 C 
BRANCH   2   3
ATOM      3  C   UNL     1      -1.201 -11.049 -34.425  1.00  0.00     0.000 C 
BRANCH   3   4
ATOM      4  C   UNL     1      -0.139 -10.296 -35.241  1.00  0.00     0.000 C 
BRANCH   4   5
ATOM      5  C   UNL     1      -0.744  -9.189 -36.118  1.00  0.00     0.000 C 
BRANCH   5   6
ATOM      6  C   UNL     1      -1.112  -9.730 -37.505  1.00  0.00     0.000 C 
BRANCH   6   7
ATOM      7  C   UNL     1      -0.550  -8.828 -38.616  1.00  0.00     0.000 C 
BRANCH   7   8
ATOM      8  C   UNL     1      -1.649  -8.063 -39.371  1.00  0.00     0.000 C 
BRANCH   8   9
ATOM      9  C   UNL     1      -2.575  -8.996 -40.171  1.00  0.00     0.000 C 
BRANCH   9  10
ATOM     10  C   UNL     1      -2.937  -8.429 -41.555  1.00  0.00     0.000 C 
BRANCH  10  11
ATOM     11  C   UNL     1      -1.925  -8.746 -42.672  1.00  0.00     0.000 C 
BRANCH  11  12
ATOM     12  C   UNL     1      -0.968  -9.913 -42.337  1.00  0.00     0.006 C 
BRANCH  12  13
ATOM     13  C   UNL     1       0.492  -9.473 -42.142  1.00  0.00     0.053 C 
BRANCH  13  14
ATOM     14  C   UNL     1       1.347 -10.587 -41.616  1.00  0.00     0.041 C 
ATOM     15  O   UNL     1       0.864 -11.438 -40.822  1.00  0.00    -0.550 OA
ATOM     16  O   UNL     1       2.674 -10.693 -42.015  1.00  0.00    -0.550 OA
ENDBRANCH  13  14
ENDBRANCH  12  13
ENDBRANCH  11  12
ENDBRANCH  10  11
ENDBRANCH   9  10
ENDBRANCH   8   9
ENDBRANCH   7   8
ENDBRANCH   6   7
ENDBRANCH   5   6
ENDBRANCH   4   5
ENDBRANCH   3   4
ENDBRANCH   2   3
ENDBRANCH   1   2
BRANCH   1  17
ATOM     17  C   UNL     1      -2.701 -13.560 -36.777  1.00  0.00     0.000 C 
BRANCH  17  18
ATOM     18  C   UNL     1      -1.319 -13.477 -37.446  1.00  0.00     0.000 C 
BRANCH  18  19
ATOM     19  C   UNL     1      -1.410 -13.420 -38.981  1.00  0.00     0.000 C 
BRANCH  19  20
ATOM     20  C   UNL     1      -2.664 -12.680 -39.474  1.00  0.00     0.000 C 
BRANCH  20  21
ATOM     21  C   UNL     1      -2.684 -12.499 -41.002  1.00  0.00     0.000 C 
BRANCH  21  22
ATOM     22  C   UNL     1      -4.111 -12.434 -41.567  1.00  0.00    -0.000 C 
BRANCH  22  23
ATOM     23  C   UNL     1      -4.202 -11.591 -42.852  1.00  0.00    -0.000 C 
BRANCH  23  24
ATOM     24  C   UNL     1      -5.655 -11.300 -43.269  1.00  0.00    -0.000 C 
BRANCH  24  25
ATOM     25  C   UNL     1      -6.040  -9.807 -43.267  1.00  0.00    -0.000 C 
BRANCH  25  26
ATOM     26  C   UNL     1      -5.495  -8.989 -44.455  1.00  0.00    -0.000 C 
BRANCH  26  27
ATOM     27  C   UNL     1      -5.522  -9.712 -45.815  1.00  0.00    -0.000 C 
BRANCH  27  28
ATOM     28  C   UNL     1      -6.458  -9.037 -46.831  1.00  0.00    -0.000 C 
BRANCH  28  29
ATOM     29  C   UNL     1      -7.855  -9.676 -46.860  1.00  0.00    -0.003 C 
ATOM     30  C   UNL     1      -7.828 -11.181 -46.593  1.00  0.00     0.004 C 
ENDBRANCH  28  29
ENDBRANCH  27  28
ENDBRANCH  26  27
ENDBRANCH  25  26
ENDBRANCH  24  25
ENDBRANCH  23  24
ENDBRANCH  22  23
ENDBRANCH  21  22
ENDBRANCH  20  21
ENDBRANCH  19  20
ENDBRANCH  18  19
ENDBRANCH  17  18
ENDBRANCH   1  17
TORSDOF 26
ENDMDL
