MODEL 1
REMARK VINA RESULT:    -2.433      0.000      0.000
REMARK INTER + INTRA:          -3.448
REMARK INTER:                  -3.287
REMARK INTRA:                  -0.161
REMARK UNBOUND:                -0.161
REMARK SMILES CCCCCCCC=O
REMARK SMILES IDX 5 1 4 2 3 3 2 4 1 5 6 6 7 7 8 8 9 9
REMARK H PARENT
REMARK Flexibility Score: inf
ROOT
ATOM      1  C   UNL     1     105.381 106.089 108.486  1.00  0.00     0.000 C 
ENDROOT
BRANCH   1   2
ATOM      2  C   UNL     1     106.423 106.202 107.360  1.00  0.00     0.000 C 
BRANCH   2   3
ATOM      3  C   UNL     1     107.663 107.009 107.781  1.00  0.00    -0.000 C 
BRANCH   3   4
ATOM      4  C   UNL     1     108.488 107.489 106.576  1.00  0.00    -0.003 C 
ATOM      5  C   UNL     1     107.993 106.914 105.250  1.00  0.00     0.004 C 
ENDBRANCH   3   4
ENDBRANCH   2   3
ENDBRANCH   1   2
BRANCH   1   6
ATOM      6  C   UNL     1     103.935 106.163 107.965  1.00  0.00     0.008 C 
BRANCH   6   7
ATOM      7  C   UNL     1     102.913 106.213 109.109  1.00  0.00     0.072 C 
BRANCH   7   8
ATOM      8  C   UNL     1     101.736 105.317 108.855  1.00  0.00     0.224 C 
ATOM      9  O   UNL     1     101.869 104.287 108.212  1.00  0.00    -0.303 OA
ENDBRANCH   7   8
ENDBRANCH   6   7
ENDBRANCH   1   6
TORSDOF 6
ENDMDL
MODEL 2
REMARK VINA RESULT:    -2.428      2.510      5.133
REMARK INTER + INTRA:          -3.440
REMARK INTER:                  -2.964
REMARK INTRA:                  -0.476
REMARK UNBOUND:                -0.161
REMARK SMILES CCCCCCCC=O
REMARK SMILES IDX 5 1 4 2 3 3 2 4 1 5 6 6 7 7 8 8 9 9
REMARK H PARENT
REMARK Flexibility Score: inf
ROOT
ATOM      1  C   UNL     1     103.987 106.203 107.967  1.00  0.00     0.000 C 
ENDROOT
BRANCH   1   2
ATOM      2  C   UNL     1     102.934 106.108 109.084  1.00  0.00     0.000 C 
BRANCH   2   3
ATOM      3  C   UNL     1     101.699 105.292 108.663  1.00  0.00    -0.000 C 
BRANCH   3   4
ATOM      4  C   UNL     1     101.652 103.909 109.332  1.00  0.00    -0.003 C 
ATOM      5  C   UNL     1     101.434 102.772 108.334  1.00  0.00     0.004 C 
ENDBRANCH   3   4
ENDBRANCH   2   3
ENDBRANCH   1   2
BRANCH   1   6
ATOM      6  C   UNL     1     105.391 105.787 108.440  1.00  0.00     0.008 C 
BRANCH   6   7
ATOM      7  C   UNL     1     105.333 104.746 109.567  1.00  0.00     0.072 C 
BRANCH   7   8
ATOM      8  C   UNL     1     105.773 103.387 109.105  1.00  0.00     0.224 C 
ATOM      9  O   UNL     1     104.948 102.544 108.786  1.00  0.00    -0.303 OA
ENDBRANCH   7   8
ENDBRANCH   6   7
ENDBRANCH   1   6
TORSDOF 6
ENDMDL
MODEL 3
REMARK VINA RESULT:    -2.426      2.406      3.479
REMARK INTER + INTRA:          -3.437
REMARK INTER:                  -2.948
REMARK INTRA:                  -0.489
REMARK UNBOUND:                -0.161
REMARK SMILES CCCCCCCC=O
REMARK SMILES IDX 5 1 4 2 3 3 2 4 1 5 6 6 7 7 8 8 9 9
REMARK H PARENT
REMARK Flexibility Score: inf
ROOT
ATOM      1  C   UNL     1     102.947 106.072 109.097  1.00  0.00     0.000 C 
ENDROOT
BRANCH   1   2
ATOM      2  C   UNL     1     104.041 106.191 108.022  1.00  0.00     0.000 C 
BRANCH   2   3
ATOM      3  C   UNL     1     105.400 105.654 108.502  1.00  0.00    -0.000 C 
BRANCH   3   4
ATOM      4  C   UNL     1     105.257 104.592 109.604  1.00  0.00    -0.003 C 
ATOM      5  C   UNL     1     105.462 103.168 109.088  1.00  0.00     0.004 C 
ENDBRANCH   3   4
ENDBRANCH   2   3
ENDBRANCH   1   2
BRANCH   1   6
ATOM      6  C   UNL     1     101.694 105.337 108.588  1.00  0.00     0.008 C 
BRANCH   6   7
ATOM      7  C   UNL     1     101.609 103.902 109.128  1.00  0.00     0.072 C 
BRANCH   7   8
ATOM      8  C   UNL     1     101.858 102.879 108.059  1.00  0.00     0.224 C 
ATOM      9  O   UNL     1     101.081 101.951 107.898  1.00  0.00    -0.303 OA
ENDBRANCH   7   8
ENDBRANCH   6   7
ENDBRANCH   1   6
TORSDOF 6
ENDMDL
MODEL 4
REMARK VINA RESULT:    -2.407      4.645      6.186
REMARK INTER + INTRA:          -3.412
REMARK INTER:                  -2.980
REMARK INTRA:                  -0.432
REMARK UNBOUND:                -0.161
REMARK SMILES CCCCCCCC=O
REMARK SMILES IDX 5 1 4 2 3 3 2 4 1 5 6 6 7 7 8 8 9 9
REMARK H PARENT
REMARK Flexibility Score: inf
ROOT
ATOM      1  C   UNL     1     107.565 108.319 104.040  1.00  0.00     0.000 C 
ENDROOT
BRANCH   1   2
ATOM      2  C   UNL     1     108.310 107.380 105.004  1.00  0.00     0.000 C 
BRANCH   2   3
ATOM      3  C   UNL     1     107.393 106.813 106.101  1.00  0.00    -0.000 C 
BRANCH   3   4
ATOM      4  C   UNL     1     107.732 107.367 107.495  1.00  0.00    -0.003 C 
ATOM      5  C   UNL     1     109.214 107.704 107.656  1.00  0.00     0.004 C 
ENDBRANCH   3   4
ENDBRANCH   2   3
ENDBRANCH   1   2
BRANCH   1   6
ATOM      6  C   UNL     1     108.268 109.678 103.875  1.00  0.00     0.008 C 
BRANCH   6   7
ATOM      7  C   UNL     1     108.225 110.508 105.166  1.00  0.00     0.072 C 
BRANCH   7   8
ATOM      8  C   UNL     1     107.292 111.679 105.054  1.00  0.00     0.224 C 
ATOM      9  O   UNL     1     106.593 111.821 104.063  1.00  0.00    -0.303 OA
ENDBRANCH   7   8
ENDBRANCH   6   7
ENDBRANCH   1   6
TORSDOF 6
ENDMDL
MODEL 5
REMARK VINA RESULT:    -2.387      3.810      5.856
REMARK INTER + INTRA:          -3.385
REMARK INTER:                  -3.037
REMARK INTRA:                  -0.348
REMARK UNBOUND:                -0.161
REMARK SMILES CCCCCCCC=O
REMARK SMILES IDX 5 1 4 2 3 3 2 4 1 5 6 6 7 7 8 8 9 9
REMARK H PARENT
REMARK Flexibility Score: inf
ROOT
ATOM      1  C   UNL     1     110.084 108.123 106.294  1.00  0.00     0.000 C 
ENDROOT
BRANCH   1   2
ATOM      2  C   UNL     1     111.584 108.394 106.089  1.00  0.00     0.000 C 
BRANCH   2   3
ATOM      3  C   UNL     1     112.135 107.731 104.814  1.00  0.00    -0.000 C 
BRANCH   3   4
ATOM      4  C   UNL     1     112.817 108.740 103.875  1.00  0.00    -0.003 C 
ATOM      5  C   UNL     1     112.441 110.189 104.185  1.00  0.00     0.004 C 
ENDBRANCH   3   4
ENDBRANCH   2   3
ENDBRANCH   1   2
BRANCH   1   6
ATOM      6  C   UNL     1     109.337 107.894 104.968  1.00  0.00     0.008 C 
BRANCH   6   7
ATOM      7  C   UNL     1     108.147 106.938 105.136  1.00  0.00     0.072 C 
BRANCH   7   8
ATOM      8  C   UNL     1     107.537 107.030 106.504  1.00  0.00     0.224 C 
ATOM      9  O   UNL     1     106.710 106.208 106.869  1.00  0.00    -0.303 OA
ENDBRANCH   7   8
ENDBRANCH   6   7
ENDBRANCH   1   6
TORSDOF 6
ENDMDL
MODEL 6
REMARK VINA RESULT:    -2.385     10.171     12.007
REMARK INTER + INTRA:          -3.382
REMARK INTER:                  -2.973
REMARK INTRA:                  -0.409
REMARK UNBOUND:                -0.161
REMARK SMILES CCCCCCCC=O
REMARK SMILES IDX 5 1 4 2 3 3 2 4 1 5 6 6 7 7 8 8 9 9
REMARK H PARENT
REMARK Flexibility Score: inf
ROOT
ATOM      1  C   UNL     1     114.617 101.721 108.723  1.00  0.00     0.000 C 
ENDROOT
BRANCH   1   2
ATOM      2  C   UNL     1     113.816 102.998 109.032  1.00  0.00     0.000 C 
BRANCH   2   3
ATOM      3  C   UNL     1     113.801 103.985 107.852  1.00  0.00    -0.000 C 
BRANCH   3   4
ATOM      4  C   UNL     1     114.158 105.418 108.281  1.00  0.00    -0.003 C 
ATOM      5  C   UNL     1     115.480 105.499 109.043  1.00  0.00     0.004 C 
ENDBRANCH   3   4
ENDBRANCH   2   3
ENDBRANCH   1   2
BRANCH   1   6
ATOM      6  C   UNL     1     116.064 101.790 109.242  1.00  0.00     0.008 C 
BRANCH   6   7
ATOM      7  C   UNL     1     117.081 101.909 108.098  1.00  0.00     0.072 C 
BRANCH   7   8
ATOM      8  C   UNL     1     118.247 100.981 108.279  1.00  0.00     0.224 C 
ATOM      9  O   UNL     1     118.274 100.197 109.215  1.00  0.00    -0.303 OA
ENDBRANCH   7   8
ENDBRANCH   6   7
ENDBRANCH   1   6
TORSDOF 6
ENDMDL
MODEL 7
REMARK VINA RESULT:    -2.348      5.007      6.780
REMARK INTER + INTRA:          -3.333
REMARK INTER:                  -2.925
REMARK INTRA:                  -0.408
REMARK UNBOUND:                -0.161
REMARK SMILES CCCCCCCC=O
REMARK SMILES IDX 5 1 4 2 3 3 2 4 1 5 6 6 7 7 8 8 9 9
REMARK H PARENT
REMARK Flexibility Score: inf
ROOT
ATOM      1  C   UNL     1     110.356 109.801 104.199  1.00  0.00     0.000 C 
ENDROOT
BRANCH   1   2
ATOM      2  C   UNL     1     110.157 108.429 104.866  1.00  0.00     0.000 C 
BRANCH   2   3
ATOM      3  C   UNL     1     109.678 107.355 103.875  1.00  0.00    -0.000 C 
BRANCH   3   4
ATOM      4  C   UNL     1     108.209 106.961 104.100  1.00  0.00    -0.003 C 
ATOM      5  C   UNL     1     107.814 106.957 105.577  1.00  0.00     0.004 C 
ENDBRANCH   3   4
ENDBRANCH   2   3
ENDBRANCH   1   2
BRANCH   1   6
ATOM      6  C   UNL     1     109.064 110.637 104.170  1.00  0.00     0.008 C 
BRANCH   6   7
ATOM      7  C   UNL     1     108.501 110.877 105.577  1.00  0.00     0.072 C 
BRANCH   7   8
ATOM      8  C   UNL     1     107.584 112.064 105.625  1.00  0.00     0.224 C 
ATOM      9  O   UNL     1     106.442 111.982 105.199  1.00  0.00    -0.303 OA
ENDBRANCH   7   8
ENDBRANCH   6   7
ENDBRANCH   1   6
TORSDOF 6
ENDMDL
