MODEL 1
REMARK VINA RESULT:    -5.224      0.000      0.000
REMARK INTER + INTRA:          -5.647
REMARK INTER:                  -5.835
REMARK INTRA:                   0.188
REMARK UNBOUND:                 0.188
REMARK SMILES O=C([O-])c1ccccc1C(=O)[O-]
REMARK SMILES IDX 4 1 9 2 5 3 8 4 6 5 7 6 2 7 1 8 3 9 10 10 11 11 12 12
REMARK H PARENT
REMARK Flexibility Score: inf
ROOT
ATOM      1  C   UNL     1      13.742 -10.745   9.988  1.00  0.00     0.006 A 
ATOM      2  C   UNL     1      14.535 -11.285   8.938  1.00  0.00     0.006 A 
ATOM      3  C   UNL     1      13.729  -9.351  10.189  1.00  0.00     0.010 A 
ATOM      4  C   UNL     1      15.234 -10.409   8.089  1.00  0.00     0.010 A 
ATOM      5  C   UNL     1      14.449  -8.502   9.347  1.00  0.00     0.001 A 
ATOM      6  C   UNL     1      15.190  -9.029   8.292  1.00  0.00     0.001 A 
ENDROOT
BRANCH   1   7
ATOM      7  C   UNL     1      12.865 -11.580  10.841  1.00  0.00     0.072 C 
ATOM      8  O   UNL     1      11.659 -11.761  10.525  1.00  0.00    -0.545 OA
ATOM      9  O   UNL     1      13.374 -12.227  11.962  1.00  0.00    -0.545 OA
ENDBRANCH   1   7
BRANCH   2  10
ATOM     10  C   UNL     1      14.720 -12.741   8.737  1.00  0.00     0.072 C 
ATOM     11  O   UNL     1      14.956 -13.503   9.710  1.00  0.00    -0.545 OA
ATOM     12  O   UNL     1      14.698 -13.275   7.453  1.00  0.00    -0.545 OA
ENDBRANCH   2  10
TORSDOF 2
ENDMDL
MODEL 2
REMARK VINA RESULT:    -5.174      0.255      3.014
REMARK INTER + INTRA:          -5.591
REMARK INTER:                  -5.843
REMARK INTRA:                   0.252
REMARK UNBOUND:                 0.188
REMARK SMILES O=C([O-])c1ccccc1C(=O)[O-]
REMARK SMILES IDX 4 1 9 2 5 3 8 4 6 5 7 6 2 7 1 8 3 9 10 10 11 11 12 12
REMARK H PARENT
REMARK Flexibility Score: inf
ROOT
ATOM      1  C   UNL     1      14.436 -11.150   8.754  1.00  0.00     0.006 A 
ATOM      2  C   UNL     1      13.745 -10.709   9.917  1.00  0.00     0.006 A 
ATOM      3  C   UNL     1      15.023 -10.194   7.903  1.00  0.00     0.010 A 
ATOM      4  C   UNL     1      13.723  -9.335  10.219  1.00  0.00     0.010 A 
ATOM      5  C   UNL     1      14.969  -8.834   8.211  1.00  0.00     0.001 A 
ATOM      6  C   UNL     1      14.330  -8.406   9.374  1.00  0.00     0.001 A 
ENDROOT
BRANCH   1   7
ATOM      7  C   UNL     1      14.629 -12.582   8.433  1.00  0.00     0.072 C 
ATOM      8  O   UNL     1      14.603 -12.972   7.235  1.00  0.00    -0.545 OA
ATOM      9  O   UNL     1      14.905 -13.503   9.436  1.00  0.00    -0.545 OA
ENDBRANCH   1   7
BRANCH   2  10
ATOM     10  C   UNL     1      12.981 -11.625  10.795  1.00  0.00     0.072 C 
ATOM     11  O   UNL     1      11.741 -11.781  10.642  1.00  0.00    -0.545 OA
ATOM     12  O   UNL     1      13.618 -12.275  11.846  1.00  0.00    -0.545 OA
ENDBRANCH   2  10
TORSDOF 2
ENDMDL
MODEL 3
REMARK VINA RESULT:    -4.852      2.436      3.342
REMARK INTER + INTRA:          -5.232
REMARK INTER:                  -5.032
REMARK INTRA:                  -0.200
REMARK UNBOUND:                 0.188
REMARK SMILES O=C([O-])c1ccccc1C(=O)[O-]
REMARK SMILES IDX 4 1 9 2 5 3 8 4 6 5 7 6 2 7 1 8 3 9 10 10 11 11 12 12
REMARK H PARENT
REMARK Flexibility Score: inf
ROOT
ATOM      1  C   UNL     1      14.211  -9.512   8.406  1.00  0.00     0.006 A 
ATOM      2  C   UNL     1      13.866 -10.870   8.653  1.00  0.00     0.006 A 
ATOM      3  C   UNL     1      14.142  -9.016   7.090  1.00  0.00     0.010 A 
ATOM      4  C   UNL     1      13.403 -11.662   7.586  1.00  0.00     0.010 A 
ATOM      5  C   UNL     1      13.702  -9.827   6.044  1.00  0.00     0.001 A 
ATOM      6  C   UNL     1      13.322 -11.144   6.293  1.00  0.00     0.001 A 
ENDROOT
BRANCH   1   7
ATOM      7  C   UNL     1      14.574  -8.569   9.489  1.00  0.00     0.072 C 
ATOM      8  O   UNL     1      15.781  -8.265   9.687  1.00  0.00    -0.545 OA
ATOM      9  O   UNL     1      13.589  -7.959  10.257  1.00  0.00    -0.545 OA
ENDBRANCH   1   7
BRANCH   2  10
ATOM     10  C   UNL     1      14.038 -11.518   9.974  1.00  0.00     0.072 C 
ATOM     11  O   UNL     1      15.003 -12.295  10.191  1.00  0.00    -0.545 OA
ATOM     12  O   UNL     1      13.091 -11.322  10.973  1.00  0.00    -0.545 OA
ENDBRANCH   2  10
TORSDOF 2
ENDMDL
MODEL 4
REMARK VINA RESULT:    -4.830      2.089      3.317
REMARK INTER + INTRA:          -5.207
REMARK INTER:                  -5.755
REMARK INTRA:                   0.548
REMARK UNBOUND:                 0.188
REMARK SMILES O=C([O-])c1ccccc1C(=O)[O-]
REMARK SMILES IDX 4 1 9 2 5 3 8 4 6 5 7 6 2 7 1 8 3 9 10 10 11 11 12 12
REMARK H PARENT
REMARK Flexibility Score: inf
ROOT
ATOM      1  C   UNL     1      13.883 -11.032   9.793  1.00  0.00     0.006 A 
ATOM      2  C   UNL     1      14.563 -12.027   9.037  1.00  0.00     0.006 A 
ATOM      3  C   UNL     1      13.421 -11.350  11.085  1.00  0.00     0.010 A 
ATOM      4  C   UNL     1      14.811 -13.281   9.624  1.00  0.00     0.010 A 
ATOM      5  C   UNL     1      13.658 -12.608  11.638  1.00  0.00     0.001 A 
ATOM      6  C   UNL     1      14.363 -13.568  10.914  1.00  0.00     0.001 A 
ENDROOT
BRANCH   1   7
ATOM      7  C   UNL     1      13.702  -9.644   9.309  1.00  0.00     0.072 C 
ATOM      8  O   UNL     1      13.863  -8.672  10.095  1.00  0.00    -0.545 OA
ATOM      9  O   UNL     1      13.416  -9.391   7.972  1.00  0.00    -0.545 OA
ENDBRANCH   1   7
BRANCH   2  10
ATOM     10  C   UNL     1      14.963 -11.832   7.624  1.00  0.00     0.072 C 
ATOM     11  O   UNL     1      14.525 -12.588   6.719  1.00  0.00    -0.545 OA
ATOM     12  O   UNL     1      15.884 -10.845   7.292  1.00  0.00    -0.545 OA
ENDBRANCH   2  10
TORSDOF 2
ENDMDL
MODEL 5
REMARK VINA RESULT:    -4.799      2.404      3.395
REMARK INTER + INTRA:          -5.173
REMARK INTER:                  -5.054
REMARK INTRA:                  -0.118
REMARK UNBOUND:                 0.188
REMARK SMILES O=C([O-])c1ccccc1C(=O)[O-]
REMARK SMILES IDX 4 1 9 2 5 3 8 4 6 5 7 6 2 7 1 8 3 9 10 10 11 11 12 12
REMARK H PARENT
REMARK Flexibility Score: inf
ROOT
ATOM      1  C   UNL     1      13.897 -10.933   8.639  1.00  0.00     0.006 A 
ATOM      2  C   UNL     1      14.230  -9.563   8.445  1.00  0.00     0.006 A 
ATOM      3  C   UNL     1      13.439 -11.688   7.542  1.00  0.00     0.010 A 
ATOM      4  C   UNL     1      14.153  -9.018   7.151  1.00  0.00     0.010 A 
ATOM      5  C   UNL     1      13.349 -11.119   6.272  1.00  0.00     0.001 A 
ATOM      6  C   UNL     1      13.717  -9.790   6.073  1.00  0.00     0.001 A 
ENDROOT
BRANCH   1   7
ATOM      7  C   UNL     1      14.081 -11.625   9.935  1.00  0.00     0.072 C 
ATOM      8  O   UNL     1      13.292 -11.400  10.891  1.00  0.00    -0.545 OA
ATOM      9  O   UNL     1      15.082 -12.576  10.096  1.00  0.00    -0.545 OA
ENDBRANCH   1   7
BRANCH   2  10
ATOM     10  C   UNL     1      14.588  -8.656   9.559  1.00  0.00     0.072 C 
ATOM     11  O   UNL     1      13.697  -8.132  10.278  1.00  0.00    -0.545 OA
ATOM     12  O   UNL     1      15.919  -8.319   9.783  1.00  0.00    -0.545 OA
ENDBRANCH   2  10
TORSDOF 2
ENDMDL
MODEL 6
REMARK VINA RESULT:    -4.744      2.346      4.368
REMARK INTER + INTRA:          -5.111
REMARK INTER:                  -5.358
REMARK INTRA:                   0.247
REMARK UNBOUND:                 0.188
REMARK SMILES O=C([O-])c1ccccc1C(=O)[O-]
REMARK SMILES IDX 4 1 9 2 5 3 8 4 6 5 7 6 2 7 1 8 3 9 10 10 11 11 12 12
REMARK H PARENT
REMARK Flexibility Score: inf
ROOT
ATOM      1  C   UNL     1      14.783 -11.141   9.254  1.00  0.00     0.006 A 
ATOM      2  C   UNL     1      13.838 -10.293   9.895  1.00  0.00     0.006 A 
ATOM      3  C   UNL     1      14.900 -12.479   9.678  1.00  0.00     0.010 A 
ATOM      4  C   UNL     1      13.002 -10.830  10.889  1.00  0.00     0.010 A 
ATOM      5  C   UNL     1      14.075 -12.984  10.683  1.00  0.00     0.001 A 
ATOM      6  C   UNL     1      13.119 -12.165  11.279  1.00  0.00     0.001 A 
ENDROOT
BRANCH   1   7
ATOM      7  C   UNL     1      15.606 -10.699   8.105  1.00  0.00     0.072 C 
ATOM      8  O   UNL     1      16.625  -9.982   8.293  1.00  0.00    -0.545 OA
ATOM      9  O   UNL     1      15.305 -11.118   6.814  1.00  0.00    -0.545 OA
ENDBRANCH   1   7
BRANCH   2  10
ATOM     10  C   UNL     1      13.738  -8.842   9.614  1.00  0.00     0.072 C 
ATOM     11  O   UNL     1      13.528  -8.018  10.542  1.00  0.00    -0.545 OA
ATOM     12  O   UNL     1      13.812  -8.379   8.305  1.00  0.00    -0.545 OA
ENDBRANCH   2  10
TORSDOF 2
ENDMDL
MODEL 7
REMARK VINA RESULT:    -4.622      9.596     11.277
REMARK INTER + INTRA:          -4.974
REMARK INTER:                  -4.775
REMARK INTRA:                  -0.200
REMARK UNBOUND:                 0.188
REMARK SMILES O=C([O-])c1ccccc1C(=O)[O-]
REMARK SMILES IDX 4 1 9 2 5 3 8 4 6 5 7 6 2 7 1 8 3 9 10 10 11 11 12 12
REMARK H PARENT
REMARK Flexibility Score: inf
ROOT
ATOM      1  C   UNL     1       9.071  -6.655  18.353  1.00  0.00     0.006 A 
ATOM      2  C   UNL     1       8.277  -7.788  18.016  1.00  0.00     0.006 A 
ATOM      3  C   UNL     1       8.617  -5.774  19.353  1.00  0.00     0.010 A 
ATOM      4  C   UNL     1       7.094  -8.031  18.736  1.00  0.00     0.010 A 
ATOM      5  C   UNL     1       7.428  -6.024  20.038  1.00  0.00     0.001 A 
ATOM      6  C   UNL     1       6.674  -7.157  19.739  1.00  0.00     0.001 A 
ENDROOT
BRANCH   1   7
ATOM      7  C   UNL     1      10.396  -6.398  17.745  1.00  0.00     0.072 C 
ATOM      8  O   UNL     1      11.435  -6.901  18.253  1.00  0.00    -0.545 OA
ATOM      9  O   UNL     1      10.509  -5.656  16.575  1.00  0.00    -0.545 OA
ENDBRANCH   1   7
BRANCH   2  10
ATOM     10  C   UNL     1       8.602  -8.691  16.888  1.00  0.00     0.072 C 
ATOM     11  O   UNL     1       8.397  -8.338  15.698  1.00  0.00    -0.545 OA
ATOM     12  O   UNL     1       9.078  -9.974  17.139  1.00  0.00    -0.545 OA
ENDBRANCH   2  10
TORSDOF 2
ENDMDL
MODEL 8
REMARK VINA RESULT:    -4.617      9.614     11.261
REMARK INTER + INTRA:          -4.969
REMARK INTER:                  -4.777
REMARK INTRA:                  -0.192
REMARK UNBOUND:                 0.188
REMARK SMILES O=C([O-])c1ccccc1C(=O)[O-]
REMARK SMILES IDX 4 1 9 2 5 3 8 4 6 5 7 6 2 7 1 8 3 9 10 10 11 11 12 12
REMARK H PARENT
REMARK Flexibility Score: inf
ROOT
ATOM      1  C   UNL     1       8.242  -7.810  18.021  1.00  0.00     0.006 A 
ATOM      2  C   UNL     1       9.057  -6.689  18.343  1.00  0.00     0.006 A 
ATOM      3  C   UNL     1       7.059  -8.029  18.752  1.00  0.00     0.010 A 
ATOM      4  C   UNL     1       8.625  -5.794  19.339  1.00  0.00     0.010 A 
ATOM      5  C   UNL     1       6.662  -7.140  19.752  1.00  0.00     0.001 A 
ATOM      6  C   UNL     1       7.437  -6.018  20.036  1.00  0.00     0.001 A 
ENDROOT
BRANCH   1   7
ATOM      7  C   UNL     1       8.547  -8.724  16.897  1.00  0.00     0.072 C 
ATOM      8  O   UNL     1       8.368  -8.348  15.707  1.00  0.00    -0.545 OA
ATOM      9  O   UNL     1       9.093  -9.981  17.132  1.00  0.00    -0.545 OA
ENDBRANCH   1   7
BRANCH   2  10
ATOM     10  C   UNL     1      10.383  -6.453  17.726  1.00  0.00     0.072 C 
ATOM     11  O   UNL     1      11.432  -6.893  18.264  1.00  0.00    -0.545 OA
ATOM     12  O   UNL     1      10.487  -5.682  16.573  1.00  0.00    -0.545 OA
ENDBRANCH   2  10
TORSDOF 2
ENDMDL
MODEL 9
REMARK VINA RESULT:    -4.374     13.406     14.793
REMARK INTER + INTRA:          -4.697
REMARK INTER:                  -4.468
REMARK INTRA:                  -0.230
REMARK UNBOUND:                 0.188
REMARK SMILES O=C([O-])c1ccccc1C(=O)[O-]
REMARK SMILES IDX 4 1 9 2 5 3 8 4 6 5 7 6 2 7 1 8 3 9 10 10 11 11 12 12
REMARK H PARENT
REMARK Flexibility Score: inf
ROOT
ATOM      1  C   UNL     1       3.723 -11.704  20.114  1.00  0.00     0.006 A 
ATOM      2  C   UNL     1       4.793 -12.635  20.222  1.00  0.00     0.006 A 
ATOM      3  C   UNL     1       4.012 -10.361  19.807  1.00  0.00     0.010 A 
ATOM      4  C   UNL     1       6.105 -12.202  19.957  1.00  0.00     0.010 A 
ATOM      5  C   UNL     1       5.324  -9.949  19.570  1.00  0.00     0.001 A 
ATOM      6  C   UNL     1       6.367 -10.871  19.633  1.00  0.00     0.001 A 
ENDROOT
BRANCH   1   7
ATOM      7  C   UNL     1       2.301 -12.101  20.238  1.00  0.00     0.072 C 
ATOM      8  O   UNL     1       1.690 -12.587  19.249  1.00  0.00    -0.545 OA
ATOM      9  O   UNL     1       1.642 -12.004  21.458  1.00  0.00    -0.545 OA
ENDBRANCH   1   7
BRANCH   2  10
ATOM     10  C   UNL     1       4.602 -14.033  20.674  1.00  0.00     0.072 C 
ATOM     11  O   UNL     1       4.495 -14.971  19.842  1.00  0.00    -0.545 OA
ATOM     12  O   UNL     1       4.472 -14.315  22.029  1.00  0.00    -0.545 OA
ENDBRANCH   2  10
TORSDOF 2
ENDMDL
