MODEL 1
REMARK VINA RESULT:    -4.978      0.000      0.000
REMARK INTER + INTRA:          -7.558
REMARK INTER:                  -6.725
REMARK INTRA:                  -0.834
REMARK UNBOUND:                -0.834
REMARK SMILES CC(=O)CCC=C(C)CCC=C(C)C
REMARK SMILES IDX 7 1 6 2 8 3 9 4 10 5 11 6 13 7 12 8 14 9 5 10 4 11 2 12 3 13
REMARK SMILES IDX 1 14
REMARK H PARENT
REMARK Flexibility Score: inf
ROOT
ATOM      1  C   UNL     1     -28.181  12.364 -29.192  1.00  0.00    -0.077 C 
ATOM      2  C   UNL     1     -27.230  13.053 -29.862  1.00  0.00    -0.028 C 
ATOM      3  C   UNL     1     -28.021  11.993 -27.736  1.00  0.00     0.039 C 
ENDROOT
BRANCH   1   4
ATOM      4  C   UNL     1     -29.434  11.937 -29.925  1.00  0.00     0.034 C 
BRANCH   4   5
ATOM      5  C   UNL     1     -29.375  10.446 -30.278  1.00  0.00     0.032 C 
BRANCH   5   6
ATOM      6  C   UNL     1     -29.355  10.251 -31.773  1.00  0.00    -0.028 C 
ATOM      7  C   UNL     1     -28.366   9.915 -33.998  1.00  0.00     0.039 C 
ATOM      8  C   UNL     1     -28.235  10.054 -32.503  1.00  0.00    -0.080 C 
ATOM      9  C   UNL     1     -26.870   9.955 -31.863  1.00  0.00     0.039 C 
ENDBRANCH   5   6
ENDBRANCH   4   5
ENDBRANCH   1   4
BRANCH   2  10
ATOM     10  C   UNL     1     -25.960  13.578 -29.241  1.00  0.00     0.035 C 
BRANCH  10  11
ATOM     11  C   UNL     1     -24.750  13.250 -30.123  1.00  0.00     0.079 C 
BRANCH  11  12
ATOM     12  C   UNL     1     -23.995  14.500 -30.478  1.00  0.00     0.130 C 
ATOM     13  O   UNL     1     -24.604  15.540 -30.683  1.00  0.00    -0.300 OA
ATOM     14  C   UNL     1     -22.502  14.475 -30.608  1.00  0.00     0.087 C 
ENDBRANCH  11  12
ENDBRANCH  10  11
ENDBRANCH   2  10
TORSDOF 6
ENDMDL
MODEL 2
REMARK VINA RESULT:    -4.899      5.047      7.171
REMARK INTER + INTRA:          -7.451
REMARK INTER:                  -6.931
REMARK INTRA:                  -0.520
REMARK UNBOUND:                -0.834
REMARK SMILES CC(=O)CCC=C(C)CCC=C(C)C
REMARK SMILES IDX 7 1 6 2 8 3 9 4 10 5 11 6 13 7 12 8 14 9 5 10 4 11 2 12 3 13
REMARK SMILES IDX 1 14
REMARK H PARENT
REMARK Flexibility Score: inf
ROOT
ATOM      1  C   UNL     1     -26.654  18.746 -32.433  1.00  0.00    -0.077 C 
ATOM      2  C   UNL     1     -25.375  19.073 -32.728  1.00  0.00    -0.028 C 
ATOM      3  C   UNL     1     -27.824  19.388 -33.141  1.00  0.00     0.039 C 
ENDROOT
BRANCH   1   4
ATOM      4  C   UNL     1     -26.920  17.722 -31.353  1.00  0.00     0.034 C 
BRANCH   4   5
ATOM      5  C   UNL     1     -25.621  17.338 -30.635  1.00  0.00     0.032 C 
BRANCH   5   6
ATOM      6  C   UNL     1     -25.646  15.889 -30.221  1.00  0.00    -0.028 C 
ATOM      7  C   UNL     1     -24.853  13.568 -30.059  1.00  0.00     0.039 C 
ATOM      8  C   UNL     1     -24.671  14.997 -30.503  1.00  0.00    -0.080 C 
ATOM      9  C   UNL     1     -23.408  15.395 -31.231  1.00  0.00     0.039 C 
ENDBRANCH   5   6
ENDBRANCH   4   5
ENDBRANCH   1   4
BRANCH   2  10
ATOM     10  C   UNL     1     -24.970  20.040 -33.812  1.00  0.00     0.035 C 
BRANCH  10  11
ATOM     11  C   UNL     1     -23.495  19.853 -34.182  1.00  0.00     0.079 C 
BRANCH  11  12
ATOM     12  C   UNL     1     -22.602  20.462 -33.137  1.00  0.00     0.130 C 
ATOM     13  O   UNL     1     -21.477  20.016 -32.964  1.00  0.00    -0.300 OA
ATOM     14  C   UNL     1     -23.091  21.596 -32.287  1.00  0.00     0.087 C 
ENDBRANCH  11  12
ENDBRANCH  10  11
ENDBRANCH   2  10
TORSDOF 6
ENDMDL
MODEL 3
REMARK VINA RESULT:    -4.831      3.845      6.993
REMARK INTER + INTRA:          -7.359
REMARK INTER:                  -6.957
REMARK INTRA:                  -0.401
REMARK UNBOUND:                -0.834
REMARK SMILES CC(=O)CCC=C(C)CCC=C(C)C
REMARK SMILES IDX 7 1 6 2 8 3 9 4 10 5 11 6 13 7 12 8 14 9 5 10 4 11 2 12 3 13
REMARK SMILES IDX 1 14
REMARK H PARENT
REMARK Flexibility Score: inf
ROOT
ATOM      1  C   UNL     1     -25.118  15.758 -30.505  1.00  0.00    -0.077 C 
ATOM      2  C   UNL     1     -25.901  14.749 -30.062  1.00  0.00    -0.028 C 
ATOM      3  C   UNL     1     -23.718  15.515 -31.019  1.00  0.00     0.039 C 
ENDROOT
BRANCH   1   4
ATOM      4  C   UNL     1     -25.653  17.173 -30.471  1.00  0.00     0.034 C 
BRANCH   4   5
ATOM      5  C   UNL     1     -24.823  18.090 -31.377  1.00  0.00     0.032 C 
BRANCH   5   6
ATOM      6  C   UNL     1     -25.705  18.791 -32.379  1.00  0.00    -0.028 C 
ATOM      7  C   UNL     1     -26.285  20.388 -34.154  1.00  0.00     0.039 C 
ATOM      8  C   UNL     1     -25.279  19.746 -33.235  1.00  0.00    -0.080 C 
ATOM      9  C   UNL     1     -23.830  20.172 -33.303  1.00  0.00     0.039 C 
ENDBRANCH   5   6
ENDBRANCH   4   5
ENDBRANCH   1   4
BRANCH   2  10
ATOM     10  C   UNL     1     -25.509  13.292 -30.085  1.00  0.00     0.035 C 
BRANCH  10  11
ATOM     11  C   UNL     1     -26.709  12.415 -30.458  1.00  0.00     0.079 C 
BRANCH  11  12
ATOM     12  C   UNL     1     -26.653  12.023 -31.908  1.00  0.00     0.130 C 
ATOM     13  O   UNL     1     -26.312  12.844 -32.747  1.00  0.00    -0.300 OA
ATOM     14  C   UNL     1     -27.037  10.638 -32.336  1.00  0.00     0.087 C 
ENDBRANCH  11  12
ENDBRANCH  10  11
ENDBRANCH   2  10
TORSDOF 6
ENDMDL
MODEL 4
REMARK VINA RESULT:    -4.816      9.202     11.221
REMARK INTER + INTRA:          -7.339
REMARK INTER:                  -6.108
REMARK INTRA:                  -1.231
REMARK UNBOUND:                -0.834
REMARK SMILES CC(=O)CCC=C(C)CCC=C(C)C
REMARK SMILES IDX 7 1 6 2 8 3 9 4 10 5 11 6 13 7 12 8 14 9 5 10 4 11 2 12 3 13
REMARK SMILES IDX 1 14
REMARK H PARENT
REMARK Flexibility Score: inf
ROOT
ATOM      1  C   UNL     1     -17.765  12.891 -29.871  1.00  0.00    -0.077 C 
ATOM      2  C   UNL     1     -17.521  12.958 -31.200  1.00  0.00    -0.028 C 
ATOM      3  C   UNL     1     -17.049  13.783 -28.883  1.00  0.00     0.039 C 
ENDROOT
BRANCH   1   4
ATOM      4  C   UNL     1     -18.769  11.884 -29.357  1.00  0.00     0.034 C 
BRANCH   4   5
ATOM      5  C   UNL     1     -18.190  10.465 -29.406  1.00  0.00     0.032 C 
BRANCH   5   6
ATOM      6  C   UNL     1     -17.225  10.242 -28.270  1.00  0.00    -0.028 C 
ATOM      7  C   UNL     1     -15.048   9.875 -27.190  1.00  0.00     0.039 C 
ATOM      8  C   UNL     1     -15.885  10.139 -28.414  1.00  0.00    -0.080 C 
ATOM      9  C   UNL     1     -15.211  10.295 -29.758  1.00  0.00     0.039 C 
ENDBRANCH   5   6
ENDBRANCH   4   5
ENDBRANCH   1   4
BRANCH   2  10
ATOM     10  C   UNL     1     -16.582  13.946 -31.846  1.00  0.00     0.035 C 
BRANCH  10  11
ATOM     11  C   UNL     1     -15.365  13.228 -32.437  1.00  0.00     0.079 C 
BRANCH  11  12
ATOM     12  C   UNL     1     -14.111  13.610 -31.701  1.00  0.00     0.130 C 
ATOM     13  O   UNL     1     -13.181  12.820 -31.634  1.00  0.00    -0.300 OA
ATOM     14  C   UNL     1     -14.004  14.944 -31.026  1.00  0.00     0.087 C 
ENDBRANCH  11  12
ENDBRANCH  10  11
ENDBRANCH   2  10
TORSDOF 6
ENDMDL
MODEL 5
REMARK VINA RESULT:    -4.661      1.628      2.805
REMARK INTER + INTRA:          -7.130
REMARK INTER:                  -6.249
REMARK INTRA:                  -0.881
REMARK UNBOUND:                -0.834
REMARK SMILES CC(=O)CCC=C(C)CCC=C(C)C
REMARK SMILES IDX 7 1 6 2 8 3 9 4 10 5 11 6 13 7 12 8 14 9 5 10 4 11 2 12 3 13
REMARK SMILES IDX 1 14
REMARK H PARENT
REMARK Flexibility Score: inf
ROOT
ATOM      1  C   UNL     1     -25.765  11.695 -29.131  1.00  0.00    -0.077 C 
ATOM      2  C   UNL     1     -26.043  12.987 -29.420  1.00  0.00    -0.028 C 
ATOM      3  C   UNL     1     -25.030  10.801 -30.103  1.00  0.00     0.039 C 
ENDROOT
BRANCH   1   4
ATOM      4  C   UNL     1     -26.216  11.125 -27.805  1.00  0.00     0.034 C 
BRANCH   4   5
ATOM      5  C   UNL     1     -27.746  11.125 -27.706  1.00  0.00     0.032 C 
BRANCH   5   6
ATOM      6  C   UNL     1     -28.362  10.505 -28.935  1.00  0.00    -0.028 C 
ATOM      7  C   UNL     1     -29.835  10.354 -30.896  1.00  0.00     0.039 C 
ATOM      8  C   UNL     1     -29.277  11.114 -29.721  1.00  0.00    -0.080 C 
ATOM      9  C   UNL     1     -29.738  12.530 -29.463  1.00  0.00     0.039 C 
ENDBRANCH   5   6
ENDBRANCH   4   5
ENDBRANCH   1   4
BRANCH   2  10
ATOM     10  C   UNL     1     -25.611  13.691 -30.682  1.00  0.00     0.035 C 
BRANCH  10  11
ATOM     11  C   UNL     1     -24.998  15.057 -30.357  1.00  0.00     0.079 C 
BRANCH  11  12
ATOM     12  C   UNL     1     -23.584  15.140 -30.859  1.00  0.00     0.130 C 
ATOM     13  O   UNL     1     -23.256  16.050 -31.606  1.00  0.00    -0.300 OA
ATOM     14  C   UNL     1     -22.578  14.098 -30.471  1.00  0.00     0.087 C 
ENDBRANCH  11  12
ENDBRANCH  10  11
ENDBRANCH   2  10
TORSDOF 6
ENDMDL
MODEL 6
REMARK VINA RESULT:    -4.661     10.093     12.177
REMARK INTER + INTRA:          -7.130
REMARK INTER:                  -5.740
REMARK INTRA:                  -1.390
REMARK UNBOUND:                -0.834
REMARK SMILES CC(=O)CCC=C(C)CCC=C(C)C
REMARK SMILES IDX 7 1 6 2 8 3 9 4 10 5 11 6 13 7 12 8 14 9 5 10 4 11 2 12 3 13
REMARK SMILES IDX 1 14
REMARK H PARENT
REMARK Flexibility Score: inf
ROOT
ATOM      1  C   UNL     1     -17.222  12.506 -29.668  1.00  0.00    -0.077 C 
ATOM      2  C   UNL     1     -16.943  11.219 -29.360  1.00  0.00    -0.028 C 
ATOM      3  C   UNL     1     -17.059  13.620 -28.661  1.00  0.00     0.039 C 
ENDROOT
BRANCH   1   4
ATOM      4  C   UNL     1     -17.726  12.837 -31.055  1.00  0.00     0.034 C 
BRANCH   4   5
ATOM      5  C   UNL     1     -16.856  13.919 -31.706  1.00  0.00     0.032 C 
BRANCH   5   6
ATOM      6  C   UNL     1     -15.447  13.423 -31.908  1.00  0.00    -0.028 C 
ATOM      7  C   UNL     1     -12.993  13.466 -31.778  1.00  0.00     0.039 C 
ATOM      8  C   UNL     1     -14.341  14.063 -31.466  1.00  0.00    -0.080 C 
ATOM      9  C   UNL     1     -14.423  15.340 -30.662  1.00  0.00     0.039 C 
ENDBRANCH   5   6
ENDBRANCH   4   5
ENDBRANCH   1   4
BRANCH   2  10
ATOM     10  C   UNL     1     -16.390  10.760 -28.033  1.00  0.00     0.035 C 
BRANCH  10  11
ATOM     11  C   UNL     1     -15.069  10.009 -28.228  1.00  0.00     0.079 C 
BRANCH  11  12
ATOM     12  C   UNL     1     -14.064  10.874 -28.937  1.00  0.00     0.130 C 
ATOM     13  O   UNL     1     -13.611  10.520 -30.016  1.00  0.00    -0.300 OA
ATOM     14  C   UNL     1     -13.593  12.155 -28.317  1.00  0.00     0.087 C 
ENDBRANCH  11  12
ENDBRANCH  10  11
ENDBRANCH   2  10
TORSDOF 6
ENDMDL
MODEL 7
REMARK VINA RESULT:    -4.615      8.872     11.957
REMARK INTER + INTRA:          -7.067
REMARK INTER:                  -5.726
REMARK INTRA:                  -1.341
REMARK UNBOUND:                -0.834
REMARK SMILES CC(=O)CCC=C(C)CCC=C(C)C
REMARK SMILES IDX 7 1 6 2 8 3 9 4 10 5 11 6 13 7 12 8 14 9 5 10 4 11 2 12 3 13
REMARK SMILES IDX 1 14
REMARK H PARENT
REMARK Flexibility Score: inf
ROOT
ATOM      1  C   UNL     1     -14.166  11.158 -28.858  1.00  0.00    -0.077 C 
ATOM      2  C   UNL     1     -14.133  11.402 -30.188  1.00  0.00    -0.028 C 
ATOM      3  C   UNL     1     -13.332  11.952 -27.880  1.00  0.00     0.039 C 
ENDROOT
BRANCH   1   4
ATOM      4  C   UNL     1     -15.051  10.047 -28.337  1.00  0.00     0.034 C 
BRANCH   4   5
ATOM      5  C   UNL     1     -16.232  10.620 -27.544  1.00  0.00     0.032 C 
BRANCH   5   6
ATOM      6  C   UNL     1     -17.396  10.915 -28.457  1.00  0.00    -0.028 C 
ATOM      7  C   UNL     1     -18.989  12.300 -29.714  1.00  0.00     0.039 C 
ATOM      8  C   UNL     1     -17.780  12.156 -28.828  1.00  0.00    -0.080 C 
ATOM      9  C   UNL     1     -17.025  13.391 -28.392  1.00  0.00     0.039 C 
ENDBRANCH   5   6
ENDBRANCH   4   5
ENDBRANCH   1   4
BRANCH   2  10
ATOM     10  C   UNL     1     -13.333  12.507 -30.832  1.00  0.00     0.035 C 
BRANCH  10  11
ATOM     11  C   UNL     1     -14.206  13.746 -31.059  1.00  0.00     0.079 C 
BRANCH  11  12
ATOM     12  C   UNL     1     -15.136  13.537 -32.221  1.00  0.00     0.130 C 
ATOM     13  O   UNL     1     -14.684  13.223 -33.313  1.00  0.00    -0.300 OA
ATOM     14  C   UNL     1     -16.613  13.737 -32.058  1.00  0.00     0.087 C 
ENDBRANCH  11  12
ENDBRANCH  10  11
ENDBRANCH   2  10
TORSDOF 6
ENDMDL
MODEL 8
REMARK VINA RESULT:    -4.608     10.477     12.666
REMARK INTER + INTRA:          -7.058
REMARK INTER:                  -5.904
REMARK INTRA:                  -1.154
REMARK UNBOUND:                -0.834
REMARK SMILES CC(=O)CCC=C(C)CCC=C(C)C
REMARK SMILES IDX 7 1 6 2 8 3 9 4 10 5 11 6 13 7 12 8 14 9 5 10 4 11 2 12 3 13
REMARK SMILES IDX 1 14
REMARK H PARENT
REMARK Flexibility Score: inf
ROOT
ATOM      1  C   UNL     1     -16.563  14.026 -30.228  1.00  0.00    -0.077 C 
ATOM      2  C   UNL     1     -15.517  14.859 -30.026  1.00  0.00    -0.028 C 
ATOM      3  C   UNL     1     -16.962  13.569 -31.612  1.00  0.00     0.039 C 
ENDROOT
BRANCH   1   4
ATOM      4  C   UNL     1     -17.366  13.553 -29.037  1.00  0.00     0.034 C 
BRANCH   4   5
ATOM      5  C   UNL     1     -16.947  12.136 -28.627  1.00  0.00     0.032 C 
BRANCH   5   6
ATOM      6  C   UNL     1     -15.755  12.176 -27.704  1.00  0.00    -0.028 C 
ATOM      7  C   UNL     1     -13.414  11.881 -27.019  1.00  0.00     0.039 C 
ATOM      8  C   UNL     1     -14.500  11.828 -28.063  1.00  0.00    -0.080 C 
ATOM      9  C   UNL     1     -14.157  11.407 -29.473  1.00  0.00     0.039 C 
ENDBRANCH   5   6
ENDBRANCH   4   5
ENDBRANCH   1   4
BRANCH   2  10
ATOM     10  C   UNL     1     -14.607  15.366 -31.117  1.00  0.00     0.035 C 
BRANCH  10  11
ATOM     11  C   UNL     1     -13.222  14.718 -31.012  1.00  0.00     0.079 C 
BRANCH  11  12
ATOM     12  C   UNL     1     -12.845  14.053 -32.307  1.00  0.00     0.130 C 
ATOM     13  O   UNL     1     -13.681  13.410 -32.925  1.00  0.00    -0.300 OA
ATOM     14  C   UNL     1     -11.445  14.151 -32.831  1.00  0.00     0.087 C 
ENDBRANCH  11  12
ENDBRANCH  10  11
ENDBRANCH   2  10
TORSDOF 6
ENDMDL
MODEL 9
REMARK VINA RESULT:    -4.560      9.786     12.659
REMARK INTER + INTRA:          -6.993
REMARK INTER:                  -6.298
REMARK INTRA:                  -0.695
REMARK UNBOUND:                -0.834
REMARK SMILES CC(=O)CCC=C(C)CCC=C(C)C
REMARK SMILES IDX 7 1 6 2 8 3 9 4 10 5 11 6 13 7 12 8 14 9 5 10 4 11 2 12 3 13
REMARK SMILES IDX 1 14
REMARK H PARENT
REMARK Flexibility Score: inf
ROOT
ATOM      1  C   UNL     1     -15.467  14.349 -30.760  1.00  0.00    -0.077 C 
ATOM      2  C   UNL     1     -14.246  14.926 -30.821  1.00  0.00    -0.028 C 
ATOM      3  C   UNL     1     -16.085  13.661 -31.956  1.00  0.00     0.039 C 
ENDROOT
BRANCH   1   4
ATOM      4  C   UNL     1     -16.244  14.407 -29.464  1.00  0.00     0.034 C 
BRANCH   4   5
ATOM      5  C   UNL     1     -16.016  13.137 -28.635  1.00  0.00     0.032 C 
BRANCH   5   6
ATOM      6  C   UNL     1     -17.228  12.242 -28.682  1.00  0.00    -0.028 C 
ATOM      7  C   UNL     1     -18.516  10.199 -29.136  1.00  0.00     0.039 C 
ATOM      8  C   UNL     1     -17.216  10.959 -29.107  1.00  0.00    -0.080 C 
ATOM      9  C   UNL     1     -15.940  10.270 -29.534  1.00  0.00     0.039 C 
ENDBRANCH   5   6
ENDBRANCH   4   5
ENDBRANCH   1   4
BRANCH   2  10
ATOM     10  C   UNL     1     -13.349  14.899 -32.034  1.00  0.00     0.035 C 
BRANCH  10  11
ATOM     11  C   UNL     1     -12.461  13.650 -32.023  1.00  0.00     0.079 C 
BRANCH  11  12
ATOM     12  C   UNL     1     -11.472  13.690 -33.153  1.00  0.00     0.130 C 
ATOM     13  O   UNL     1     -11.534  12.856 -34.045  1.00  0.00    -0.300 OA
ATOM     14  C   UNL     1     -10.392  14.729 -33.182  1.00  0.00     0.087 C 
ENDBRANCH  11  12
ENDBRANCH  10  11
ENDBRANCH   2  10
TORSDOF 6
ENDMDL
