MODEL 1
REMARK VINA RESULT:    -3.705      0.000      0.000
REMARK INTER + INTRA:          -4.555
REMARK INTER:                  -4.463
REMARK INTRA:                  -0.093
REMARK UNBOUND:                -0.093
REMARK SMILES CC[C@H](C)[C@@H]([NH3+])C(=O)[O-]
REMARK SMILES IDX 3 1 4 2 5 3 6 4 7 8 8 9 9 10 2 11 1 12
REMARK H PARENT 6 5 6 6 6 7
REMARK Flexibility Score: inf
ROOT
ATOM      1  C   UNL     1     -14.733  34.062  17.971  1.00  0.00     0.050 C 
ATOM      2  C   UNL     1     -14.830  34.631  19.400  1.00  0.00     0.014 C 
ENDROOT
BRANCH   1   3
ATOM      3  C   UNL     1     -15.304  32.608  17.904  1.00  0.00     0.230 C 
BRANCH   3   4
ATOM      4  N   UNL     1     -16.020  32.238  19.136  1.00  0.00    -0.350 N 
ATOM      5  H   UNL     1     -16.493  31.312  19.014  1.00  0.00     0.345 HD
ATOM      6  H   UNL     1     -16.740  32.957  19.377  1.00  0.00     0.345 HD
ATOM      7  H   UNL     1     -15.347  32.133  19.929  1.00  0.00     0.345 HD
ENDBRANCH   3   4
BRANCH   3   8
ATOM      8  C   UNL     1     -16.223  32.439  16.722  1.00  0.00     0.099 C 
ATOM      9  O   UNL     1     -15.813  32.676  15.554  1.00  0.00    -0.544 OA
ATOM     10  O   UNL     1     -17.529  32.003  16.913  1.00  0.00    -0.544 OA
ENDBRANCH   3   8
ENDBRANCH   1   3
BRANCH   1  11
ATOM     11  C   UNL     1     -13.252  34.126  17.489  1.00  0.00     0.006 C 
ATOM     12  C   UNL     1     -12.327  33.209  18.292  1.00  0.00     0.004 C 
ENDBRANCH   1  11
TORSDOF 4
ENDMDL
MODEL 2
REMARK VINA RESULT:    -3.604      2.664      3.745
REMARK INTER + INTRA:          -4.434
REMARK INTER:                  -4.363
REMARK INTRA:                  -0.071
REMARK UNBOUND:                -0.093
REMARK SMILES CC[C@H](C)[C@@H]([NH3+])C(=O)[O-]
REMARK SMILES IDX 3 1 4 2 5 3 6 4 7 8 8 9 9 10 2 11 1 12
REMARK H PARENT 6 5 6 6 6 7
REMARK Flexibility Score: inf
ROOT
ATOM      1  C   UNL     1     -16.711  32.304  17.055  1.00  0.00     0.050 C 
ATOM      2  C   UNL     1     -15.402  33.048  16.728  1.00  0.00     0.014 C 
ENDROOT
BRANCH   1   3
ATOM      3  C   UNL     1     -16.426  30.989  17.852  1.00  0.00     0.230 C 
BRANCH   3   4
ATOM      4  N   UNL     1     -15.128  31.032  18.544  1.00  0.00    -0.350 N 
ATOM      5  H   UNL     1     -14.926  32.004  18.873  1.00  0.00     0.345 HD
ATOM      6  H   UNL     1     -14.358  30.722  17.908  1.00  0.00     0.345 HD
ATOM      7  H   UNL     1     -15.150  30.423  19.394  1.00  0.00     0.345 HD
ENDBRANCH   3   4
BRANCH   3   8
ATOM      8  C   UNL     1     -17.518  30.713  18.854  1.00  0.00     0.099 C 
ATOM      9  O   UNL     1     -18.123  31.664  19.417  1.00  0.00    -0.544 OA
ATOM     10  O   UNL     1     -17.876  29.404  19.149  1.00  0.00    -0.544 OA
ENDBRANCH   3   8
ENDBRANCH   1   3
BRANCH   1  11
ATOM     11  C   UNL     1     -17.490  32.025  15.735  1.00  0.00     0.006 C 
ATOM     12  C   UNL     1     -16.669  32.339  14.483  1.00  0.00     0.004 C 
ENDBRANCH   1  11
TORSDOF 4
ENDMDL
MODEL 3
REMARK VINA RESULT:    -3.586      2.807      3.817
REMARK INTER + INTRA:          -4.412
REMARK INTER:                  -4.330
REMARK INTRA:                  -0.083
REMARK UNBOUND:                -0.093
REMARK SMILES CC[C@H](C)[C@@H]([NH3+])C(=O)[O-]
REMARK SMILES IDX 3 1 4 2 5 3 6 4 7 8 8 9 9 10 2 11 1 12
REMARK H PARENT 6 5 6 6 6 7
REMARK Flexibility Score: inf
ROOT
ATOM      1  C   UNL     1     -16.724  32.465  17.067  1.00  0.00     0.050 C 
ATOM      2  C   UNL     1     -15.306  32.968  16.737  1.00  0.00     0.014 C 
ENDROOT
BRANCH   1   3
ATOM      3  C   UNL     1     -16.686  31.351  18.164  1.00  0.00     0.230 C 
BRANCH   3   4
ATOM      4  N   UNL     1     -16.216  30.064  17.628  1.00  0.00    -0.350 N 
ATOM      5  H   UNL     1     -15.852  30.188  16.655  1.00  0.00     0.345 HD
ATOM      6  H   UNL     1     -16.991  29.363  17.613  1.00  0.00     0.345 HD
ATOM      7  H   UNL     1     -15.423  29.699  18.204  1.00  0.00     0.345 HD
ENDBRANCH   3   4
BRANCH   3   8
ATOM      8  C   UNL     1     -15.813  31.759  19.323  1.00  0.00     0.099 C 
ATOM      9  O   UNL     1     -16.178  32.676  20.106  1.00  0.00    -0.544 OA
ATOM     10  O   UNL     1     -14.603  31.112  19.543  1.00  0.00    -0.544 OA
ENDBRANCH   3   8
ENDBRANCH   1   3
BRANCH   1  11
ATOM     11  C   UNL     1     -17.413  31.968  15.761  1.00  0.00     0.006 C 
ATOM     12  C   UNL     1     -16.631  32.341  14.499  1.00  0.00     0.004 C 
ENDBRANCH   1  11
TORSDOF 4
ENDMDL
MODEL 4
REMARK VINA RESULT:    -3.546      2.028      3.627
REMARK INTER + INTRA:          -4.365
REMARK INTER:                  -4.242
REMARK INTRA:                  -0.123
REMARK UNBOUND:                -0.093
REMARK SMILES CC[C@H](C)[C@@H]([NH3+])C(=O)[O-]
REMARK SMILES IDX 3 1 4 2 5 3 6 4 7 8 8 9 9 10 2 11 1 12
REMARK H PARENT 6 5 6 6 6 7
REMARK Flexibility Score: inf
ROOT
ATOM      1  C   UNL     1     -16.260  31.521  17.420  1.00  0.00     0.050 C 
ATOM      2  C   UNL     1     -16.791  30.298  18.193  1.00  0.00     0.014 C 
ENDROOT
BRANCH   1   3
ATOM      3  C   UNL     1     -15.666  32.590  18.395  1.00  0.00     0.230 C 
BRANCH   3   4
ATOM      4  N   UNL     1     -15.053  31.974  19.583  1.00  0.00    -0.350 N 
ATOM      5  H   UNL     1     -15.035  30.932  19.482  1.00  0.00     0.345 HD
ATOM      6  H   UNL     1     -15.589  32.220  20.447  1.00  0.00     0.345 HD
ATOM      7  H   UNL     1     -14.061  32.287  19.683  1.00  0.00     0.345 HD
ENDBRANCH   3   4
BRANCH   3   8
ATOM      8  C   UNL     1     -14.647  33.454  17.698  1.00  0.00     0.099 C 
ATOM      9  O   UNL     1     -13.463  33.050  17.548  1.00  0.00    -0.544 OA
ATOM     10  O   UNL     1     -15.014  34.698  17.201  1.00  0.00    -0.544 OA
ENDBRANCH   3   8
ENDBRANCH   1   3
BRANCH   1  11
ATOM     11  C   UNL     1     -17.402  32.111  16.539  1.00  0.00     0.006 C 
ATOM     12  C   UNL     1     -17.034  32.174  15.055  1.00  0.00     0.004 C 
ENDBRANCH   1  11
TORSDOF 4
ENDMDL
MODEL 5
REMARK VINA RESULT:    -3.538      2.396      3.097
REMARK INTER + INTRA:          -4.355
REMARK INTER:                  -4.223
REMARK INTRA:                  -0.132
REMARK UNBOUND:                -0.093
REMARK SMILES CC[C@H](C)[C@@H]([NH3+])C(=O)[O-]
REMARK SMILES IDX 3 1 4 2 5 3 6 4 7 8 8 9 9 10 2 11 1 12
REMARK H PARENT 6 5 6 6 6 7
REMARK Flexibility Score: inf
ROOT
ATOM      1  C   UNL     1     -15.274  32.755  17.104  1.00  0.00     0.050 C 
ATOM      2  C   UNL     1     -16.268  32.916  15.938  1.00  0.00     0.014 C 
ENDROOT
BRANCH   1   3
ATOM      3  C   UNL     1     -15.905  31.929  18.272  1.00  0.00     0.230 C 
BRANCH   3   4
ATOM      4  N   UNL     1     -16.290  30.574  17.846  1.00  0.00    -0.350 N 
ATOM      5  H   UNL     1     -17.317  30.429  17.987  1.00  0.00     0.345 HD
ATOM      6  H   UNL     1     -15.768  29.851  18.393  1.00  0.00     0.345 HD
ATOM      7  H   UNL     1     -16.102  30.447  16.826  1.00  0.00     0.345 HD
ENDBRANCH   3   4
BRANCH   3   8
ATOM      8  C   UNL     1     -14.961  31.836  19.444  1.00  0.00     0.099 C 
ATOM      9  O   UNL     1     -15.296  32.287  20.571  1.00  0.00    -0.544 OA
ATOM     10  O   UNL     1     -13.719  31.232  19.289  1.00  0.00    -0.544 OA
ENDBRANCH   3   8
ENDBRANCH   1   3
BRANCH   1  11
ATOM     11  C   UNL     1     -14.801  34.162  17.578  1.00  0.00     0.006 C 
ATOM     12  C   UNL     1     -13.292  34.364  17.424  1.00  0.00     0.004 C 
ENDBRANCH   1  11
TORSDOF 4
ENDMDL
MODEL 6
REMARK VINA RESULT:    -3.500      2.530      3.843
REMARK INTER + INTRA:          -4.308
REMARK INTER:                  -4.245
REMARK INTRA:                  -0.063
REMARK UNBOUND:                -0.093
REMARK SMILES CC[C@H](C)[C@@H]([NH3+])C(=O)[O-]
REMARK SMILES IDX 3 1 4 2 5 3 6 4 7 8 8 9 9 10 2 11 1 12
REMARK H PARENT 6 5 6 6 6 7
REMARK Flexibility Score: inf
ROOT
ATOM      1  C   UNL     1     -15.125  32.827  17.309  1.00  0.00     0.050 C 
ATOM      2  C   UNL     1     -15.924  32.201  18.469  1.00  0.00     0.014 C 
ENDROOT
BRANCH   1   3
ATOM      3  C   UNL     1     -14.334  34.088  17.786  1.00  0.00     0.230 C 
BRANCH   3   4
ATOM      4  N   UNL     1     -14.804  34.573  19.094  1.00  0.00    -0.350 N 
ATOM      5  H   UNL     1     -15.586  33.971  19.443  1.00  0.00     0.345 HD
ATOM      6  H   UNL     1     -15.142  35.560  19.024  1.00  0.00     0.345 HD
ATOM      7  H   UNL     1     -14.036  34.513  19.800  1.00  0.00     0.345 HD
ENDBRANCH   3   4
BRANCH   3   8
ATOM      8  C   UNL     1     -12.855  33.806  17.859  1.00  0.00     0.099 C 
ATOM      9  O   UNL     1     -12.435  32.625  17.987  1.00  0.00    -0.544 OA
ATOM     10  O   UNL     1     -11.943  34.851  17.769  1.00  0.00    -0.544 OA
ENDBRANCH   3   8
ENDBRANCH   1   3
BRANCH   1  11
ATOM     11  C   UNL     1     -16.095  33.160  16.136  1.00  0.00     0.006 C 
ATOM     12  C   UNL     1     -17.081  32.027  15.840  1.00  0.00     0.004 C 
ENDBRANCH   1  11
TORSDOF 4
ENDMDL
MODEL 7
REMARK VINA RESULT:    -3.458      1.999      2.636
REMARK INTER + INTRA:          -4.258
REMARK INTER:                  -4.176
REMARK INTRA:                  -0.082
REMARK UNBOUND:                -0.093
REMARK SMILES CC[C@H](C)[C@@H]([NH3+])C(=O)[O-]
REMARK SMILES IDX 3 1 4 2 5 3 6 4 7 8 8 9 9 10 2 11 1 12
REMARK H PARENT 6 5 6 6 6 7
REMARK Flexibility Score: inf
ROOT
ATOM      1  C   UNL     1     -14.971  32.885  17.854  1.00  0.00     0.050 C 
ATOM      2  C   UNL     1     -14.369  34.147  17.207  1.00  0.00     0.014 C 
ENDROOT
BRANCH   1   3
ATOM      3  C   UNL     1     -16.261  32.425  17.099  1.00  0.00     0.230 C 
BRANCH   3   4
ATOM      4  N   UNL     1     -15.973  32.003  15.719  1.00  0.00    -0.350 N 
ATOM      5  H   UNL     1     -14.980  32.225  15.473  1.00  0.00     0.345 HD
ATOM      6  H   UNL     1     -16.606  32.487  15.043  1.00  0.00     0.345 HD
ATOM      7  H   UNL     1     -16.084  30.968  15.626  1.00  0.00     0.345 HD
ENDBRANCH   3   4
BRANCH   3   8
ATOM      8  C   UNL     1     -16.949  31.302  17.832  1.00  0.00     0.099 C 
ATOM      9  O   UNL     1     -18.116  31.453  18.281  1.00  0.00    -0.544 OA
ATOM     10  O   UNL     1     -16.302  30.084  18.002  1.00  0.00    -0.544 OA
ENDBRANCH   3   8
ENDBRANCH   1   3
BRANCH   1  11
ATOM     11  C   UNL     1     -15.249  33.160  19.362  1.00  0.00     0.006 C 
ATOM     12  C   UNL     1     -14.832  34.568  19.795  1.00  0.00     0.004 C 
ENDBRANCH   1  11
TORSDOF 4
ENDMDL
MODEL 8
REMARK VINA RESULT:    -3.426      2.316      3.794
REMARK INTER + INTRA:          -4.220
REMARK INTER:                  -4.102
REMARK INTRA:                  -0.118
REMARK UNBOUND:                -0.093
REMARK SMILES CC[C@H](C)[C@@H]([NH3+])C(=O)[O-]
REMARK SMILES IDX 3 1 4 2 5 3 6 4 7 8 8 9 9 10 2 11 1 12
REMARK H PARENT 6 5 6 6 6 7
REMARK Flexibility Score: inf
ROOT
ATOM      1  C   UNL     1     -16.799  30.923  18.122  1.00  0.00     0.050 C 
ATOM      2  C   UNL     1     -16.269  29.571  18.637  1.00  0.00     0.014 C 
ENDROOT
BRANCH   1   3
ATOM      3  C   UNL     1     -15.725  32.048  18.286  1.00  0.00     0.230 C 
BRANCH   3   4
ATOM      4  N   UNL     1     -14.406  31.504  18.649  1.00  0.00    -0.350 N 
ATOM      5  H   UNL     1     -13.894  31.197  17.790  1.00  0.00     0.345 HD
ATOM      6  H   UNL     1     -14.506  30.688  19.294  1.00  0.00     0.345 HD
ATOM      7  H   UNL     1     -13.822  32.243  19.103  1.00  0.00     0.345 HD
ENDBRANCH   3   4
BRANCH   3   8
ATOM      8  C   UNL     1     -15.599  32.867  17.027  1.00  0.00     0.099 C 
ATOM      9  O   UNL     1     -16.039  32.426  15.931  1.00  0.00    -0.544 OA
ATOM     10  O   UNL     1     -15.010  34.124  17.071  1.00  0.00    -0.544 OA
ENDBRANCH   3   8
ENDBRANCH   1   3
BRANCH   1  11
ATOM     11  C   UNL     1     -18.125  31.274  18.861  1.00  0.00     0.006 C 
ATOM     12  C   UNL     1     -17.902  31.672  20.322  1.00  0.00     0.004 C 
ENDBRANCH   1  11
TORSDOF 4
ENDMDL
MODEL 9
REMARK VINA RESULT:    -3.384      2.441      3.337
REMARK INTER + INTRA:          -4.169
REMARK INTER:                  -4.026
REMARK INTRA:                  -0.143
REMARK UNBOUND:                -0.093
REMARK SMILES CC[C@H](C)[C@@H]([NH3+])C(=O)[O-]
REMARK SMILES IDX 3 1 4 2 5 3 6 4 7 8 8 9 9 10 2 11 1 12
REMARK H PARENT 6 5 6 6 6 7
REMARK Flexibility Score: inf
ROOT
ATOM      1  C   UNL     1     -15.081  33.455  17.648  1.00  0.00     0.050 C 
ATOM      2  C   UNL     1     -13.714  34.087  17.323  1.00  0.00     0.014 C 
ENDROOT
BRANCH   1   3
ATOM      3  C   UNL     1     -14.920  32.217  18.589  1.00  0.00     0.230 C 
BRANCH   3   4
ATOM      4  N   UNL     1     -13.522  31.764  18.673  1.00  0.00    -0.350 N 
ATOM      5  H   UNL     1     -12.923  32.318  18.017  1.00  0.00     0.345 HD
ATOM      6  H   UNL     1     -13.445  30.751  18.427  1.00  0.00     0.345 HD
ATOM      7  H   UNL     1     -13.147  31.923  19.635  1.00  0.00     0.345 HD
ENDBRANCH   3   4
BRANCH   3   8
ATOM      8  C   UNL     1     -15.433  32.516  19.974  1.00  0.00     0.099 C 
ATOM      9  O   UNL     1     -14.716  33.144  20.798  1.00  0.00    -0.544 OA
ATOM     10  O   UNL     1     -16.710  32.114  20.345  1.00  0.00    -0.544 OA
ENDBRANCH   3   8
ENDBRANCH   1   3
BRANCH   1  11
ATOM     11  C   UNL     1     -15.807  33.084  16.320  1.00  0.00     0.006 C 
ATOM     12  C   UNL     1     -16.779  31.913  16.482  1.00  0.00     0.004 C 
ENDBRANCH   1  11
TORSDOF 4
ENDMDL
