MODEL 1
REMARK VINA RESULT:    -0.016      0.000      0.000
REMARK INTER + INTRA:          -1.089
REMARK INTER:                  -0.040
REMARK INTRA:                  -1.048
REMARK UNBOUND:                -1.048
REMARK SMILES CCCCCCCCCCCCCCCCCCCCCCCCCCCC(=O)[O-]
REMARK SMILES IDX 15 1 16 2 17 3 18 4 19 5 20 6 21 7 22 8 23 9 24 10 25 11
REMARK SMILES IDX 26 12 27 13 28 14 29 15 30 16 14 17 13 18 12 19 11 20 10 21
REMARK SMILES IDX 9 22 8 23 7 24 6 25 5 26 4 27 3 28 2 29 1 30
REMARK H PARENT
REMARK Flexibility Score: inf
ROOT
ATOM      1  C   UNL     1      -5.923  36.250  23.033  1.00  0.00     0.000 C 
ENDROOT
BRANCH   1   2
ATOM      2  C   UNL     1      -4.503  36.028  22.486  1.00  0.00     0.000 C 
BRANCH   2   3
ATOM      3  C   UNL     1      -4.503  35.516  21.039  1.00  0.00     0.000 C 
BRANCH   3   4
ATOM      4  C   UNL     1      -5.869  35.743  20.375  1.00  0.00     0.000 C 
BRANCH   4   5
ATOM      5  C   UNL     1      -5.860  35.430  18.868  1.00  0.00     0.000 C 
BRANCH   5   6
ATOM      6  C   UNL     1      -4.581  34.735  18.358  1.00  0.00     0.000 C 
BRANCH   6   7
ATOM      7  C   UNL     1      -3.709  35.587  17.415  1.00  0.00     0.000 C 
BRANCH   7   8
ATOM      8  C   UNL     1      -3.747  37.106  17.682  1.00  0.00     0.000 C 
BRANCH   8   9
ATOM      9  C   UNL     1      -2.944  37.966  16.688  1.00  0.00     0.000 C 
BRANCH   9  10
ATOM     10  C   UNL     1      -1.804  37.187  16.011  1.00  0.00     0.000 C 
BRANCH  10  11
ATOM     11  C   UNL     1      -2.048  36.952  14.510  1.00  0.00     0.000 C 
BRANCH  11  12
ATOM     12  C   UNL     1      -3.245  37.714  13.908  1.00  0.00     0.006 C 
BRANCH  12  13
ATOM     13  C   UNL     1      -3.065  39.243  13.876  1.00  0.00     0.053 C 
BRANCH  13  14
ATOM     14  C   UNL     1      -4.362  39.980  14.023  1.00  0.00     0.041 C 
ATOM     15  O   UNL     1      -4.367  41.221  14.235  1.00  0.00    -0.550 OA
ATOM     16  O   UNL     1      -5.567  39.305  13.875  1.00  0.00    -0.550 OA
ENDBRANCH  13  14
ENDBRANCH  12  13
ENDBRANCH  11  12
ENDBRANCH  10  11
ENDBRANCH   9  10
ENDBRANCH   8   9
ENDBRANCH   7   8
ENDBRANCH   6   7
ENDBRANCH   5   6
ENDBRANCH   4   5
ENDBRANCH   3   4
ENDBRANCH   2   3
ENDBRANCH   1   2
BRANCH   1  17
ATOM     17  C   UNL     1      -6.124  35.631  24.423  1.00  0.00     0.000 C 
BRANCH  17  18
ATOM     18  C   UNL     1      -5.973  36.691  25.524  1.00  0.00     0.000 C 
BRANCH  18  19
ATOM     19  C   UNL     1      -4.697  37.538  25.369  1.00  0.00     0.000 C 
BRANCH  19  20
ATOM     20  C   UNL     1      -4.903  39.058  25.516  1.00  0.00     0.000 C 
BRANCH  20  21
ATOM     21  C   UNL     1      -4.555  39.835  24.238  1.00  0.00     0.000 C 
BRANCH  21  22
ATOM     22  C   UNL     1      -5.610  39.595  23.147  1.00  0.00    -0.000 C 
BRANCH  22  23
ATOM     23  C   UNL     1      -5.710  40.758  22.143  1.00  0.00    -0.000 C 
BRANCH  23  24
ATOM     24  C   UNL     1      -5.752  40.341  20.662  1.00  0.00    -0.000 C 
BRANCH  24  25
ATOM     25  C   UNL     1      -5.490  38.839  20.456  1.00  0.00    -0.000 C 
BRANCH  25  26
ATOM     26  C   UNL     1      -4.141  38.564  19.772  1.00  0.00    -0.000 C 
BRANCH  26  27
ATOM     27  C   UNL     1      -2.941  39.032  20.613  1.00  0.00    -0.000 C 
BRANCH  27  28
ATOM     28  C   UNL     1      -1.675  39.264  19.769  1.00  0.00    -0.000 C 
BRANCH  28  29
ATOM     29  C   UNL     1      -0.747  38.043  19.652  1.00  0.00    -0.003 C 
ATOM     30  C   UNL     1       0.007  37.991  18.324  1.00  0.00     0.004 C 
ENDBRANCH  28  29
ENDBRANCH  27  28
ENDBRANCH  26  27
ENDBRANCH  25  26
ENDBRANCH  24  25
ENDBRANCH  23  24
ENDBRANCH  22  23
ENDBRANCH  21  22
ENDBRANCH  20  21
ENDBRANCH  19  20
ENDBRANCH  18  19
ENDBRANCH  17  18
ENDBRANCH   1  17
TORSDOF 26
ENDMDL
MODEL 2
REMARK VINA RESULT:     0.024      1.875      6.254
REMARK INTER + INTRA:          -0.989
REMARK INTER:                  -0.679
REMARK INTRA:                  -0.309
REMARK UNBOUND:                -1.048
REMARK SMILES CCCCCCCCCCCCCCCCCCCCCCCCCCCC(=O)[O-]
REMARK SMILES IDX 15 1 16 2 17 3 18 4 19 5 20 6 21 7 22 8 23 9 24 10 25 11
REMARK SMILES IDX 26 12 27 13 28 14 29 15 30 16 14 17 13 18 12 19 11 20 10 21
REMARK SMILES IDX 9 22 8 23 7 24 6 25 5 26 4 27 3 28 2 29 1 30
REMARK H PARENT
REMARK Flexibility Score: inf
ROOT
ATOM      1  C   UNL     1      -6.102  35.515  24.182  1.00  0.00     0.000 C 
ENDROOT
BRANCH   1   2
ATOM      2  C   UNL     1      -5.311  36.421  25.140  1.00  0.00     0.000 C 
BRANCH   2   3
ATOM      3  C   UNL     1      -6.124  37.638  25.606  1.00  0.00     0.000 C 
BRANCH   3   4
ATOM      4  C   UNL     1      -5.239  38.627  26.379  1.00  0.00     0.000 C 
BRANCH   4   5
ATOM      5  C   UNL     1      -3.808  38.711  25.819  1.00  0.00     0.000 C 
BRANCH   5   6
ATOM      6  C   UNL     1      -3.615  39.738  24.684  1.00  0.00     0.000 C 
BRANCH   6   7
ATOM      7  C   UNL     1      -4.895  40.089  23.899  1.00  0.00     0.000 C 
BRANCH   7   8
ATOM      8  C   UNL     1      -4.688  41.035  22.699  1.00  0.00     0.000 C 
BRANCH   8   9
ATOM      9  C   UNL     1      -5.530  40.705  21.452  1.00  0.00     0.000 C 
BRANCH   9  10
ATOM     10  C   UNL     1      -5.292  39.277  20.933  1.00  0.00     0.000 C 
BRANCH  10  11
ATOM     11  C   UNL     1      -4.709  39.247  19.509  1.00  0.00     0.000 C 
BRANCH  11  12
ATOM     12  C   UNL     1      -3.662  38.148  19.247  1.00  0.00     0.006 C 
BRANCH  12  13
ATOM     13  C   UNL     1      -2.307  38.394  19.938  1.00  0.00     0.053 C 
BRANCH  13  14
ATOM     14  C   UNL     1      -1.189  38.596  18.960  1.00  0.00     0.041 C 
ATOM     15  O   UNL     1      -1.405  39.164  17.857  1.00  0.00    -0.550 OA
ATOM     16  O   UNL     1       0.102  38.202  19.288  1.00  0.00    -0.550 OA
ENDBRANCH  13  14
ENDBRANCH  12  13
ENDBRANCH  11  12
ENDBRANCH  10  11
ENDBRANCH   9  10
ENDBRANCH   8   9
ENDBRANCH   7   8
ENDBRANCH   6   7
ENDBRANCH   5   6
ENDBRANCH   4   5
ENDBRANCH   3   4
ENDBRANCH   2   3
ENDBRANCH   1   2
BRANCH   1  17
ATOM     17  C   UNL     1      -5.300  35.136  22.929  1.00  0.00     0.000 C 
BRANCH  17  18
ATOM     18  C   UNL     1      -5.078  36.360  22.028  1.00  0.00     0.000 C 
BRANCH  18  19
ATOM     19  C   UNL     1      -6.070  36.428  20.853  1.00  0.00     0.000 C 
BRANCH  19  20
ATOM     20  C   UNL     1      -6.056  35.203  19.918  1.00  0.00     0.000 C 
BRANCH  20  21
ATOM     21  C   UNL     1      -4.685  34.964  19.267  1.00  0.00     0.000 C 
BRANCH  21  22
ATOM     22  C   UNL     1      -4.714  35.338  17.777  1.00  0.00    -0.000 C 
BRANCH  22  23
ATOM     23  C   UNL     1      -3.624  36.355  17.392  1.00  0.00    -0.000 C 
BRANCH  23  24
ATOM     24  C   UNL     1      -2.816  36.002  16.131  1.00  0.00    -0.000 C 
BRANCH  24  25
ATOM     25  C   UNL     1      -1.892  37.144  15.673  1.00  0.00    -0.000 C 
BRANCH  25  26
ATOM     26  C   UNL     1      -2.086  37.501  14.191  1.00  0.00    -0.000 C 
BRANCH  26  27
ATOM     27  C   UNL     1      -3.485  38.069  13.894  1.00  0.00    -0.000 C 
BRANCH  27  28
ATOM     28  C   UNL     1      -3.542  39.603  14.006  1.00  0.00    -0.000 C 
BRANCH  28  29
ATOM     29  C   UNL     1      -4.958  40.202  13.933  1.00  0.00    -0.003 C 
ATOM     30  C   UNL     1      -4.958  41.729  13.904  1.00  0.00     0.004 C 
ENDBRANCH  28  29
ENDBRANCH  27  28
ENDBRANCH  26  27
ENDBRANCH  25  26
ENDBRANCH  24  25
ENDBRANCH  23  24
ENDBRANCH  22  23
ENDBRANCH  21  22
ENDBRANCH  20  21
ENDBRANCH  19  20
ENDBRANCH  18  19
ENDBRANCH  17  18
ENDBRANCH   1  17
TORSDOF 26
ENDMDL
MODEL 3
REMARK VINA RESULT:     1.724      2.022      4.617
REMARK INTER + INTRA:           3.296
REMARK INTER:                   4.437
REMARK INTRA:                  -1.142
REMARK UNBOUND:                -1.048
REMARK SMILES CCCCCCCCCCCCCCCCCCCCCCCCCCCC(=O)[O-]
REMARK SMILES IDX 15 1 16 2 17 3 18 4 19 5 20 6 21 7 22 8 23 9 24 10 25 11
REMARK SMILES IDX 26 12 27 13 28 14 29 15 30 16 14 17 13 18 12 19 11 20 10 21
REMARK SMILES IDX 9 22 8 23 7 24 6 25 5 26 4 27 3 28 2 29 1 30
REMARK H PARENT
REMARK Flexibility Score: inf
ROOT
ATOM      1  C   UNL     1      -5.147  37.137  22.525  1.00  0.00     0.000 C 
ENDROOT
BRANCH   1   2
ATOM      2  C   UNL     1      -5.773  35.898  23.188  1.00  0.00     0.000 C 
BRANCH   2   3
ATOM      3  C   UNL     1      -4.957  34.622  22.940  1.00  0.00     0.000 C 
BRANCH   3   4
ATOM      4  C   UNL     1      -3.530  34.962  22.486  1.00  0.00     0.000 C 
BRANCH   4   5
ATOM      5  C   UNL     1      -3.294  34.672  20.993  1.00  0.00     0.000 C 
BRANCH   5   6
ATOM      6  C   UNL     1      -3.412  35.901  20.067  1.00  0.00     0.000 C 
BRANCH   6   7
ATOM      7  C   UNL     1      -3.861  35.590  18.626  1.00  0.00     0.000 C 
BRANCH   7   8
ATOM      8  C   UNL     1      -4.228  36.822  17.774  1.00  0.00     0.000 C 
BRANCH   8   9
ATOM      9  C   UNL     1      -3.134  37.902  17.680  1.00  0.00     0.000 C 
BRANCH   9  10
ATOM     10  C   UNL     1      -1.715  37.311  17.625  1.00  0.00     0.000 C 
BRANCH  10  11
ATOM     11  C   UNL     1      -1.088  37.390  16.222  1.00  0.00     0.000 C 
BRANCH  11  12
ATOM     12  C   UNL     1      -2.010  36.973  15.061  1.00  0.00     0.006 C 
BRANCH  12  13
ATOM     13  C   UNL     1      -2.277  38.092  14.037  1.00  0.00     0.053 C 
BRANCH  13  14
ATOM     14  C   UNL     1      -3.705  38.548  14.039  1.00  0.00     0.041 C 
ATOM     15  O   UNL     1      -4.638  37.713  13.908  1.00  0.00    -0.550 OA
ATOM     16  O   UNL     1      -4.007  39.890  14.236  1.00  0.00    -0.550 OA
ENDBRANCH  13  14
ENDBRANCH  12  13
ENDBRANCH  11  12
ENDBRANCH  10  11
ENDBRANCH   9  10
ENDBRANCH   8   9
ENDBRANCH   7   8
ENDBRANCH   6   7
ENDBRANCH   5   6
ENDBRANCH   4   5
ENDBRANCH   3   4
ENDBRANCH   2   3
ENDBRANCH   1   2
BRANCH   1  17
ATOM     17  C   UNL     1      -5.808  37.487  21.184  1.00  0.00     0.000 C 
BRANCH  17  18
ATOM     18  C   UNL     1      -5.107  38.682  20.522  1.00  0.00     0.000 C 
BRANCH  18  19
ATOM     19  C   UNL     1      -5.853  40.011  20.740  1.00  0.00     0.000 C 
BRANCH  19  20
ATOM     20  C   UNL     1      -5.769  40.578  22.170  1.00  0.00     0.000 C 
BRANCH  20  21
ATOM     21  C   UNL     1      -4.330  40.642  22.704  1.00  0.00     0.000 C 
BRANCH  21  22
ATOM     22  C   UNL     1      -4.186  39.811  23.988  1.00  0.00    -0.000 C 
BRANCH  22  23
ATOM     23  C   UNL     1      -5.540  39.434  24.615  1.00  0.00    -0.000 C 
BRANCH  23  24
ATOM     24  C   UNL     1      -5.456  38.559  25.879  1.00  0.00    -0.000 C 
BRANCH  24  25
ATOM     25  C   UNL     1      -4.116  37.811  25.999  1.00  0.00    -0.000 C 
BRANCH  25  26
ATOM     26  C   UNL     1      -3.033  38.650  26.696  1.00  0.00    -0.000 C 
BRANCH  26  27
ATOM     27  C   UNL     1      -1.904  37.789  27.290  1.00  0.00    -0.000 C 
BRANCH  27  28
ATOM     28  C   UNL     1      -2.423  36.714  28.262  1.00  0.00    -0.000 C 
BRANCH  28  29
ATOM     29  C   UNL     1      -1.408  35.609  28.601  1.00  0.00    -0.003 C 
ATOM     30  C   UNL     1      -1.915  34.640  29.668  1.00  0.00     0.004 C 
ENDBRANCH  28  29
ENDBRANCH  27  28
ENDBRANCH  26  27
ENDBRANCH  25  26
ENDBRANCH  24  25
ENDBRANCH  23  24
ENDBRANCH  22  23
ENDBRANCH  21  22
ENDBRANCH  20  21
ENDBRANCH  19  20
ENDBRANCH  18  19
ENDBRANCH  17  18
ENDBRANCH   1  17
TORSDOF 26
ENDMDL
MODEL 4
REMARK VINA RESULT:     1.880      2.681      5.172
REMARK INTER + INTRA:           3.689
REMARK INTER:                   4.973
REMARK INTRA:                  -1.283
REMARK UNBOUND:                -1.048
REMARK SMILES CCCCCCCCCCCCCCCCCCCCCCCCCCCC(=O)[O-]
REMARK SMILES IDX 15 1 16 2 17 3 18 4 19 5 20 6 21 7 22 8 23 9 24 10 25 11
REMARK SMILES IDX 26 12 27 13 28 14 29 15 30 16 14 17 13 18 12 19 11 20 10 21
REMARK SMILES IDX 9 22 8 23 7 24 6 25 5 26 4 27 3 28 2 29 1 30
REMARK H PARENT
REMARK Flexibility Score: inf
ROOT
ATOM      1  C   UNL     1      -5.335  37.328  22.004  1.00  0.00     0.000 C 
ENDROOT
BRANCH   1   2
ATOM      2  C   UNL     1      -6.088  36.137  22.621  1.00  0.00     0.000 C 
BRANCH   2   3
ATOM      3  C   UNL     1      -5.143  35.022  23.089  1.00  0.00     0.000 C 
BRANCH   3   4
ATOM      4  C   UNL     1      -3.705  35.287  22.620  1.00  0.00     0.000 C 
BRANCH   4   5
ATOM      5  C   UNL     1      -3.393  34.639  21.258  1.00  0.00     0.000 C 
BRANCH   5   6
ATOM      6  C   UNL     1      -3.409  35.610  20.060  1.00  0.00     0.000 C 
BRANCH   6   7
ATOM      7  C   UNL     1      -4.274  35.156  18.867  1.00  0.00     0.000 C 
BRANCH   7   8
ATOM      8  C   UNL     1      -4.240  36.092  17.641  1.00  0.00     0.000 C 
BRANCH   8   9
ATOM      9  C   UNL     1      -3.109  35.810  16.633  1.00  0.00     0.000 C 
BRANCH   9  10
ATOM     10  C   UNL     1      -3.199  36.690  15.375  1.00  0.00     0.000 C 
BRANCH  10  11
ATOM     11  C   UNL     1      -2.082  37.745  15.301  1.00  0.00     0.000 C 
BRANCH  11  12
ATOM     12  C   UNL     1      -1.229  37.894  16.576  1.00  0.00     0.006 C 
BRANCH  12  13
ATOM     13  C   UNL     1      -1.975  38.536  17.760  1.00  0.00     0.053 C 
BRANCH  13  14
ATOM     14  C   UNL     1      -1.165  38.536  19.021  1.00  0.00     0.041 C 
ATOM     15  O   UNL     1      -1.695  38.860  20.117  1.00  0.00    -0.550 OA
ATOM     16  O   UNL     1       0.163  38.129  18.996  1.00  0.00    -0.550 OA
ENDBRANCH  13  14
ENDBRANCH  12  13
ENDBRANCH  11  12
ENDBRANCH  10  11
ENDBRANCH   9  10
ENDBRANCH   8   9
ENDBRANCH   7   8
ENDBRANCH   6   7
ENDBRANCH   5   6
ENDBRANCH   4   5
ENDBRANCH   3   4
ENDBRANCH   2   3
ENDBRANCH   1   2
BRANCH   1  17
ATOM     17  C   UNL     1      -5.777  37.625  20.564  1.00  0.00     0.000 C 
BRANCH  17  18
ATOM     18  C   UNL     1      -5.111  38.905  20.038  1.00  0.00     0.000 C 
BRANCH  18  19
ATOM     19  C   UNL     1      -5.882  40.182  20.417  1.00  0.00     0.000 C 
BRANCH  19  20
ATOM     20  C   UNL     1      -5.760  40.602  21.894  1.00  0.00     0.000 C 
BRANCH  20  21
ATOM     21  C   UNL     1      -4.403  40.231  22.511  1.00  0.00     0.000 C 
BRANCH  21  22
ATOM     22  C   UNL     1      -4.509  40.118  24.039  1.00  0.00    -0.000 C 
BRANCH  22  23
ATOM     23  C   UNL     1      -5.760  39.349  24.499  1.00  0.00    -0.000 C 
BRANCH  23  24
ATOM     24  C   UNL     1      -5.514  38.294  25.592  1.00  0.00    -0.000 C 
BRANCH  24  25
ATOM     25  C   UNL     1      -4.041  37.860  25.684  1.00  0.00    -0.000 C 
BRANCH  25  26
ATOM     26  C   UNL     1      -3.277  38.597  26.795  1.00  0.00    -0.000 C 
BRANCH  26  27
ATOM     27  C   UNL     1      -2.085  37.788  27.336  1.00  0.00    -0.000 C 
BRANCH  27  28
ATOM     28  C   UNL     1      -2.509  36.442  27.951  1.00  0.00    -0.000 C 
BRANCH  28  29
ATOM     29  C   UNL     1      -1.359  35.625  28.565  1.00  0.00    -0.003 C 
ATOM     30  C   UNL     1      -1.778  34.849  29.813  1.00  0.00     0.004 C 
ENDBRANCH  28  29
ENDBRANCH  27  28
ENDBRANCH  26  27
ENDBRANCH  25  26
ENDBRANCH  24  25
ENDBRANCH  23  24
ENDBRANCH  22  23
ENDBRANCH  21  22
ENDBRANCH  20  21
ENDBRANCH  19  20
ENDBRANCH  18  19
ENDBRANCH  17  18
ENDBRANCH   1  17
TORSDOF 26
ENDMDL
MODEL 5
REMARK VINA RESULT:     2.306      4.669      8.993
REMARK INTER + INTRA:           4.763
REMARK INTER:                   5.386
REMARK INTRA:                  -0.623
REMARK UNBOUND:                -1.048
REMARK SMILES CCCCCCCCCCCCCCCCCCCCCCCCCCCC(=O)[O-]
REMARK SMILES IDX 15 1 16 2 17 3 18 4 19 5 20 6 21 7 22 8 23 9 24 10 25 11
REMARK SMILES IDX 26 12 27 13 28 14 29 15 30 16 14 17 13 18 12 19 11 20 10 21
REMARK SMILES IDX 9 22 8 23 7 24 6 25 5 26 4 27 3 28 2 29 1 30
REMARK H PARENT
REMARK Flexibility Score: inf
ROOT
ATOM      1  C   UNL     1      -5.174  36.182  22.590  1.00  0.00     0.000 C 
ENDROOT
BRANCH   1   2
ATOM      2  C   UNL     1      -4.039  37.017  21.974  1.00  0.00     0.000 C 
BRANCH   2   3
ATOM      3  C   UNL     1      -4.554  38.274  21.259  1.00  0.00     0.000 C 
BRANCH   3   4
ATOM      4  C   UNL     1      -3.448  39.334  21.144  1.00  0.00     0.000 C 
BRANCH   4   5
ATOM      5  C   UNL     1      -3.363  40.244  22.382  1.00  0.00     0.000 C 
BRANCH   5   6
ATOM      6  C   UNL     1      -4.718  40.568  23.043  1.00  0.00     0.000 C 
BRANCH   6   7
ATOM      7  C   UNL     1      -4.796  40.263  24.553  1.00  0.00     0.000 C 
BRANCH   7   8
ATOM      8  C   UNL     1      -5.567  38.980  24.922  1.00  0.00     0.000 C 
BRANCH   8   9
ATOM      9  C   UNL     1      -5.099  38.284  26.214  1.00  0.00     0.000 C 
BRANCH   9  10
ATOM     10  C   UNL     1      -3.791  37.497  26.027  1.00  0.00     0.000 C 
BRANCH  10  11
ATOM     11  C   UNL     1      -2.591  38.152  26.732  1.00  0.00     0.000 C 
BRANCH  11  12
ATOM     12  C   UNL     1      -2.159  37.489  28.054  1.00  0.00     0.006 C 
BRANCH  12  13
ATOM     13  C   UNL     1      -2.451  35.978  28.124  1.00  0.00     0.053 C 
BRANCH  13  14
ATOM     14  C   UNL     1      -1.503  35.249  29.027  1.00  0.00     0.041 C 
ATOM     15  O   UNL     1      -1.932  34.652  30.050  1.00  0.00    -0.550 OA
ATOM     16  O   UNL     1      -0.151  35.185  28.713  1.00  0.00    -0.550 OA
ENDBRANCH  13  14
ENDBRANCH  12  13
ENDBRANCH  11  12
ENDBRANCH  10  11
ENDBRANCH   9  10
ENDBRANCH   8   9
ENDBRANCH   7   8
ENDBRANCH   6   7
ENDBRANCH   5   6
ENDBRANCH   4   5
ENDBRANCH   3   4
ENDBRANCH   2   3
ENDBRANCH   1   2
BRANCH   1  17
ATOM     17  C   UNL     1      -6.114  35.591  21.530  1.00  0.00     0.000 C 
BRANCH  17  18
ATOM     18  C   UNL     1      -5.884  36.251  20.163  1.00  0.00     0.000 C 
BRANCH  18  19
ATOM     19  C   UNL     1      -5.273  35.291  19.127  1.00  0.00     0.000 C 
BRANCH  19  20
ATOM     20  C   UNL     1      -4.236  35.927  18.181  1.00  0.00     0.000 C 
BRANCH  20  21
ATOM     21  C   UNL     1      -3.504  37.120  18.813  1.00  0.00     0.000 C 
BRANCH  21  22
ATOM     22  C   UNL     1      -3.196  38.194  17.759  1.00  0.00    -0.000 C 
BRANCH  22  23
ATOM     23  C   UNL     1      -1.721  38.195  17.316  1.00  0.00    -0.000 C 
BRANCH  23  24
ATOM     24  C   UNL     1      -1.302  37.004  16.436  1.00  0.00    -0.000 C 
BRANCH  24  25
ATOM     25  C   UNL     1      -1.805  37.126  14.986  1.00  0.00    -0.000 C 
BRANCH  25  26
ATOM     26  C   UNL     1      -3.331  36.983  14.877  1.00  0.00    -0.000 C 
BRANCH  26  27
ATOM     27  C   UNL     1      -3.951  37.972  13.875  1.00  0.00    -0.000 C 
BRANCH  27  28
ATOM     28  C   UNL     1      -3.710  39.442  14.262  1.00  0.00    -0.000 C 
BRANCH  28  29
ATOM     29  C   UNL     1      -4.847  40.405  13.875  1.00  0.00    -0.003 C 
ATOM     30  C   UNL     1      -4.608  41.835  14.357  1.00  0.00     0.004 C 
ENDBRANCH  28  29
ENDBRANCH  27  28
ENDBRANCH  26  27
ENDBRANCH  25  26
ENDBRANCH  24  25
ENDBRANCH  23  24
ENDBRANCH  22  23
ENDBRANCH  21  22
ENDBRANCH  20  21
ENDBRANCH  19  20
ENDBRANCH  18  19
ENDBRANCH  17  18
ENDBRANCH   1  17
TORSDOF 26
ENDMDL
MODEL 6
REMARK VINA RESULT:     2.647      4.740      8.794
REMARK INTER + INTRA:           5.622
REMARK INTER:                   6.226
REMARK INTRA:                  -0.604
REMARK UNBOUND:                -1.048
REMARK SMILES CCCCCCCCCCCCCCCCCCCCCCCCCCCC(=O)[O-]
REMARK SMILES IDX 15 1 16 2 17 3 18 4 19 5 20 6 21 7 22 8 23 9 24 10 25 11
REMARK SMILES IDX 26 12 27 13 28 14 29 15 30 16 14 17 13 18 12 19 11 20 10 21
REMARK SMILES IDX 9 22 8 23 7 24 6 25 5 26 4 27 3 28 2 29 1 30
REMARK H PARENT
REMARK Flexibility Score: inf
ROOT
ATOM      1  C   UNL     1      -3.890  37.345  21.146  1.00  0.00     0.000 C 
ENDROOT
BRANCH   1   2
ATOM      2  C   UNL     1      -4.061  38.871  21.053  1.00  0.00     0.000 C 
BRANCH   2   3
ATOM      3  C   UNL     1      -5.535  39.293  20.970  1.00  0.00     0.000 C 
BRANCH   3   4
ATOM      4  C   UNL     1      -5.737  40.700  21.551  1.00  0.00     0.000 C 
BRANCH   4   5
ATOM      5  C   UNL     1      -4.824  40.984  22.758  1.00  0.00     0.000 C 
BRANCH   5   6
ATOM      6  C   UNL     1      -4.737  39.838  23.787  1.00  0.00     0.000 C 
BRANCH   6   7
ATOM      7  C   UNL     1      -6.034  39.027  23.971  1.00  0.00     0.000 C 
BRANCH   7   8
ATOM      8  C   UNL     1      -6.066  38.115  25.214  1.00  0.00     0.000 C 
BRANCH   8   9
ATOM      9  C   UNL     1      -5.068  38.490  26.326  1.00  0.00     0.000 C 
BRANCH   9  10
ATOM     10  C   UNL     1      -3.817  37.595  26.333  1.00  0.00     0.000 C 
BRANCH  10  11
ATOM     11  C   UNL     1      -2.612  38.256  27.022  1.00  0.00     0.000 C 
BRANCH  11  12
ATOM     12  C   UNL     1      -1.682  37.298  27.790  1.00  0.00     0.006 C 
BRANCH  12  13
ATOM     13  C   UNL     1      -2.337  35.955  28.167  1.00  0.00     0.053 C 
BRANCH  13  14
ATOM     14  C   UNL     1      -1.583  35.226  29.238  1.00  0.00     0.041 C 
ATOM     15  O   UNL     1      -2.168  34.865  30.293  1.00  0.00    -0.550 OA
ATOM     16  O   UNL     1      -0.245  34.902  29.050  1.00  0.00    -0.550 OA
ENDBRANCH  13  14
ENDBRANCH  12  13
ENDBRANCH  11  12
ENDBRANCH  10  11
ENDBRANCH   9  10
ENDBRANCH   8   9
ENDBRANCH   7   8
ENDBRANCH   6   7
ENDBRANCH   5   6
ENDBRANCH   4   5
ENDBRANCH   3   4
ENDBRANCH   2   3
ENDBRANCH   1   2
BRANCH   1  17
ATOM     17  C   UNL     1      -4.974  36.681  22.006  1.00  0.00     0.000 C 
BRANCH  17  18
ATOM     18  C   UNL     1      -5.800  35.686  21.176  1.00  0.00     0.000 C 
BRANCH  18  19
ATOM     19  C   UNL     1      -5.958  36.116  19.707  1.00  0.00     0.000 C 
BRANCH  19  20
ATOM     20  C   UNL     1      -5.933  34.963  18.685  1.00  0.00     0.000 C 
BRANCH  20  21
ATOM     21  C   UNL     1      -4.552  34.762  18.043  1.00  0.00     0.000 C 
BRANCH  21  22
ATOM     22  C   UNL     1      -3.947  36.107  17.613  1.00  0.00    -0.000 C 
BRANCH  22  23
ATOM     23  C   UNL     1      -2.910  35.965  16.484  1.00  0.00    -0.000 C 
BRANCH  23  24
ATOM     24  C   UNL     1      -3.234  36.744  15.196  1.00  0.00    -0.000 C 
BRANCH  24  25
ATOM     25  C   UNL     1      -2.760  38.207  15.248  1.00  0.00    -0.000 C 
BRANCH  25  26
ATOM     26  C   UNL     1      -1.816  38.480  16.430  1.00  0.00    -0.000 C 
BRANCH  26  27
ATOM     27  C   UNL     1      -2.563  38.954  17.689  1.00  0.00    -0.000 C 
BRANCH  27  28
ATOM     28  C   UNL     1      -1.766  38.706  18.983  1.00  0.00    -0.000 C 
BRANCH  28  29
ATOM     29  C   UNL     1      -0.674  37.628  18.870  1.00  0.00    -0.003 C 
ATOM     30  C   UNL     1       0.740  38.204  18.917  1.00  0.00     0.004 C 
ENDBRANCH  28  29
ENDBRANCH  27  28
ENDBRANCH  26  27
ENDBRANCH  25  26
ENDBRANCH  24  25
ENDBRANCH  23  24
ENDBRANCH  22  23
ENDBRANCH  21  22
ENDBRANCH  20  21
ENDBRANCH  19  20
ENDBRANCH  18  19
ENDBRANCH  17  18
ENDBRANCH   1  17
TORSDOF 26
ENDMDL
MODEL 7
REMARK VINA RESULT:     2.703      3.850      7.756
REMARK INTER + INTRA:           5.764
REMARK INTER:                   5.585
REMARK INTRA:                   0.179
REMARK UNBOUND:                -1.048
REMARK SMILES CCCCCCCCCCCCCCCCCCCCCCCCCCCC(=O)[O-]
REMARK SMILES IDX 15 1 16 2 17 3 18 4 19 5 20 6 21 7 22 8 23 9 24 10 25 11
REMARK SMILES IDX 26 12 27 13 28 14 29 15 30 16 14 17 13 18 12 19 11 20 10 21
REMARK SMILES IDX 9 22 8 23 7 24 6 25 5 26 4 27 3 28 2 29 1 30
REMARK H PARENT
REMARK Flexibility Score: inf
ROOT
ATOM      1  C   UNL     1      -3.612  35.523  22.856  1.00  0.00     0.000 C 
ENDROOT
BRANCH   1   2
ATOM      2  C   UNL     1      -5.021  35.093  23.298  1.00  0.00     0.000 C 
BRANCH   2   3
ATOM      3  C   UNL     1      -6.113  35.569  22.330  1.00  0.00     0.000 C 
BRANCH   3   4
ATOM      4  C   UNL     1      -6.124  37.101  22.225  1.00  0.00     0.000 C 
BRANCH   4   5
ATOM      5  C   UNL     1      -5.680  37.607  20.841  1.00  0.00     0.000 C 
BRANCH   5   6
ATOM      6  C   UNL     1      -4.995  38.990  20.845  1.00  0.00     0.000 C 
BRANCH   6   7
ATOM      7  C   UNL     1      -3.806  39.124  21.817  1.00  0.00     0.000 C 
BRANCH   7   8
ATOM      8  C   UNL     1      -4.024  40.108  22.985  1.00  0.00     0.000 C 
BRANCH   8   9
ATOM      9  C   UNL     1      -5.417  40.051  23.639  1.00  0.00     0.000 C 
BRANCH   9  10
ATOM     10  C   UNL     1      -5.810  38.631  24.081  1.00  0.00     0.000 C 
BRANCH  10  11
ATOM     11  C   UNL     1      -5.655  38.412  25.596  1.00  0.00     0.000 C 
BRANCH  11  12
ATOM     12  C   UNL     1      -4.352  37.714  26.032  1.00  0.00     0.006 C 
BRANCH  12  13
ATOM     13  C   UNL     1      -3.135  38.655  26.121  1.00  0.00     0.053 C 
BRANCH  13  14
ATOM     14  C   UNL     1      -2.127  38.199  27.133  1.00  0.00     0.041 C 
ATOM     15  O   UNL     1      -1.193  38.965  27.488  1.00  0.00    -0.550 OA
ATOM     16  O   UNL     1      -2.249  36.947  27.722  1.00  0.00    -0.550 OA
ENDBRANCH  13  14
ENDBRANCH  12  13
ENDBRANCH  11  12
ENDBRANCH  10  11
ENDBRANCH   9  10
ENDBRANCH   8   9
ENDBRANCH   7   8
ENDBRANCH   6   7
ENDBRANCH   5   6
ENDBRANCH   4   5
ENDBRANCH   3   4
ENDBRANCH   2   3
ENDBRANCH   1   2
BRANCH   1  17
ATOM     17  C   UNL     1      -2.819  34.376  22.215  1.00  0.00     0.000 C 
BRANCH  17  18
ATOM     18  C   UNL     1      -2.767  34.530  20.688  1.00  0.00     0.000 C 
BRANCH  18  19
ATOM     19  C   UNL     1      -3.741  35.599  20.159  1.00  0.00     0.000 C 
BRANCH  19  20
ATOM     20  C   UNL     1      -4.921  35.052  19.333  1.00  0.00     0.000 C 
BRANCH  20  21
ATOM     21  C   UNL     1      -4.776  35.328  17.829  1.00  0.00     0.000 C 
BRANCH  21  22
ATOM     22  C   UNL     1      -3.470  36.080  17.533  1.00  0.00    -0.000 C 
BRANCH  22  23
ATOM     23  C   UNL     1      -3.667  37.603  17.420  1.00  0.00    -0.000 C 
BRANCH  23  24
ATOM     24  C   UNL     1      -2.379  38.439  17.533  1.00  0.00    -0.000 C 
BRANCH  24  25
ATOM     25  C   UNL     1      -1.119  37.650  17.136  1.00  0.00    -0.000 C 
BRANCH  25  26
ATOM     26  C   UNL     1      -1.319  36.823  15.857  1.00  0.00    -0.000 C 
BRANCH  26  27
ATOM     27  C   UNL     1      -1.726  37.685  14.649  1.00  0.00    -0.000 C 
BRANCH  27  28
ATOM     28  C   UNL     1      -2.978  37.151  13.930  1.00  0.00    -0.000 C 
BRANCH  28  29
ATOM     29  C   UNL     1      -4.179  38.113  13.930  1.00  0.00    -0.003 C 
ATOM     30  C   UNL     1      -3.803  39.538  14.334  1.00  0.00     0.004 C 
ENDBRANCH  28  29
ENDBRANCH  27  28
ENDBRANCH  26  27
ENDBRANCH  25  26
ENDBRANCH  24  25
ENDBRANCH  23  24
ENDBRANCH  22  23
ENDBRANCH  21  22
ENDBRANCH  20  21
ENDBRANCH  19  20
ENDBRANCH  18  19
ENDBRANCH  17  18
ENDBRANCH   1  17
TORSDOF 26
ENDMDL
MODEL 8
REMARK VINA RESULT:     2.791      3.778      7.776
REMARK INTER + INTRA:           5.986
REMARK INTER:                   7.107
REMARK INTRA:                  -1.121
REMARK UNBOUND:                -1.048
REMARK SMILES CCCCCCCCCCCCCCCCCCCCCCCCCCCC(=O)[O-]
REMARK SMILES IDX 15 1 16 2 17 3 18 4 19 5 20 6 21 7 22 8 23 9 24 10 25 11
REMARK SMILES IDX 26 12 27 13 28 14 29 15 30 16 14 17 13 18 12 19 11 20 10 21
REMARK SMILES IDX 9 22 8 23 7 24 6 25 5 26 4 27 3 28 2 29 1 30
REMARK H PARENT
REMARK Flexibility Score: inf
ROOT
ATOM      1  C   UNL     1      -3.885  35.704  22.810  1.00  0.00     0.000 C 
ENDROOT
BRANCH   1   2
ATOM      2  C   UNL     1      -5.414  35.543  22.764  1.00  0.00     0.000 C 
BRANCH   2   3
ATOM      3  C   UNL     1      -6.125  36.810  22.267  1.00  0.00     0.000 C 
BRANCH   3   4
ATOM      4  C   UNL     1      -5.982  36.960  20.746  1.00  0.00     0.000 C 
BRANCH   4   5
ATOM      5  C   UNL     1      -5.085  38.144  20.345  1.00  0.00     0.000 C 
BRANCH   5   6
ATOM      6  C   UNL     1      -5.781  39.521  20.366  1.00  0.00     0.000 C 
BRANCH   6   7
ATOM      7  C   UNL     1      -5.502  40.372  21.620  1.00  0.00     0.000 C 
BRANCH   7   8
ATOM      8  C   UNL     1      -4.194  40.032  22.364  1.00  0.00     0.000 C 
BRANCH   8   9
ATOM      9  C   UNL     1      -4.348  39.782  23.876  1.00  0.00     0.000 C 
BRANCH   9  10
ATOM     10  C   UNL     1      -5.733  39.232  24.253  1.00  0.00     0.000 C 
BRANCH  10  11
ATOM     11  C   UNL     1      -5.683  38.226  25.416  1.00  0.00     0.000 C 
BRANCH  11  12
ATOM     12  C   UNL     1      -4.274  37.747  25.814  1.00  0.00     0.006 C 
BRANCH  12  13
ATOM     13  C   UNL     1      -3.655  38.523  26.992  1.00  0.00     0.053 C 
BRANCH  13  14
ATOM     14  C   UNL     1      -2.248  38.098  27.287  1.00  0.00     0.041 C 
ATOM     15  O   UNL     1      -2.012  36.942  27.726  1.00  0.00    -0.550 OA
ATOM     16  O   UNL     1      -1.191  38.962  27.029  1.00  0.00    -0.550 OA
ENDBRANCH  13  14
ENDBRANCH  12  13
ENDBRANCH  11  12
ENDBRANCH  10  11
ENDBRANCH   9  10
ENDBRANCH   8   9
ENDBRANCH   7   8
ENDBRANCH   6   7
ENDBRANCH   5   6
ENDBRANCH   4   5
ENDBRANCH   3   4
ENDBRANCH   2   3
ENDBRANCH   1   2
BRANCH   1  17
ATOM     17  C   UNL     1      -3.170  34.873  21.736  1.00  0.00     0.000 C 
BRANCH  17  18
ATOM     18  C   UNL     1      -3.367  35.490  20.343  1.00  0.00     0.000 C 
BRANCH  18  19
ATOM     19  C   UNL     1      -4.271  34.639  19.432  1.00  0.00     0.000 C 
BRANCH  19  20
ATOM     20  C   UNL     1      -4.687  35.316  18.113  1.00  0.00     0.000 C 
BRANCH  20  21
ATOM     21  C   UNL     1      -3.506  35.962  17.374  1.00  0.00     0.000 C 
BRANCH  21  22
ATOM     22  C   UNL     1      -3.932  37.276  16.701  1.00  0.00    -0.000 C 
BRANCH  22  23
ATOM     23  C   UNL     1      -3.901  37.200  15.163  1.00  0.00    -0.000 C 
BRANCH  23  24
ATOM     24  C   UNL     1      -2.960  38.207  14.478  1.00  0.00    -0.000 C 
BRANCH  24  25
ATOM     25  C   UNL     1      -1.474  37.929  14.768  1.00  0.00    -0.000 C 
BRANCH  25  26
ATOM     26  C   UNL     1      -1.255  36.593  15.495  1.00  0.00    -0.000 C 
BRANCH  26  27
ATOM     27  C   UNL     1      -0.552  36.763  16.853  1.00  0.00    -0.000 C 
BRANCH  27  28
ATOM     28  C   UNL     1      -0.494  38.230  17.315  1.00  0.00    -0.000 C 
BRANCH  28  29
ATOM     29  C   UNL     1      -0.506  38.426  18.841  1.00  0.00    -0.003 C 
ATOM     30  C   UNL     1      -1.914  38.593  19.411  1.00  0.00     0.004 C 
ENDBRANCH  28  29
ENDBRANCH  27  28
ENDBRANCH  26  27
ENDBRANCH  25  26
ENDBRANCH  24  25
ENDBRANCH  23  24
ENDBRANCH  22  23
ENDBRANCH  21  22
ENDBRANCH  20  21
ENDBRANCH  19  20
ENDBRANCH  18  19
ENDBRANCH  17  18
ENDBRANCH   1  17
TORSDOF 26
ENDMDL
MODEL 9
REMARK VINA RESULT:     2.903      2.860      7.904
REMARK INTER + INTRA:           6.268
REMARK INTER:                   7.877
REMARK INTRA:                  -1.609
REMARK UNBOUND:                -1.048
REMARK SMILES CCCCCCCCCCCCCCCCCCCCCCCCCCCC(=O)[O-]
REMARK SMILES IDX 15 1 16 2 17 3 18 4 19 5 20 6 21 7 22 8 23 9 24 10 25 11
REMARK SMILES IDX 26 12 27 13 28 14 29 15 30 16 14 17 13 18 12 19 11 20 10 21
REMARK SMILES IDX 9 22 8 23 7 24 6 25 5 26 4 27 3 28 2 29 1 30
REMARK H PARENT
REMARK Flexibility Score: inf
ROOT
ATOM      1  C   UNL     1      -1.404  37.091  18.209  1.00  0.00     0.000 C 
ENDROOT
BRANCH   1   2
ATOM      2  C   UNL     1      -1.152  38.309  19.114  1.00  0.00     0.000 C 
BRANCH   2   3
ATOM      3  C   UNL     1      -2.441  39.077  19.439  1.00  0.00     0.000 C 
BRANCH   3   4
ATOM      4  C   UNL     1      -3.666  38.379  18.831  1.00  0.00     0.000 C 
BRANCH   4   5
ATOM      5  C   UNL     1      -4.493  37.608  19.876  1.00  0.00     0.000 C 
BRANCH   5   6
ATOM      6  C   UNL     1      -4.939  36.198  19.438  1.00  0.00     0.000 C 
BRANCH   6   7
ATOM      7  C   UNL     1      -5.138  35.191  20.588  1.00  0.00     0.000 C 
BRANCH   7   8
ATOM      8  C   UNL     1      -4.414  35.548  21.902  1.00  0.00     0.000 C 
BRANCH   8   9
ATOM      9  C   UNL     1      -5.264  36.320  22.928  1.00  0.00     0.000 C 
BRANCH   9  10
ATOM     10  C   UNL     1      -4.850  36.034  24.382  1.00  0.00     0.000 C 
BRANCH  10  11
ATOM     11  C   UNL     1      -5.466  37.024  25.386  1.00  0.00     0.000 C 
BRANCH  11  12
ATOM     12  C   UNL     1      -4.718  38.362  25.538  1.00  0.00     0.006 C 
BRANCH  12  13
ATOM     13  C   UNL     1      -3.680  38.631  24.432  1.00  0.00     0.053 C 
BRANCH  13  14
ATOM     14  C   UNL     1      -4.127  39.686  23.465  1.00  0.00     0.041 C 
ATOM     15  O   UNL     1      -4.974  40.549  23.815  1.00  0.00    -0.550 OA
ATOM     16  O   UNL     1      -3.571  39.747  22.194  1.00  0.00    -0.550 OA
ENDBRANCH  13  14
ENDBRANCH  12  13
ENDBRANCH  11  12
ENDBRANCH  10  11
ENDBRANCH   9  10
ENDBRANCH   8   9
ENDBRANCH   7   8
ENDBRANCH   6   7
ENDBRANCH   5   6
ENDBRANCH   4   5
ENDBRANCH   3   4
ENDBRANCH   2   3
ENDBRANCH   1   2
BRANCH   1  17
ATOM     17  C   UNL     1      -0.611  37.156  16.896  1.00  0.00     0.000 C 
BRANCH  17  18
ATOM     18  C   UNL     1      -1.152  36.143  15.877  1.00  0.00     0.000 C 
BRANCH  18  19
ATOM     19  C   UNL     1      -2.689  36.151  15.781  1.00  0.00     0.000 C 
BRANCH  19  20
ATOM     20  C   UNL     1      -3.261  36.904  14.566  1.00  0.00     0.000 C 
BRANCH  20  21
ATOM     21  C   UNL     1      -2.966  38.410  14.602  1.00  0.00     0.000 C 
BRANCH  21  22
ATOM     22  C   UNL     1      -4.269  39.224  14.622  1.00  0.00    -0.000 C 
BRANCH  22  23
ATOM     23  C   UNL     1      -4.150  40.565  13.875  1.00  0.00    -0.000 C 
BRANCH  23  24
ATOM     24  C   UNL     1      -5.370  41.495  14.004  1.00  0.00    -0.000 C 
BRANCH  24  25
ATOM     25  C   UNL     1      -5.057  42.788  14.777  1.00  0.00    -0.000 C 
BRANCH  25  26
ATOM     26  C   UNL     1      -6.123  43.116  15.834  1.00  0.00    -0.000 C 
BRANCH  26  27
ATOM     27  C   UNL     1      -5.561  43.117  17.266  1.00  0.00    -0.000 C 
BRANCH  27  28
ATOM     28  C   UNL     1      -6.086  41.944  18.114  1.00  0.00    -0.000 C 
BRANCH  28  29
ATOM     29  C   UNL     1      -6.045  42.180  19.634  1.00  0.00    -0.003 C 
ATOM     30  C   UNL     1      -5.549  40.962  20.413  1.00  0.00     0.004 C 
ENDBRANCH  28  29
ENDBRANCH  27  28
ENDBRANCH  26  27
ENDBRANCH  25  26
ENDBRANCH  24  25
ENDBRANCH  23  24
ENDBRANCH  22  23
ENDBRANCH  21  22
ENDBRANCH  20  21
ENDBRANCH  19  20
ENDBRANCH  18  19
ENDBRANCH  17  18
ENDBRANCH   1  17
TORSDOF 26
ENDMDL
