MODEL 1
REMARK VINA RESULT:    -4.017      0.000      0.000
REMARK INTER + INTRA:          -5.135
REMARK INTER:                  -4.957
REMARK INTRA:                  -0.178
REMARK UNBOUND:                -0.178
REMARK SMILES CCCCCC(C)=O
REMARK SMILES IDX 4 1 3 2 2 3 1 4 5 5 6 6 8 7 7 8
REMARK H PARENT
REMARK Flexibility Score: inf
ROOT
ATOM      1  C   UNL     1     116.985 117.009 113.859  1.00  0.00     0.008 C 
ENDROOT
BRANCH   1   2
ATOM      2  C   UNL     1     116.236 116.287 114.990  1.00  0.00     0.000 C 
BRANCH   2   3
ATOM      3  C   UNL     1     116.265 117.070 116.310  1.00  0.00    -0.003 C 
ATOM      4  C   UNL     1     117.669 117.082 116.910  1.00  0.00     0.004 C 
ENDBRANCH   2   3
ENDBRANCH   1   2
BRANCH   1   5
ATOM      5  C   UNL     1     117.143 116.139 112.604  1.00  0.00     0.075 C 
BRANCH   5   6
ATOM      6  C   UNL     1     115.814 115.930 111.930  1.00  0.00     0.129 C 
ATOM      7  O   UNL     1     115.387 114.796 111.770  1.00  0.00    -0.300 OA
ATOM      8  C   UNL     1     115.021 117.100 111.434  1.00  0.00     0.087 C 
ENDBRANCH   5   6
ENDBRANCH   1   5
TORSDOF 4
ENDMDL
MODEL 2
REMARK VINA RESULT:    -3.993      1.954      2.354
REMARK INTER + INTRA:          -5.104
REMARK INTER:                  -4.934
REMARK INTRA:                  -0.170
REMARK UNBOUND:                -0.178
REMARK SMILES CCCCCC(C)=O
REMARK SMILES IDX 4 1 3 2 2 3 1 4 5 5 6 6 8 7 7 8
REMARK H PARENT
REMARK Flexibility Score: inf
ROOT
ATOM      1  C   UNL     1     116.180 116.206 113.828  1.00  0.00     0.008 C 
ENDROOT
BRANCH   1   2
ATOM      2  C   UNL     1     116.979 116.856 114.968  1.00  0.00     0.000 C 
BRANCH   2   3
ATOM      3  C   UNL     1     116.913 116.047 116.271  1.00  0.00    -0.003 C 
ATOM      4  C   UNL     1     115.742 116.498 117.140  1.00  0.00     0.004 C 
ENDBRANCH   2   3
ENDBRANCH   1   2
BRANCH   1   5
ATOM      5  C   UNL     1     116.109 117.090 112.576  1.00  0.00     0.075 C 
BRANCH   5   6
ATOM      6  C   UNL     1     117.462 117.209 111.930  1.00  0.00     0.129 C 
ATOM      7  O   UNL     1     117.969 118.311 111.782  1.00  0.00    -0.300 OA
ATOM      8  C   UNL     1     118.184 115.988 111.448  1.00  0.00     0.087 C 
ENDBRANCH   5   6
ENDBRANCH   1   5
TORSDOF 4
ENDMDL
MODEL 3
REMARK VINA RESULT:    -3.986      1.357      1.421
REMARK INTER + INTRA:          -5.096
REMARK INTER:                  -4.957
REMARK INTRA:                  -0.139
REMARK UNBOUND:                -0.178
REMARK SMILES CCCCCC(C)=O
REMARK SMILES IDX 4 1 3 2 2 3 1 4 5 5 6 6 8 7 7 8
REMARK H PARENT
REMARK Flexibility Score: inf
ROOT
ATOM      1  C   UNL     1     117.021 116.252 113.772  1.00  0.00     0.008 C 
ENDROOT
BRANCH   1   2
ATOM      2  C   UNL     1     116.272 116.924 114.933  1.00  0.00     0.000 C 
BRANCH   2   3
ATOM      3  C   UNL     1     116.615 116.303 116.295  1.00  0.00    -0.003 C 
ATOM      4  C   UNL     1     117.678 117.123 117.021  1.00  0.00     0.004 C 
ENDBRANCH   2   3
ENDBRANCH   1   2
BRANCH   1   5
ATOM      5  C   UNL     1     116.102 115.920 112.589  1.00  0.00     0.075 C 
BRANCH   5   6
ATOM      6  C   UNL     1     115.790 117.158 111.793  1.00  0.00     0.129 C 
ATOM      7  O   UNL     1     114.644 117.369 111.425  1.00  0.00    -0.300 OA
ATOM      8  C   UNL     1     116.877 118.123 111.431  1.00  0.00     0.087 C 
ENDBRANCH   5   6
ENDBRANCH   1   5
TORSDOF 4
ENDMDL
MODEL 4
REMARK VINA RESULT:    -3.856      2.335      4.572
REMARK INTER + INTRA:          -4.936
REMARK INTER:                  -4.850
REMARK INTRA:                  -0.085
REMARK UNBOUND:                -0.178
REMARK SMILES CCCCCC(C)=O
REMARK SMILES IDX 4 1 3 2 2 3 1 4 5 5 6 6 8 7 7 8
REMARK H PARENT
REMARK Flexibility Score: inf
ROOT
ATOM      1  C   UNL     1     116.282 116.476 114.517  1.00  0.00     0.008 C 
ENDROOT
BRANCH   1   2
ATOM      2  C   UNL     1     116.997 117.010 113.267  1.00  0.00     0.000 C 
BRANCH   2   3
ATOM      3  C   UNL     1     117.094 115.961 112.150  1.00  0.00    -0.003 C 
ATOM      4  C   UNL     1     115.716 115.412 111.790  1.00  0.00     0.004 C 
ENDBRANCH   2   3
ENDBRANCH   1   2
BRANCH   1   5
ATOM      5  C   UNL     1     117.026 116.818 115.815  1.00  0.00     0.075 C 
BRANCH   5   6
ATOM      6  C   UNL     1     116.673 115.843 116.905  1.00  0.00     0.129 C 
ATOM      7  O   UNL     1     117.526 115.080 117.335  1.00  0.00    -0.300 OA
ATOM      8  C   UNL     1     115.280 115.786 117.452  1.00  0.00     0.087 C 
ENDBRANCH   5   6
ENDBRANCH   1   5
TORSDOF 4
ENDMDL
MODEL 5
REMARK VINA RESULT:    -3.839      2.377      4.612
REMARK INTER + INTRA:          -4.915
REMARK INTER:                  -4.787
REMARK INTRA:                  -0.128
REMARK UNBOUND:                -0.178
REMARK SMILES CCCCCC(C)=O
REMARK SMILES IDX 4 1 3 2 2 3 1 4 5 5 6 6 8 7 7 8
REMARK H PARENT
REMARK Flexibility Score: inf
ROOT
ATOM      1  C   UNL     1     116.986 116.589 114.367  1.00  0.00     0.008 C 
ENDROOT
BRANCH   1   2
ATOM      2  C   UNL     1     116.053 116.996 113.216  1.00  0.00     0.000 C 
BRANCH   2   3
ATOM      3  C   UNL     1     116.287 116.168 111.945  1.00  0.00    -0.003 C 
ATOM      4  C   UNL     1     117.742 115.718 111.844  1.00  0.00     0.004 C 
ENDBRANCH   2   3
ENDBRANCH   1   2
BRANCH   1   5
ATOM      5  C   UNL     1     116.228 116.304 115.671  1.00  0.00     0.075 C 
BRANCH   5   6
ATOM      6  C   UNL     1     116.583 117.315 116.726  1.00  0.00     0.129 C 
ATOM      7  O   UNL     1     115.749 118.134 117.086  1.00  0.00    -0.300 OA
ATOM      8  C   UNL     1     117.955 117.340 117.325  1.00  0.00     0.087 C 
ENDBRANCH   5   6
ENDBRANCH   1   5
TORSDOF 4
ENDMDL
MODEL 6
REMARK VINA RESULT:    -3.809      2.227      4.553
REMARK INTER + INTRA:          -4.877
REMARK INTER:                  -4.789
REMARK INTRA:                  -0.088
REMARK UNBOUND:                -0.178
REMARK SMILES CCCCCC(C)=O
REMARK SMILES IDX 4 1 3 2 2 3 1 4 5 5 6 6 8 7 7 8
REMARK H PARENT
REMARK Flexibility Score: inf
ROOT
ATOM      1  C   UNL     1     116.398 116.286 114.649  1.00  0.00     0.008 C 
ENDROOT
BRANCH   1   2
ATOM      2  C   UNL     1     116.933 116.960 113.376  1.00  0.00     0.000 C 
BRANCH   2   3
ATOM      3  C   UNL     1     115.953 116.862 112.199  1.00  0.00    -0.003 C 
ATOM      4  C   UNL     1     115.653 115.406 111.854  1.00  0.00     0.004 C 
ENDBRANCH   2   3
ENDBRANCH   1   2
BRANCH   1   5
ATOM      5  C   UNL     1     117.027 116.854 115.928  1.00  0.00     0.075 C 
BRANCH   5   6
ATOM      6  C   UNL     1     115.975 117.103 116.975  1.00  0.00     0.129 C 
ATOM      7  O   UNL     1     115.255 116.186 117.340  1.00  0.00    -0.300 OA
ATOM      8  C   UNL     1     115.791 118.471 117.556  1.00  0.00     0.087 C 
ENDBRANCH   5   6
ENDBRANCH   1   5
TORSDOF 4
ENDMDL
MODEL 7
REMARK VINA RESULT:    -3.769      2.337      4.628
REMARK INTER + INTRA:          -4.828
REMARK INTER:                  -4.687
REMARK INTRA:                  -0.141
REMARK UNBOUND:                -0.178
REMARK SMILES CCCCCC(C)=O
REMARK SMILES IDX 4 1 3 2 2 3 1 4 5 5 6 6 8 7 7 8
REMARK H PARENT
REMARK Flexibility Score: inf
ROOT
ATOM      1  C   UNL     1     117.065 116.788 115.185  1.00  0.00     0.008 C 
ENDROOT
BRANCH   1   2
ATOM      2  C   UNL     1     116.265 116.352 113.948  1.00  0.00     0.000 C 
BRANCH   2   3
ATOM      3  C   UNL     1     116.711 117.077 112.671  1.00  0.00    -0.003 C 
ATOM      4  C   UNL     1     115.508 117.549 111.858  1.00  0.00     0.004 C 
ENDBRANCH   2   3
ENDBRANCH   1   2
BRANCH   1   5
ATOM      5  C   UNL     1     116.167 117.115 116.386  1.00  0.00     0.075 C 
BRANCH   5   6
ATOM      6  C   UNL     1     115.880 115.877 117.190  1.00  0.00     0.129 C 
ATOM      7  O   UNL     1     114.723 115.533 117.382  1.00  0.00    -0.300 OA
ATOM      8  C   UNL     1     117.001 115.074 117.774  1.00  0.00     0.087 C 
ENDBRANCH   5   6
ENDBRANCH   1   5
TORSDOF 4
ENDMDL
MODEL 8
REMARK VINA RESULT:    -3.757      2.294      4.866
REMARK INTER + INTRA:          -4.813
REMARK INTER:                  -4.707
REMARK INTRA:                  -0.106
REMARK UNBOUND:                -0.178
REMARK SMILES CCCCCC(C)=O
REMARK SMILES IDX 4 1 3 2 2 3 1 4 5 5 6 6 8 7 7 8
REMARK H PARENT
REMARK Flexibility Score: inf
ROOT
ATOM      1  C   UNL     1     116.461 116.242 115.022  1.00  0.00     0.008 C 
ENDROOT
BRANCH   1   2
ATOM      2  C   UNL     1     116.953 116.949 113.750  1.00  0.00     0.000 C 
BRANCH   2   3
ATOM      3  C   UNL     1     116.277 116.415 112.479  1.00  0.00    -0.003 C 
ATOM      4  C   UNL     1     115.465 117.508 111.789  1.00  0.00     0.004 C 
ENDBRANCH   2   3
ENDBRANCH   1   2
BRANCH   1   5
ATOM      5  C   UNL     1     116.561 117.131 116.269  1.00  0.00     0.075 C 
BRANCH   5   6
ATOM      6  C   UNL     1     117.619 116.617 117.206  1.00  0.00     0.129 C 
ATOM      7  O   UNL     1     117.633 115.435 117.515  1.00  0.00    -0.300 OA
ATOM      8  C   UNL     1     118.642 117.548 117.780  1.00  0.00     0.087 C 
ENDBRANCH   5   6
ENDBRANCH   1   5
TORSDOF 4
ENDMDL
MODEL 9
REMARK VINA RESULT:    -3.754      2.779      4.914
REMARK INTER + INTRA:          -4.810
REMARK INTER:                  -4.726
REMARK INTRA:                  -0.084
REMARK UNBOUND:                -0.178
REMARK SMILES CCCCCC(C)=O
REMARK SMILES IDX 4 1 3 2 2 3 1 4 5 5 6 6 8 7 7 8
REMARK H PARENT
REMARK Flexibility Score: inf
ROOT
ATOM      1  C   UNL     1     116.853 116.884 115.118  1.00  0.00     0.008 C 
ENDROOT
BRANCH   1   2
ATOM      2  C   UNL     1     116.332 116.260 113.814  1.00  0.00     0.000 C 
BRANCH   2   3
ATOM      3  C   UNL     1     116.957 116.894 112.564  1.00  0.00    -0.003 C 
ATOM      4  C   UNL     1     117.728 115.859 111.749  1.00  0.00     0.004 C 
ENDBRANCH   2   3
ENDBRANCH   1   2
BRANCH   1   5
ATOM      5  C   UNL     1     116.265 116.218 116.369  1.00  0.00     0.075 C 
BRANCH   5   6
ATOM      6  C   UNL     1     117.353 115.870 117.348  1.00  0.00     0.129 C 
ATOM      7  O   UNL     1     117.961 116.762 117.921  1.00  0.00    -0.300 OA
ATOM      8  C   UNL     1     117.710 114.439 117.610  1.00  0.00     0.087 C 
ENDBRANCH   5   6
ENDBRANCH   1   5
TORSDOF 4
ENDMDL
