MODEL 1
REMARK VINA RESULT:     0.551      0.000      0.000
REMARK INTER + INTRA:           0.710
REMARK INTER:                   0.599
REMARK INTRA:                   0.111
REMARK UNBOUND:                 0.111
REMARK SMILES CC1(C)CC[C@]2(C(=O)[O-])CC[C@@]3(C)C(=CC[C@@H]4[C@]5(C)CC[C@@H](O)C(C)(C)[C@@H]5CC[C@@]43C)[C@@H]2C1
REMARK SMILES IDX 6 1 5 2 10 3 32 4 4 5 11 6 14 7 33 8 2 9 12 10 15 11 1 12
REMARK SMILES IDX 3 13 13 14 30 15 16 16 17 17 29 18 31 19 18 20 28 21 27 22
REMARK SMILES IDX 20 23 19 24 24 25 21 26 22 27 25 28 26 29 7 30 8 31 9 32
REMARK SMILES IDX 23 33
REMARK H PARENT 23 34
REMARK Flexibility Score: inf
ROOT
ATOM      1  C   UNL     1      99.501 112.135 110.153  1.00  0.00     0.017 C 
ATOM      2  C   UNL     1     100.363 113.112 111.003  1.00  0.00     0.014 C 
ATOM      3  C   UNL     1      98.880 112.951 108.980  1.00  0.00     0.014 C 
ATOM      4  C   UNL     1      98.337 111.479 111.022  1.00  0.00     0.028 C 
ATOM      5  C   UNL     1     100.861 112.460 112.302  1.00  0.00     0.007 C 
ATOM      6  C   UNL     1      97.946 112.110 108.074  1.00  0.00     0.013 C 
ATOM      7  C   UNL     1      96.962 111.592 110.302  1.00  0.00    -0.064 C 
ATOM      8  C   UNL     1      98.328 112.005 112.489  1.00  0.00     0.015 C 
ATOM      9  C   UNL     1      99.706 111.922 113.208  1.00  0.00    -0.035 C 
ATOM     10  C   UNL     1      96.923 111.165 108.828  1.00  0.00    -0.006 C 
ATOM     11  C   UNL     1      95.955 112.313 110.835  1.00  0.00    -0.027 C 
ATOM     12  C   UNL     1      99.993 110.463 113.629  1.00  0.00     0.011 C 
ATOM     13  C   UNL     1      99.627 112.775 114.494  1.00  0.00     0.011 C 
ATOM     14  C   UNL     1      97.441 109.689 108.749  1.00  0.00     0.017 C 
ATOM     15  C   UNL     1      95.448 111.230 108.161  1.00  0.00    -0.020 C 
ATOM     16  C   UNL     1      94.673 112.628 110.143  1.00  0.00     0.032 C 
ATOM     17  C   UNL     1      94.702 112.544 108.590  1.00  0.00     0.006 C 
ATOM     18  C   UNL     1      94.552 110.030 108.629  1.00  0.00     0.008 C 
ATOM     19  C   UNL     1      95.629 111.154 106.598  1.00  0.00     0.012 C 
ATOM     20  C   UNL     1      93.241 112.742 107.911  1.00  0.00    -0.025 C 
ATOM     21  C   UNL     1      93.014 110.250 108.575  1.00  0.00     0.005 C 
ATOM     22  C   UNL     1      92.547 111.343 107.573  1.00  0.00     0.003 C 
ATOM     23  C   UNL     1      92.312 113.596 108.850  1.00  0.00     0.010 C 
ATOM     24  C   UNL     1      93.439 113.568 106.593  1.00  0.00     0.012 C 
ATOM     25  C   UNL     1      90.966 111.375 107.322  1.00  0.00    -0.006 C 
ATOM     26  C   UNL     1      90.846 113.672 108.430  1.00  0.00     0.033 C 
ATOM     27  C   UNL     1      90.241 112.273 108.367  1.00  0.00     0.120 C 
ATOM     28  C   UNL     1      90.345 109.952 107.403  1.00  0.00     0.014 C 
ATOM     29  C   UNL     1      90.658 111.865 105.875  1.00  0.00     0.014 C 
ENDROOT
BRANCH   1  30
ATOM     30  C   UNL     1     100.459 111.087 109.583  1.00  0.00     0.048 C 
ATOM     31  O   UNL     1     100.167 109.861 109.631  1.00  0.00    -0.550 OA
ATOM     32  O   UNL     1     101.613 111.465 108.905  1.00  0.00    -0.550 OA
ENDBRANCH   1  30
BRANCH  27  33
ATOM     33  O   UNL     1      88.872 112.398 108.068  1.00  0.00    -0.393 OA
ATOM     34  H   UNL     1      88.759 113.229 107.534  1.00  0.00     0.210 HD
ENDBRANCH  27  33
TORSDOF 2
ENDMDL
MODEL 2
REMARK VINA RESULT:     0.650      2.887      8.596
REMARK INTER + INTRA:           0.819
REMARK INTER:                   1.062
REMARK INTRA:                  -0.243
REMARK UNBOUND:                 0.111
REMARK SMILES CC1(C)CC[C@]2(C(=O)[O-])CC[C@@]3(C)C(=CC[C@@H]4[C@]5(C)CC[C@@H](O)C(C)(C)[C@@H]5CC[C@@]43C)[C@@H]2C1
REMARK SMILES IDX 6 1 5 2 10 3 32 4 4 5 11 6 14 7 33 8 2 9 12 10 15 11 1 12
REMARK SMILES IDX 3 13 13 14 30 15 16 16 17 17 29 18 31 19 18 20 28 21 27 22
REMARK SMILES IDX 20 23 19 24 24 25 21 26 22 27 25 28 26 29 7 30 8 31 9 32
REMARK SMILES IDX 23 33
REMARK H PARENT 23 34
REMARK Flexibility Score: inf
ROOT
ATOM      1  C   UNL     1      95.542 111.736 108.977  1.00  0.00     0.017 C 
ATOM      2  C   UNL     1      95.683 112.036 107.457  1.00  0.00     0.014 C 
ATOM      3  C   UNL     1      95.751 113.075 109.745  1.00  0.00     0.014 C 
ATOM      4  C   UNL     1      96.622 110.669 109.463  1.00  0.00     0.028 C 
ATOM      5  C   UNL     1      95.696 110.751 106.615  1.00  0.00     0.007 C 
ATOM      6  C   UNL     1      95.690 112.917 111.285  1.00  0.00     0.013 C 
ATOM      7  C   UNL     1      97.367 111.158 110.738  1.00  0.00    -0.064 C 
ATOM      8  C   UNL     1      97.570 110.222 108.309  1.00  0.00     0.015 C 
ATOM      9  C   UNL     1      96.834 109.758 107.019  1.00  0.00    -0.035 C 
ATOM     10  C   UNL     1      96.491 111.688 111.883  1.00  0.00    -0.006 C 
ATOM     11  C   UNL     1      98.693 111.402 110.719  1.00  0.00    -0.027 C 
ATOM     12  C   UNL     1      96.255 108.339 107.224  1.00  0.00     0.011 C 
ATOM     13  C   UNL     1      97.873 109.679 105.877  1.00  0.00     0.011 C 
ATOM     14  C   UNL     1      95.476 110.558 112.264  1.00  0.00     0.017 C 
ATOM     15  C   UNL     1      97.321 112.105 113.210  1.00  0.00    -0.020 C 
ATOM     16  C   UNL     1      99.459 112.040 111.828  1.00  0.00     0.032 C 
ATOM     17  C   UNL     1      98.623 112.894 112.824  1.00  0.00     0.006 C 
ATOM     18  C   UNL     1      97.781 110.843 114.021  1.00  0.00     0.008 C 
ATOM     19  C   UNL     1      96.367 112.974 114.113  1.00  0.00     0.012 C 
ATOM     20  C   UNL     1      99.489 113.426 114.091  1.00  0.00    -0.025 C 
ATOM     21  C   UNL     1      99.027 111.022 114.933  1.00  0.00     0.005 C 
ATOM     22  C   UNL     1      99.310 112.486 115.371  1.00  0.00     0.003 C 
ATOM     23  C   UNL     1     101.010 113.538 113.707  1.00  0.00     0.010 C 
ATOM     24  C   UNL     1      98.996 114.876 114.425  1.00  0.00     0.012 C 
ATOM     25  C   UNL     1     100.417 112.628 116.518  1.00  0.00    -0.006 C 
ATOM     26  C   UNL     1     101.960 113.818 114.868  1.00  0.00     0.033 C 
ATOM     27  C   UNL     1     101.852 112.716 115.919  1.00  0.00     0.120 C 
ATOM     28  C   UNL     1     100.384 111.422 117.499  1.00  0.00     0.014 C 
ATOM     29  C   UNL     1     100.120 113.874 117.406  1.00  0.00     0.014 C 
ENDROOT
BRANCH   1  30
ATOM     30  C   UNL     1      94.108 111.250 109.196  1.00  0.00     0.048 C 
ATOM     31  O   UNL     1      93.877 110.037 109.452  1.00  0.00    -0.550 OA
ATOM     32  O   UNL     1      93.045 112.146 109.230  1.00  0.00    -0.550 OA
ENDBRANCH   1  30
BRANCH  27  33
ATOM     33  O   UNL     1     102.808 112.966 116.921  1.00  0.00    -0.393 OA
ATOM     34  H   UNL     1     103.561 112.335 116.777  1.00  0.00     0.210 HD
ENDBRANCH  27  33
TORSDOF 2
ENDMDL
MODEL 3
REMARK VINA RESULT:     1.561      1.616      8.199
REMARK INTER + INTRA:           1.810
REMARK INTER:                   1.162
REMARK INTRA:                   0.648
REMARK UNBOUND:                 0.111
REMARK SMILES CC1(C)CC[C@]2(C(=O)[O-])CC[C@@]3(C)C(=CC[C@@H]4[C@]5(C)CC[C@@H](O)C(C)(C)[C@@H]5CC[C@@]43C)[C@@H]2C1
REMARK SMILES IDX 6 1 5 2 10 3 32 4 4 5 11 6 14 7 33 8 2 9 12 10 15 11 1 12
REMARK SMILES IDX 3 13 13 14 30 15 16 16 17 17 29 18 31 19 18 20 28 21 27 22
REMARK SMILES IDX 20 23 19 24 24 25 21 26 22 27 25 28 26 29 7 30 8 31 9 32
REMARK SMILES IDX 23 33
REMARK H PARENT 23 34
REMARK Flexibility Score: inf
ROOT
ATOM      1  C   UNL     1      91.936 111.710 107.905  1.00  0.00     0.017 C 
ATOM      2  C   UNL     1      90.668 111.746 108.806  1.00  0.00     0.014 C 
ATOM      3  C   UNL     1      92.833 110.536 108.399  1.00  0.00     0.014 C 
ATOM      4  C   UNL     1      92.750 113.076 107.989  1.00  0.00     0.028 C 
ATOM      5  C   UNL     1      89.807 112.990 108.538  1.00  0.00     0.007 C 
ATOM      6  C   UNL     1      94.166 110.411 107.620  1.00  0.00     0.013 C 
ATOM      7  C   UNL     1      94.262 112.818 108.254  1.00  0.00    -0.064 C 
ATOM      8  C   UNL     1      92.099 114.091 108.978  1.00  0.00     0.015 C 
ATOM      9  C   UNL     1      90.581 114.334 108.739  1.00  0.00    -0.035 C 
ATOM     10  C   UNL     1      94.944 111.768 107.366  1.00  0.00    -0.006 C 
ATOM     11  C   UNL     1      94.853 113.246 109.389  1.00  0.00    -0.027 C 
ATOM     12  C   UNL     1      90.382 115.252 107.511  1.00  0.00     0.011 C 
ATOM     13  C   UNL     1      90.014 115.072 109.972  1.00  0.00     0.011 C 
ATOM     14  C   UNL     1      94.735 112.202 105.875  1.00  0.00     0.017 C 
ATOM     15  C   UNL     1      96.533 111.606 107.637  1.00  0.00    -0.020 C 
ATOM     16  C   UNL     1      96.238 112.895 109.813  1.00  0.00     0.032 C 
ATOM     17  C   UNL     1      96.835 111.606 109.179  1.00  0.00     0.006 C 
ATOM     18  C   UNL     1      97.347 112.795 107.017  1.00  0.00     0.008 C 
ATOM     19  C   UNL     1      96.995 110.261 106.960  1.00  0.00     0.012 C 
ATOM     20  C   UNL     1      98.395 111.370 109.559  1.00  0.00    -0.025 C 
ATOM     21  C   UNL     1      98.727 113.101 107.663  1.00  0.00     0.005 C 
ATOM     22  C   UNL     1      99.375 111.905 108.415  1.00  0.00     0.003 C 
ATOM     23  C   UNL     1      98.735 112.061 110.931  1.00  0.00     0.010 C 
ATOM     24  C   UNL     1      98.606 109.830 109.761  1.00  0.00     0.012 C 
ATOM     25  C   UNL     1     100.901 112.140 108.837  1.00  0.00    -0.006 C 
ATOM     26  C   UNL     1     100.216 112.099 111.297  1.00  0.00     0.033 C 
ATOM     27  C   UNL     1     101.007 112.841 110.223  1.00  0.00     0.120 C 
ATOM     28  C   UNL     1     101.653 113.019 107.799  1.00  0.00     0.014 C 
ATOM     29  C   UNL     1     101.673 110.786 108.851  1.00  0.00     0.014 C 
ENDROOT
BRANCH   1  30
ATOM     30  C   UNL     1      91.454 111.409 106.484  1.00  0.00     0.048 C 
ATOM     31  O   UNL     1      91.860 110.381 105.876  1.00  0.00    -0.550 OA
ATOM     32  O   UNL     1      90.480 112.194 105.875  1.00  0.00    -0.550 OA
ENDBRANCH   1  30
BRANCH  27  33
ATOM     33  O   UNL     1     102.346 112.933 110.646  1.00  0.00    -0.393 OA
ATOM     34  H   UNL     1     102.606 112.043 111.005  1.00  0.00     0.210 HD
ENDBRANCH  27  33
TORSDOF 2
ENDMDL
MODEL 4
REMARK VINA RESULT:     1.760      1.341      8.560
REMARK INTER + INTRA:           2.025
REMARK INTER:                   2.067
REMARK INTRA:                  -0.042
REMARK UNBOUND:                 0.111
REMARK SMILES CC1(C)CC[C@]2(C(=O)[O-])CC[C@@]3(C)C(=CC[C@@H]4[C@]5(C)CC[C@@H](O)C(C)(C)[C@@H]5CC[C@@]43C)[C@@H]2C1
REMARK SMILES IDX 6 1 5 2 10 3 32 4 4 5 11 6 14 7 33 8 2 9 12 10 15 11 1 12
REMARK SMILES IDX 3 13 13 14 30 15 16 16 17 17 29 18 31 19 18 20 28 21 27 22
REMARK SMILES IDX 20 23 19 24 24 25 21 26 22 27 25 28 26 29 7 30 8 31 9 32
REMARK SMILES IDX 23 33
REMARK H PARENT 23 34
REMARK Flexibility Score: inf
ROOT
ATOM      1  C   UNL     1      90.867 112.527 107.116  1.00  0.00     0.017 C 
ATOM      2  C   UNL     1      90.016 112.131 105.875  1.00  0.00     0.014 C 
ATOM      3  C   UNL     1      92.057 113.398 106.614  1.00  0.00     0.014 C 
ATOM      4  C   UNL     1      91.428 111.241 107.872  1.00  0.00     0.028 C 
ATOM      5  C   UNL     1      88.928 111.103 106.227  1.00  0.00     0.007 C 
ATOM      6  C   UNL     1      93.026 113.825 107.744  1.00  0.00     0.013 C 
ATOM      7  C   UNL     1      92.955 111.367 108.143  1.00  0.00    -0.064 C 
ATOM      8  C   UNL     1      91.020 109.915 107.162  1.00  0.00     0.015 C 
ATOM      9  C   UNL     1      89.498 109.792 106.861  1.00  0.00    -0.035 C 
ATOM     10  C   UNL     1      93.434 112.686 108.767  1.00  0.00    -0.006 C 
ATOM     11  C   UNL     1      93.835 110.516 107.578  1.00  0.00    -0.027 C 
ATOM     12  C   UNL     1      88.730 109.450 108.158  1.00  0.00     0.011 C 
ATOM     13  C   UNL     1      89.298 108.619 105.875  1.00  0.00     0.011 C 
ATOM     14  C   UNL     1      92.641 112.894 110.101  1.00  0.00     0.017 C 
ATOM     15  C   UNL     1      95.019 112.722 109.099  1.00  0.00    -0.020 C 
ATOM     16  C   UNL     1      95.318 110.662 107.631  1.00  0.00     0.032 C 
ATOM     17  C   UNL     1      95.847 112.097 107.919  1.00  0.00     0.006 C 
ATOM     18  C   UNL     1      95.358 111.884 110.382  1.00  0.00     0.008 C 
ATOM     19  C   UNL     1      95.418 114.225 109.349  1.00  0.00     0.012 C 
ATOM     20  C   UNL     1      97.457 112.155 108.121  1.00  0.00    -0.025 C 
ATOM     21  C   UNL     1      96.810 111.341 110.491  1.00  0.00     0.005 C 
ATOM     22  C   UNL     1      97.865 112.128 109.666  1.00  0.00     0.003 C 
ATOM     23  C   UNL     1      98.149 110.968 107.355  1.00  0.00     0.010 C 
ATOM     24  C   UNL     1      97.969 113.482 107.460  1.00  0.00     0.012 C 
ATOM     25  C   UNL     1      99.383 111.740 109.994  1.00  0.00    -0.006 C 
ATOM     26  C   UNL     1      99.637 110.782 107.640  1.00  0.00     0.033 C 
ATOM     27  C   UNL     1      99.863 110.537 109.130  1.00  0.00     0.120 C 
ATOM     28  C   UNL     1      99.565 111.355 111.489  1.00  0.00     0.014 C 
ATOM     29  C   UNL     1     100.315 112.970 109.781  1.00  0.00     0.014 C 
ENDROOT
BRANCH   1  30
ATOM     30  C   UNL     1      89.965 113.378 108.012  1.00  0.00     0.048 C 
ATOM     31  O   UNL     1      89.237 112.833 108.886  1.00  0.00    -0.550 OA
ATOM     32  O   UNL     1      90.008 114.767 107.961  1.00  0.00    -0.550 OA
ENDBRANCH   1  30
BRANCH  27  33
ATOM     33  O   UNL     1     101.232 110.280 109.331  1.00  0.00    -0.393 OA
ATOM     34  H   UNL     1     101.728 111.107 109.094  1.00  0.00     0.210 HD
ENDBRANCH  27  33
TORSDOF 2
ENDMDL
MODEL 5
REMARK VINA RESULT:     2.407      4.668      7.102
REMARK INTER + INTRA:           2.729
REMARK INTER:                   3.015
REMARK INTRA:                  -0.286
REMARK UNBOUND:                 0.111
REMARK SMILES CC1(C)CC[C@]2(C(=O)[O-])CC[C@@]3(C)C(=CC[C@@H]4[C@]5(C)CC[C@@H](O)C(C)(C)[C@@H]5CC[C@@]43C)[C@@H]2C1
REMARK SMILES IDX 6 1 5 2 10 3 32 4 4 5 11 6 14 7 33 8 2 9 12 10 15 11 1 12
REMARK SMILES IDX 3 13 13 14 30 15 16 16 17 17 29 18 31 19 18 20 28 21 27 22
REMARK SMILES IDX 20 23 19 24 24 25 21 26 22 27 25 28 26 29 7 30 8 31 9 32
REMARK SMILES IDX 23 33
REMARK H PARENT 23 34
REMARK Flexibility Score: inf
ROOT
ATOM      1  C   UNL     1      98.488 104.093 108.156  1.00  0.00     0.017 C 
ATOM      2  C   UNL     1      98.280 102.814 109.017  1.00  0.00     0.014 C 
ATOM      3  C   UNL     1      98.759 105.279 109.130  1.00  0.00     0.014 C 
ATOM      4  C   UNL     1      97.204 104.414 107.270  1.00  0.00     0.028 C 
ATOM      5  C   UNL     1      97.806 101.622 108.172  1.00  0.00     0.007 C 
ATOM      6  C   UNL     1      98.935 106.639 108.409  1.00  0.00     0.013 C 
ATOM      7  C   UNL     1      96.772 105.902 107.417  1.00  0.00    -0.064 C 
ATOM      8  C   UNL     1      96.050 103.395 107.512  1.00  0.00     0.015 C 
ATOM      9  C   UNL     1      96.478 101.903 107.395  1.00  0.00    -0.035 C 
ATOM     10  C   UNL     1      97.881 106.955 107.270  1.00  0.00    -0.006 C 
ATOM     11  C   UNL     1      95.580 106.231 107.954  1.00  0.00    -0.027 C 
ATOM     12  C   UNL     1      96.639 101.517 105.907  1.00  0.00     0.011 C 
ATOM     13  C   UNL     1      95.346 101.032 107.986  1.00  0.00     0.011 C 
ATOM     14  C   UNL     1      98.559 106.736 105.875  1.00  0.00     0.017 C 
ATOM     15  C   UNL     1      97.353 108.484 107.353  1.00  0.00    -0.020 C 
ATOM     16  C   UNL     1      95.154 107.617 108.300  1.00  0.00     0.032 C 
ATOM     17  C   UNL     1      96.302 108.646 108.509  1.00  0.00     0.006 C 
ATOM     18  C   UNL     1      96.636 108.918 106.027  1.00  0.00     0.008 C 
ATOM     19  C   UNL     1      98.608 109.408 107.582  1.00  0.00     0.012 C 
ATOM     20  C   UNL     1      95.768 110.164 108.726  1.00  0.00    -0.025 C 
ATOM     21  C   UNL     1      95.599 110.071 106.145  1.00  0.00     0.005 C 
ATOM     22  C   UNL     1      95.801 111.007 107.368  1.00  0.00     0.003 C 
ATOM     23  C   UNL     1      94.312 110.153 109.323  1.00  0.00     0.010 C 
ATOM     24  C   UNL     1      96.693 110.843 109.795  1.00  0.00     0.012 C 
ATOM     25  C   UNL     1      94.911 112.337 107.335  1.00  0.00    -0.006 C 
ATOM     26  C   UNL     1      93.613 111.509 109.372  1.00  0.00     0.033 C 
ATOM     27  C   UNL     1      93.509 112.101 107.969  1.00  0.00     0.120 C 
ATOM     28  C   UNL     1      94.696 112.846 105.882  1.00  0.00     0.014 C 
ATOM     29  C   UNL     1      95.649 113.500 108.062  1.00  0.00     0.014 C 
ENDROOT
BRANCH   1  30
ATOM     30  C   UNL     1      99.735 103.849 107.303  1.00  0.00     0.048 C 
ATOM     31  O   UNL     1     100.881 103.869 107.828  1.00  0.00    -0.550 OA
ATOM     32  O   UNL     1      99.628 103.491 105.964  1.00  0.00    -0.550 OA
ENDBRANCH   1  30
BRANCH  27  33
ATOM     33  O   UNL     1      92.778 113.301 108.051  1.00  0.00    -0.393 OA
ATOM     34  H   UNL     1      93.050 113.758 108.890  1.00  0.00     0.210 HD
ENDBRANCH  27  33
TORSDOF 2
ENDMDL
MODEL 6
REMARK VINA RESULT:     2.771      2.361      8.141
REMARK INTER + INTRA:           3.125
REMARK INTER:                   3.369
REMARK INTRA:                  -0.244
REMARK UNBOUND:                 0.111
REMARK SMILES CC1(C)CC[C@]2(C(=O)[O-])CC[C@@]3(C)C(=CC[C@@H]4[C@]5(C)CC[C@@H](O)C(C)(C)[C@@H]5CC[C@@]43C)[C@@H]2C1
REMARK SMILES IDX 6 1 5 2 10 3 32 4 4 5 11 6 14 7 33 8 2 9 12 10 15 11 1 12
REMARK SMILES IDX 3 13 13 14 30 15 16 16 17 17 29 18 31 19 18 20 28 21 27 22
REMARK SMILES IDX 20 23 19 24 24 25 21 26 22 27 25 28 26 29 7 30 8 31 9 32
REMARK SMILES IDX 23 33
REMARK H PARENT 23 34
REMARK Flexibility Score: inf
ROOT
ATOM      1  C   UNL     1      96.350 110.228 107.719  1.00  0.00     0.017 C 
ATOM      2  C   UNL     1      95.031 109.500 107.332  1.00  0.00     0.014 C 
ATOM      3  C   UNL     1      97.112 109.318 108.728  1.00  0.00     0.014 C 
ATOM      4  C   UNL     1      96.058 111.643 108.392  1.00  0.00     0.028 C 
ATOM      5  C   UNL     1      94.102 110.396 106.497  1.00  0.00     0.007 C 
ATOM      6  C   UNL     1      98.432 109.944 109.245  1.00  0.00     0.013 C 
ATOM      7  C   UNL     1      96.853 111.812 109.719  1.00  0.00    -0.064 C 
ATOM      8  C   UNL     1      94.532 111.927 108.529  1.00  0.00     0.015 C 
ATOM      9  C   UNL     1      93.724 111.733 107.214  1.00  0.00    -0.035 C 
ATOM     10  C   UNL     1      98.349 111.468 109.671  1.00  0.00    -0.006 C 
ATOM     11  C   UNL     1      96.216 111.940 110.901  1.00  0.00    -0.027 C 
ATOM     12  C   UNL     1      93.962 112.931 106.267  1.00  0.00     0.011 C 
ATOM     13  C   UNL     1      92.221 111.712 107.574  1.00  0.00     0.011 C 
ATOM     14  C   UNL     1      99.000 112.345 108.549  1.00  0.00     0.017 C 
ATOM     15  C   UNL     1      99.134 111.743 111.061  1.00  0.00    -0.020 C 
ATOM     16  C   UNL     1      96.882 111.926 112.235  1.00  0.00     0.032 C 
ATOM     17  C   UNL     1      98.283 111.251 112.286  1.00  0.00     0.006 C 
ATOM     18  C   UNL     1      99.398 113.274 111.280  1.00  0.00     0.008 C 
ATOM     19  C   UNL     1     100.517 110.992 110.982  1.00  0.00     0.012 C 
ATOM     20  C   UNL     1      99.017 111.411 113.725  1.00  0.00    -0.025 C 
ATOM     21  C   UNL     1      99.584 113.742 112.751  1.00  0.00     0.005 C 
ATOM     22  C   UNL     1     100.049 112.632 113.734  1.00  0.00     0.003 C 
ATOM     23  C   UNL     1      97.951 111.593 114.867  1.00  0.00     0.010 C 
ATOM     24  C   UNL     1      99.777 110.072 114.020  1.00  0.00     0.012 C 
ATOM     25  C   UNL     1     100.500 113.171 115.172  1.00  0.00    -0.006 C 
ATOM     26  C   UNL     1      98.513 111.970 116.235  1.00  0.00     0.033 C 
ATOM     27  C   UNL     1      99.289 113.281 116.145  1.00  0.00     0.120 C 
ATOM     28  C   UNL     1     101.161 114.575 115.075  1.00  0.00     0.014 C 
ATOM     29  C   UNL     1     101.601 112.250 115.775  1.00  0.00     0.014 C 
ENDROOT
BRANCH   1  30
ATOM     30  C   UNL     1      97.173 110.356 106.436  1.00  0.00     0.048 C 
ATOM     31  O   UNL     1      97.314 111.477 105.877  1.00  0.00    -0.550 OA
ATOM     32  O   UNL     1      97.872 109.269 105.921  1.00  0.00    -0.550 OA
ENDBRANCH   1  30
BRANCH  27  33
ATOM     33  O   UNL     1      99.707 113.636 117.441  1.00  0.00    -0.393 OA
ATOM     34  H   UNL     1      99.250 114.485 117.679  1.00  0.00     0.210 HD
ENDBRANCH  27  33
TORSDOF 2
ENDMDL
