MODEL 1
REMARK VINA RESULT:    -4.422      0.000      0.000
REMARK INTER + INTRA:          -4.704
REMARK INTER:                  -4.681
REMARK INTRA:                  -0.023
REMARK UNBOUND:                -0.023
REMARK SMILES O=C([O-])c1cccnc1
REMARK SMILES IDX 4 1 5 2 9 3 6 4 8 5 7 6 2 7 1 8 3 9
REMARK H PARENT
REMARK Flexibility Score: inf
ROOT
ATOM      1  C   UNL     1      78.809  55.774   9.926  1.00  0.00     0.016 A 
ATOM      2  C   UNL     1      77.898  56.724   9.431  1.00  0.00     0.013 A 
ATOM      3  C   UNL     1      79.372  54.857   9.024  1.00  0.00     0.120 A 
ATOM      4  C   UNL     1      77.572  56.741   8.074  1.00  0.00     0.021 A 
ATOM      5  N   UNL     1      79.038  54.895   7.706  1.00  0.00    -0.264 NA
ATOM      6  C   UNL     1      78.158  55.809   7.217  1.00  0.00     0.111 A 
ENDROOT
BRANCH   1   7
ATOM      7  C   UNL     1      79.167  55.739  11.360  1.00  0.00     0.073 C 
ATOM      8  O   UNL     1      78.460  56.340  12.213  1.00  0.00    -0.545 OA
ATOM      9  O   UNL     1      80.291  55.041  11.787  1.00  0.00    -0.545 OA
ENDBRANCH   1   7
TORSDOF 1
ENDMDL
MODEL 2
REMARK VINA RESULT:    -4.239      1.310      1.636
REMARK INTER + INTRA:          -4.510
REMARK INTER:                  -4.492
REMARK INTRA:                  -0.018
REMARK UNBOUND:                -0.023
REMARK SMILES O=C([O-])c1cccnc1
REMARK SMILES IDX 4 1 5 2 9 3 6 4 8 5 7 6 2 7 1 8 3 9
REMARK H PARENT
REMARK Flexibility Score: inf
ROOT
ATOM      1  C   UNL     1      78.709  56.073   9.532  1.00  0.00     0.016 A 
ATOM      2  C   UNL     1      77.831  56.336   8.467  1.00  0.00     0.013 A 
ATOM      3  C   UNL     1      79.453  54.882   9.507  1.00  0.00     0.120 A 
ATOM      4  C   UNL     1      77.713  55.425   7.415  1.00  0.00     0.021 A 
ATOM      5  N   UNL     1      79.319  54.011   8.471  1.00  0.00    -0.264 NA
ATOM      6  C   UNL     1      78.473  54.255   7.435  1.00  0.00     0.111 A 
ENDROOT
BRANCH   1   7
ATOM      7  C   UNL     1      78.849  57.025  10.655  1.00  0.00     0.073 C 
ATOM      8  O   UNL     1      78.605  56.663  11.837  1.00  0.00    -0.545 OA
ATOM      9  O   UNL     1      79.254  58.334  10.422  1.00  0.00    -0.545 OA
ENDBRANCH   1   7
TORSDOF 1
ENDMDL
MODEL 3
REMARK VINA RESULT:    -4.223     11.449     12.347
REMARK INTER + INTRA:          -4.493
REMARK INTER:                  -4.474
REMARK INTRA:                  -0.019
REMARK UNBOUND:                -0.023
REMARK SMILES O=C([O-])c1cccnc1
REMARK SMILES IDX 4 1 5 2 9 3 6 4 8 5 7 6 2 7 1 8 3 9
REMARK H PARENT
REMARK Flexibility Score: inf
ROOT
ATOM      1  C   UNL     1      84.852  63.791  16.639  1.00  0.00     0.016 A 
ATOM      2  C   UNL     1      84.827  62.595  17.376  1.00  0.00     0.013 A 
ATOM      3  C   UNL     1      85.298  63.747  15.307  1.00  0.00     0.120 A 
ATOM      4  C   UNL     1      85.238  61.399  16.785  1.00  0.00     0.021 A 
ATOM      5  N   UNL     1      85.694  62.568  14.755  1.00  0.00    -0.264 NA
ATOM      6  C   UNL     1      85.673  61.405  15.459  1.00  0.00     0.111 A 
ENDROOT
BRANCH   1   7
ATOM      7  C   UNL     1      84.421  65.069  17.246  1.00  0.00     0.073 C 
ATOM      8  O   UNL     1      84.905  65.452  18.345  1.00  0.00    -0.545 OA
ATOM      9  O   UNL     1      83.475  65.866  16.612  1.00  0.00    -0.545 OA
ENDBRANCH   1   7
TORSDOF 1
ENDMDL
MODEL 4
REMARK VINA RESULT:    -4.211     12.527     12.784
REMARK INTER + INTRA:          -4.480
REMARK INTER:                  -4.461
REMARK INTRA:                  -0.019
REMARK UNBOUND:                -0.023
REMARK SMILES O=C([O-])c1cccnc1
REMARK SMILES IDX 4 1 5 2 9 3 6 4 8 5 7 6 2 7 1 8 3 9
REMARK H PARENT
REMARK Flexibility Score: inf
ROOT
ATOM      1  C   UNL     1      84.668  65.136  15.919  1.00  0.00     0.016 A 
ATOM      2  C   UNL     1      83.695  66.066  15.513  1.00  0.00     0.013 A 
ATOM      3  C   UNL     1      85.697  64.810  15.020  1.00  0.00     0.120 A 
ATOM      4  C   UNL     1      83.765  66.642  14.243  1.00  0.00     0.021 A 
ATOM      5  N   UNL     1      85.741  65.385  13.789  1.00  0.00    -0.264 NA
ATOM      6  C   UNL     1      84.806  66.286  13.385  1.00  0.00     0.111 A 
ENDROOT
BRANCH   1   7
ATOM      7  C   UNL     1      84.613  64.515  17.260  1.00  0.00     0.073 C 
ATOM      8  O   UNL     1      84.749  63.269  17.395  1.00  0.00    -0.545 OA
ATOM      9  O   UNL     1      84.411  65.297  18.391  1.00  0.00    -0.545 OA
ENDBRANCH   1   7
TORSDOF 1
ENDMDL
MODEL 5
REMARK VINA RESULT:    -4.148      2.770      3.670
REMARK INTER + INTRA:          -4.414
REMARK INTER:                  -4.395
REMARK INTRA:                  -0.019
REMARK UNBOUND:                -0.023
REMARK SMILES O=C([O-])c1cccnc1
REMARK SMILES IDX 4 1 5 2 9 3 6 4 8 5 7 6 2 7 1 8 3 9
REMARK H PARENT
REMARK Flexibility Score: inf
ROOT
ATOM      1  C   UNL     1      78.607  55.611   9.056  1.00  0.00     0.016 A 
ATOM      2  C   UNL     1      78.144  56.398  10.125  1.00  0.00     0.013 A 
ATOM      3  C   UNL     1      79.724  54.786   9.268  1.00  0.00     0.120 A 
ATOM      4  C   UNL     1      78.789  56.348  11.362  1.00  0.00     0.021 A 
ATOM      5  N   UNL     1      80.335  54.756  10.484  1.00  0.00    -0.264 NA
ATOM      6  C   UNL     1      79.895  55.513  11.524  1.00  0.00     0.111 A 
ENDROOT
BRANCH   1   7
ATOM      7  C   UNL     1      77.938  55.649   7.738  1.00  0.00     0.073 C 
ATOM      8  O   UNL     1      77.608  54.581   7.155  1.00  0.00    -0.545 OA
ATOM      9  O   UNL     1      77.663  56.865   7.122  1.00  0.00    -0.545 OA
ENDBRANCH   1   7
TORSDOF 1
ENDMDL
MODEL 6
REMARK VINA RESULT:    -4.121      2.565      3.264
REMARK INTER + INTRA:          -4.385
REMARK INTER:                  -4.361
REMARK INTRA:                  -0.024
REMARK UNBOUND:                -0.023
REMARK SMILES O=C([O-])c1cccnc1
REMARK SMILES IDX 4 1 5 2 9 3 6 4 8 5 7 6 2 7 1 8 3 9
REMARK H PARENT
REMARK Flexibility Score: inf
ROOT
ATOM      1  C   UNL     1      78.893  54.494   8.505  1.00  0.00     0.016 A 
ATOM      2  C   UNL     1      77.968  55.235   7.749  1.00  0.00     0.013 A 
ATOM      3  C   UNL     1      79.461  55.094   9.641  1.00  0.00     0.120 A 
ATOM      4  C   UNL     1      77.632  56.534   8.132  1.00  0.00     0.021 A 
ATOM      5  N   UNL     1      79.116  56.363   9.992  1.00  0.00    -0.264 NA
ATOM      6  C   UNL     1      78.223  57.088   9.268  1.00  0.00     0.111 A 
ENDROOT
BRANCH   1   7
ATOM      7  C   UNL     1      79.263  53.116   8.117  1.00  0.00     0.073 C 
ATOM      8  O   UNL     1      78.802  52.601   7.063  1.00  0.00    -0.545 OA
ATOM      9  O   UNL     1      80.126  52.369   8.910  1.00  0.00    -0.545 OA
ENDBRANCH   1   7
TORSDOF 1
ENDMDL
MODEL 7
REMARK VINA RESULT:    -4.091     11.762     12.234
REMARK INTER + INTRA:          -4.354
REMARK INTER:                  -4.331
REMARK INTRA:                  -0.023
REMARK UNBOUND:                -0.023
REMARK SMILES O=C([O-])c1cccnc1
REMARK SMILES IDX 4 1 5 2 9 3 6 4 8 5 7 6 2 7 1 8 3 9
REMARK H PARENT
REMARK Flexibility Score: inf
ROOT
ATOM      1  C   UNL     1      84.876  63.840  15.902  1.00  0.00     0.016 A 
ATOM      2  C   UNL     1      84.492  63.344  17.160  1.00  0.00     0.013 A 
ATOM      3  C   UNL     1      85.624  63.007  15.054  1.00  0.00     0.120 A 
ATOM      4  C   UNL     1      84.854  62.051  17.542  1.00  0.00     0.021 A 
ATOM      5  N   UNL     1      85.964  61.751  15.452  1.00  0.00    -0.264 NA
ATOM      6  C   UNL     1      85.598  61.260  16.666  1.00  0.00     0.111 A 
ENDROOT
BRANCH   1   7
ATOM      7  C   UNL     1      84.504  65.207  15.478  1.00  0.00     0.073 C 
ATOM      8  O   UNL     1      85.065  65.746  14.487  1.00  0.00    -0.545 OA
ATOM      9  O   UNL     1      83.526  65.916  16.167  1.00  0.00    -0.545 OA
ENDBRANCH   1   7
TORSDOF 1
ENDMDL
MODEL 8
REMARK VINA RESULT:    -4.033     11.046     11.881
REMARK INTER + INTRA:          -4.292
REMARK INTER:                  -4.272
REMARK INTRA:                  -0.020
REMARK UNBOUND:                -0.023
REMARK SMILES O=C([O-])c1cccnc1
REMARK SMILES IDX 4 1 5 2 9 3 6 4 8 5 7 6 2 7 1 8 3 9
REMARK H PARENT
REMARK Flexibility Score: inf
ROOT
ATOM      1  C   UNL     1      85.141  62.632  16.282  1.00  0.00     0.016 A 
ATOM      2  C   UNL     1      84.657  63.565  17.215  1.00  0.00     0.013 A 
ATOM      3  C   UNL     1      85.578  63.103  15.032  1.00  0.00     0.120 A 
ATOM      4  C   UNL     1      84.618  64.923  16.893  1.00  0.00     0.021 A 
ATOM      5  N   UNL     1      85.529  64.431  14.743  1.00  0.00    -0.264 NA
ATOM      6  C   UNL     1      85.063  65.342  15.639  1.00  0.00     0.111 A 
ENDROOT
BRANCH   1   7
ATOM      7  C   UNL     1      85.191  61.190  16.603  1.00  0.00     0.073 C 
ATOM      8  O   UNL     1      84.882  60.329  15.737  1.00  0.00    -0.545 OA
ATOM      9  O   UNL     1      85.582  60.764  17.868  1.00  0.00    -0.545 OA
ENDBRANCH   1   7
TORSDOF 1
ENDMDL
MODEL 9
REMARK VINA RESULT:    -3.976      1.420      2.368
REMARK INTER + INTRA:          -4.232
REMARK INTER:                  -4.215
REMARK INTRA:                  -0.017
REMARK UNBOUND:                -0.023
REMARK SMILES O=C([O-])c1cccnc1
REMARK SMILES IDX 4 1 5 2 9 3 6 4 8 5 7 6 2 7 1 8 3 9
REMARK H PARENT
REMARK Flexibility Score: inf
ROOT
ATOM      1  C   UNL     1      78.955  55.625   9.673  1.00  0.00     0.016 A 
ATOM      2  C   UNL     1      80.035  54.731   9.767  1.00  0.00     0.013 A 
ATOM      3  C   UNL     1      78.024  55.442   8.637  1.00  0.00     0.120 A 
ATOM      4  C   UNL     1      80.165  53.690   8.846  1.00  0.00     0.021 A 
ATOM      5  N   UNL     1      78.173  54.419   7.752  1.00  0.00    -0.264 NA
ATOM      6  C   UNL     1      79.214  53.548   7.835  1.00  0.00     0.111 A 
ENDROOT
BRANCH   1   7
ATOM      7  C   UNL     1      78.799  56.734  10.638  1.00  0.00     0.073 C 
ATOM      8  O   UNL     1      78.544  56.499  11.850  1.00  0.00    -0.545 OA
ATOM      9  O   UNL     1      78.932  58.054  10.222  1.00  0.00    -0.545 OA
ENDBRANCH   1   7
TORSDOF 1
ENDMDL
