MODEL 1
REMARK VINA RESULT:    -3.308      0.000      0.000
REMARK INTER + INTRA:         -12.817
REMARK INTER:                  -8.335
REMARK INTRA:                  -4.482
REMARK UNBOUND:                -4.482
REMARK SMILES CCCCCCCCCCCCCCCCCCCCCCCCCCCC(=O)[O-]
REMARK SMILES IDX 15 1 16 2 17 3 18 4 19 5 20 6 21 7 22 8 23 9 24 10 25 11
REMARK SMILES IDX 26 12 27 13 28 14 29 15 30 16 14 17 13 18 12 19 11 20 10 21
REMARK SMILES IDX 9 22 8 23 7 24 6 25 5 26 4 27 3 28 2 29 1 30
REMARK H PARENT
REMARK Flexibility Score: inf
ROOT
ATOM      1  C   UNL     1      65.805  29.780  60.429  1.00  0.00     0.000 C 
ENDROOT
BRANCH   1   2
ATOM      2  C   UNL     1      64.536  29.264  61.137  1.00  0.00     0.000 C 
BRANCH   2   3
ATOM      3  C   UNL     1      63.574  30.360  61.642  1.00  0.00     0.000 C 
BRANCH   3   4
ATOM      4  C   UNL     1      62.108  29.917  61.793  1.00  0.00     0.000 C 
BRANCH   4   5
ATOM      5  C   UNL     1      61.116  31.086  61.655  1.00  0.00     0.000 C 
BRANCH   5   6
ATOM      6  C   UNL     1      61.555  32.135  60.613  1.00  0.00     0.000 C 
BRANCH   6   7
ATOM      7  C   UNL     1      60.707  32.186  59.327  1.00  0.00     0.000 C 
BRANCH   7   8
ATOM      8  C   UNL     1      61.444  31.634  58.095  1.00  0.00     0.000 C 
BRANCH   8   9
ATOM      9  C   UNL     1      62.904  31.253  58.393  1.00  0.00     0.000 C 
BRANCH   9  10
ATOM     10  C   UNL     1      63.942  32.154  57.690  1.00  0.00     0.000 C 
BRANCH  10  11
ATOM     11  C   UNL     1      64.977  32.722  58.677  1.00  0.00     0.000 C 
BRANCH  11  12
ATOM     12  C   UNL     1      64.555  34.078  59.261  1.00  0.00     0.006 C 
BRANCH  12  13
ATOM     13  C   UNL     1      64.396  34.034  60.787  1.00  0.00     0.053 C 
BRANCH  13  14
ATOM     14  C   UNL     1      64.435  35.414  61.367  1.00  0.00     0.041 C 
ATOM     15  O   UNL     1      63.368  36.071  61.518  1.00  0.00    -0.550 OA
ATOM     16  O   UNL     1      65.650  35.989  61.716  1.00  0.00    -0.550 OA
ENDBRANCH  13  14
ENDBRANCH  12  13
ENDBRANCH  11  12
ENDBRANCH  10  11
ENDBRANCH   9  10
ENDBRANCH   8   9
ENDBRANCH   7   8
ENDBRANCH   6   7
ENDBRANCH   5   6
ENDBRANCH   4   5
ENDBRANCH   3   4
ENDBRANCH   2   3
ENDBRANCH   1   2
BRANCH   1  17
ATOM     17  C   UNL     1      66.909  28.727  60.193  1.00  0.00     0.000 C 
BRANCH  17  18
ATOM     18  C   UNL     1      68.241  28.984  60.924  1.00  0.00     0.000 C 
BRANCH  18  19
ATOM     19  C   UNL     1      69.376  28.044  60.484  1.00  0.00     0.000 C 
BRANCH  19  20
ATOM     20  C   UNL     1      70.681  28.805  60.179  1.00  0.00     0.000 C 
BRANCH  20  21
ATOM     21  C   UNL     1      70.918  30.029  61.081  1.00  0.00     0.000 C 
BRANCH  21  22
ATOM     22  C   UNL     1      72.017  30.959  60.527  1.00  0.00    -0.000 C 
BRANCH  22  23
ATOM     23  C   UNL     1      71.649  32.448  60.653  1.00  0.00    -0.000 C 
BRANCH  23  24
ATOM     24  C   UNL     1      71.358  33.136  59.296  1.00  0.00    -0.000 C 
BRANCH  24  25
ATOM     25  C   UNL     1      71.264  32.165  58.098  1.00  0.00    -0.000 C 
BRANCH  25  26
ATOM     26  C   UNL     1      69.904  32.211  57.389  1.00  0.00    -0.000 C 
BRANCH  26  27
ATOM     27  C   UNL     1      68.877  31.328  58.108  1.00  0.00    -0.000 C 
BRANCH  27  28
ATOM     28  C   UNL     1      68.446  30.149  57.227  1.00  0.00    -0.000 C 
BRANCH  28  29
ATOM     29  C   UNL     1      67.031  30.365  56.676  1.00  0.00    -0.003 C 
ATOM     30  C   UNL     1      66.234  29.065  56.662  1.00  0.00     0.004 C 
ENDBRANCH  28  29
ENDBRANCH  27  28
ENDBRANCH  26  27
ENDBRANCH  25  26
ENDBRANCH  24  25
ENDBRANCH  23  24
ENDBRANCH  22  23
ENDBRANCH  21  22
ENDBRANCH  20  21
ENDBRANCH  19  20
ENDBRANCH  18  19
ENDBRANCH  17  18
ENDBRANCH   1  17
TORSDOF 26
ENDMDL
MODEL 2
REMARK VINA RESULT:    -3.250      2.496      7.444
REMARK INTER + INTRA:         -12.672
REMARK INTER:                  -8.494
REMARK INTRA:                  -4.178
REMARK UNBOUND:                -4.482
REMARK SMILES CCCCCCCCCCCCCCCCCCCCCCCCCCCC(=O)[O-]
REMARK SMILES IDX 15 1 16 2 17 3 18 4 19 5 20 6 21 7 22 8 23 9 24 10 25 11
REMARK SMILES IDX 26 12 27 13 28 14 29 15 30 16 14 17 13 18 12 19 11 20 10 21
REMARK SMILES IDX 9 22 8 23 7 24 6 25 5 26 4 27 3 28 2 29 1 30
REMARK H PARENT
REMARK Flexibility Score: inf
ROOT
ATOM      1  C   UNL     1      61.374  30.767  61.747  1.00  0.00     0.000 C 
ENDROOT
BRANCH   1   2
ATOM      2  C   UNL     1      62.661  29.987  61.408  1.00  0.00     0.000 C 
BRANCH   2   3
ATOM      3  C   UNL     1      63.953  30.831  61.381  1.00  0.00     0.000 C 
BRANCH   3   4
ATOM      4  C   UNL     1      65.048  30.311  60.435  1.00  0.00     0.000 C 
BRANCH   4   5
ATOM      5  C   UNL     1      65.738  29.041  60.963  1.00  0.00     0.000 C 
BRANCH   5   6
ATOM      6  C   UNL     1      66.756  28.445  59.970  1.00  0.00     0.000 C 
BRANCH   6   7
ATOM      7  C   UNL     1      68.201  28.963  60.112  1.00  0.00     0.000 C 
BRANCH   7   8
ATOM      8  C   UNL     1      68.555  30.056  59.090  1.00  0.00     0.000 C 
BRANCH   8   9
ATOM      9  C   UNL     1      69.203  29.494  57.814  1.00  0.00     0.000 C 
BRANCH   9  10
ATOM     10  C   UNL     1      70.613  30.053  57.529  1.00  0.00     0.000 C 
BRANCH  10  11
ATOM     11  C   UNL     1      71.675  29.446  58.462  1.00  0.00     0.000 C 
BRANCH  11  12
ATOM     12  C   UNL     1      72.814  30.427  58.778  1.00  0.00     0.006 C 
BRANCH  12  13
ATOM     13  C   UNL     1      72.964  30.682  60.284  1.00  0.00     0.053 C 
BRANCH  13  14
ATOM     14  C   UNL     1      71.700  31.243  60.858  1.00  0.00     0.041 C 
ATOM     15  O   UNL     1      71.327  32.410  60.553  1.00  0.00    -0.550 OA
ATOM     16  O   UNL     1      70.946  30.493  61.751  1.00  0.00    -0.550 OA
ENDBRANCH  13  14
ENDBRANCH  12  13
ENDBRANCH  11  12
ENDBRANCH  10  11
ENDBRANCH   9  10
ENDBRANCH   8   9
ENDBRANCH   7   8
ENDBRANCH   6   7
ENDBRANCH   5   6
ENDBRANCH   4   5
ENDBRANCH   3   4
ENDBRANCH   2   3
ENDBRANCH   1   2
BRANCH   1  17
ATOM     17  C   UNL     1      61.146  32.059  60.934  1.00  0.00     0.000 C 
BRANCH  17  18
ATOM     18  C   UNL     1      60.620  31.859  59.501  1.00  0.00     0.000 C 
BRANCH  18  19
ATOM     19  C   UNL     1      61.353  32.712  58.451  1.00  0.00     0.000 C 
BRANCH  19  20
ATOM     20  C   UNL     1      62.749  32.153  58.113  1.00  0.00     0.000 C 
BRANCH  20  21
ATOM     21  C   UNL     1      63.841  33.231  57.992  1.00  0.00     0.000 C 
BRANCH  21  22
ATOM     22  C   UNL     1      63.276  34.585  57.517  1.00  0.00    -0.000 C 
BRANCH  22  23
ATOM     23  C   UNL     1      64.328  35.707  57.546  1.00  0.00    -0.000 C 
BRANCH  23  24
ATOM     24  C   UNL     1      65.629  35.324  58.294  1.00  0.00    -0.000 C 
BRANCH  24  25
ATOM     25  C   UNL     1      66.093  36.366  59.336  1.00  0.00    -0.000 C 
BRANCH  25  26
ATOM     26  C   UNL     1      65.225  36.383  60.601  1.00  0.00    -0.000 C 
BRANCH  26  27
ATOM     27  C   UNL     1      64.866  34.959  61.043  1.00  0.00    -0.000 C 
BRANCH  27  28
ATOM     28  C   UNL     1      63.358  34.819  61.286  1.00  0.00    -0.000 C 
BRANCH  28  29
ATOM     29  C   UNL     1      62.612  36.088  60.856  1.00  0.00    -0.003 C 
ATOM     30  C   UNL     1      61.159  35.787  60.505  1.00  0.00     0.004 C 
ENDBRANCH  28  29
ENDBRANCH  27  28
ENDBRANCH  26  27
ENDBRANCH  25  26
ENDBRANCH  24  25
ENDBRANCH  23  24
ENDBRANCH  22  23
ENDBRANCH  21  22
ENDBRANCH  20  21
ENDBRANCH  19  20
ENDBRANCH  18  19
ENDBRANCH  17  18
ENDBRANCH   1  17
TORSDOF 26
ENDMDL
MODEL 3
REMARK VINA RESULT:    -3.211      9.308     12.229
REMARK INTER + INTRA:         -12.573
REMARK INTER:                  -7.109
REMARK INTRA:                  -5.464
REMARK UNBOUND:                -4.482
REMARK SMILES CCCCCCCCCCCCCCCCCCCCCCCCCCCC(=O)[O-]
REMARK SMILES IDX 15 1 16 2 17 3 18 4 19 5 20 6 21 7 22 8 23 9 24 10 25 11
REMARK SMILES IDX 26 12 27 13 28 14 29 15 30 16 14 17 13 18 12 19 11 20 10 21
REMARK SMILES IDX 9 22 8 23 7 24 6 25 5 26 4 27 3 28 2 29 1 30
REMARK H PARENT
REMARK Flexibility Score: inf
ROOT
ATOM      1  C   UNL     1      57.925  29.694  52.068  1.00  0.00     0.000 C 
ENDROOT
BRANCH   1   2
ATOM      2  C   UNL     1      57.784  28.637  53.183  1.00  0.00     0.000 C 
BRANCH   2   3
ATOM      3  C   UNL     1      57.568  27.189  52.693  1.00  0.00     0.000 C 
BRANCH   3   4
ATOM      4  C   UNL     1      56.310  26.498  53.247  1.00  0.00     0.000 C 
BRANCH   4   5
ATOM      5  C   UNL     1      55.571  25.666  52.184  1.00  0.00     0.000 C 
BRANCH   5   6
ATOM      6  C   UNL     1      56.136  25.857  50.762  1.00  0.00     0.000 C 
BRANCH   6   7
ATOM      7  C   UNL     1      55.083  26.019  49.647  1.00  0.00     0.000 C 
BRANCH   7   8
ATOM      8  C   UNL     1      54.179  27.247  49.843  1.00  0.00     0.000 C 
BRANCH   8   9
ATOM      9  C   UNL     1      54.973  28.536  50.117  1.00  0.00     0.000 C 
BRANCH   9  10
ATOM     10  C   UNL     1      54.143  29.650  50.791  1.00  0.00     0.000 C 
BRANCH  10  11
ATOM     11  C   UNL     1      54.195  29.561  52.326  1.00  0.00     0.000 C 
BRANCH  11  12
ATOM     12  C   UNL     1      54.450  30.924  52.988  1.00  0.00     0.006 C 
BRANCH  12  13
ATOM     13  C   UNL     1      55.027  30.787  54.404  1.00  0.00     0.053 C 
BRANCH  13  14
ATOM     14  C   UNL     1      55.928  31.939  54.724  1.00  0.00     0.041 C 
ATOM     15  O   UNL     1      56.005  32.378  55.905  1.00  0.00    -0.550 OA
ATOM     16  O   UNL     1      56.664  32.549  53.717  1.00  0.00    -0.550 OA
ENDBRANCH  13  14
ENDBRANCH  12  13
ENDBRANCH  11  12
ENDBRANCH  10  11
ENDBRANCH   9  10
ENDBRANCH   8   9
ENDBRANCH   7   8
ENDBRANCH   6   7
ENDBRANCH   5   6
ENDBRANCH   4   5
ENDBRANCH   3   4
ENDBRANCH   2   3
ENDBRANCH   1   2
BRANCH   1  17
ATOM     17  C   UNL     1      59.152  29.526  51.146  1.00  0.00     0.000 C 
BRANCH  17  18
ATOM     18  C   UNL     1      58.871  28.881  49.776  1.00  0.00     0.000 C 
BRANCH  18  19
ATOM     19  C   UNL     1      59.886  27.792  49.388  1.00  0.00     0.000 C 
BRANCH  19  20
ATOM     20  C   UNL     1      59.257  26.384  49.377  1.00  0.00     0.000 C 
BRANCH  20  21
ATOM     21  C   UNL     1      60.081  25.325  50.130  1.00  0.00     0.000 C 
BRANCH  21  22
ATOM     22  C   UNL     1      61.578  25.692  50.202  1.00  0.00    -0.000 C 
BRANCH  22  23
ATOM     23  C   UNL     1      62.142  25.592  51.630  1.00  0.00    -0.000 C 
BRANCH  23  24
ATOM     24  C   UNL     1      61.124  25.974  52.733  1.00  0.00    -0.000 C 
BRANCH  24  25
ATOM     25  C   UNL     1      61.318  27.393  53.313  1.00  0.00    -0.000 C 
BRANCH  25  26
ATOM     26  C   UNL     1      62.651  28.034  52.908  1.00  0.00    -0.000 C 
BRANCH  26  27
ATOM     27  C   UNL     1      62.423  29.347  52.148  1.00  0.00    -0.000 C 
BRANCH  27  28
ATOM     28  C   UNL     1      63.549  29.607  51.139  1.00  0.00    -0.000 C 
BRANCH  28  29
ATOM     29  C   UNL     1      62.979  29.957  49.760  1.00  0.00    -0.003 C 
ATOM     30  C   UNL     1      62.218  31.279  49.792  1.00  0.00     0.004 C 
ENDBRANCH  28  29
ENDBRANCH  27  28
ENDBRANCH  26  27
ENDBRANCH  25  26
ENDBRANCH  24  25
ENDBRANCH  23  24
ENDBRANCH  22  23
ENDBRANCH  21  22
ENDBRANCH  20  21
ENDBRANCH  19  20
ENDBRANCH  18  19
ENDBRANCH  17  18
ENDBRANCH   1  17
TORSDOF 26
ENDMDL
MODEL 4
REMARK VINA RESULT:    -3.203      4.436      7.351
REMARK INTER + INTRA:         -12.554
REMARK INTER:                  -6.502
REMARK INTRA:                  -6.052
REMARK UNBOUND:                -4.482
REMARK SMILES CCCCCCCCCCCCCCCCCCCCCCCCCCCC(=O)[O-]
REMARK SMILES IDX 15 1 16 2 17 3 18 4 19 5 20 6 21 7 22 8 23 9 24 10 25 11
REMARK SMILES IDX 26 12 27 13 28 14 29 15 30 16 14 17 13 18 12 19 11 20 10 21
REMARK SMILES IDX 9 22 8 23 7 24 6 25 5 26 4 27 3 28 2 29 1 30
REMARK H PARENT
REMARK Flexibility Score: inf
ROOT
ATOM      1  C   UNL     1      61.412  33.922  60.504  1.00  0.00     0.000 C 
ENDROOT
BRANCH   1   2
ATOM      2  C   UNL     1      62.580  34.908  60.710  1.00  0.00     0.000 C 
BRANCH   2   3
ATOM      3  C   UNL     1      63.977  34.259  60.815  1.00  0.00     0.000 C 
BRANCH   3   4
ATOM      4  C   UNL     1      64.864  34.425  59.570  1.00  0.00     0.000 C 
BRANCH   4   5
ATOM      5  C   UNL     1      65.019  33.118  58.771  1.00  0.00     0.000 C 
BRANCH   5   6
ATOM      6  C   UNL     1      64.654  33.270  57.281  1.00  0.00     0.000 C 
BRANCH   6   7
ATOM      7  C   UNL     1      63.216  32.860  56.905  1.00  0.00     0.000 C 
BRANCH   7   8
ATOM      8  C   UNL     1      62.235  34.044  56.888  1.00  0.00     0.000 C 
BRANCH   8   9
ATOM      9  C   UNL     1      60.801  33.627  56.520  1.00  0.00     0.000 C 
BRANCH   9  10
ATOM     10  C   UNL     1      60.591  32.099  56.454  1.00  0.00     0.000 C 
BRANCH  10  11
ATOM     11  C   UNL     1      59.570  31.610  57.496  1.00  0.00     0.000 C 
BRANCH  11  12
ATOM     12  C   UNL     1      58.563  32.701  57.893  1.00  0.00     0.006 C 
BRANCH  12  13
ATOM     13  C   UNL     1      57.117  32.313  57.556  1.00  0.00     0.053 C 
BRANCH  13  14
ATOM     14  C   UNL     1      56.553  33.221  56.507  1.00  0.00     0.041 C 
ATOM     15  O   UNL     1      55.314  33.456  56.469  1.00  0.00    -0.550 OA
ATOM     16  O   UNL     1      57.388  33.788  55.553  1.00  0.00    -0.550 OA
ENDBRANCH  13  14
ENDBRANCH  12  13
ENDBRANCH  11  12
ENDBRANCH  10  11
ENDBRANCH   9  10
ENDBRANCH   8   9
ENDBRANCH   7   8
ENDBRANCH   6   7
ENDBRANCH   5   6
ENDBRANCH   4   5
ENDBRANCH   3   4
ENDBRANCH   2   3
ENDBRANCH   1   2
BRANCH   1  17
ATOM     17  C   UNL     1      61.816  32.445  60.304  1.00  0.00     0.000 C 
BRANCH  17  18
ATOM     18  C   UNL     1      61.077  31.428  61.193  1.00  0.00     0.000 C 
BRANCH  18  19
ATOM     19  C   UNL     1      62.004  30.377  61.828  1.00  0.00     0.000 C 
BRANCH  19  20
ATOM     20  C   UNL     1      63.493  30.667  61.554  1.00  0.00     0.000 C 
BRANCH  20  21
ATOM     21  C   UNL     1      64.300  29.432  61.115  1.00  0.00     0.000 C 
BRANCH  21  22
ATOM     22  C   UNL     1      64.845  29.572  59.678  1.00  0.00    -0.000 C 
BRANCH  22  23
ATOM     23  C   UNL     1      64.020  28.773  58.655  1.00  0.00    -0.000 C 
BRANCH  23  24
ATOM     24  C   UNL     1      62.737  29.499  58.183  1.00  0.00    -0.000 C 
BRANCH  24  25
ATOM     25  C   UNL     1      61.543  28.561  57.895  1.00  0.00    -0.000 C 
BRANCH  25  26
ATOM     26  C   UNL     1      60.659  28.314  59.125  1.00  0.00    -0.000 C 
BRANCH  26  27
ATOM     27  C   UNL     1      60.923  26.928  59.725  1.00  0.00    -0.000 C 
BRANCH  27  28
ATOM     28  C   UNL     1      60.729  26.937  61.247  1.00  0.00    -0.000 C 
BRANCH  28  29
ATOM     29  C   UNL     1      62.050  26.650  61.970  1.00  0.00    -0.003 C 
ATOM     30  C   UNL     1      63.051  25.961  61.048  1.00  0.00     0.004 C 
ENDBRANCH  28  29
ENDBRANCH  27  28
ENDBRANCH  26  27
ENDBRANCH  25  26
ENDBRANCH  24  25
ENDBRANCH  23  24
ENDBRANCH  22  23
ENDBRANCH  21  22
ENDBRANCH  20  21
ENDBRANCH  19  20
ENDBRANCH  18  19
ENDBRANCH  17  18
ENDBRANCH   1  17
TORSDOF 26
ENDMDL
MODEL 5
REMARK VINA RESULT:    -3.179      4.680      7.891
REMARK INTER + INTRA:         -12.493
REMARK INTER:                  -6.837
REMARK INTRA:                  -5.656
REMARK UNBOUND:                -4.482
REMARK SMILES CCCCCCCCCCCCCCCCCCCCCCCCCCCC(=O)[O-]
REMARK SMILES IDX 15 1 16 2 17 3 18 4 19 5 20 6 21 7 22 8 23 9 24 10 25 11
REMARK SMILES IDX 26 12 27 13 28 14 29 15 30 16 14 17 13 18 12 19 11 20 10 21
REMARK SMILES IDX 9 22 8 23 7 24 6 25 5 26 4 27 3 28 2 29 1 30
REMARK H PARENT
REMARK Flexibility Score: inf
ROOT
ATOM      1  C   UNL     1      64.851  31.504  60.207  1.00  0.00     0.000 C 
ENDROOT
BRANCH   1   2
ATOM      2  C   UNL     1      64.403  32.669  61.115  1.00  0.00     0.000 C 
BRANCH   2   3
ATOM      3  C   UNL     1      64.346  34.051  60.431  1.00  0.00     0.000 C 
BRANCH   3   4
ATOM      4  C   UNL     1      64.465  35.252  61.384  1.00  0.00     0.000 C 
BRANCH   4   5
ATOM      5  C   UNL     1      63.228  36.167  61.347  1.00  0.00     0.000 C 
BRANCH   5   6
ATOM      6  C   UNL     1      62.030  35.538  60.606  1.00  0.00     0.000 C 
BRANCH   6   7
ATOM      7  C   UNL     1      61.517  36.329  59.386  1.00  0.00     0.000 C 
BRANCH   7   8
ATOM      8  C   UNL     1      60.002  36.183  59.165  1.00  0.00     0.000 C 
BRANCH   8   9
ATOM      9  C   UNL     1      59.643  35.807  57.718  1.00  0.00     0.000 C 
BRANCH   9  10
ATOM     10  C   UNL     1      58.730  34.568  57.602  1.00  0.00     0.000 C 
BRANCH  10  11
ATOM     11  C   UNL     1      58.952  33.807  56.283  1.00  0.00     0.000 C 
BRANCH  11  12
ATOM     12  C   UNL     1      58.243  32.444  56.261  1.00  0.00     0.006 C 
BRANCH  12  13
ATOM     13  C   UNL     1      56.813  32.537  55.712  1.00  0.00     0.053 C 
BRANCH  13  14
ATOM     14  C   UNL     1      55.819  32.092  56.739  1.00  0.00     0.041 C 
ATOM     15  O   UNL     1      56.070  32.228  57.968  1.00  0.00    -0.550 OA
ATOM     16  O   UNL     1      54.625  31.503  56.344  1.00  0.00    -0.550 OA
ENDBRANCH  13  14
ENDBRANCH  12  13
ENDBRANCH  11  12
ENDBRANCH  10  11
ENDBRANCH   9  10
ENDBRANCH   8   9
ENDBRANCH   7   8
ENDBRANCH   6   7
ENDBRANCH   5   6
ENDBRANCH   4   5
ENDBRANCH   3   4
ENDBRANCH   2   3
ENDBRANCH   1   2
BRANCH   1  17
ATOM     17  C   UNL     1      64.425  30.096  60.674  1.00  0.00     0.000 C 
BRANCH  17  18
ATOM     18  C   UNL     1      63.264  30.053  61.685  1.00  0.00     0.000 C 
BRANCH  18  19
ATOM     19  C   UNL     1      62.071  29.201  61.217  1.00  0.00     0.000 C 
BRANCH  19  20
ATOM     20  C   UNL     1      60.800  30.045  60.998  1.00  0.00     0.000 C 
BRANCH  20  21
ATOM     21  C   UNL     1      61.067  31.554  60.856  1.00  0.00     0.000 C 
BRANCH  21  22
ATOM     22  C   UNL     1      60.552  32.114  59.513  1.00  0.00    -0.000 C 
BRANCH  22  23
ATOM     23  C   UNL     1      61.694  32.455  58.540  1.00  0.00    -0.000 C 
BRANCH  23  24
ATOM     24  C   UNL     1      61.784  31.502  57.323  1.00  0.00    -0.000 C 
BRANCH  24  25
ATOM     25  C   UNL     1      62.486  30.158  57.619  1.00  0.00    -0.000 C 
BRANCH  25  26
ATOM     26  C   UNL     1      61.573  28.942  57.415  1.00  0.00    -0.000 C 
BRANCH  26  27
ATOM     27  C   UNL     1      60.255  29.347  56.744  1.00  0.00    -0.000 C 
BRANCH  27  28
ATOM     28  C   UNL     1      59.077  28.542  57.304  1.00  0.00    -0.000 C 
BRANCH  28  29
ATOM     29  C   UNL     1      58.292  29.363  58.334  1.00  0.00    -0.003 C 
ATOM     30  C   UNL     1      57.829  28.497  59.501  1.00  0.00     0.004 C 
ENDBRANCH  28  29
ENDBRANCH  27  28
ENDBRANCH  26  27
ENDBRANCH  25  26
ENDBRANCH  24  25
ENDBRANCH  23  24
ENDBRANCH  22  23
ENDBRANCH  21  22
ENDBRANCH  20  21
ENDBRANCH  19  20
ENDBRANCH  18  19
ENDBRANCH  17  18
ENDBRANCH   1  17
TORSDOF 26
ENDMDL
MODEL 6
REMARK VINA RESULT:    -3.157      9.695     12.680
REMARK INTER + INTRA:         -12.437
REMARK INTER:                  -7.782
REMARK INTRA:                  -4.655
REMARK UNBOUND:                -4.482
REMARK SMILES CCCCCCCCCCCCCCCCCCCCCCCCCCCC(=O)[O-]
REMARK SMILES IDX 15 1 16 2 17 3 18 4 19 5 20 6 21 7 22 8 23 9 24 10 25 11
REMARK SMILES IDX 26 12 27 13 28 14 29 15 30 16 14 17 13 18 12 19 11 20 10 21
REMARK SMILES IDX 9 22 8 23 7 24 6 25 5 26 4 27 3 28 2 29 1 30
REMARK H PARENT
REMARK Flexibility Score: inf
ROOT
ATOM      1  C   UNL     1      57.195  26.991  52.407  1.00  0.00     0.000 C 
ENDROOT
BRANCH   1   2
ATOM      2  C   UNL     1      55.879  26.315  52.846  1.00  0.00     0.000 C 
BRANCH   2   3
ATOM      3  C   UNL     1      55.176  25.479  51.756  1.00  0.00     0.000 C 
BRANCH   3   4
ATOM      4  C   UNL     1      55.520  25.878  50.310  1.00  0.00     0.000 C 
BRANCH   4   5
ATOM      5  C   UNL     1      54.276  25.977  49.409  1.00  0.00     0.000 C 
BRANCH   5   6
ATOM      6  C   UNL     1      53.385  27.193  49.735  1.00  0.00     0.000 C 
BRANCH   6   7
ATOM      7  C   UNL     1      54.136  28.477  50.138  1.00  0.00     0.000 C 
BRANCH   7   8
ATOM      8  C   UNL     1      53.746  28.994  51.532  1.00  0.00     0.000 C 
BRANCH   8   9
ATOM      9  C   UNL     1      54.131  30.466  51.753  1.00  0.00     0.000 C 
BRANCH   9  10
ATOM     10  C   UNL     1      54.331  30.845  53.236  1.00  0.00     0.000 C 
BRANCH  10  11
ATOM     11  C   UNL     1      55.590  31.702  53.449  1.00  0.00     0.000 C 
BRANCH  11  12
ATOM     12  C   UNL     1      55.260  33.149  53.845  1.00  0.00     0.006 C 
BRANCH  12  13
ATOM     13  C   UNL     1      56.512  33.953  54.223  1.00  0.00     0.053 C 
BRANCH  13  14
ATOM     14  C   UNL     1      56.294  35.417  53.994  1.00  0.00     0.041 C 
ATOM     15  O   UNL     1      56.208  36.208  54.973  1.00  0.00    -0.550 OA
ATOM     16  O   UNL     1      56.158  35.907  52.702  1.00  0.00    -0.550 OA
ENDBRANCH  13  14
ENDBRANCH  12  13
ENDBRANCH  11  12
ENDBRANCH  10  11
ENDBRANCH   9  10
ENDBRANCH   8   9
ENDBRANCH   7   8
ENDBRANCH   6   7
ENDBRANCH   5   6
ENDBRANCH   4   5
ENDBRANCH   3   4
ENDBRANCH   2   3
ENDBRANCH   1   2
BRANCH   1  17
ATOM     17  C   UNL     1      57.307  28.497  52.729  1.00  0.00     0.000 C 
BRANCH  17  18
ATOM     18  C   UNL     1      57.939  29.367  51.627  1.00  0.00     0.000 C 
BRANCH  18  19
ATOM     19  C   UNL     1      57.829  28.756  50.219  1.00  0.00     0.000 C 
BRANCH  19  20
ATOM     20  C   UNL     1      59.095  29.000  49.374  1.00  0.00     0.000 C 
BRANCH  20  21
ATOM     21  C   UNL     1      59.912  27.728  49.089  1.00  0.00     0.000 C 
BRANCH  21  22
ATOM     22  C   UNL     1      59.165  26.446  49.512  1.00  0.00    -0.000 C 
BRANCH  22  23
ATOM     23  C   UNL     1      60.105  25.386  50.111  1.00  0.00    -0.000 C 
BRANCH  23  24
ATOM     24  C   UNL     1      61.236  25.976  50.988  1.00  0.00    -0.000 C 
BRANCH  24  25
ATOM     25  C   UNL     1      60.740  26.710  52.255  1.00  0.00    -0.000 C 
BRANCH  25  26
ATOM     26  C   UNL     1      61.314  28.126  52.396  1.00  0.00    -0.000 C 
BRANCH  26  27
ATOM     27  C   UNL     1      62.811  28.150  52.066  1.00  0.00    -0.000 C 
BRANCH  27  28
ATOM     28  C   UNL     1      63.104  29.090  50.889  1.00  0.00    -0.000 C 
BRANCH  28  29
ATOM     29  C   UNL     1      64.126  28.467  49.931  1.00  0.00    -0.003 C 
ATOM     30  C   UNL     1      63.440  27.798  48.744  1.00  0.00     0.004 C 
ENDBRANCH  28  29
ENDBRANCH  27  28
ENDBRANCH  26  27
ENDBRANCH  25  26
ENDBRANCH  24  25
ENDBRANCH  23  24
ENDBRANCH  22  23
ENDBRANCH  21  22
ENDBRANCH  20  21
ENDBRANCH  19  20
ENDBRANCH  18  19
ENDBRANCH  17  18
ENDBRANCH   1  17
TORSDOF 26
ENDMDL
MODEL 7
REMARK VINA RESULT:    -3.156      9.390     13.481
REMARK INTER + INTRA:         -12.436
REMARK INTER:                  -6.616
REMARK INTRA:                  -5.819
REMARK UNBOUND:                -4.482
REMARK SMILES CCCCCCCCCCCCCCCCCCCCCCCCCCCC(=O)[O-]
REMARK SMILES IDX 15 1 16 2 17 3 18 4 19 5 20 6 21 7 22 8 23 9 24 10 25 11
REMARK SMILES IDX 26 12 27 13 28 14 29 15 30 16 14 17 13 18 12 19 11 20 10 21
REMARK SMILES IDX 9 22 8 23 7 24 6 25 5 26 4 27 3 28 2 29 1 30
REMARK H PARENT
REMARK Flexibility Score: inf
ROOT
ATOM      1  C   UNL     1      53.609  27.588  49.749  1.00  0.00     0.000 C 
ENDROOT
BRANCH   1   2
ATOM      2  C   UNL     1      54.248  26.187  49.653  1.00  0.00     0.000 C 
BRANCH   2   3
ATOM      3  C   UNL     1      55.790  26.164  49.702  1.00  0.00     0.000 C 
BRANCH   3   4
ATOM      4  C   UNL     1      56.392  26.100  51.117  1.00  0.00     0.000 C 
BRANCH   4   5
ATOM      5  C   UNL     1      57.247  27.334  51.456  1.00  0.00     0.000 C 
BRANCH   5   6
ATOM      6  C   UNL     1      57.124  28.463  50.412  1.00  0.00     0.000 C 
BRANCH   6   7
ATOM      7  C   UNL     1      58.443  29.171  50.043  1.00  0.00     0.000 C 
BRANCH   7   8
ATOM      8  C   UNL     1      59.340  28.334  49.117  1.00  0.00     0.000 C 
BRANCH   8   9
ATOM      9  C   UNL     1      60.712  28.020  49.736  1.00  0.00     0.000 C 
BRANCH   9  10
ATOM     10  C   UNL     1      61.050  26.515  49.779  1.00  0.00     0.000 C 
BRANCH  10  11
ATOM     11  C   UNL     1      59.794  25.637  49.635  1.00  0.00     0.000 C 
BRANCH  11  12
ATOM     12  C   UNL     1      59.884  24.340  50.453  1.00  0.00     0.006 C 
BRANCH  12  13
ATOM     13  C   UNL     1      60.343  24.589  51.896  1.00  0.00     0.053 C 
BRANCH  13  14
ATOM     14  C   UNL     1      59.353  24.032  52.873  1.00  0.00     0.041 C 
ATOM     15  O   UNL     1      59.217  22.783  52.999  1.00  0.00    -0.550 OA
ATOM     16  O   UNL     1      58.560  24.887  53.626  1.00  0.00    -0.550 OA
ENDBRANCH  13  14
ENDBRANCH  12  13
ENDBRANCH  11  12
ENDBRANCH  10  11
ENDBRANCH   9  10
ENDBRANCH   8   9
ENDBRANCH   7   8
ENDBRANCH   6   7
ENDBRANCH   5   6
ENDBRANCH   4   5
ENDBRANCH   3   4
ENDBRANCH   2   3
ENDBRANCH   1   2
BRANCH   1  17
ATOM     17  C   UNL     1      53.023  27.958  51.128  1.00  0.00     0.000 C 
BRANCH  17  18
ATOM     18  C   UNL     1      53.814  29.012  51.925  1.00  0.00     0.000 C 
BRANCH  18  19
ATOM     19  C   UNL     1      54.266  28.524  53.313  1.00  0.00     0.000 C 
BRANCH  19  20
ATOM     20  C   UNL     1      55.377  29.409  53.912  1.00  0.00     0.000 C 
BRANCH  20  21
ATOM     21  C   UNL     1      55.762  30.611  53.031  1.00  0.00     0.000 C 
BRANCH  21  22
ATOM     22  C   UNL     1      56.947  31.408  53.616  1.00  0.00    -0.000 C 
BRANCH  22  23
ATOM     23  C   UNL     1      57.897  30.527  54.446  1.00  0.00    -0.000 C 
BRANCH  23  24
ATOM     24  C   UNL     1      59.036  29.883  53.617  1.00  0.00    -0.000 C 
BRANCH  24  25
ATOM     25  C   UNL     1      59.387  28.438  54.034  1.00  0.00    -0.000 C 
BRANCH  25  26
ATOM     26  C   UNL     1      60.732  27.957  53.473  1.00  0.00    -0.000 C 
BRANCH  26  27
ATOM     27  C   UNL     1      61.774  29.083  53.498  1.00  0.00    -0.000 C 
BRANCH  27  28
ATOM     28  C   UNL     1      62.858  28.858  52.436  1.00  0.00    -0.000 C 
BRANCH  28  29
ATOM     29  C   UNL     1      63.158  30.154  51.675  1.00  0.00    -0.003 C 
ATOM     30  C   UNL     1      61.903  31.006  51.509  1.00  0.00     0.004 C 
ENDBRANCH  28  29
ENDBRANCH  27  28
ENDBRANCH  26  27
ENDBRANCH  25  26
ENDBRANCH  24  25
ENDBRANCH  23  24
ENDBRANCH  22  23
ENDBRANCH  21  22
ENDBRANCH  20  21
ENDBRANCH  19  20
ENDBRANCH  18  19
ENDBRANCH  17  18
ENDBRANCH   1  17
TORSDOF 26
ENDMDL
MODEL 8
REMARK VINA RESULT:    -3.146      3.175      8.362
REMARK INTER + INTRA:         -12.410
REMARK INTER:                  -7.240
REMARK INTRA:                  -5.171
REMARK UNBOUND:                -4.482
REMARK SMILES CCCCCCCCCCCCCCCCCCCCCCCCCCCC(=O)[O-]
REMARK SMILES IDX 15 1 16 2 17 3 18 4 19 5 20 6 21 7 22 8 23 9 24 10 25 11
REMARK SMILES IDX 26 12 27 13 28 14 29 15 30 16 14 17 13 18 12 19 11 20 10 21
REMARK SMILES IDX 9 22 8 23 7 24 6 25 5 26 4 27 3 28 2 29 1 30
REMARK H PARENT
REMARK Flexibility Score: inf
ROOT
ATOM      1  C   UNL     1      63.671  35.139  61.047  1.00  0.00     0.000 C 
ENDROOT
BRANCH   1   2
ATOM      2  C   UNL     1      64.758  35.249  59.958  1.00  0.00     0.000 C 
BRANCH   2   3
ATOM      3  C   UNL     1      64.271  35.790  58.597  1.00  0.00     0.000 C 
BRANCH   3   4
ATOM      4  C   UNL     1      64.735  34.981  57.374  1.00  0.00     0.000 C 
BRANCH   4   5
ATOM      5  C   UNL     1      65.777  33.906  57.732  1.00  0.00     0.000 C 
BRANCH   5   6
ATOM      6  C   UNL     1      65.252  32.467  57.549  1.00  0.00     0.000 C 
BRANCH   6   7
ATOM      7  C   UNL     1      65.703  31.456  58.622  1.00  0.00     0.000 C 
BRANCH   7   8
ATOM      8  C   UNL     1      64.955  31.616  59.956  1.00  0.00     0.000 C 
BRANCH   8   9
ATOM      9  C   UNL     1      64.617  30.270  60.617  1.00  0.00     0.000 C 
BRANCH   9  10
ATOM     10  C   UNL     1      65.046  29.040  59.788  1.00  0.00     0.000 C 
BRANCH  10  11
ATOM     11  C   UNL     1      65.483  27.865  60.680  1.00  0.00     0.000 C 
BRANCH  11  12
ATOM     12  C   UNL     1      66.911  27.390  60.374  1.00  0.00     0.006 C 
BRANCH  12  13
ATOM     13  C   UNL     1      67.704  28.414  59.550  1.00  0.00     0.053 C 
BRANCH  13  14
ATOM     14  C   UNL     1      68.709  29.122  60.405  1.00  0.00     0.041 C 
ATOM     15  O   UNL     1      69.534  29.923  59.885  1.00  0.00    -0.550 OA
ATOM     16  O   UNL     1      68.756  28.879  61.771  1.00  0.00    -0.550 OA
ENDBRANCH  13  14
ENDBRANCH  12  13
ENDBRANCH  11  12
ENDBRANCH  10  11
ENDBRANCH   9  10
ENDBRANCH   8   9
ENDBRANCH   7   8
ENDBRANCH   6   7
ENDBRANCH   5   6
ENDBRANCH   4   5
ENDBRANCH   3   4
ENDBRANCH   2   3
ENDBRANCH   1   2
BRANCH   1  17
ATOM     17  C   UNL     1      62.579  36.229  61.009  1.00  0.00     0.000 C 
BRANCH  17  18
ATOM     18  C   UNL     1      61.169  35.745  60.624  1.00  0.00     0.000 C 
BRANCH  18  19
ATOM     19  C   UNL     1      60.363  36.776  59.814  1.00  0.00     0.000 C 
BRANCH  19  20
ATOM     20  C   UNL     1      59.875  36.210  58.466  1.00  0.00     0.000 C 
BRANCH  20  21
ATOM     21  C   UNL     1      60.762  36.594  57.269  1.00  0.00     0.000 C 
BRANCH  21  22
ATOM     22  C   UNL     1      61.206  35.363  56.452  1.00  0.00    -0.000 C 
BRANCH  22  23
ATOM     23  C   UNL     1      60.462  34.081  56.866  1.00  0.00    -0.000 C 
BRANCH  23  24
ATOM     24  C   UNL     1      61.399  32.888  57.178  1.00  0.00    -0.000 C 
BRANCH  24  25
ATOM     25  C   UNL     1      61.845  32.799  58.654  1.00  0.00    -0.000 C 
BRANCH  25  26
ATOM     26  C   UNL     1      60.862  32.019  59.536  1.00  0.00    -0.000 C 
BRANCH  26  27
ATOM     27  C   UNL     1      61.240  32.133  61.018  1.00  0.00    -0.000 C 
BRANCH  27  28
ATOM     28  C   UNL     1      61.195  30.764  61.708  1.00  0.00    -0.000 C 
BRANCH  28  29
ATOM     29  C   UNL     1      60.448  29.740  60.846  1.00  0.00    -0.003 C 
ATOM     30  C   UNL     1      61.315  28.518  60.557  1.00  0.00     0.004 C 
ENDBRANCH  28  29
ENDBRANCH  27  28
ENDBRANCH  26  27
ENDBRANCH  25  26
ENDBRANCH  24  25
ENDBRANCH  23  24
ENDBRANCH  22  23
ENDBRANCH  21  22
ENDBRANCH  20  21
ENDBRANCH  19  20
ENDBRANCH  18  19
ENDBRANCH  17  18
ENDBRANCH   1  17
TORSDOF 26
ENDMDL
MODEL 9
REMARK VINA RESULT:    -3.110     11.531     15.107
REMARK INTER + INTRA:         -12.319
REMARK INTER:                  -7.488
REMARK INTRA:                  -4.830
REMARK UNBOUND:                -4.482
REMARK SMILES CCCCCCCCCCCCCCCCCCCCCCCCCCCC(=O)[O-]
REMARK SMILES IDX 15 1 16 2 17 3 18 4 19 5 20 6 21 7 22 8 23 9 24 10 25 11
REMARK SMILES IDX 26 12 27 13 28 14 29 15 30 16 14 17 13 18 12 19 11 20 10 21
REMARK SMILES IDX 9 22 8 23 7 24 6 25 5 26 4 27 3 28 2 29 1 30
REMARK H PARENT
REMARK Flexibility Score: inf
ROOT
ATOM      1  C   UNL     1      56.388  25.760  52.630  1.00  0.00     0.000 C 
ENDROOT
BRANCH   1   2
ATOM      2  C   UNL     1      57.253  26.193  53.832  1.00  0.00     0.000 C 
BRANCH   2   3
ATOM      3  C   UNL     1      57.717  27.665  53.811  1.00  0.00     0.000 C 
BRANCH   3   4
ATOM      4  C   UNL     1      59.097  27.900  53.173  1.00  0.00     0.000 C 
BRANCH   4   5
ATOM      5  C   UNL     1      59.180  29.235  52.410  1.00  0.00     0.000 C 
BRANCH   5   6
ATOM      6  C   UNL     1      57.912  29.544  51.587  1.00  0.00     0.000 C 
BRANCH   6   7
ATOM      7  C   UNL     1      57.768  28.756  50.270  1.00  0.00     0.000 C 
BRANCH   7   8
ATOM      8  C   UNL     1      59.081  28.663  49.475  1.00  0.00     0.000 C 
BRANCH   8   9
ATOM      9  C   UNL     1      59.643  27.233  49.416  1.00  0.00     0.000 C 
BRANCH   9  10
ATOM     10  C   UNL     1      58.601  26.137  49.723  1.00  0.00     0.000 C 
BRANCH  10  11
ATOM     11  C   UNL     1      59.189  25.004  50.582  1.00  0.00     0.000 C 
BRANCH  11  12
ATOM     12  C   UNL     1      60.663  25.241  50.944  1.00  0.00     0.006 C 
BRANCH  12  13
ATOM     13  C   UNL     1      61.620  24.413  50.077  1.00  0.00     0.053 C 
BRANCH  13  14
ATOM     14  C   UNL     1      61.343  22.949  50.229  1.00  0.00     0.041 C 
ATOM     15  O   UNL     1      61.025  22.254  49.224  1.00  0.00    -0.550 OA
ATOM     16  O   UNL     1      61.409  22.353  51.482  1.00  0.00    -0.550 OA
ENDBRANCH  13  14
ENDBRANCH  12  13
ENDBRANCH  11  12
ENDBRANCH  10  11
ENDBRANCH   9  10
ENDBRANCH   8   9
ENDBRANCH   7   8
ENDBRANCH   6   7
ENDBRANCH   5   6
ENDBRANCH   4   5
ENDBRANCH   3   4
ENDBRANCH   2   3
ENDBRANCH   1   2
BRANCH   1  17
ATOM     17  C   UNL     1      54.864  25.752  52.877  1.00  0.00     0.000 C 
BRANCH  17  18
ATOM     18  C   UNL     1      53.995  25.389  51.659  1.00  0.00     0.000 C 
BRANCH  18  19
ATOM     19  C   UNL     1      54.715  25.572  50.311  1.00  0.00     0.000 C 
BRANCH  19  20
ATOM     20  C   UNL     1      54.493  26.976  49.715  1.00  0.00     0.000 C 
BRANCH  20  21
ATOM     21  C   UNL     1      53.026  27.439  49.732  1.00  0.00     0.000 C 
BRANCH  21  22
ATOM     22  C   UNL     1      52.875  28.883  50.253  1.00  0.00    -0.000 C 
BRANCH  22  23
ATOM     23  C   UNL     1      54.231  29.564  50.506  1.00  0.00    -0.000 C 
BRANCH  23  24
ATOM     24  C   UNL     1      54.321  30.291  51.871  1.00  0.00    -0.000 C 
BRANCH  24  25
ATOM     25  C   UNL     1      54.234  29.355  53.097  1.00  0.00    -0.000 C 
BRANCH  25  26
ATOM     26  C   UNL     1      54.967  29.904  54.328  1.00  0.00    -0.000 C 
BRANCH  26  27
ATOM     27  C   UNL     1      54.004  30.661  55.251  1.00  0.00    -0.000 C 
BRANCH  27  28
ATOM     28  C   UNL     1      54.591  32.013  55.674  1.00  0.00    -0.000 C 
BRANCH  28  29
ATOM     29  C   UNL     1      53.630  33.159  55.335  1.00  0.00    -0.003 C 
ATOM     30  C   UNL     1      53.633  33.464  53.841  1.00  0.00     0.004 C 
ENDBRANCH  28  29
ENDBRANCH  27  28
ENDBRANCH  26  27
ENDBRANCH  25  26
ENDBRANCH  24  25
ENDBRANCH  23  24
ENDBRANCH  22  23
ENDBRANCH  21  22
ENDBRANCH  20  21
ENDBRANCH  19  20
ENDBRANCH  18  19
ENDBRANCH  17  18
ENDBRANCH   1  17
TORSDOF 26
ENDMDL
