MODEL 1
REMARK VINA RESULT:    -4.203      0.000      0.000
REMARK INTER + INTRA:          -5.771
REMARK INTER:                  -5.677
REMARK INTRA:                  -0.095
REMARK UNBOUND:                -0.095
REMARK SMILES [NH3+]CCCC[C@H]([NH3+])C(=O)[O-]
REMARK SMILES IDX 4 1 3 2 2 3 1 4 5 8 6 9 7 10 8 14 9 15 10 16
REMARK H PARENT 1 5 1 6 1 7 7 11 7 12 7 13
REMARK Flexibility Score: inf
ROOT
ATOM      1  C   UNL     1      26.616  27.023  23.472  1.00  0.00     0.012 C 
ENDROOT
BRANCH   1   2
ATOM      2  C   UNL     1      25.137  27.367  23.737  1.00  0.00     0.061 C 
BRANCH   2   3
ATOM      3  C   UNL     1      24.874  28.832  24.134  1.00  0.00     0.258 C 
BRANCH   3   4
ATOM      4  N   UNL     1      24.377  29.628  23.010  1.00  0.00    -0.358 N 
ATOM      5  H   UNL     1      24.555  30.640  23.206  1.00  0.00     0.344 HD
ATOM      6  H   UNL     1      23.348  29.487  22.889  1.00  0.00     0.344 HD
ATOM      7  H   UNL     1      24.880  29.371  22.131  1.00  0.00     0.344 HD
ENDBRANCH   3   4
ENDBRANCH   2   3
ENDBRANCH   1   2
BRANCH   1   8
ATOM      8  C   UNL     1      26.858  25.977  22.364  1.00  0.00     0.072 C 
BRANCH   8   9
ATOM      9  C   UNL     1      28.038  26.306  21.420  1.00  0.00     0.227 C 
BRANCH   9  10
ATOM     10  N   UNL     1      27.640  26.109  20.021  1.00  0.00    -0.350 N 
ATOM     11  H   UNL     1      28.165  25.302  19.614  1.00  0.00     0.345 HD
ATOM     12  H   UNL     1      26.617  25.891  19.970  1.00  0.00     0.345 HD
ATOM     13  H   UNL     1      27.837  26.966  19.455  1.00  0.00     0.345 HD
ENDBRANCH   9  10
BRANCH   9  14
ATOM     14  C   UNL     1      29.240  25.454  21.735  1.00  0.00     0.099 C 
ATOM     15  O   UNL     1      29.458  24.401  21.080  1.00  0.00    -0.544 OA
ATOM     16  O   UNL     1      30.119  25.826  22.745  1.00  0.00    -0.544 OA
ENDBRANCH   9  14
ENDBRANCH   8   9
ENDBRANCH   1   8
TORSDOF 7
ENDMDL
MODEL 2
REMARK VINA RESULT:    -4.032      2.101      2.446
REMARK INTER + INTRA:          -5.541
REMARK INTER:                  -5.428
REMARK INTRA:                  -0.113
REMARK UNBOUND:                -0.095
REMARK SMILES [NH3+]CCCC[C@H]([NH3+])C(=O)[O-]
REMARK SMILES IDX 4 1 3 2 2 3 1 4 5 8 6 9 7 10 8 14 9 15 10 16
REMARK H PARENT 1 5 1 6 1 7 7 11 7 12 7 13
REMARK Flexibility Score: inf
ROOT
ATOM      1  C   UNL     1      26.108  26.281  22.591  1.00  0.00     0.012 C 
ENDROOT
BRANCH   1   2
ATOM      2  C   UNL     1      25.365  25.892  23.884  1.00  0.00     0.061 C 
BRANCH   2   3
ATOM      3  C   UNL     1      24.708  24.499  23.859  1.00  0.00     0.258 C 
BRANCH   3   4
ATOM      4  N   UNL     1      25.076  23.736  22.665  1.00  0.00    -0.358 N 
ATOM      5  H   UNL     1      25.347  24.402  21.905  1.00  0.00     0.344 HD
ATOM      6  H   UNL     1      24.267  23.161  22.335  1.00  0.00     0.344 HD
ATOM      7  H   UNL     1      25.895  23.118  22.867  1.00  0.00     0.344 HD
ENDBRANCH   3   4
ENDBRANCH   2   3
ENDBRANCH   1   2
BRANCH   1   8
ATOM      8  C   UNL     1      27.605  26.611  22.767  1.00  0.00     0.072 C 
BRANCH   8   9
ATOM      9  C   UNL     1      28.458  26.416  21.492  1.00  0.00     0.227 C 
BRANCH   9  10
ATOM     10  N   UNL     1      27.598  26.084  20.351  1.00  0.00    -0.350 N 
ATOM     11  H   UNL     1      26.841  25.430  20.656  1.00  0.00     0.345 HD
ATOM     12  H   UNL     1      27.148  26.953  19.980  1.00  0.00     0.345 HD
ATOM     13  H   UNL     1      28.152  25.631  19.587  1.00  0.00     0.345 HD
ENDBRANCH   9  10
BRANCH   9  14
ATOM     14  C   UNL     1      29.490  25.335  21.688  1.00  0.00     0.099 C 
ATOM     15  O   UNL     1      29.477  24.309  20.958  1.00  0.00    -0.544 OA
ATOM     16  O   UNL     1      30.464  25.464  22.670  1.00  0.00    -0.544 OA
ENDBRANCH   9  14
ENDBRANCH   8   9
ENDBRANCH   1   8
TORSDOF 7
ENDMDL
MODEL 3
REMARK VINA RESULT:    -4.007      8.885      9.704
REMARK INTER + INTRA:          -5.507
REMARK INTER:                  -5.435
REMARK INTRA:                  -0.071
REMARK UNBOUND:                -0.095
REMARK SMILES [NH3+]CCCC[C@H]([NH3+])C(=O)[O-]
REMARK SMILES IDX 4 1 3 2 2 3 1 4 5 8 6 9 7 10 8 14 9 15 10 16
REMARK H PARENT 1 5 1 6 1 7 7 11 7 12 7 13
REMARK Flexibility Score: inf
ROOT
ATOM      1  C   UNL     1      20.136  19.783  21.474  1.00  0.00     0.012 C 
ENDROOT
BRANCH   1   2
ATOM      2  C   UNL     1      19.785  18.348  21.916  1.00  0.00     0.061 C 
BRANCH   2   3
ATOM      3  C   UNL     1      18.713  17.651  21.058  1.00  0.00     0.258 C 
BRANCH   3   4
ATOM      4  N   UNL     1      19.196  17.346  19.710  1.00  0.00    -0.358 N 
ATOM      5  H   UNL     1      18.405  16.962  19.144  1.00  0.00     0.344 HD
ATOM      6  H   UNL     1      19.958  16.632  19.748  1.00  0.00     0.344 HD
ATOM      7  H   UNL     1      19.541  18.215  19.243  1.00  0.00     0.344 HD
ENDBRANCH   3   4
ENDBRANCH   2   3
ENDBRANCH   1   2
BRANCH   1   8
ATOM      8  C   UNL     1      21.045  20.566  22.445  1.00  0.00     0.072 C 
BRANCH   8   9
ATOM      9  C   UNL     1      21.703  21.824  21.833  1.00  0.00     0.227 C 
BRANCH   9  10
ATOM     10  N   UNL     1      22.991  21.477  21.221  1.00  0.00    -0.350 N 
ATOM     11  H   UNL     1      23.432  20.689  21.748  1.00  0.00     0.345 HD
ATOM     12  H   UNL     1      22.843  21.166  20.233  1.00  0.00     0.345 HD
ATOM     13  H   UNL     1      23.639  22.298  21.229  1.00  0.00     0.345 HD
ENDBRANCH   9  10
BRANCH   9  14
ATOM     14  C   UNL     1      21.902  22.895  22.874  1.00  0.00     0.099 C 
ATOM     15  O   UNL     1      23.034  23.426  23.026  1.00  0.00    -0.544 OA
ATOM     16  O   UNL     1      20.840  23.307  23.669  1.00  0.00    -0.544 OA
ENDBRANCH   9  14
ENDBRANCH   8   9
ENDBRANCH   1   8
TORSDOF 7
ENDMDL
MODEL 4
REMARK VINA RESULT:    -3.908      1.097      1.293
REMARK INTER + INTRA:          -5.373
REMARK INTER:                  -5.278
REMARK INTRA:                  -0.096
REMARK UNBOUND:                -0.095
REMARK SMILES [NH3+]CCCC[C@H]([NH3+])C(=O)[O-]
REMARK SMILES IDX 4 1 3 2 2 3 1 4 5 8 6 9 7 10 8 14 9 15 10 16
REMARK H PARENT 1 5 1 6 1 7 7 11 7 12 7 13
REMARK Flexibility Score: inf
ROOT
ATOM      1  C   UNL     1      25.485  27.263  23.592  1.00  0.00     0.012 C 
ENDROOT
BRANCH   1   2
ATOM      2  C   UNL     1      25.185  28.257  24.732  1.00  0.00     0.061 C 
BRANCH   2   3
ATOM      3  C   UNL     1      24.259  29.426  24.344  1.00  0.00     0.258 C 
BRANCH   3   4
ATOM      4  N   UNL     1      24.346  29.751  22.920  1.00  0.00    -0.358 N 
ATOM      5  H   UNL     1      25.249  29.383  22.541  1.00  0.00     0.344 HD
ATOM      6  H   UNL     1      24.320  30.787  22.779  1.00  0.00     0.344 HD
ATOM      7  H   UNL     1      23.562  29.299  22.395  1.00  0.00     0.344 HD
ENDBRANCH   3   4
ENDBRANCH   2   3
ENDBRANCH   1   2
BRANCH   1   8
ATOM      8  C   UNL     1      26.981  26.969  23.355  1.00  0.00     0.072 C 
BRANCH   8   9
ATOM      9  C   UNL     1      27.278  26.165  22.067  1.00  0.00     0.227 C 
BRANCH   9  10
ATOM     10  N   UNL     1      26.614  24.857  22.120  1.00  0.00    -0.350 N 
ATOM     11  H   UNL     1      25.927  24.777  21.336  1.00  0.00     0.345 HD
ATOM     12  H   UNL     1      27.323  24.094  22.011  1.00  0.00     0.345 HD
ATOM     13  H   UNL     1      26.112  24.733  23.028  1.00  0.00     0.345 HD
ENDBRANCH   9  10
BRANCH   9  14
ATOM     14  C   UNL     1      28.761  25.979  21.873  1.00  0.00     0.099 C 
ATOM     15  O   UNL     1      29.205  24.907  21.383  1.00  0.00    -0.544 OA
ATOM     16  O   UNL     1      29.647  26.989  22.227  1.00  0.00    -0.544 OA
ENDBRANCH   9  14
ENDBRANCH   8   9
ENDBRANCH   1   8
TORSDOF 7
ENDMDL
MODEL 5
REMARK VINA RESULT:    -3.814      4.356      5.256
REMARK INTER + INTRA:          -5.247
REMARK INTER:                  -5.176
REMARK INTRA:                  -0.070
REMARK UNBOUND:                -0.095
REMARK SMILES [NH3+]CCCC[C@H]([NH3+])C(=O)[O-]
REMARK SMILES IDX 4 1 3 2 2 3 1 4 5 8 6 9 7 10 8 14 9 15 10 16
REMARK H PARENT 1 5 1 6 1 7 7 11 7 12 7 13
REMARK Flexibility Score: inf
ROOT
ATOM      1  C   UNL     1      24.080  23.536  22.576  1.00  0.00     0.012 C 
ENDROOT
BRANCH   1   2
ATOM      2  C   UNL     1      22.585  23.288  22.862  1.00  0.00     0.061 C 
BRANCH   2   3
ATOM      3  C   UNL     1      22.003  22.021  22.209  1.00  0.00     0.258 C 
BRANCH   3   4
ATOM      4  N   UNL     1      22.897  21.461  21.193  1.00  0.00    -0.358 N 
ATOM      5  H   UNL     1      23.887  21.577  21.510  1.00  0.00     0.344 HD
ATOM      6  H   UNL     1      22.776  21.964  20.284  1.00  0.00     0.344 HD
ATOM      7  H   UNL     1      22.710  20.441  21.066  1.00  0.00     0.344 HD
ENDBRANCH   3   4
ENDBRANCH   2   3
ENDBRANCH   1   2
BRANCH   1   8
ATOM      8  C   UNL     1      24.774  24.534  23.526  1.00  0.00     0.072 C 
BRANCH   8   9
ATOM      9  C   UNL     1      25.431  25.742  22.818  1.00  0.00     0.227 C 
BRANCH   9  10
ATOM     10  N   UNL     1      26.708  25.344  22.216  1.00  0.00    -0.350 N 
ATOM     11  H   UNL     1      27.482  25.480  22.906  1.00  0.00     0.345 HD
ATOM     12  H   UNL     1      26.679  24.331  21.955  1.00  0.00     0.345 HD
ATOM     13  H   UNL     1      26.909  25.913  21.361  1.00  0.00     0.345 HD
ENDBRANCH   9  10
BRANCH   9  14
ATOM     14  C   UNL     1      25.650  26.882  23.778  1.00  0.00     0.099 C 
ATOM     15  O   UNL     1      26.378  26.723  24.793  1.00  0.00    -0.544 OA
ATOM     16  O   UNL     1      25.055  28.116  23.549  1.00  0.00    -0.544 OA
ENDBRANCH   9  14
ENDBRANCH   8   9
ENDBRANCH   1   8
TORSDOF 7
ENDMDL
MODEL 6
REMARK VINA RESULT:    -3.707      2.551      4.577
REMARK INTER + INTRA:          -5.102
REMARK INTER:                  -4.953
REMARK INTRA:                  -0.150
REMARK UNBOUND:                -0.095
REMARK SMILES [NH3+]CCCC[C@H]([NH3+])C(=O)[O-]
REMARK SMILES IDX 4 1 3 2 2 3 1 4 5 8 6 9 7 10 8 14 9 15 10 16
REMARK H PARENT 1 5 1 6 1 7 7 11 7 12 7 13
REMARK Flexibility Score: inf
ROOT
ATOM      1  C   UNL     1      28.662  26.970  22.546  1.00  0.00     0.012 C 
ENDROOT
BRANCH   1   2
ATOM      2  C   UNL     1      29.271  25.643  22.051  1.00  0.00     0.061 C 
BRANCH   2   3
ATOM      3  C   UNL     1      28.698  25.126  20.718  1.00  0.00     0.258 C 
BRANCH   3   4
ATOM      4  N   UNL     1      27.866  26.127  20.048  1.00  0.00    -0.358 N 
ATOM      5  H   UNL     1      27.513  25.729  19.148  1.00  0.00     0.344 HD
ATOM      6  H   UNL     1      28.425  26.986  19.838  1.00  0.00     0.344 HD
ATOM      7  H   UNL     1      27.043  26.372  20.643  1.00  0.00     0.344 HD
ENDBRANCH   3   4
ENDBRANCH   2   3
ENDBRANCH   1   2
BRANCH   1   8
ATOM      8  C   UNL     1      27.548  26.827  23.604  1.00  0.00     0.072 C 
BRANCH   8   9
ATOM      9  C   UNL     1      26.122  26.697  23.019  1.00  0.00     0.227 C 
BRANCH   9  10
ATOM     10  N   UNL     1      25.364  27.932  23.250  1.00  0.00    -0.350 N 
ATOM     11  H   UNL     1      24.601  28.017  22.540  1.00  0.00     0.345 HD
ATOM     12  H   UNL     1      24.923  27.906  24.200  1.00  0.00     0.345 HD
ATOM     13  H   UNL     1      25.987  28.769  23.184  1.00  0.00     0.345 HD
ENDBRANCH   9  10
BRANCH   9  14
ATOM     14  C   UNL     1      25.391  25.526  23.623  1.00  0.00     0.099 C 
ATOM     15  O   UNL     1      24.899  25.616  24.779  1.00  0.00    -0.544 OA
ATOM     16  O   UNL     1      25.251  24.342  22.910  1.00  0.00    -0.544 OA
ENDBRANCH   9  14
ENDBRANCH   8   9
ENDBRANCH   1   8
TORSDOF 7
ENDMDL
MODEL 7
REMARK VINA RESULT:    -3.702      3.062      4.098
REMARK INTER + INTRA:          -5.096
REMARK INTER:                  -4.987
REMARK INTRA:                  -0.109
REMARK UNBOUND:                -0.095
REMARK SMILES [NH3+]CCCC[C@H]([NH3+])C(=O)[O-]
REMARK SMILES IDX 4 1 3 2 2 3 1 4 5 8 6 9 7 10 8 14 9 15 10 16
REMARK H PARENT 1 5 1 6 1 7 7 11 7 12 7 13
REMARK Flexibility Score: inf
ROOT
ATOM      1  C   UNL     1      30.024  27.492  22.092  1.00  0.00     0.012 C 
ENDROOT
BRANCH   1   2
ATOM      2  C   UNL     1      30.637  28.515  23.069  1.00  0.00     0.061 C 
BRANCH   2   3
ATOM      3  C   UNL     1      30.778  29.942  22.507  1.00  0.00     0.258 C 
BRANCH   3   4
ATOM      4  N   UNL     1      32.056  30.143  21.823  1.00  0.00    -0.358 N 
ATOM      5  H   UNL     1      32.749  30.531  22.505  1.00  0.00     0.344 HD
ATOM      6  H   UNL     1      31.946  30.822  21.035  1.00  0.00     0.344 HD
ATOM      7  H   UNL     1      32.424  29.234  21.464  1.00  0.00     0.344 HD
ENDBRANCH   3   4
ENDBRANCH   2   3
ENDBRANCH   1   2
BRANCH   1   8
ATOM      8  C   UNL     1      28.782  26.743  22.618  1.00  0.00     0.072 C 
BRANCH   8   9
ATOM      9  C   UNL     1      27.910  26.096  21.517  1.00  0.00     0.227 C 
BRANCH   9  10
ATOM     10  N   UNL     1      26.903  25.214  22.119  1.00  0.00    -0.350 N 
ATOM     11  H   UNL     1      26.095  25.782  22.462  1.00  0.00     0.345 HD
ATOM     12  H   UNL     1      26.547  24.540  21.402  1.00  0.00     0.345 HD
ATOM     13  H   UNL     1      27.310  24.680  22.922  1.00  0.00     0.345 HD
ENDBRANCH   9  10
BRANCH   9  14
ATOM     14  C   UNL     1      28.755  25.317  20.542  1.00  0.00     0.099 C 
ATOM     15  O   UNL     1      28.756  25.625  19.321  1.00  0.00    -0.544 OA
ATOM     16  O   UNL     1      29.541  24.260  20.983  1.00  0.00    -0.544 OA
ENDBRANCH   9  14
ENDBRANCH   8   9
ENDBRANCH   1   8
TORSDOF 7
ENDMDL
MODEL 8
REMARK VINA RESULT:    -3.680      3.252      4.500
REMARK INTER + INTRA:          -5.065
REMARK INTER:                  -4.951
REMARK INTRA:                  -0.115
REMARK UNBOUND:                -0.095
REMARK SMILES [NH3+]CCCC[C@H]([NH3+])C(=O)[O-]
REMARK SMILES IDX 4 1 3 2 2 3 1 4 5 8 6 9 7 10 8 14 9 15 10 16
REMARK H PARENT 1 5 1 6 1 7 7 11 7 12 7 13
REMARK Flexibility Score: inf
ROOT
ATOM      1  C   UNL     1      29.831  27.520  21.574  1.00  0.00     0.012 C 
ENDROOT
BRANCH   1   2
ATOM      2  C   UNL     1      30.391  28.551  22.574  1.00  0.00     0.061 C 
BRANCH   2   3
ATOM      3  C   UNL     1      31.891  28.860  22.413  1.00  0.00     0.258 C 
BRANCH   3   4
ATOM      4  N   UNL     1      32.125  30.120  21.706  1.00  0.00    -0.358 N 
ATOM      5  H   UNL     1      33.094  30.114  21.312  1.00  0.00     0.344 HD
ATOM      6  H   UNL     1      32.035  30.929  22.362  1.00  0.00     0.344 HD
ATOM      7  H   UNL     1      31.450  30.223  20.915  1.00  0.00     0.344 HD
ENDBRANCH   3   4
ENDBRANCH   2   3
ENDBRANCH   1   2
BRANCH   1   8
ATOM      8  C   UNL     1      29.356  26.192  22.198  1.00  0.00     0.072 C 
BRANCH   8   9
ATOM      9  C   UNL     1      27.940  25.748  21.760  1.00  0.00     0.227 C 
BRANCH   9  10
ATOM     10  N   UNL     1      27.665  26.206  20.393  1.00  0.00    -0.350 N 
ATOM     11  H   UNL     1      26.669  26.514  20.317  1.00  0.00     0.345 HD
ATOM     12  H   UNL     1      28.277  27.022  20.161  1.00  0.00     0.345 HD
ATOM     13  H   UNL     1      27.838  25.439  19.703  1.00  0.00     0.345 HD
ENDBRANCH   9  10
BRANCH   9  14
ATOM     14  C   UNL     1      26.889  26.279  22.700  1.00  0.00     0.099 C 
ATOM     15  O   UNL     1      25.685  25.941  22.557  1.00  0.00    -0.544 OA
ATOM     16  O   UNL     1      27.241  27.140  23.732  1.00  0.00    -0.544 OA
ENDBRANCH   9  14
ENDBRANCH   8   9
ENDBRANCH   1   8
TORSDOF 7
ENDMDL
MODEL 9
REMARK VINA RESULT:    -3.556      2.666      4.388
REMARK INTER + INTRA:          -4.898
REMARK INTER:                  -4.447
REMARK INTRA:                  -0.452
REMARK UNBOUND:                -0.095
REMARK SMILES [NH3+]CCCC[C@H]([NH3+])C(=O)[O-]
REMARK SMILES IDX 4 1 3 2 2 3 1 4 5 8 6 9 7 10 8 14 9 15 10 16
REMARK H PARENT 1 5 1 6 1 7 7 11 7 12 7 13
REMARK Flexibility Score: inf
ROOT
ATOM      1  C   UNL     1      29.819  27.756  22.755  1.00  0.00     0.012 C 
ENDROOT
BRANCH   1   2
ATOM      2  C   UNL     1      31.161  27.288  23.352  1.00  0.00     0.061 C 
BRANCH   2   3
ATOM      3  C   UNL     1      31.066  26.055  24.271  1.00  0.00     0.258 C 
BRANCH   3   4
ATOM      4  N   UNL     1      31.625  24.855  23.646  1.00  0.00    -0.358 N 
ATOM      5  H   UNL     1      30.958  24.060  23.779  1.00  0.00     0.344 HD
ATOM      6  H   UNL     1      32.538  24.604  24.090  1.00  0.00     0.344 HD
ATOM      7  H   UNL     1      31.755  25.006  22.620  1.00  0.00     0.344 HD
ENDBRANCH   3   4
ENDBRANCH   2   3
ENDBRANCH   1   2
BRANCH   1   8
ATOM      8  C   UNL     1      28.680  26.717  22.805  1.00  0.00     0.072 C 
BRANCH   8   9
ATOM      9  C   UNL     1      28.035  26.406  21.434  1.00  0.00     0.227 C 
BRANCH   9  10
ATOM     10  N   UNL     1      26.642  25.981  21.612  1.00  0.00    -0.350 N 
ATOM     11  H   UNL     1      25.999  26.698  21.206  1.00  0.00     0.345 HD
ATOM     12  H   UNL     1      26.479  25.077  21.112  1.00  0.00     0.345 HD
ATOM     13  H   UNL     1      26.418  25.858  22.627  1.00  0.00     0.345 HD
ENDBRANCH   9  10
BRANCH   9  14
ATOM     14  C   UNL     1      28.806  25.339  20.701  1.00  0.00     0.099 C 
ATOM     15  O   UNL     1      29.529  24.529  21.339  1.00  0.00    -0.544 OA
ATOM     16  O   UNL     1      28.722  25.238  19.318  1.00  0.00    -0.544 OA
ENDBRANCH   9  14
ENDBRANCH   8   9
ENDBRANCH   1   8
TORSDOF 7
ENDMDL
