MODEL 1
REMARK VINA RESULT:    -5.877      0.000      0.000
REMARK INTER + INTRA:          -7.304
REMARK INTER:                  -6.907
REMARK INTRA:                  -0.397
REMARK UNBOUND:                -0.397
REMARK SMILES C=C[C@@]1(C)CC[C@H](C(=C)C)C[C@@H]1C(=C)C
REMARK SMILES IDX 7 1 6 2 5 3 3 4 12 5 11 6 4 7 8 8 10 9 9 10 13 11 14 12
REMARK SMILES IDX 15 13 2 14 1 15
REMARK H PARENT
REMARK Flexibility Score: inf
ROOT
ATOM      1  C   UNL     1     172.901 172.666 179.480  1.00  0.00     0.015 C 
ATOM      2  C   UNL     1     171.643 173.385 178.960  1.00  0.00     0.009 C 
ATOM      3  C   UNL     1     171.126 172.726 177.673  1.00  0.00     0.012 C 
ATOM      4  C   UNL     1     172.190 172.674 176.536  1.00  0.00    -0.008 C 
ATOM      5  C   UNL     1     173.499 172.000 177.097  1.00  0.00     0.024 C 
ATOM      6  C   UNL     1     174.004 172.653 178.406  1.00  0.00     0.017 C 
ATOM      7  C   UNL     1     172.454 174.101 175.991  1.00  0.00     0.016 C 
ENDROOT
BRANCH   1   8
ATOM      8  C   UNL     1     173.397 173.284 180.781  1.00  0.00    -0.077 C 
ATOM      9  C   UNL     1     174.779 172.967 181.290  1.00  0.00     0.039 C 
ATOM     10  C   UNL     1     172.624 174.118 181.498  1.00  0.00     0.008 C 
ENDBRANCH   1   8
BRANCH   5  11
ATOM     11  C   UNL     1     174.634 171.866 176.073  1.00  0.00    -0.077 C 
ATOM     12  C   UNL     1     174.847 170.689 175.461  1.00  0.00     0.008 C 
ATOM     13  C   UNL     1     175.556 173.012 175.730  1.00  0.00     0.039 C 
ENDBRANCH   5  11
BRANCH   4  14
ATOM     14  C   UNL     1     171.629 171.813 175.403  1.00  0.00    -0.028 C 
ATOM     15  C   UNL     1     171.131 170.583 175.593  1.00  0.00     0.004 C 
ENDBRANCH   4  14
TORSDOF 3
ENDMDL
MODEL 2
REMARK VINA RESULT:    -5.778      1.206      3.221
REMARK INTER + INTRA:          -7.188
REMARK INTER:                  -6.787
REMARK INTRA:                  -0.402
REMARK UNBOUND:                -0.397
REMARK SMILES C=C[C@@]1(C)CC[C@H](C(=C)C)C[C@@H]1C(=C)C
REMARK SMILES IDX 7 1 6 2 5 3 3 4 12 5 11 6 4 7 8 8 10 9 9 10 13 11 14 12
REMARK SMILES IDX 15 13 2 14 1 15
REMARK H PARENT
REMARK Flexibility Score: inf
ROOT
ATOM      1  C   UNL     1     173.461 173.496 179.187  1.00  0.00     0.015 C 
ATOM      2  C   UNL     1     174.839 172.992 178.726  1.00  0.00     0.009 C 
ATOM      3  C   UNL     1     175.044 173.246 177.226  1.00  0.00     0.012 C 
ATOM      4  C   UNL     1     173.941 172.600 176.334  1.00  0.00    -0.008 C 
ATOM      5  C   UNL     1     172.529 173.066 176.858  1.00  0.00     0.024 C 
ATOM      6  C   UNL     1     172.337 172.829 178.374  1.00  0.00     0.017 C 
ATOM      7  C   UNL     1     174.088 171.057 176.343  1.00  0.00     0.016 C 
ENDROOT
BRANCH   1   8
ATOM      8  C   UNL     1     173.265 173.289 180.684  1.00  0.00    -0.077 C 
ATOM      9  C   UNL     1     171.890 173.403 181.289  1.00  0.00     0.039 C 
ATOM     10  C   UNL     1     174.301 173.002 181.491  1.00  0.00     0.008 C 
ENDBRANCH   1   8
BRANCH   5  11
ATOM     11  C   UNL     1     171.342 172.516 176.056  1.00  0.00    -0.077 C 
ATOM     12  C   UNL     1     170.736 173.291 175.141  1.00  0.00     0.008 C 
ATOM     13  C   UNL     1     170.795 171.124 176.270  1.00  0.00     0.039 C 
ENDBRANCH   5  11
BRANCH   4  14
ATOM     14  C   UNL     1     174.136 173.103 174.903  1.00  0.00    -0.028 C 
ATOM     15  C   UNL     1     174.340 174.392 174.598  1.00  0.00     0.004 C 
ENDBRANCH   4  14
TORSDOF 3
ENDMDL
MODEL 3
REMARK VINA RESULT:    -5.768      1.495      3.502
REMARK INTER + INTRA:          -7.176
REMARK INTER:                  -6.783
REMARK INTRA:                  -0.393
REMARK UNBOUND:                -0.397
REMARK SMILES C=C[C@@]1(C)CC[C@H](C(=C)C)C[C@@H]1C(=C)C
REMARK SMILES IDX 7 1 6 2 5 3 3 4 12 5 11 6 4 7 8 8 10 9 9 10 13 11 14 12
REMARK SMILES IDX 15 13 2 14 1 15
REMARK H PARENT
REMARK Flexibility Score: inf
ROOT
ATOM      1  C   UNL     1     173.461 173.892 179.386  1.00  0.00     0.015 C 
ATOM      2  C   UNL     1     174.761 173.249 178.875  1.00  0.00     0.009 C 
ATOM      3  C   UNL     1     175.185 173.859 177.531  1.00  0.00     0.012 C 
ATOM      4  C   UNL     1     174.091 173.742 176.427  1.00  0.00    -0.008 C 
ATOM      5  C   UNL     1     172.743 174.338 176.985  1.00  0.00     0.024 C 
ATOM      6  C   UNL     1     172.333 173.737 178.350  1.00  0.00     0.017 C 
ATOM      7  C   UNL     1     173.938 172.263 175.987  1.00  0.00     0.016 C 
ENDROOT
BRANCH   1   8
ATOM      8  C   UNL     1     173.055 173.325 180.740  1.00  0.00    -0.077 C 
ATOM      9  C   UNL     1     174.066 172.598 181.589  1.00  0.00     0.039 C 
ATOM     10  C   UNL     1     171.801 173.458 181.207  1.00  0.00     0.008 C 
ENDBRANCH   1   8
BRANCH   5  11
ATOM     11  C   UNL     1     171.575 174.304 175.991  1.00  0.00    -0.077 C 
ATOM     12  C   UNL     1     171.209 175.426 175.349  1.00  0.00     0.008 C 
ATOM     13  C   UNL     1     170.784 173.047 175.712  1.00  0.00     0.039 C 
ENDBRANCH   5  11
BRANCH   4  14
ATOM     14  C   UNL     1     174.544 174.568 175.222  1.00  0.00    -0.028 C 
ATOM     15  C   UNL     1     174.947 175.843 175.315  1.00  0.00     0.004 C 
ENDBRANCH   4  14
TORSDOF 3
ENDMDL
MODEL 4
REMARK VINA RESULT:    -5.755      1.110      1.509
REMARK INTER + INTRA:          -7.161
REMARK INTER:                  -6.778
REMARK INTRA:                  -0.383
REMARK UNBOUND:                -0.397
REMARK SMILES C=C[C@@]1(C)CC[C@H](C(=C)C)C[C@@H]1C(=C)C
REMARK SMILES IDX 7 1 6 2 5 3 3 4 12 5 11 6 4 7 8 8 10 9 9 10 13 11 14 12
REMARK SMILES IDX 15 13 2 14 1 15
REMARK H PARENT
REMARK Flexibility Score: inf
ROOT
ATOM      1  C   UNL     1     172.953 172.824 179.214  1.00  0.00     0.015 C 
ATOM      2  C   UNL     1     171.637 173.413 178.678  1.00  0.00     0.009 C 
ATOM      3  C   UNL     1     171.475 173.121 177.179  1.00  0.00     0.012 C 
ATOM      4  C   UNL     1     172.659 173.652 176.315  1.00  0.00    -0.008 C 
ATOM      5  C   UNL     1     174.009 173.102 176.915  1.00  0.00     0.024 C 
ATOM      6  C   UNL     1     174.157 173.378 178.429  1.00  0.00     0.017 C 
ATOM      7  C   UNL     1     172.628 175.201 176.268  1.00  0.00     0.016 C 
ENDROOT
BRANCH   1   8
ATOM      8  C   UNL     1     173.103 173.069 180.710  1.00  0.00    -0.077 C 
ATOM      9  C   UNL     1     174.455 172.946 181.365  1.00  0.00     0.039 C 
ATOM     10  C   UNL     1     172.047 173.398 181.474  1.00  0.00     0.008 C 
ENDBRANCH   1   8
BRANCH   5  11
ATOM     11  C   UNL     1     175.266 173.533 176.148  1.00  0.00    -0.077 C 
ATOM     12  C   UNL     1     175.997 174.570 176.590  1.00  0.00     0.008 C 
ATOM     13  C   UNL     1     175.716 172.849 174.878  1.00  0.00     0.039 C 
ENDBRANCH   5  11
BRANCH   4  14
ATOM     14  C   UNL     1     172.485 173.114 174.894  1.00  0.00    -0.028 C 
ATOM     15  C   UNL     1     172.054 171.874 174.625  1.00  0.00     0.004 C 
ENDBRANCH   4  14
TORSDOF 3
ENDMDL
MODEL 5
REMARK VINA RESULT:    -5.557      1.583      3.051
REMARK INTER + INTRA:          -6.928
REMARK INTER:                  -6.533
REMARK INTRA:                  -0.395
REMARK UNBOUND:                -0.397
REMARK SMILES C=C[C@@]1(C)CC[C@H](C(=C)C)C[C@@H]1C(=C)C
REMARK SMILES IDX 7 1 6 2 5 3 3 4 12 5 11 6 4 7 8 8 10 9 9 10 13 11 14 12
REMARK SMILES IDX 15 13 2 14 1 15
REMARK H PARENT
REMARK Flexibility Score: inf
ROOT
ATOM      1  C   UNL     1     173.973 173.022 179.022  1.00  0.00     0.015 C 
ATOM      2  C   UNL     1     173.406 171.796 178.287  1.00  0.00     0.009 C 
ATOM      3  C   UNL     1     173.945 171.718 176.851  1.00  0.00     0.012 C 
ATOM      4  C   UNL     1     173.650 172.997 176.011  1.00  0.00    -0.008 C 
ATOM      5  C   UNL     1     174.171 174.255 176.804  1.00  0.00     0.024 C 
ATOM      6  C   UNL     1     173.643 174.317 178.257  1.00  0.00     0.017 C 
ATOM      7  C   UNL     1     172.134 173.088 175.699  1.00  0.00     0.016 C 
ENDROOT
BRANCH   1   8
ATOM      8  C   UNL     1     173.480 173.085 180.462  1.00  0.00    -0.077 C 
ATOM      9  C   UNL     1     172.025 173.349 180.752  1.00  0.00     0.039 C 
ATOM     10  C   UNL     1     174.319 172.908 181.497  1.00  0.00     0.008 C 
ENDBRANCH   1   8
BRANCH   5  11
ATOM     11  C   UNL     1     173.960 175.592 176.082  1.00  0.00    -0.077 C 
ATOM     12  C   UNL     1     174.905 176.059 175.248  1.00  0.00     0.008 C 
ATOM     13  C   UNL     1     172.726 176.439 176.286  1.00  0.00     0.039 C 
ENDBRANCH   5  11
BRANCH   4  14
ATOM     14  C   UNL     1     174.416 172.883 174.692  1.00  0.00    -0.028 C 
ATOM     15  C   UNL     1     175.671 172.420 174.609  1.00  0.00     0.004 C 
ENDBRANCH   4  14
TORSDOF 3
ENDMDL
MODEL 6
REMARK VINA RESULT:    -5.548      1.295      2.073
REMARK INTER + INTRA:          -6.917
REMARK INTER:                  -6.549
REMARK INTRA:                  -0.368
REMARK UNBOUND:                -0.397
REMARK SMILES C=C[C@@]1(C)CC[C@H](C(=C)C)C[C@@H]1C(=C)C
REMARK SMILES IDX 7 1 6 2 5 3 3 4 12 5 11 6 4 7 8 8 10 9 9 10 13 11 14 12
REMARK SMILES IDX 15 13 2 14 1 15
REMARK H PARENT
REMARK Flexibility Score: inf
ROOT
ATOM      1  C   UNL     1     172.457 173.322 179.050  1.00  0.00     0.015 C 
ATOM      2  C   UNL     1     172.909 174.567 178.268  1.00  0.00     0.009 C 
ATOM      3  C   UNL     1     172.332 174.562 176.844  1.00  0.00     0.012 C 
ATOM      4  C   UNL     1     172.705 173.285 176.032  1.00  0.00    -0.008 C 
ATOM      5  C   UNL     1     172.303 172.014 176.872  1.00  0.00     0.024 C 
ATOM      6  C   UNL     1     172.868 172.035 178.312  1.00  0.00     0.017 C 
ATOM      7  C   UNL     1     174.216 173.302 175.683  1.00  0.00     0.016 C 
ENDROOT
BRANCH   1   8
ATOM      8  C   UNL     1     172.987 173.340 180.478  1.00  0.00    -0.077 C 
ATOM      9  C   UNL     1     174.425 172.981 180.755  1.00  0.00     0.039 C 
ATOM     10  C   UNL     1     172.197 173.672 181.514  1.00  0.00     0.008 C 
ENDBRANCH   1   8
BRANCH   5  11
ATOM     11  C   UNL     1     172.599 170.677 176.181  1.00  0.00    -0.077 C 
ATOM     12  C   UNL     1     173.676 169.960 176.544  1.00  0.00     0.008 C 
ATOM     13  C   UNL     1     171.734 170.128 175.071  1.00  0.00     0.039 C 
ENDBRANCH   5  11
BRANCH   4  14
ATOM     14  C   UNL     1     171.902 173.302 174.731  1.00  0.00    -0.028 C 
ATOM     15  C   UNL     1     170.630 173.717 174.658  1.00  0.00     0.004 C 
ENDBRANCH   4  14
TORSDOF 3
ENDMDL
MODEL 7
REMARK VINA RESULT:    -5.511      1.523      4.649
REMARK INTER + INTRA:          -6.874
REMARK INTER:                  -6.952
REMARK INTRA:                   0.079
REMARK UNBOUND:                -0.397
REMARK SMILES C=C[C@@]1(C)CC[C@H](C(=C)C)C[C@@H]1C(=C)C
REMARK SMILES IDX 7 1 6 2 5 3 3 4 12 5 11 6 4 7 8 8 10 9 9 10 13 11 14 12
REMARK SMILES IDX 15 13 2 14 1 15
REMARK H PARENT
REMARK Flexibility Score: inf
ROOT
ATOM      1  C   UNL     1     173.803 170.910 176.613  1.00  0.00     0.015 C 
ATOM      2  C   UNL     1     172.664 171.591 175.834  1.00  0.00     0.009 C 
ATOM      3  C   UNL     1     172.631 173.101 176.115  1.00  0.00     0.012 C 
ATOM      4  C   UNL     1     172.489 173.443 177.629  1.00  0.00    -0.008 C 
ATOM      5  C   UNL     1     173.616 172.685 178.428  1.00  0.00     0.024 C 
ATOM      6  C   UNL     1     173.659 171.169 178.124  1.00  0.00     0.017 C 
ATOM      7  C   UNL     1     171.068 173.071 178.125  1.00  0.00     0.016 C 
ENDROOT
BRANCH   1   8
ATOM      8  C   UNL     1     173.872 169.420 176.307  1.00  0.00    -0.077 C 
ATOM      9  C   UNL     1     173.731 168.932 174.888  1.00  0.00     0.039 C 
ATOM     10  C   UNL     1     174.060 168.514 177.282  1.00  0.00     0.008 C 
ENDBRANCH   1   8
BRANCH   5  11
ATOM     11  C   UNL     1     173.607 172.946 179.940  1.00  0.00    -0.077 C 
ATOM     12  C   UNL     1     174.768 173.055 180.608  1.00  0.00     0.008 C 
ATOM     13  C   UNL     1     172.327 173.065 180.735  1.00  0.00     0.039 C 
ENDBRANCH   5  11
BRANCH   4  14
ATOM     14  C   UNL     1     172.686 174.951 177.793  1.00  0.00    -0.028 C 
ATOM     15  C   UNL     1     173.351 175.706 176.907  1.00  0.00     0.004 C 
ENDBRANCH   4  14
TORSDOF 3
ENDMDL
MODEL 8
REMARK VINA RESULT:    -5.507      1.987      4.586
REMARK INTER + INTRA:          -6.869
REMARK INTER:                  -6.976
REMARK INTRA:                   0.107
REMARK UNBOUND:                -0.397
REMARK SMILES C=C[C@@]1(C)CC[C@H](C(=C)C)C[C@@H]1C(=C)C
REMARK SMILES IDX 7 1 6 2 5 3 3 4 12 5 11 6 4 7 8 8 10 9 9 10 13 11 14 12
REMARK SMILES IDX 15 13 2 14 1 15
REMARK H PARENT
REMARK Flexibility Score: inf
ROOT
ATOM      1  C   UNL     1     172.561 175.466 176.736  1.00  0.00     0.015 C 
ATOM      2  C   UNL     1     173.697 174.789 175.949  1.00  0.00     0.009 C 
ATOM      3  C   UNL     1     173.755 173.285 176.250  1.00  0.00     0.012 C 
ATOM      4  C   UNL     1     173.926 172.966 177.766  1.00  0.00    -0.008 C 
ATOM      5  C   UNL     1     172.802 173.720 178.573  1.00  0.00     0.024 C 
ATOM      6  C   UNL     1     172.732 175.231 178.248  1.00  0.00     0.017 C 
ATOM      7  C   UNL     1     175.349 173.365 178.235  1.00  0.00     0.016 C 
ENDROOT
BRANCH   1   8
ATOM      8  C   UNL     1     172.466 176.951 176.410  1.00  0.00    -0.077 C 
ATOM      9  C   UNL     1     172.562 177.418 174.981  1.00  0.00     0.039 C 
ATOM     10  C   UNL     1     172.296 177.869 177.377  1.00  0.00     0.008 C 
ENDBRANCH   1   8
BRANCH   5  11
ATOM     11  C   UNL     1     172.839 173.480 180.088  1.00  0.00    -0.077 C 
ATOM     12  C   UNL     1     171.690 173.379 180.778  1.00  0.00     0.008 C 
ATOM     13  C   UNL     1     174.132 173.376 180.861  1.00  0.00     0.039 C 
ENDBRANCH   5  11
BRANCH   4  14
ATOM     14  C   UNL     1     173.753 171.458 177.955  1.00  0.00    -0.028 C 
ATOM     15  C   UNL     1     173.347 170.637 176.976  1.00  0.00     0.004 C 
ENDBRANCH   4  14
TORSDOF 3
ENDMDL
MODEL 9
REMARK VINA RESULT:    -5.208      2.393      4.521
REMARK INTER + INTRA:          -6.517
REMARK INTER:                  -6.158
REMARK INTRA:                  -0.360
REMARK UNBOUND:                -0.397
REMARK SMILES C=C[C@@]1(C)CC[C@H](C(=C)C)C[C@@H]1C(=C)C
REMARK SMILES IDX 7 1 6 2 5 3 3 4 12 5 11 6 4 7 8 8 10 9 9 10 13 11 14 12
REMARK SMILES IDX 15 13 2 14 1 15
REMARK H PARENT
REMARK Flexibility Score: inf
ROOT
ATOM      1  C   UNL     1     173.818 174.381 178.304  1.00  0.00     0.015 C 
ATOM      2  C   UNL     1     174.885 173.730 177.406  1.00  0.00     0.009 C 
ATOM      3  C   UNL     1     175.395 174.722 176.350  1.00  0.00     0.012 C 
ATOM      4  C   UNL     1     174.261 175.306 175.454  1.00  0.00    -0.008 C 
ATOM      5  C   UNL     1     173.140 175.907 176.383  1.00  0.00     0.024 C 
ATOM      6  C   UNL     1     172.646 174.912 177.459  1.00  0.00     0.017 C 
ATOM      7  C   UNL     1     173.711 174.205 174.510  1.00  0.00     0.016 C 
ENDROOT
BRANCH   1   8
ATOM      8  C   UNL     1     173.338 173.419 179.383  1.00  0.00    -0.077 C 
ATOM      9  C   UNL     1     171.873 173.084 179.499  1.00  0.00     0.039 C 
ATOM     10  C   UNL     1     174.197 172.852 180.247  1.00  0.00     0.008 C 
ENDBRANCH   1   8
BRANCH   5  11
ATOM     11  C   UNL     1     171.961 176.537 175.629  1.00  0.00    -0.077 C 
ATOM     12  C   UNL     1     171.908 177.869 175.463  1.00  0.00     0.008 C 
ATOM     13  C   UNL     1     170.821 175.716 175.075  1.00  0.00     0.039 C 
ENDBRANCH   5  11
BRANCH   4  14
ATOM     14  C   UNL     1     174.862 176.426 174.603  1.00  0.00    -0.028 C 
ATOM     15  C   UNL     1     174.808 176.440 173.263  1.00  0.00     0.004 C 
ENDBRANCH   4  14
TORSDOF 3
ENDMDL
