MODEL 1
REMARK VINA RESULT:    -2.694      0.000      0.000
REMARK INTER + INTRA:          -4.025
REMARK INTER:                  -3.639
REMARK INTRA:                  -0.386
REMARK UNBOUND:                -0.386
REMARK SMILES CCCCCCCC(=O)[O-]
REMARK SMILES IDX 5 1 6 2 7 3 8 4 9 5 10 6 4 7 3 8 2 9 1 10
REMARK H PARENT
REMARK Flexibility Score: inf
ROOT
ATOM      1  C   UNL     1       6.740 -21.621  17.557  1.00  0.00     0.000 C 
ENDROOT
BRANCH   1   2
ATOM      2  C   UNL     1       5.313 -22.018  17.148  1.00  0.00     0.006 C 
BRANCH   2   3
ATOM      3  C   UNL     1       5.279 -22.864  15.868  1.00  0.00     0.053 C 
BRANCH   3   4
ATOM      4  C   UNL     1       3.885 -22.941  15.330  1.00  0.00     0.041 C 
ATOM      5  O   UNL     1       2.900 -22.795  16.101  1.00  0.00    -0.550 OA
ATOM      6  O   UNL     1       3.674 -23.125  13.970  1.00  0.00    -0.550 OA
ENDBRANCH   3   4
ENDBRANCH   2   3
ENDBRANCH   1   2
BRANCH   1   7
ATOM      7  C   UNL     1       7.769 -22.722  17.261  1.00  0.00     0.000 C 
BRANCH   7   8
ATOM      8  C   UNL     1       9.054 -22.128  16.670  1.00  0.00    -0.000 C 
BRANCH   8   9
ATOM      9  C   UNL     1       8.934 -21.957  15.151  1.00  0.00    -0.003 C 
ATOM     10  C   UNL     1       8.760 -20.489  14.774  1.00  0.00     0.004 C 
ENDBRANCH   8   9
ENDBRANCH   7   8
ENDBRANCH   1   7
TORSDOF 6
ENDMDL
MODEL 2
REMARK VINA RESULT:    -2.651     12.627     15.303
REMARK INTER + INTRA:          -3.967
REMARK INTER:                  -3.567
REMARK INTRA:                  -0.400
REMARK UNBOUND:                -0.386
REMARK SMILES CCCCCCCC(=O)[O-]
REMARK SMILES IDX 5 1 6 2 7 3 8 4 9 5 10 6 4 7 3 8 2 9 1 10
REMARK H PARENT
REMARK Flexibility Score: inf
ROOT
ATOM      1  C   UNL     1      -9.075 -21.555  18.797  1.00  0.00     0.000 C 
ENDROOT
BRANCH   1   2
ATOM      2  C   UNL     1      -8.477 -22.593  17.835  1.00  0.00     0.006 C 
BRANCH   2   3
ATOM      3  C   UNL     1      -6.950 -22.691  17.945  1.00  0.00     0.053 C 
BRANCH   3   4
ATOM      4  C   UNL     1      -6.304 -22.205  16.686  1.00  0.00     0.041 C 
ATOM      5  O   UNL     1      -7.011 -21.859  15.704  1.00  0.00    -0.550 OA
ATOM      6  O   UNL     1      -4.922 -22.086  16.616  1.00  0.00    -0.550 OA
ENDBRANCH   3   4
ENDBRANCH   2   3
ENDBRANCH   1   2
BRANCH   1   7
ATOM      7  C   UNL     1     -10.351 -20.903  18.244  1.00  0.00     0.000 C 
BRANCH   7   8
ATOM      8  C   UNL     1     -10.599 -21.327  16.791  1.00  0.00    -0.000 C 
BRANCH   8   9
ATOM      9  C   UNL     1     -10.663 -20.108  15.864  1.00  0.00    -0.003 C 
ATOM     10  C   UNL     1      -9.959 -20.386  14.539  1.00  0.00     0.004 C 
ENDBRANCH   8   9
ENDBRANCH   7   8
ENDBRANCH   1   7
TORSDOF 6
ENDMDL
MODEL 3
REMARK VINA RESULT:    -2.627      1.537      2.664
REMARK INTER + INTRA:          -3.934
REMARK INTER:                  -3.550
REMARK INTRA:                  -0.384
REMARK UNBOUND:                -0.386
REMARK SMILES CCCCCCCC(=O)[O-]
REMARK SMILES IDX 5 1 6 2 7 3 8 4 9 5 10 6 4 7 3 8 2 9 1 10
REMARK H PARENT
REMARK Flexibility Score: inf
ROOT
ATOM      1  C   UNL     1       7.316 -22.114  13.554  1.00  0.00     0.000 C 
ENDROOT
BRANCH   1   2
ATOM      2  C   UNL     1       6.275 -23.125  14.060  1.00  0.00     0.006 C 
BRANCH   2   3
ATOM      3  C   UNL     1       4.976 -23.093  13.245  1.00  0.00     0.053 C 
BRANCH   3   4
ATOM      4  C   UNL     1       3.789 -23.054  14.156  1.00  0.00     0.041 C 
ATOM      5  O   UNL     1       3.946 -23.123  15.403  1.00  0.00    -0.550 OA
ATOM      6  O   UNL     1       2.514 -22.890  13.630  1.00  0.00    -0.550 OA
ENDBRANCH   3   4
ENDBRANCH   2   3
ENDBRANCH   1   2
BRANCH   1   7
ATOM      7  C   UNL     1       8.137 -21.491  14.694  1.00  0.00     0.000 C 
BRANCH   7   8
ATOM      8  C   UNL     1       8.141 -22.401  15.928  1.00  0.00    -0.000 C 
BRANCH   8   9
ATOM      9  C   UNL     1       7.810 -21.609  17.198  1.00  0.00    -0.003 C 
ATOM     10  C   UNL     1       6.370 -21.853  17.640  1.00  0.00     0.004 C 
ENDBRANCH   8   9
ENDBRANCH   7   8
ENDBRANCH   1   7
TORSDOF 6
ENDMDL
MODEL 4
REMARK VINA RESULT:    -2.588     16.037     16.963
REMARK INTER + INTRA:          -3.882
REMARK INTER:                  -3.495
REMARK INTRA:                  -0.386
REMARK UNBOUND:                -0.386
REMARK SMILES CCCCCCCC(=O)[O-]
REMARK SMILES IDX 5 1 6 2 7 3 8 4 9 5 10 6 4 7 3 8 2 9 1 10
REMARK H PARENT
REMARK Flexibility Score: inf
ROOT
ATOM      1  C   UNL     1      -9.414 -22.306  17.742  1.00  0.00     0.000 C 
ENDROOT
BRANCH   1   2
ATOM      2  C   UNL     1      -8.896 -21.604  19.007  1.00  0.00     0.006 C 
BRANCH   2   3
ATOM      3  C   UNL     1      -9.896 -21.664  20.168  1.00  0.00     0.053 C 
BRANCH   3   4
ATOM      4  C   UNL     1     -10.019 -20.324  20.822  1.00  0.00     0.041 C 
ATOM      5  O   UNL     1     -10.418 -19.331  20.159  1.00  0.00    -0.550 OA
ATOM      6  O   UNL     1      -9.743 -20.183  22.176  1.00  0.00    -0.550 OA
ENDBRANCH   3   4
ENDBRANCH   2   3
ENDBRANCH   1   2
BRANCH   1   7
ATOM      7  C   UNL     1     -10.811 -21.820  17.326  1.00  0.00     0.000 C 
BRANCH   7   8
ATOM      8  C   UNL     1     -10.741 -20.428  16.687  1.00  0.00    -0.000 C 
BRANCH   8   9
ATOM      9  C   UNL     1     -10.864 -20.516  15.161  1.00  0.00    -0.003 C 
ATOM     10  C   UNL     1      -9.492 -20.489  14.495  1.00  0.00     0.004 C 
ENDBRANCH   8   9
ENDBRANCH   7   8
ENDBRANCH   1   7
TORSDOF 6
ENDMDL
MODEL 5
REMARK VINA RESULT:    -2.390     16.016     17.048
REMARK INTER + INTRA:          -3.614
REMARK INTER:                  -3.461
REMARK INTRA:                  -0.153
REMARK UNBOUND:                -0.386
REMARK SMILES CCCCCCCC(=O)[O-]
REMARK SMILES IDX 5 1 6 2 7 3 8 4 9 5 10 6 4 7 3 8 2 9 1 10
REMARK H PARENT
REMARK Flexibility Score: inf
ROOT
ATOM      1  C   UNL     1     -10.609 -20.576  18.601  1.00  0.00     0.000 C 
ENDROOT
BRANCH   1   2
ATOM      2  C   UNL     1      -9.512 -21.037  19.573  1.00  0.00     0.006 C 
BRANCH   2   3
ATOM      3  C   UNL     1     -10.071 -21.822  20.767  1.00  0.00     0.053 C 
BRANCH   3   4
ATOM      4  C   UNL     1      -9.497 -21.304  22.048  1.00  0.00     0.041 C 
ATOM      5  O   UNL     1      -9.922 -20.227  22.542  1.00  0.00    -0.550 OA
ATOM      6  O   UNL     1      -8.528 -22.036  22.721  1.00  0.00    -0.550 OA
ENDBRANCH   3   4
ENDBRANCH   2   3
ENDBRANCH   1   2
BRANCH   1   7
ATOM      7  C   UNL     1     -10.384 -21.088  17.170  1.00  0.00     0.000 C 
BRANCH   7   8
ATOM      8  C   UNL     1     -11.060 -20.169  16.145  1.00  0.00    -0.000 C 
BRANCH   8   9
ATOM      9  C   UNL     1     -10.686 -20.570  14.714  1.00  0.00    -0.003 C 
ATOM     10  C   UNL     1      -9.172 -20.632  14.537  1.00  0.00     0.004 C 
ENDBRANCH   8   9
ENDBRANCH   7   8
ENDBRANCH   1   7
TORSDOF 6
ENDMDL
MODEL 6
REMARK VINA RESULT:    -2.385      2.624      3.611
REMARK INTER + INTRA:          -3.607
REMARK INTER:                  -3.138
REMARK INTRA:                  -0.469
REMARK UNBOUND:                -0.386
REMARK SMILES CCCCCCCC(=O)[O-]
REMARK SMILES IDX 5 1 6 2 7 3 8 4 9 5 10 6 4 7 3 8 2 9 1 10
REMARK H PARENT
REMARK Flexibility Score: inf
ROOT
ATOM      1  C   UNL     1       6.211 -22.918  13.469  1.00  0.00     0.000 C 
ENDROOT
BRANCH   1   2
ATOM      2  C   UNL     1       5.793 -23.058  14.941  1.00  0.00     0.006 C 
BRANCH   2   3
ATOM      3  C   UNL     1       6.994 -23.122  15.893  1.00  0.00     0.053 C 
BRANCH   3   4
ATOM      4  C   UNL     1       6.819 -22.152  17.019  1.00  0.00     0.041 C 
ATOM      5  O   UNL     1       5.676 -21.946  17.506  1.00  0.00    -0.550 OA
ATOM      6  O   UNL     1       7.925 -21.514  17.565  1.00  0.00    -0.550 OA
ENDBRANCH   3   4
ENDBRANCH   2   3
ENDBRANCH   1   2
BRANCH   1   7
ATOM      7  C   UNL     1       7.706 -22.605  13.306  1.00  0.00     0.000 C 
BRANCH   7   8
ATOM      8  C   UNL     1       7.934 -21.579  12.189  1.00  0.00    -0.000 C 
BRANCH   8   9
ATOM      9  C   UNL     1       8.497 -20.268  12.750  1.00  0.00    -0.003 C 
ATOM     10  C   UNL     1       8.917 -20.428  14.208  1.00  0.00     0.004 C 
ENDBRANCH   8   9
ENDBRANCH   7   8
ENDBRANCH   1   7
TORSDOF 6
ENDMDL
MODEL 7
REMARK VINA RESULT:    -2.289      2.256      3.325
REMARK INTER + INTRA:          -3.478
REMARK INTER:                  -3.027
REMARK INTRA:                  -0.451
REMARK UNBOUND:                -0.386
REMARK SMILES CCCCCCCC(=O)[O-]
REMARK SMILES IDX 5 1 6 2 7 3 8 4 9 5 10 6 4 7 3 8 2 9 1 10
REMARK H PARENT
REMARK Flexibility Score: inf
ROOT
ATOM      1  C   UNL     1       8.631 -20.865  15.003  1.00  0.00     0.000 C 
ENDROOT
BRANCH   1   2
ATOM      2  C   UNL     1       8.275 -21.502  16.355  1.00  0.00     0.006 C 
BRANCH   2   3
ATOM      3  C   UNL     1       7.352 -22.720  16.212  1.00  0.00     0.053 C 
BRANCH   3   4
ATOM      4  C   UNL     1       6.001 -22.421  16.779  1.00  0.00     0.041 C 
ATOM      5  O   UNL     1       5.895 -21.777  17.856  1.00  0.00    -0.550 OA
ATOM      6  O   UNL     1       4.857 -22.810  16.093  1.00  0.00    -0.550 OA
ENDBRANCH   3   4
ENDBRANCH   2   3
ENDBRANCH   1   2
BRANCH   1   7
ATOM      7  C   UNL     1       8.850 -21.909  13.897  1.00  0.00     0.000 C 
BRANCH   7   8
ATOM      8  C   UNL     1       8.262 -21.429  12.564  1.00  0.00    -0.000 C 
BRANCH   8   9
ATOM      9  C   UNL     1       7.309 -22.474  11.973  1.00  0.00    -0.003 C 
ATOM     10  C   UNL     1       6.033 -22.588  12.802  1.00  0.00     0.004 C 
ENDBRANCH   8   9
ENDBRANCH   7   8
ENDBRANCH   1   7
TORSDOF 6
ENDMDL
