MODEL 1
REMARK VINA RESULT:    -5.861      0.000      0.000
REMARK INTER + INTRA:          -6.291
REMARK INTER:                  -6.204
REMARK INTRA:                  -0.087
REMARK UNBOUND:                -0.087
REMARK SMILES C=C(C)[C@H]1CC=C(C)C(=O)C1
REMARK SMILES IDX 8 1 7 2 6 3 5 4 4 5 11 6 9 7 10 8 2 9 1 10 3 11
REMARK H PARENT
REMARK Flexibility Score: inf
ROOT
ATOM      1  C   UNL     1      85.541  36.612  26.669  1.00  0.00     0.048 C 
ATOM      2  C   UNL     1      86.869  37.319  26.650  1.00  0.00    -0.012 C 
ATOM      3  C   UNL     1      87.439  37.638  25.476  1.00  0.00    -0.019 C 
ATOM      4  C   UNL     1      88.775  38.328  25.398  1.00  0.00     0.036 C 
ATOM      5  C   UNL     1      88.978  39.277  26.595  1.00  0.00     0.025 C 
ATOM      6  C   UNL     1      88.792  38.514  27.919  1.00  0.00     0.089 C 
ATOM      7  C   UNL     1      87.484  37.772  27.922  1.00  0.00     0.158 C 
ATOM      8  O   UNL     1      86.931  37.505  29.024  1.00  0.00    -0.295 OA
ENDROOT
BRANCH   5   9
ATOM      9  C   UNL     1      90.335  39.966  26.536  1.00  0.00    -0.077 C 
ATOM     10  C   UNL     1      90.432  41.223  26.074  1.00  0.00     0.008 C 
ATOM     11  C   UNL     1      91.592  39.266  26.990  1.00  0.00     0.039 C 
ENDBRANCH   5   9
TORSDOF 1
ENDMDL
MODEL 2
REMARK VINA RESULT:    -5.807      1.511      2.367
REMARK INTER + INTRA:          -6.234
REMARK INTER:                  -6.147
REMARK INTRA:                  -0.087
REMARK UNBOUND:                -0.087
REMARK SMILES C=C(C)[C@H]1CC=C(C)C(=O)C1
REMARK SMILES IDX 8 1 7 2 6 3 5 4 4 5 11 6 9 7 10 8 2 9 1 10 3 11
REMARK H PARENT
REMARK Flexibility Score: inf
ROOT
ATOM      1  C   UNL     1      85.849  36.089  26.586  1.00  0.00     0.048 C 
ATOM      2  C   UNL     1      86.912  37.153  26.576  1.00  0.00    -0.012 C 
ATOM      3  C   UNL     1      87.412  37.610  27.736  1.00  0.00    -0.019 C 
ATOM      4  C   UNL     1      88.464  38.687  27.784  1.00  0.00     0.036 C 
ATOM      5  C   UNL     1      89.401  38.599  26.564  1.00  0.00     0.025 C 
ATOM      6  C   UNL     1      88.585  38.638  25.259  1.00  0.00     0.089 C 
ATOM      7  C   UNL     1      87.494  37.604  25.287  1.00  0.00     0.158 C 
ATOM      8  O   UNL     1      87.051  37.149  24.198  1.00  0.00    -0.295 OA
ENDROOT
BRANCH   5   9
ATOM      9  C   UNL     1      90.457  39.696  26.593  1.00  0.00    -0.077 C 
ATOM     10  C   UNL     1      91.704  39.420  27.010  1.00  0.00     0.008 C 
ATOM     11  C   UNL     1      90.139  41.105  26.160  1.00  0.00     0.039 C 
ENDBRANCH   5   9
TORSDOF 1
ENDMDL
MODEL 3
REMARK VINA RESULT:    -5.316      1.413      2.112
REMARK INTER + INTRA:          -5.714
REMARK INTER:                  -5.617
REMARK INTRA:                  -0.097
REMARK UNBOUND:                -0.087
REMARK SMILES C=C(C)[C@H]1CC=C(C)C(=O)C1
REMARK SMILES IDX 8 1 7 2 6 3 5 4 4 5 11 6 9 7 10 8 2 9 1 10 3 11
REMARK H PARENT
REMARK Flexibility Score: inf
ROOT
ATOM      1  C   UNL     1      85.633  36.049  28.519  1.00  0.00     0.048 C 
ATOM      2  C   UNL     1      86.624  37.071  28.033  1.00  0.00    -0.012 C 
ATOM      3  C   UNL     1      87.284  37.837  28.918  1.00  0.00    -0.019 C 
ATOM      4  C   UNL     1      88.272  38.888  28.485  1.00  0.00     0.036 C 
ATOM      5  C   UNL     1      88.999  38.466  27.194  1.00  0.00     0.025 C 
ATOM      6  C   UNL     1      87.979  38.134  26.090  1.00  0.00     0.089 C 
ATOM      7  C   UNL     1      86.962  37.145  26.589  1.00  0.00     0.158 C 
ATOM      8  O   UNL     1      86.370  36.402  25.761  1.00  0.00    -0.295 OA
ENDROOT
BRANCH   5   9
ATOM      9  C   UNL     1      89.987  39.530  26.738  1.00  0.00    -0.077 C 
ATOM     10  C   UNL     1      89.543  40.652  26.147  1.00  0.00     0.008 C 
ATOM     11  C   UNL     1      91.473  39.359  26.933  1.00  0.00     0.039 C 
ENDBRANCH   5   9
TORSDOF 1
ENDMDL
MODEL 4
REMARK VINA RESULT:    -5.203      1.128      1.649
REMARK INTER + INTRA:          -5.594
REMARK INTER:                  -5.497
REMARK INTRA:                  -0.097
REMARK UNBOUND:                -0.087
REMARK SMILES C=C(C)[C@H]1CC=C(C)C(=O)C1
REMARK SMILES IDX 8 1 7 2 6 3 5 4 4 5 11 6 9 7 10 8 2 9 1 10 3 11
REMARK H PARENT
REMARK Flexibility Score: inf
ROOT
ATOM      1  C   UNL     1      85.291  36.172  24.811  1.00  0.00     0.048 C 
ATOM      2  C   UNL     1      86.554  36.864  25.245  1.00  0.00    -0.012 C 
ATOM      3  C   UNL     1      87.449  37.260  24.324  1.00  0.00    -0.019 C 
ATOM      4  C   UNL     1      88.738  37.940  24.705  1.00  0.00     0.036 C 
ATOM      5  C   UNL     1      88.558  38.799  25.971  1.00  0.00     0.025 C 
ATOM      6  C   UNL     1      87.988  37.946  27.119  1.00  0.00     0.089 C 
ATOM      7  C   UNL     1      86.750  37.219  26.673  1.00  0.00     0.158 C 
ATOM      8  O   UNL     1      85.893  36.880  27.533  1.00  0.00    -0.295 OA
ENDROOT
BRANCH   5   9
ATOM      9  C   UNL     1      89.860  39.476  26.375  1.00  0.00    -0.077 C 
ATOM     10  C   UNL     1      90.825  38.770  26.987  1.00  0.00     0.008 C 
ATOM     11  C   UNL     1      90.104  40.940  26.101  1.00  0.00     0.039 C 
ENDBRANCH   5   9
TORSDOF 1
ENDMDL
MODEL 5
REMARK VINA RESULT:    -4.622      2.269      4.571
REMARK INTER + INTRA:          -4.980
REMARK INTER:                  -4.892
REMARK INTRA:                  -0.087
REMARK UNBOUND:                -0.087
REMARK SMILES C=C(C)[C@H]1CC=C(C)C(=O)C1
REMARK SMILES IDX 8 1 7 2 6 3 5 4 4 5 11 6 9 7 10 8 2 9 1 10 3 11
REMARK H PARENT
REMARK Flexibility Score: inf
ROOT
ATOM      1  C   UNL     1      88.249  38.631  28.498  1.00  0.00     0.048 C 
ATOM      2  C   UNL     1      87.836  37.952  27.221  1.00  0.00    -0.012 C 
ATOM      3  C   UNL     1      86.791  37.106  27.222  1.00  0.00    -0.019 C 
ATOM      4  C   UNL     1      86.347  36.385  25.976  1.00  0.00     0.036 C 
ATOM      5  C   UNL     1      86.598  37.243  24.721  1.00  0.00     0.025 C 
ATOM      6  C   UNL     1      88.075  37.670  24.652  1.00  0.00     0.089 C 
ATOM      7  C   UNL     1      88.501  38.310  25.944  1.00  0.00     0.158 C 
ATOM      8  O   UNL     1      89.458  39.130  25.937  1.00  0.00    -0.295 OA
ENDROOT
BRANCH   5   9
ATOM      9  C   UNL     1      86.169  36.515  23.455  1.00  0.00    -0.077 C 
ATOM     10  C   UNL     1      84.998  36.813  22.870  1.00  0.00     0.008 C 
ATOM     11  C   UNL     1      87.037  35.451  22.827  1.00  0.00     0.039 C 
ENDBRANCH   5   9
TORSDOF 1
ENDMDL
MODEL 6
REMARK VINA RESULT:    -4.581      2.077      4.339
REMARK INTER + INTRA:          -4.936
REMARK INTER:                  -4.849
REMARK INTRA:                  -0.087
REMARK UNBOUND:                -0.087
REMARK SMILES C=C(C)[C@H]1CC=C(C)C(=O)C1
REMARK SMILES IDX 8 1 7 2 6 3 5 4 4 5 11 6 9 7 10 8 2 9 1 10 3 11
REMARK H PARENT
REMARK Flexibility Score: inf
ROOT
ATOM      1  C   UNL     1      88.559  37.900  24.376  1.00  0.00     0.048 C 
ATOM      2  C   UNL     1      87.904  37.845  25.729  1.00  0.00    -0.012 C 
ATOM      3  C   UNL     1      86.757  37.164  25.889  1.00  0.00    -0.019 C 
ATOM      4  C   UNL     1      86.049  37.092  27.217  1.00  0.00     0.036 C 
ATOM      5  C   UNL     1      87.056  37.120  28.383  1.00  0.00     0.025 C 
ATOM      6  C   UNL     1      87.966  38.357  28.273  1.00  0.00     0.089 C 
ATOM      7  C   UNL     1      88.587  38.437  26.906  1.00  0.00     0.158 C 
ATOM      8  O   UNL     1      89.682  39.045  26.763  1.00  0.00    -0.295 OA
ENDROOT
BRANCH   5   9
ATOM      9  C   UNL     1      86.349  37.067  29.730  1.00  0.00    -0.077 C 
ATOM     10  C   UNL     1      86.355  35.933  30.450  1.00  0.00     0.008 C 
ATOM     11  C   UNL     1      85.631  38.270  30.290  1.00  0.00     0.039 C 
ENDBRANCH   5   9
TORSDOF 1
ENDMDL
MODEL 7
REMARK VINA RESULT:    -4.537      2.120      4.443
REMARK INTER + INTRA:          -4.890
REMARK INTER:                  -4.802
REMARK INTRA:                  -0.088
REMARK UNBOUND:                -0.087
REMARK SMILES C=C(C)[C@H]1CC=C(C)C(=O)C1
REMARK SMILES IDX 8 1 7 2 6 3 5 4 4 5 11 6 9 7 10 8 2 9 1 10 3 11
REMARK H PARENT
REMARK Flexibility Score: inf
ROOT
ATOM      1  C   UNL     1      88.468  38.794  28.016  1.00  0.00     0.048 C 
ATOM      2  C   UNL     1      88.002  38.130  26.749  1.00  0.00    -0.012 C 
ATOM      3  C   UNL     1      88.679  38.324  25.605  1.00  0.00    -0.019 C 
ATOM      4  C   UNL     1      88.246  37.699  24.305  1.00  0.00     0.036 C 
ATOM      5  C   UNL     1      87.583  36.328  24.544  1.00  0.00     0.025 C 
ATOM      6  C   UNL     1      86.419  36.464  25.542  1.00  0.00     0.089 C 
ATOM      7  C   UNL     1      86.873  37.167  26.791  1.00  0.00     0.158 C 
ATOM      8  O   UNL     1      86.260  36.957  27.872  1.00  0.00    -0.295 OA
ENDROOT
BRANCH   5   9
ATOM      9  C   UNL     1      87.124  35.696  23.237  1.00  0.00    -0.077 C 
ATOM     10  C   UNL     1      87.960  34.909  22.539  1.00  0.00     0.008 C 
ATOM     11  C   UNL     1      85.736  35.932  22.694  1.00  0.00     0.039 C 
ENDBRANCH   5   9
TORSDOF 1
ENDMDL
MODEL 8
REMARK VINA RESULT:    -4.531      2.357      4.627
REMARK INTER + INTRA:          -4.883
REMARK INTER:                  -4.795
REMARK INTRA:                  -0.088
REMARK UNBOUND:                -0.087
REMARK SMILES C=C(C)[C@H]1CC=C(C)C(=O)C1
REMARK SMILES IDX 8 1 7 2 6 3 5 4 4 5 11 6 9 7 10 8 2 9 1 10 3 11
REMARK H PARENT
REMARK Flexibility Score: inf
ROOT
ATOM      1  C   UNL     1      88.989  38.520  25.522  1.00  0.00     0.048 C 
ATOM      2  C   UNL     1      88.208  38.271  26.784  1.00  0.00    -0.012 C 
ATOM      3  C   UNL     1      88.552  38.905  27.918  1.00  0.00    -0.019 C 
ATOM      4  C   UNL     1      87.817  38.679  29.213  1.00  0.00     0.036 C 
ATOM      5  C   UNL     1      86.326  38.383  28.959  1.00  0.00     0.025 C 
ATOM      6  C   UNL     1      86.174  37.199  27.988  1.00  0.00     0.089 C 
ATOM      7  C   UNL     1      86.989  37.426  26.745  1.00  0.00     0.158 C 
ATOM      8  O   UNL     1      86.645  36.860  25.673  1.00  0.00    -0.295 OA
ENDROOT
BRANCH   5   9
ATOM      9  C   UNL     1      85.578  38.135  30.262  1.00  0.00    -0.077 C 
ATOM     10  C   UNL     1      85.054  39.165  30.945  1.00  0.00     0.008 C 
ATOM     11  C   UNL     1      85.406  36.742  30.816  1.00  0.00     0.039 C 
ENDBRANCH   5   9
TORSDOF 1
ENDMDL
MODEL 9
REMARK VINA RESULT:    -4.284      1.138      4.559
REMARK INTER + INTRA:          -4.622
REMARK INTER:                  -4.534
REMARK INTRA:                  -0.087
REMARK UNBOUND:                -0.087
REMARK SMILES C=C(C)[C@H]1CC=C(C)C(=O)C1
REMARK SMILES IDX 8 1 7 2 6 3 5 4 4 5 11 6 9 7 10 8 2 9 1 10 3 11
REMARK H PARENT
REMARK Flexibility Score: inf
ROOT
ATOM      1  C   UNL     1      90.299  39.376  26.673  1.00  0.00     0.048 C 
ATOM      2  C   UNL     1      88.979  38.685  26.471  1.00  0.00    -0.012 C 
ATOM      3  C   UNL     1      88.597  38.319  25.236  1.00  0.00    -0.019 C 
ATOM      4  C   UNL     1      87.278  37.642  24.975  1.00  0.00     0.036 C 
ATOM      5  C   UNL     1      86.869  36.751  26.163  1.00  0.00     0.025 C 
ATOM      6  C   UNL     1      86.855  37.572  27.466  1.00  0.00     0.089 C 
ATOM      7  C   UNL     1      88.159  38.298  27.647  1.00  0.00     0.158 C 
ATOM      8  O   UNL     1      88.533  38.609  28.810  1.00  0.00    -0.295 OA
ENDROOT
BRANCH   5   9
ATOM      9  C   UNL     1      85.527  36.076  25.917  1.00  0.00    -0.077 C 
ATOM     10  C   UNL     1      85.431  34.737  25.944  1.00  0.00     0.008 C 
ATOM     11  C   UNL     1      84.281  36.881  25.640  1.00  0.00     0.039 C 
ENDBRANCH   5   9
TORSDOF 1
ENDMDL
