MODEL 1
REMARK VINA RESULT:    -4.361      0.000      0.000
REMARK INTER + INTRA:          -8.629
REMARK INTER:                  -7.676
REMARK INTRA:                  -0.953
REMARK UNBOUND:                -0.953
REMARK SMILES CCCCCCCCCCCCCCC(=O)[O-]
REMARK SMILES IDX 9 1 10 2 11 3 12 4 13 5 14 6 15 7 16 8 17 9 8 10 7 11 6 12
REMARK SMILES IDX 5 13 4 14 3 15 2 16 1 17
REMARK H PARENT
REMARK Flexibility Score: inf
ROOT
ATOM      1  C   UNL     1      -7.674 -39.367 -14.708  1.00  0.00     0.000 C 
ENDROOT
BRANCH   1   2
ATOM      2  C   UNL     1      -6.752 -40.437 -15.314  1.00  0.00     0.000 C 
BRANCH   2   3
ATOM      3  C   UNL     1      -6.677 -40.351 -16.848  1.00  0.00     0.000 C 
BRANCH   3   4
ATOM      4  C   UNL     1      -7.761 -39.439 -17.448  1.00  0.00     0.000 C 
BRANCH   4   5
ATOM      5  C   UNL     1      -7.259 -38.454 -18.525  1.00  0.00     0.006 C 
BRANCH   5   6
ATOM      6  C   UNL     1      -7.440 -36.971 -18.166  1.00  0.00     0.053 C 
BRANCH   6   7
ATOM      7  C   UNL     1      -8.727 -36.418 -18.696  1.00  0.00     0.041 C 
ATOM      8  O   UNL     1      -9.223 -36.875 -19.758  1.00  0.00    -0.550 OA
ATOM      9  O   UNL     1      -9.398 -35.421 -17.996  1.00  0.00    -0.550 OA
ENDBRANCH   6   7
ENDBRANCH   5   6
ENDBRANCH   4   5
ENDBRANCH   3   4
ENDBRANCH   2   3
ENDBRANCH   1   2
BRANCH   1  10
ATOM     10  C   UNL     1      -7.782 -39.481 -13.177  1.00  0.00     0.000 C 
BRANCH  10  11
ATOM     11  C   UNL     1      -6.583 -40.211 -12.550  1.00  0.00    -0.000 C 
BRANCH  11  12
ATOM     12  C   UNL     1      -6.925 -40.845 -11.191  1.00  0.00    -0.000 C 
BRANCH  12  13
ATOM     13  C   UNL     1      -6.241 -40.132 -10.011  1.00  0.00    -0.000 C 
BRANCH  13  14
ATOM     14  C   UNL     1      -5.223 -39.041 -10.401  1.00  0.00    -0.000 C 
BRANCH  14  15
ATOM     15  C   UNL     1      -5.428 -37.680  -9.712  1.00  0.00    -0.000 C 
BRANCH  15  16
ATOM     16  C   UNL     1      -6.735 -36.992 -10.131  1.00  0.00    -0.003 C 
ATOM     17  C   UNL     1      -6.524 -35.496 -10.345  1.00  0.00     0.004 C 
ENDBRANCH  15  16
ENDBRANCH  14  15
ENDBRANCH  13  14
ENDBRANCH  12  13
ENDBRANCH  11  12
ENDBRANCH  10  11
ENDBRANCH   1  10
TORSDOF 13
ENDMDL
MODEL 2
REMARK VINA RESULT:    -4.272      1.704      3.710
REMARK INTER + INTRA:          -8.471
REMARK INTER:                  -7.333
REMARK INTRA:                  -1.138
REMARK UNBOUND:                -0.953
REMARK SMILES CCCCCCCCCCCCCCC(=O)[O-]
REMARK SMILES IDX 9 1 10 2 11 3 12 4 13 5 14 6 15 7 16 8 17 9 8 10 7 11 6 12
REMARK SMILES IDX 5 13 4 14 3 15 2 16 1 17
REMARK H PARENT
REMARK Flexibility Score: inf
ROOT
ATOM      1  C   UNL     1      -7.074 -39.861 -10.631  1.00  0.00     0.000 C 
ENDROOT
BRANCH   1   2
ATOM      2  C   UNL     1      -6.477 -40.209 -12.004  1.00  0.00     0.000 C 
BRANCH   2   3
ATOM      3  C   UNL     1      -7.359 -39.730 -13.169  1.00  0.00     0.000 C 
BRANCH   3   4
ATOM      4  C   UNL     1      -7.382 -40.719 -14.347  1.00  0.00     0.000 C 
BRANCH   4   5
ATOM      5  C   UNL     1      -6.798 -40.174 -15.667  1.00  0.00     0.006 C 
BRANCH   5   6
ATOM      6  C   UNL     1      -7.847 -39.817 -16.730  1.00  0.00     0.053 C 
BRANCH   6   7
ATOM      7  C   UNL     1      -8.186 -38.358 -16.717  1.00  0.00     0.041 C 
ATOM      8  O   UNL     1      -8.993 -37.902 -15.866  1.00  0.00    -0.550 OA
ATOM      9  O   UNL     1      -7.583 -37.494 -17.624  1.00  0.00    -0.550 OA
ENDBRANCH   6   7
ENDBRANCH   5   6
ENDBRANCH   4   5
ENDBRANCH   3   4
ENDBRANCH   2   3
ENDBRANCH   1   2
BRANCH   1  10
ATOM     10  C   UNL     1      -6.522 -38.539 -10.068  1.00  0.00     0.000 C 
BRANCH  10  11
ATOM     11  C   UNL     1      -7.615 -37.658  -9.442  1.00  0.00    -0.000 C 
BRANCH  11  12
ATOM     12  C   UNL     1      -8.300 -36.745 -10.474  1.00  0.00    -0.000 C 
BRANCH  12  13
ATOM     13  C   UNL     1      -8.009 -35.253 -10.237  1.00  0.00    -0.000 C 
BRANCH  13  14
ATOM     14  C   UNL     1      -6.526 -34.844 -10.349  1.00  0.00    -0.000 C 
BRANCH  14  15
ATOM     15  C   UNL     1      -5.965 -34.082  -9.134  1.00  0.00    -0.000 C 
BRANCH  15  16
ATOM     16  C   UNL     1      -5.206 -34.993  -8.159  1.00  0.00    -0.003 C 
ATOM     17  C   UNL     1      -4.213 -35.884  -8.900  1.00  0.00     0.004 C 
ENDBRANCH  15  16
ENDBRANCH  14  15
ENDBRANCH  13  14
ENDBRANCH  12  13
ENDBRANCH  11  12
ENDBRANCH  10  11
ENDBRANCH   1  10
TORSDOF 13
ENDMDL
MODEL 3
REMARK VINA RESULT:    -4.226      6.318      7.720
REMARK INTER + INTRA:          -8.390
REMARK INTER:                  -7.180
REMARK INTRA:                  -1.210
REMARK UNBOUND:                -0.953
REMARK SMILES CCCCCCCCCCCCCCC(=O)[O-]
REMARK SMILES IDX 9 1 10 2 11 3 12 4 13 5 14 6 15 7 16 8 17 9 8 10 7 11 6 12
REMARK SMILES IDX 5 13 4 14 3 15 2 16 1 17
REMARK H PARENT
REMARK Flexibility Score: inf
ROOT
ATOM      1  C   UNL     1      -7.374 -38.147  -8.902  1.00  0.00     0.000 C 
ENDROOT
BRANCH   1   2
ATOM      2  C   UNL     1      -6.287 -38.534  -9.918  1.00  0.00     0.000 C 
BRANCH   2   3
ATOM      3  C   UNL     1      -6.063 -40.054  -9.992  1.00  0.00     0.000 C 
BRANCH   3   4
ATOM      4  C   UNL     1      -7.305 -40.817 -10.486  1.00  0.00     0.000 C 
BRANCH   4   5
ATOM      5  C   UNL     1      -7.641 -42.096  -9.690  1.00  0.00     0.006 C 
BRANCH   5   6
ATOM      6  C   UNL     1      -7.728 -43.372 -10.541  1.00  0.00     0.053 C 
BRANCH   6   7
ATOM      7  C   UNL     1      -6.667 -44.364 -10.176  1.00  0.00     0.041 C 
ATOM      8  O   UNL     1      -5.998 -44.216  -9.121  1.00  0.00    -0.550 OA
ATOM      9  O   UNL     1      -6.442 -45.473 -10.984  1.00  0.00    -0.550 OA
ENDBRANCH   6   7
ENDBRANCH   5   6
ENDBRANCH   4   5
ENDBRANCH   3   4
ENDBRANCH   2   3
ENDBRANCH   1   2
BRANCH   1  10
ATOM     10  C   UNL     1      -8.554 -37.407  -9.556  1.00  0.00     0.000 C 
BRANCH  10  11
ATOM     11  C   UNL     1      -8.547 -35.899  -9.259  1.00  0.00    -0.000 C 
BRANCH  11  12
ATOM     12  C   UNL     1      -8.039 -35.067 -10.449  1.00  0.00    -0.000 C 
BRANCH  12  13
ATOM     13  C   UNL     1      -6.546 -34.710 -10.334  1.00  0.00    -0.000 C 
BRANCH  13  14
ATOM     14  C   UNL     1      -6.110 -34.129  -8.973  1.00  0.00    -0.000 C 
BRANCH  14  15
ATOM     15  C   UNL     1      -5.335 -35.102  -8.066  1.00  0.00    -0.000 C 
BRANCH  15  16
ATOM     16  C   UNL     1      -4.226 -35.856  -8.813  1.00  0.00    -0.003 C 
ATOM     17  C   UNL     1      -2.876 -35.672  -8.124  1.00  0.00     0.004 C 
ENDBRANCH  15  16
ENDBRANCH  14  15
ENDBRANCH  13  14
ENDBRANCH  12  13
ENDBRANCH  11  12
ENDBRANCH  10  11
ENDBRANCH   1  10
TORSDOF 13
ENDMDL
MODEL 4
REMARK VINA RESULT:    -4.224      3.247      7.460
REMARK INTER + INTRA:          -8.387
REMARK INTER:                  -7.579
REMARK INTRA:                  -0.808
REMARK UNBOUND:                -0.953
REMARK SMILES CCCCCCCCCCCCCCC(=O)[O-]
REMARK SMILES IDX 9 1 10 2 11 3 12 4 13 5 14 6 15 7 16 8 17 9 8 10 7 11 6 12
REMARK SMILES IDX 5 13 4 14 3 15 2 16 1 17
REMARK H PARENT
REMARK Flexibility Score: inf
ROOT
ATOM      1  C   UNL     1      -7.954 -39.234 -12.797  1.00  0.00     0.000 C 
ENDROOT
BRANCH   1   2
ATOM      2  C   UNL     1      -7.493 -39.068 -11.340  1.00  0.00     0.000 C 
BRANCH   2   3
ATOM      3  C   UNL     1      -6.173 -39.804 -11.053  1.00  0.00     0.000 C 
BRANCH   3   4
ATOM      4  C   UNL     1      -5.160 -38.937 -10.285  1.00  0.00     0.000 C 
BRANCH   4   5
ATOM      5  C   UNL     1      -5.777 -37.773  -9.481  1.00  0.00     0.006 C 
BRANCH   5   6
ATOM      6  C   UNL     1      -4.872 -36.539  -9.348  1.00  0.00     0.053 C 
BRANCH   6   7
ATOM      7  C   UNL     1      -5.621 -35.264  -9.588  1.00  0.00     0.041 C 
ATOM      8  O   UNL     1      -5.565 -34.329  -8.748  1.00  0.00    -0.550 OA
ATOM      9  O   UNL     1      -6.355 -35.096 -10.756  1.00  0.00    -0.550 OA
ENDBRANCH   6   7
ENDBRANCH   5   6
ENDBRANCH   4   5
ENDBRANCH   3   4
ENDBRANCH   2   3
ENDBRANCH   1   2
BRANCH   1  10
ATOM     10  C   UNL     1      -7.096 -40.247 -13.574  1.00  0.00     0.000 C 
BRANCH  10  11
ATOM     11  C   UNL     1      -7.135 -40.016 -15.094  1.00  0.00    -0.000 C 
BRANCH  11  12
ATOM     12  C   UNL     1      -6.612 -41.226 -15.887  1.00  0.00    -0.000 C 
BRANCH  12  13
ATOM     13  C   UNL     1      -6.190 -40.862 -17.322  1.00  0.00    -0.000 C 
BRANCH  13  14
ATOM     14  C   UNL     1      -7.268 -40.149 -18.164  1.00  0.00    -0.000 C 
BRANCH  14  15
ATOM     15  C   UNL     1      -6.838 -38.801 -18.770  1.00  0.00    -0.000 C 
BRANCH  15  16
ATOM     16  C   UNL     1      -7.948 -37.742 -18.714  1.00  0.00    -0.003 C 
ATOM     17  C   UNL     1      -8.331 -37.424 -17.271  1.00  0.00     0.004 C 
ENDBRANCH  15  16
ENDBRANCH  14  15
ENDBRANCH  13  14
ENDBRANCH  12  13
ENDBRANCH  11  12
ENDBRANCH  10  11
ENDBRANCH   1  10
TORSDOF 13
ENDMDL
MODEL 5
REMARK VINA RESULT:    -4.223      3.190      5.458
REMARK INTER + INTRA:          -8.386
REMARK INTER:                  -7.182
REMARK INTRA:                  -1.205
REMARK UNBOUND:                -0.953
REMARK SMILES CCCCCCCCCCCCCCC(=O)[O-]
REMARK SMILES IDX 9 1 10 2 11 3 12 4 13 5 14 6 15 7 16 8 17 9 8 10 7 11 6 12
REMARK SMILES IDX 5 13 4 14 3 15 2 16 1 17
REMARK H PARENT
REMARK Flexibility Score: inf
ROOT
ATOM      1  C   UNL     1      -7.484 -38.113  -8.918  1.00  0.00     0.000 C 
ENDROOT
BRANCH   1   2
ATOM      2  C   UNL     1      -6.588 -38.490 -10.108  1.00  0.00     0.000 C 
BRANCH   2   3
ATOM      3  C   UNL     1      -7.322 -39.354 -11.148  1.00  0.00     0.000 C 
BRANCH   3   4
ATOM      4  C   UNL     1      -6.362 -40.062 -12.120  1.00  0.00     0.000 C 
BRANCH   4   5
ATOM      5  C   UNL     1      -6.960 -40.383 -13.506  1.00  0.00     0.006 C 
BRANCH   5   6
ATOM      6  C   UNL     1      -6.167 -41.417 -14.320  1.00  0.00     0.053 C 
BRANCH   6   7
ATOM      7  C   UNL     1      -6.521 -41.377 -15.775  1.00  0.00     0.041 C 
ATOM      8  O   UNL     1      -6.580 -40.277 -16.383  1.00  0.00    -0.550 OA
ATOM      9  O   UNL     1      -6.751 -42.560 -16.468  1.00  0.00    -0.550 OA
ENDBRANCH   6   7
ENDBRANCH   5   6
ENDBRANCH   4   5
ENDBRANCH   3   4
ENDBRANCH   2   3
ENDBRANCH   1   2
BRANCH   1  10
ATOM     10  C   UNL     1      -8.771 -37.391  -9.355  1.00  0.00     0.000 C 
BRANCH  10  11
ATOM     11  C   UNL     1      -8.699 -35.870  -9.143  1.00  0.00    -0.000 C 
BRANCH  11  12
ATOM     12  C   UNL     1      -8.194 -35.124 -10.389  1.00  0.00    -0.000 C 
BRANCH  12  13
ATOM     13  C   UNL     1      -6.716 -34.708 -10.278  1.00  0.00    -0.000 C 
BRANCH  13  14
ATOM     14  C   UNL     1      -6.307 -34.086  -8.928  1.00  0.00    -0.000 C 
BRANCH  14  15
ATOM     15  C   UNL     1      -5.418 -34.977  -8.040  1.00  0.00    -0.000 C 
BRANCH  15  16
ATOM     16  C   UNL     1      -4.445 -35.843  -8.852  1.00  0.00    -0.003 C 
ATOM     17  C   UNL     1      -3.037 -35.785  -8.265  1.00  0.00     0.004 C 
ENDBRANCH  15  16
ENDBRANCH  14  15
ENDBRANCH  13  14
ENDBRANCH  12  13
ENDBRANCH  11  12
ENDBRANCH  10  11
ENDBRANCH   1  10
TORSDOF 13
ENDMDL
MODEL 6
REMARK VINA RESULT:    -4.218      3.318      7.542
REMARK INTER + INTRA:          -8.377
REMARK INTER:                  -7.526
REMARK INTRA:                  -0.851
REMARK UNBOUND:                -0.953
REMARK SMILES CCCCCCCCCCCCCCC(=O)[O-]
REMARK SMILES IDX 9 1 10 2 11 3 12 4 13 5 14 6 15 7 16 8 17 9 8 10 7 11 6 12
REMARK SMILES IDX 5 13 4 14 3 15 2 16 1 17
REMARK H PARENT
REMARK Flexibility Score: inf
ROOT
ATOM      1  C   UNL     1      -7.486 -39.325 -12.227  1.00  0.00     0.000 C 
ENDROOT
BRANCH   1   2
ATOM      2  C   UNL     1      -6.685 -40.230 -11.277  1.00  0.00     0.000 C 
BRANCH   2   3
ATOM      3  C   UNL     1      -6.255 -39.502  -9.992  1.00  0.00     0.000 C 
BRANCH   3   4
ATOM      4  C   UNL     1      -5.011 -38.619 -10.193  1.00  0.00     0.000 C 
BRANCH   4   5
ATOM      5  C   UNL     1      -5.056 -37.257  -9.469  1.00  0.00     0.006 C 
BRANCH   5   6
ATOM      6  C   UNL     1      -6.470 -36.760  -9.133  1.00  0.00     0.053 C 
BRANCH   6   7
ATOM      7  C   UNL     1      -7.011 -35.848 -10.191  1.00  0.00     0.041 C 
ATOM      8  O   UNL     1      -8.198 -35.973 -10.588  1.00  0.00    -0.550 OA
ATOM      9  O   UNL     1      -6.214 -34.836 -10.714  1.00  0.00    -0.550 OA
ENDBRANCH   6   7
ENDBRANCH   5   6
ENDBRANCH   4   5
ENDBRANCH   3   4
ENDBRANCH   2   3
ENDBRANCH   1   2
BRANCH   1  10
ATOM     10  C   UNL     1      -7.486 -39.846 -13.675  1.00  0.00     0.000 C 
BRANCH  10  11
ATOM     11  C   UNL     1      -6.455 -40.962 -13.905  1.00  0.00    -0.000 C 
BRANCH  11  12
ATOM     12  C   UNL     1      -6.116 -41.154 -15.393  1.00  0.00    -0.000 C 
BRANCH  12  13
ATOM     13  C   UNL     1      -6.874 -40.177 -16.309  1.00  0.00    -0.000 C 
BRANCH  13  14
ATOM     14  C   UNL     1      -7.159 -40.697 -17.734  1.00  0.00    -0.000 C 
BRANCH  14  15
ATOM     15  C   UNL     1      -5.930 -40.775 -18.658  1.00  0.00    -0.000 C 
BRANCH  15  16
ATOM     16  C   UNL     1      -5.779 -39.538 -19.554  1.00  0.00    -0.003 C 
ATOM     17  C   UNL     1      -5.103 -39.895 -20.874  1.00  0.00     0.004 C 
ENDBRANCH  15  16
ENDBRANCH  14  15
ENDBRANCH  13  14
ENDBRANCH  12  13
ENDBRANCH  11  12
ENDBRANCH  10  11
ENDBRANCH   1  10
TORSDOF 13
ENDMDL
MODEL 7
REMARK VINA RESULT:    -4.214      3.738      4.718
REMARK INTER + INTRA:          -8.369
REMARK INTER:                  -7.772
REMARK INTRA:                  -0.597
REMARK UNBOUND:                -0.953
REMARK SMILES CCCCCCCCCCCCCCC(=O)[O-]
REMARK SMILES IDX 9 1 10 2 11 3 12 4 13 5 14 6 15 7 16 8 17 9 8 10 7 11 6 12
REMARK SMILES IDX 5 13 4 14 3 15 2 16 1 17
REMARK H PARENT
REMARK Flexibility Score: inf
ROOT
ATOM      1  C   UNL     1      -6.725 -40.049 -12.332  1.00  0.00     0.000 C 
ENDROOT
BRANCH   1   2
ATOM      2  C   UNL     1      -6.327 -41.065 -13.416  1.00  0.00     0.000 C 
BRANCH   2   3
ATOM      3  C   UNL     1      -6.768 -40.628 -14.823  1.00  0.00     0.000 C 
BRANCH   3   4
ATOM      4  C   UNL     1      -5.957 -41.307 -15.941  1.00  0.00     0.000 C 
BRANCH   4   5
ATOM      5  C   UNL     1      -5.034 -42.451 -15.472  1.00  0.00     0.006 C 
BRANCH   5   6
ATOM      6  C   UNL     1      -3.872 -42.766 -16.427  1.00  0.00     0.053 C 
BRANCH   6   7
ATOM      7  C   UNL     1      -4.357 -43.184 -17.781  1.00  0.00     0.041 C 
ATOM      8  O   UNL     1      -5.126 -44.172 -17.902  1.00  0.00    -0.550 OA
ATOM      9  O   UNL     1      -3.986 -42.459 -18.908  1.00  0.00    -0.550 OA
ENDBRANCH   6   7
ENDBRANCH   5   6
ENDBRANCH   4   5
ENDBRANCH   3   4
ENDBRANCH   2   3
ENDBRANCH   1   2
BRANCH   1  10
ATOM     10  C   UNL     1      -7.062 -40.723 -10.990  1.00  0.00     0.000 C 
BRANCH  10  11
ATOM     11  C   UNL     1      -6.436 -39.998  -9.788  1.00  0.00    -0.000 C 
BRANCH  11  12
ATOM     12  C   UNL     1      -5.540 -38.821 -10.211  1.00  0.00    -0.000 C 
BRANCH  12  13
ATOM     13  C   UNL     1      -5.672 -37.605  -9.277  1.00  0.00    -0.000 C 
BRANCH  13  14
ATOM     14  C   UNL     1      -4.990 -36.314  -9.777  1.00  0.00    -0.000 C 
BRANCH  14  15
ATOM     15  C   UNL     1      -4.899 -35.180  -8.739  1.00  0.00    -0.000 C 
BRANCH  15  16
ATOM     16  C   UNL     1      -6.053 -34.174  -8.854  1.00  0.00    -0.003 C 
ATOM     17  C   UNL     1      -6.798 -34.342 -10.175  1.00  0.00     0.004 C 
ENDBRANCH  15  16
ENDBRANCH  14  15
ENDBRANCH  13  14
ENDBRANCH  12  13
ENDBRANCH  11  12
ENDBRANCH  10  11
ENDBRANCH   1  10
TORSDOF 13
ENDMDL
MODEL 8
REMARK VINA RESULT:    -4.199      1.359      2.217
REMARK INTER + INTRA:          -8.344
REMARK INTER:                  -7.626
REMARK INTRA:                  -0.717
REMARK UNBOUND:                -0.953
REMARK SMILES CCCCCCCCCCCCCCC(=O)[O-]
REMARK SMILES IDX 9 1 10 2 11 3 12 4 13 5 14 6 15 7 16 8 17 9 8 10 7 11 6 12
REMARK SMILES IDX 5 13 4 14 3 15 2 16 1 17
REMARK H PARENT
REMARK Flexibility Score: inf
ROOT
ATOM      1  C   UNL     1      -7.419 -39.390 -12.694  1.00  0.00     0.000 C 
ENDROOT
BRANCH   1   2
ATOM      2  C   UNL     1      -7.859 -40.138 -13.963  1.00  0.00     0.000 C 
BRANCH   2   3
ATOM      3  C   UNL     1      -6.671 -40.729 -14.741  1.00  0.00     0.000 C 
BRANCH   3   4
ATOM      4  C   UNL     1      -6.675 -40.335 -16.229  1.00  0.00     0.000 C 
BRANCH   4   5
ATOM      5  C   UNL     1      -7.690 -39.236 -16.608  1.00  0.00     0.006 C 
BRANCH   5   6
ATOM      6  C   UNL     1      -7.491 -38.641 -18.010  1.00  0.00     0.053 C 
BRANCH   6   7
ATOM      7  C   UNL     1      -7.750 -37.166 -18.036  1.00  0.00     0.041 C 
ATOM      8  O   UNL     1      -8.880 -36.715 -17.715  1.00  0.00    -0.550 OA
ATOM      9  O   UNL     1      -6.731 -36.286 -18.381  1.00  0.00    -0.550 OA
ENDBRANCH   6   7
ENDBRANCH   5   6
ENDBRANCH   4   5
ENDBRANCH   3   4
ENDBRANCH   2   3
ENDBRANCH   1   2
BRANCH   1  10
ATOM     10  C   UNL     1      -6.359 -40.166 -11.892  1.00  0.00     0.000 C 
BRANCH  10  11
ATOM     11  C   UNL     1      -5.784 -39.351 -10.723  1.00  0.00    -0.000 C 
BRANCH  11  12
ATOM     12  C   UNL     1      -6.860 -38.952  -9.698  1.00  0.00    -0.000 C 
BRANCH  12  13
ATOM     13  C   UNL     1      -6.575 -37.594  -9.032  1.00  0.00    -0.000 C 
BRANCH  13  14
ATOM     14  C   UNL     1      -5.223 -36.951  -9.399  1.00  0.00    -0.000 C 
BRANCH  14  15
ATOM     15  C   UNL     1      -4.996 -35.537  -8.832  1.00  0.00    -0.000 C 
BRANCH  15  16
ATOM     16  C   UNL     1      -5.793 -34.460  -9.581  1.00  0.00    -0.003 C 
ATOM     17  C   UNL     1      -6.785 -33.766  -8.652  1.00  0.00     0.004 C 
ENDBRANCH  15  16
ENDBRANCH  14  15
ENDBRANCH  13  14
ENDBRANCH  12  13
ENDBRANCH  11  12
ENDBRANCH  10  11
ENDBRANCH   1  10
TORSDOF 13
ENDMDL
MODEL 9
REMARK VINA RESULT:    -4.129      3.006      6.836
REMARK INTER + INTRA:          -8.221
REMARK INTER:                  -7.411
REMARK INTRA:                  -0.810
REMARK UNBOUND:                -0.953
REMARK SMILES CCCCCCCCCCCCCCC(=O)[O-]
REMARK SMILES IDX 9 1 10 2 11 3 12 4 13 5 14 6 15 7 16 8 17 9 8 10 7 11 6 12
REMARK SMILES IDX 5 13 4 14 3 15 2 16 1 17
REMARK H PARENT
REMARK Flexibility Score: inf
ROOT
ATOM      1  C   UNL     1      -5.706 -39.325 -10.477  1.00  0.00     0.000 C 
ENDROOT
BRANCH   1   2
ATOM      2  C   UNL     1      -6.012 -38.158  -9.524  1.00  0.00     0.000 C 
BRANCH   2   3
ATOM      3  C   UNL     1      -4.874 -37.124  -9.473  1.00  0.00     0.000 C 
BRANCH   3   4
ATOM      4  C   UNL     1      -5.385 -35.679  -9.342  1.00  0.00     0.000 C 
BRANCH   4   5
ATOM      5  C   UNL     1      -6.191 -35.160 -10.552  1.00  0.00     0.006 C 
BRANCH   5   6
ATOM      6  C   UNL     1      -7.482 -34.412 -10.185  1.00  0.00     0.053 C 
BRANCH   6   7
ATOM      7  C   UNL     1      -8.677 -35.315 -10.199  1.00  0.00     0.041 C 
ATOM      8  O   UNL     1      -9.448 -35.330 -11.193  1.00  0.00    -0.550 OA
ATOM      9  O   UNL     1      -8.920 -36.166  -9.127  1.00  0.00    -0.550 OA
ENDBRANCH   6   7
ENDBRANCH   5   6
ENDBRANCH   4   5
ENDBRANCH   3   4
ENDBRANCH   2   3
ENDBRANCH   1   2
BRANCH   1  10
ATOM     10  C   UNL     1      -6.970 -39.869 -11.166  1.00  0.00     0.000 C 
BRANCH  10  11
ATOM     11  C   UNL     1      -6.715 -41.183 -11.921  1.00  0.00    -0.000 C 
BRANCH  11  12
ATOM     12  C   UNL     1      -7.613 -41.333 -13.162  1.00  0.00    -0.000 C 
BRANCH  12  13
ATOM     13  C   UNL     1      -6.936 -40.839 -14.452  1.00  0.00    -0.000 C 
BRANCH  13  14
ATOM     14  C   UNL     1      -7.372 -39.438 -14.930  1.00  0.00    -0.000 C 
BRANCH  14  15
ATOM     15  C   UNL     1      -7.541 -39.291 -16.453  1.00  0.00    -0.000 C 
BRANCH  15  16
ATOM     16  C   UNL     1      -8.189 -37.958 -16.854  1.00  0.00    -0.003 C 
ATOM     17  C   UNL     1      -9.524 -37.760 -16.141  1.00  0.00     0.004 C 
ENDBRANCH  15  16
ENDBRANCH  14  15
ENDBRANCH  13  14
ENDBRANCH  12  13
ENDBRANCH  11  12
ENDBRANCH  10  11
ENDBRANCH   1  10
TORSDOF 13
ENDMDL
