MODEL 1
REMARK VINA RESULT:    -5.408      0.000      0.000
REMARK INTER + INTRA:          -5.408
REMARK INTER:                  -5.408
REMARK INTRA:                   0.000
REMARK UNBOUND:                 0.000
REMARK SMILES CC(C)=C1CC[C@H](C)CC1=O
REMARK SMILES IDX 8 1 7 2 6 3 5 4 4 5 2 6 1 7 3 8 10 9 11 10 9 11
REMARK H PARENT
REMARK Flexibility Score: inf
ROOT
ATOM      1  C   UNL     1      -9.283   4.627 -16.994  1.00  0.00     0.008 C 
ATOM      2  C   UNL     1      -9.771   3.211 -17.318  1.00  0.00    -0.006 C 
ATOM      3  C   UNL     1     -11.306   3.171 -17.390  1.00  0.00     0.008 C 
ATOM      4  C   UNL     1     -11.817   1.742 -17.611  1.00  0.00     0.039 C 
ATOM      5  C   UNL     1     -11.157   1.064 -18.806  1.00  0.00    -0.006 C 
ATOM      6  C   UNL     1     -11.830   0.147 -19.562  1.00  0.00    -0.070 C 
ATOM      7  C   UNL     1     -11.206  -0.490 -20.782  1.00  0.00     0.039 C 
ATOM      8  C   UNL     1     -13.251  -0.249 -19.233  1.00  0.00     0.039 C 
ATOM      9  C   UNL     1      -9.713   1.377 -19.022  1.00  0.00     0.159 C 
ATOM     10  O   UNL     1      -8.925   0.525 -19.513  1.00  0.00    -0.295 OA
ATOM     11  C   UNL     1      -9.171   2.725 -18.645  1.00  0.00     0.084 C 
ENDROOT
TORSDOF 0
ENDMDL
MODEL 2
REMARK VINA RESULT:    -5.386      1.516      4.590
REMARK INTER + INTRA:          -5.386
REMARK INTER:                  -5.386
REMARK INTRA:                   0.000
REMARK UNBOUND:                 0.000
REMARK SMILES CC(C)=C1CC[C@H](C)CC1=O
REMARK SMILES IDX 8 1 7 2 6 3 5 4 4 5 2 6 1 7 3 8 10 9 11 10 9 11
REMARK H PARENT
REMARK Flexibility Score: inf
ROOT
ATOM      1  C   UNL     1     -12.940  -0.783 -20.380  1.00  0.00     0.008 C 
ATOM      2  C   UNL     1     -11.793  -0.199 -19.546  1.00  0.00    -0.006 C 
ATOM      3  C   UNL     1     -10.695   0.369 -20.459  1.00  0.00     0.008 C 
ATOM      4  C   UNL     1      -9.494   0.865 -19.644  1.00  0.00     0.039 C 
ATOM      5  C   UNL     1      -9.897   1.835 -18.541  1.00  0.00    -0.006 C 
ATOM      6  C   UNL     1      -9.066   2.843 -18.144  1.00  0.00    -0.070 C 
ATOM      7  C   UNL     1      -9.477   3.846 -17.091  1.00  0.00     0.039 C 
ATOM      8  C   UNL     1      -7.702   3.027 -18.770  1.00  0.00     0.039 C 
ATOM      9  C   UNL     1     -11.190   1.545 -17.853  1.00  0.00     0.159 C 
ATOM     10  O   UNL     1     -11.362   1.825 -16.637  1.00  0.00    -0.295 OA
ATOM     11  C   UNL     1     -12.315   0.899 -18.608  1.00  0.00     0.084 C 
ENDROOT
TORSDOF 0
ENDMDL
MODEL 3
REMARK VINA RESULT:    -5.008      0.941      3.983
REMARK INTER + INTRA:          -5.008
REMARK INTER:                  -5.008
REMARK INTRA:                   0.000
REMARK UNBOUND:                 0.000
REMARK SMILES CC(C)=C1CC[C@H](C)CC1=O
REMARK SMILES IDX 8 1 7 2 6 3 5 4 4 5 2 6 1 7 3 8 10 9 11 10 9 11
REMARK H PARENT
REMARK Flexibility Score: inf
ROOT
ATOM      1  C   UNL     1     -13.525  -0.628 -19.486  1.00  0.00     0.008 C 
ATOM      2  C   UNL     1     -12.489   0.501 -19.481  1.00  0.00    -0.006 C 
ATOM      3  C   UNL     1     -12.508   1.249 -18.139  1.00  0.00     0.008 C 
ATOM      4  C   UNL     1     -11.550   2.447 -18.154  1.00  0.00     0.039 C 
ATOM      5  C   UNL     1     -10.142   2.063 -18.589  1.00  0.00    -0.006 C 
ATOM      6  C   UNL     1      -9.045   2.713 -18.098  1.00  0.00    -0.070 C 
ATOM      7  C   UNL     1      -7.641   2.304 -18.478  1.00  0.00     0.039 C 
ATOM      8  C   UNL     1      -9.185   3.855 -17.117  1.00  0.00     0.039 C 
ATOM      9  C   UNL     1     -10.046   1.024 -19.657  1.00  0.00     0.159 C 
ATOM     10  O   UNL     1      -9.107   1.034 -20.498  1.00  0.00    -0.295 OA
ATOM     11  C   UNL     1     -11.083  -0.057 -19.750  1.00  0.00     0.084 C 
ENDROOT
TORSDOF 0
ENDMDL
MODEL 4
REMARK VINA RESULT:    -4.484      3.361      4.826
REMARK INTER + INTRA:          -4.484
REMARK INTER:                  -4.484
REMARK INTRA:                   0.000
REMARK UNBOUND:                 0.000
REMARK SMILES CC(C)=C1CC[C@H](C)CC1=O
REMARK SMILES IDX 8 1 7 2 6 3 5 4 4 5 2 6 1 7 3 8 10 9 11 10 9 11
REMARK H PARENT
REMARK Flexibility Score: inf
ROOT
ATOM      1  C   UNL     1     -13.310   6.527 -21.381  1.00  0.00     0.008 C 
ATOM      2  C   UNL     1     -12.714   5.401 -20.528  1.00  0.00    -0.006 C 
ATOM      3  C   UNL     1     -11.381   4.919 -21.121  1.00  0.00     0.008 C 
ATOM      4  C   UNL     1     -10.822   3.723 -20.340  1.00  0.00     0.039 C 
ATOM      5  C   UNL     1     -10.732   3.994 -18.844  1.00  0.00    -0.006 C 
ATOM      6  C   UNL     1      -9.753   3.429 -18.078  1.00  0.00    -0.070 C 
ATOM      7  C   UNL     1      -9.619   3.735 -16.604  1.00  0.00     0.039 C 
ATOM      8  C   UNL     1      -8.728   2.495 -18.680  1.00  0.00     0.039 C 
ATOM      9  C   UNL     1     -11.836   4.813 -18.258  1.00  0.00     0.159 C 
ATOM     10  O   UNL     1     -12.231   4.628 -17.076  1.00  0.00    -0.295 OA
ATOM     11  C   UNL     1     -12.504   5.874 -19.082  1.00  0.00     0.084 C 
ENDROOT
TORSDOF 0
ENDMDL
MODEL 5
REMARK VINA RESULT:    -4.445      1.539      2.422
REMARK INTER + INTRA:          -4.445
REMARK INTER:                  -4.445
REMARK INTRA:                   0.000
REMARK UNBOUND:                 0.000
REMARK SMILES CC(C)=C1CC[C@H](C)CC1=O
REMARK SMILES IDX 8 1 7 2 6 3 5 4 4 5 2 6 1 7 3 8 10 9 11 10 9 11
REMARK H PARENT
REMARK Flexibility Score: inf
ROOT
ATOM      1  C   UNL     1      -8.365   3.879 -17.197  1.00  0.00     0.008 C 
ATOM      2  C   UNL     1      -9.396   3.251 -18.141  1.00  0.00    -0.006 C 
ATOM      3  C   UNL     1      -8.798   2.035 -18.865  1.00  0.00     0.008 C 
ATOM      4  C   UNL     1      -9.782   1.456 -19.890  1.00  0.00     0.039 C 
ATOM      5  C   UNL     1     -11.149   1.162 -19.284  1.00  0.00    -0.006 C 
ATOM      6  C   UNL     1     -11.919   0.130 -19.740  1.00  0.00    -0.070 C 
ATOM      7  C   UNL     1     -13.252  -0.206 -19.110  1.00  0.00     0.039 C 
ATOM      8  C   UNL     1     -11.456  -0.751 -20.877  1.00  0.00     0.039 C 
ATOM      9  C   UNL     1     -11.633   2.131 -18.257  1.00  0.00     0.159 C 
ATOM     10  O   UNL     1     -12.860   2.385 -18.123  1.00  0.00    -0.295 OA
ATOM     11  C   UNL     1     -10.652   2.832 -17.363  1.00  0.00     0.084 C 
ENDROOT
TORSDOF 0
ENDMDL
MODEL 6
REMARK VINA RESULT:    -4.398      4.222      5.137
REMARK INTER + INTRA:          -4.398
REMARK INTER:                  -4.398
REMARK INTRA:                   0.000
REMARK UNBOUND:                 0.000
REMARK SMILES CC(C)=C1CC[C@H](C)CC1=O
REMARK SMILES IDX 8 1 7 2 6 3 5 4 4 5 2 6 1 7 3 8 10 9 11 10 9 11
REMARK H PARENT
REMARK Flexibility Score: inf
ROOT
ATOM      1  C   UNL     1     -10.402   3.178 -16.932  1.00  0.00     0.008 C 
ATOM      2  C   UNL     1     -10.689   4.199 -18.039  1.00  0.00    -0.006 C 
ATOM      3  C   UNL     1     -10.548   3.550 -19.425  1.00  0.00     0.008 C 
ATOM      4  C   UNL     1     -10.730   4.581 -20.545  1.00  0.00     0.039 C 
ATOM      5  C   UNL     1     -12.022   5.376 -20.402  1.00  0.00    -0.006 C 
ATOM      6  C   UNL     1     -12.699   5.833 -21.496  1.00  0.00    -0.070 C 
ATOM      7  C   UNL     1     -14.010   6.575 -21.368  1.00  0.00     0.039 C 
ATOM      8  C   UNL     1     -12.185   5.586 -22.895  1.00  0.00     0.039 C 
ATOM      9  C   UNL     1     -12.430   5.718 -19.006  1.00  0.00     0.159 C 
ATOM     10  O   UNL     1     -13.047   6.785 -18.747  1.00  0.00    -0.295 OA
ATOM     11  C   UNL     1     -12.099   4.786 -17.877  1.00  0.00     0.084 C 
ENDROOT
TORSDOF 0
ENDMDL
MODEL 7
REMARK VINA RESULT:    -4.375      2.482      3.618
REMARK INTER + INTRA:          -4.375
REMARK INTER:                  -4.375
REMARK INTRA:                   0.000
REMARK UNBOUND:                 0.000
REMARK SMILES CC(C)=C1CC[C@H](C)CC1=O
REMARK SMILES IDX 8 1 7 2 6 3 5 4 4 5 2 6 1 7 3 8 10 9 11 10 9 11
REMARK H PARENT
REMARK Flexibility Score: inf
ROOT
ATOM      1  C   UNL     1     -12.561   6.345 -19.651  1.00  0.00     0.008 C 
ATOM      2  C   UNL     1     -11.874   5.069 -19.153  1.00  0.00    -0.006 C 
ATOM      3  C   UNL     1     -11.792   4.024 -20.277  1.00  0.00     0.008 C 
ATOM      4  C   UNL     1     -11.201   2.703 -19.770  1.00  0.00     0.039 C 
ATOM      5  C   UNL     1      -9.870   2.896 -19.054  1.00  0.00    -0.006 C 
ATOM      6  C   UNL     1      -8.898   1.937 -19.092  1.00  0.00    -0.070 C 
ATOM      7  C   UNL     1      -7.553   2.141 -18.434  1.00  0.00     0.039 C 
ATOM      8  C   UNL     1      -9.110   0.636 -19.831  1.00  0.00     0.039 C 
ATOM      9  C   UNL     1      -9.745   4.132 -18.224  1.00  0.00     0.159 C 
ATOM     10  O   UNL     1      -9.047   4.148 -17.176  1.00  0.00    -0.295 OA
ATOM     11  C   UNL     1     -10.465   5.385 -18.629  1.00  0.00     0.084 C 
ENDROOT
TORSDOF 0
ENDMDL
MODEL 8
REMARK VINA RESULT:    -3.690      1.944      3.182
REMARK INTER + INTRA:          -3.690
REMARK INTER:                  -3.690
REMARK INTRA:                   0.000
REMARK UNBOUND:                 0.000
REMARK SMILES CC(C)=C1CC[C@H](C)CC1=O
REMARK SMILES IDX 8 1 7 2 6 3 5 4 4 5 2 6 1 7 3 8 10 9 11 10 9 11
REMARK H PARENT
REMARK Flexibility Score: inf
ROOT
ATOM      1  C   UNL     1     -12.511   4.622 -16.138  1.00  0.00     0.008 C 
ATOM      2  C   UNL     1     -11.503   4.187 -17.207  1.00  0.00    -0.006 C 
ATOM      3  C   UNL     1     -10.141   3.869 -16.570  1.00  0.00     0.008 C 
ATOM      4  C   UNL     1      -9.091   3.531 -17.636  1.00  0.00     0.039 C 
ATOM      5  C   UNL     1      -9.559   2.440 -18.590  1.00  0.00    -0.006 C 
ATOM      6  C   UNL     1      -8.676   1.562 -19.151  1.00  0.00    -0.070 C 
ATOM      7  C   UNL     1      -9.134   0.440 -20.054  1.00  0.00     0.039 C 
ATOM      8  C   UNL     1      -7.194   1.649 -18.864  1.00  0.00     0.039 C 
ATOM      9  C   UNL     1     -11.006   2.465 -18.957  1.00  0.00     0.159 C 
ATOM     10  O   UNL     1     -11.401   2.083 -20.091  1.00  0.00    -0.295 OA
ATOM     11  C   UNL     1     -12.023   2.960 -17.970  1.00  0.00     0.084 C 
ENDROOT
TORSDOF 0
ENDMDL
MODEL 9
REMARK VINA RESULT:    -3.243     17.293     18.157
REMARK INTER + INTRA:          -3.243
REMARK INTER:                  -3.243
REMARK INTRA:                   0.000
REMARK UNBOUND:                 0.000
REMARK SMILES CC(C)=C1CC[C@H](C)CC1=O
REMARK SMILES IDX 8 1 7 2 6 3 5 4 4 5 2 6 1 7 3 8 10 9 11 10 9 11
REMARK H PARENT
REMARK Flexibility Score: inf
ROOT
ATOM      1  C   UNL     1       4.016  -6.488  -8.450  1.00  0.00     0.008 C 
ATOM      2  C   UNL     1       3.787  -6.245  -9.947  1.00  0.00    -0.006 C 
ATOM      3  C   UNL     1       5.125  -6.212 -10.701  1.00  0.00     0.008 C 
ATOM      4  C   UNL     1       4.922  -5.867 -12.182  1.00  0.00     0.039 C 
ATOM      5  C   UNL     1       3.894  -6.767 -12.855  1.00  0.00    -0.006 C 
ATOM      6  C   UNL     1       3.997  -7.097 -14.176  1.00  0.00    -0.070 C 
ATOM      7  C   UNL     1       3.014  -8.034 -14.841  1.00  0.00     0.039 C 
ATOM      8  C   UNL     1       5.125  -6.568 -15.031  1.00  0.00     0.039 C 
ATOM      9  C   UNL     1       2.721  -7.163 -12.019  1.00  0.00     0.159 C 
ATOM     10  O   UNL     1       1.586  -7.352 -12.531  1.00  0.00    -0.295 OA
ATOM     11  C   UNL     1       2.880  -7.335 -10.536  1.00  0.00     0.084 C 
ENDROOT
TORSDOF 0
ENDMDL
