MODEL 1
REMARK VINA RESULT:    -3.393      0.000      0.000
REMARK INTER + INTRA:          -4.296
REMARK INTER:                  -4.087
REMARK INTRA:                  -0.209
REMARK UNBOUND:                -0.209
REMARK SMILES OCC(O)CO
REMARK SMILES IDX 3 1 5 2 6 3 2 5 1 6 4 8
REMARK H PARENT 6 4 1 7 4 9
REMARK Flexibility Score: inf
ROOT
ATOM      1  C   UNL     1       1.144  51.550  35.376  1.00  0.00     0.165 C 
ENDROOT
BRANCH   1   2
ATOM      2  C   UNL     1       0.405  52.849  35.009  1.00  0.00     0.190 C 
BRANCH   2   3
ATOM      3  O   UNL     1       1.111  53.572  34.037  1.00  0.00    -0.394 OA
ATOM      4  H   UNL     1       0.620  53.453  33.183  1.00  0.00     0.210 HD
ENDBRANCH   2   3
ENDBRANCH   1   2
BRANCH   1   5
ATOM      5  C   UNL     1       2.665  51.700  35.242  1.00  0.00     0.190 C 
BRANCH   5   6
ATOM      6  O   UNL     1       3.055  51.561  33.903  1.00  0.00    -0.394 OA
ATOM      7  H   UNL     1       2.987  50.592  33.697  1.00  0.00     0.210 HD
ENDBRANCH   5   6
ENDBRANCH   1   5
BRANCH   1   8
ATOM      8  O   UNL     1       0.711  50.504  34.546  1.00  0.00    -0.388 OA
ATOM      9  H   UNL     1       0.359  49.792  35.140  1.00  0.00     0.211 HD
ENDBRANCH   1   8
TORSDOF 5
ENDMDL
MODEL 2
REMARK VINA RESULT:    -3.341     13.219     13.939
REMARK INTER + INTRA:          -4.234
REMARK INTER:                  -4.020
REMARK INTRA:                  -0.214
REMARK UNBOUND:                -0.209
REMARK SMILES OCC(O)CO
REMARK SMILES IDX 3 1 5 2 6 3 2 5 1 6 4 8
REMARK H PARENT 6 4 1 7 4 9
REMARK Flexibility Score: inf
ROOT
ATOM      1  C   UNL     1      -2.186  40.892  26.137  1.00  0.00     0.165 C 
ENDROOT
BRANCH   1   2
ATOM      2  C   UNL     1      -1.377  41.702  27.166  1.00  0.00     0.190 C 
BRANCH   2   3
ATOM      3  O   UNL     1      -2.189  42.114  28.233  1.00  0.00    -0.394 OA
ATOM      4  H   UNL     1      -2.471  43.044  28.033  1.00  0.00     0.210 HD
ENDBRANCH   2   3
ENDBRANCH   1   2
BRANCH   1   5
ATOM      5  C   UNL     1      -3.016  41.800  25.221  1.00  0.00     0.190 C 
BRANCH   5   6
ATOM      6  O   UNL     1      -2.659  43.142  25.407  1.00  0.00    -0.394 OA
ATOM      7  H   UNL     1      -3.306  43.510  26.064  1.00  0.00     0.210 HD
ENDBRANCH   5   6
ENDBRANCH   1   5
BRANCH   1   8
ATOM      8  O   UNL     1      -3.043  40.000  26.801  1.00  0.00    -0.388 OA
ATOM      9  H   UNL     1      -2.472  39.287  27.188  1.00  0.00     0.211 HD
ENDBRANCH   1   8
TORSDOF 5
ENDMDL
MODEL 3
REMARK VINA RESULT:    -3.315     13.784     14.456
REMARK INTER + INTRA:          -4.202
REMARK INTER:                  -3.978
REMARK INTRA:                  -0.224
REMARK UNBOUND:                -0.209
REMARK SMILES OCC(O)CO
REMARK SMILES IDX 3 1 5 2 6 3 2 5 1 6 4 8
REMARK H PARENT 6 4 1 7 4 9
REMARK Flexibility Score: inf
ROOT
ATOM      1  C   UNL     1      -1.297  41.212  25.617  1.00  0.00     0.165 C 
ENDROOT
BRANCH   1   2
ATOM      2  C   UNL     1      -2.579  42.040  25.413  1.00  0.00     0.190 C 
BRANCH   2   3
ATOM      3  O   UNL     1      -3.347  42.075  26.585  1.00  0.00    -0.394 OA
ATOM      4  H   UNL     1      -3.330  41.158  26.963  1.00  0.00     0.210 HD
ENDBRANCH   2   3
ENDBRANCH   1   2
BRANCH   1   5
ATOM      5  C   UNL     1      -1.549  39.973  26.486  1.00  0.00     0.190 C 
BRANCH   5   6
ATOM      6  O   UNL     1      -2.672  39.273  26.025  1.00  0.00    -0.394 OA
ATOM      7  H   UNL     1      -3.310  39.244  26.785  1.00  0.00     0.210 HD
ENDBRANCH   5   6
ENDBRANCH   1   5
BRANCH   1   8
ATOM      8  O   UNL     1      -0.310  42.005  26.222  1.00  0.00    -0.388 OA
ATOM      9  H   UNL     1       0.564  41.580  26.021  1.00  0.00     0.211 HD
ENDBRANCH   1   8
TORSDOF 5
ENDMDL
MODEL 4
REMARK VINA RESULT:    -3.310     13.456     14.140
REMARK INTER + INTRA:          -4.197
REMARK INTER:                  -3.980
REMARK INTRA:                  -0.217
REMARK UNBOUND:                -0.209
REMARK SMILES OCC(O)CO
REMARK SMILES IDX 3 1 5 2 6 3 2 5 1 6 4 8
REMARK H PARENT 6 4 1 7 4 9
REMARK Flexibility Score: inf
ROOT
ATOM      1  C   UNL     1      -1.084  41.355  25.928  1.00  0.00     0.165 C 
ENDROOT
BRANCH   1   2
ATOM      2  C   UNL     1      -0.629  41.756  24.514  1.00  0.00     0.190 C 
BRANCH   2   3
ATOM      3  O   UNL     1      -1.494  42.708  23.958  1.00  0.00    -0.394 OA
ATOM      4  H   UNL     1      -1.205  43.592  24.305  1.00  0.00     0.210 HD
ENDBRANCH   2   3
ENDBRANCH   1   2
BRANCH   1   5
ATOM      5  C   UNL     1      -2.584  41.037  25.977  1.00  0.00     0.190 C 
BRANCH   5   6
ATOM      6  O   UNL     1      -3.316  42.183  26.317  1.00  0.00    -0.394 OA
ATOM      7  H   UNL     1      -3.149  42.841  25.593  1.00  0.00     0.210 HD
ENDBRANCH   5   6
ENDBRANCH   1   5
BRANCH   1   8
ATOM      8  O   UNL     1      -0.804  42.393  26.831  1.00  0.00    -0.388 OA
ATOM      9  H   UNL     1      -1.016  42.051  27.738  1.00  0.00     0.211 HD
ENDBRANCH   1   8
TORSDOF 5
ENDMDL
MODEL 5
REMARK VINA RESULT:    -3.282     12.997     13.295
REMARK INTER + INTRA:          -4.163
REMARK INTER:                  -3.948
REMARK INTRA:                  -0.215
REMARK UNBOUND:                -0.209
REMARK SMILES OCC(O)CO
REMARK SMILES IDX 3 1 5 2 6 3 2 5 1 6 4 8
REMARK H PARENT 6 4 1 7 4 9
REMARK Flexibility Score: inf
ROOT
ATOM      1  C   UNL     1      -1.652  42.053  27.151  1.00  0.00     0.165 C 
ENDROOT
BRANCH   1   2
ATOM      2  C   UNL     1      -2.682  41.947  26.011  1.00  0.00     0.190 C 
BRANCH   2   3
ATOM      3  O   UNL     1      -2.734  43.135  25.268  1.00  0.00    -0.394 OA
ATOM      4  H   UNL     1      -2.473  42.901  24.340  1.00  0.00     0.210 HD
ENDBRANCH   2   3
ENDBRANCH   1   2
BRANCH   1   5
ATOM      5  C   UNL     1      -0.275  41.527  26.727  1.00  0.00     0.190 C 
BRANCH   5   6
ATOM      6  O   UNL     1       0.113  42.099  25.508  1.00  0.00    -0.394 OA
ATOM      7  H   UNL     1      -0.418  42.932  25.413  1.00  0.00     0.210 HD
ENDBRANCH   5   6
ENDBRANCH   1   5
BRANCH   1   8
ATOM      8  O   UNL     1      -2.099  41.327  28.266  1.00  0.00    -0.388 OA
ATOM      9  H   UNL     1      -3.077  41.481  28.337  1.00  0.00     0.211 HD
ENDBRANCH   1   8
TORSDOF 5
ENDMDL
MODEL 6
REMARK VINA RESULT:    -3.281      1.816      2.657
REMARK INTER + INTRA:          -4.161
REMARK INTER:                  -3.938
REMARK INTRA:                  -0.223
REMARK UNBOUND:                -0.209
REMARK SMILES OCC(O)CO
REMARK SMILES IDX 3 1 5 2 6 3 2 5 1 6 4 8
REMARK H PARENT 6 4 1 7 4 9
REMARK Flexibility Score: inf
ROOT
ATOM      1  C   UNL     1       1.214  51.386  35.695  1.00  0.00     0.165 C 
ENDROOT
BRANCH   1   2
ATOM      2  C   UNL     1       2.526  51.589  34.917  1.00  0.00     0.190 C 
BRANCH   2   3
ATOM      3  O   UNL     1       3.271  50.402  34.868  1.00  0.00    -0.394 OA
ATOM      4  H   UNL     1       3.239  50.086  33.928  1.00  0.00     0.210 HD
ENDBRANCH   2   3
ENDBRANCH   1   2
BRANCH   1   5
ATOM      5  C   UNL     1       1.424  50.542  36.959  1.00  0.00     0.190 C 
BRANCH   5   6
ATOM      6  O   UNL     1       2.582  50.952  37.634  1.00  0.00    -0.394 OA
ATOM      7  H   UNL     1       2.770  50.248  38.309  1.00  0.00     0.210 HD
ENDBRANCH   5   6
ENDBRANCH   1   5
BRANCH   1   8
ATOM      8  O   UNL     1       0.266  50.755  34.873  1.00  0.00    -0.388 OA
ATOM      9  H   UNL     1      -0.198  50.081  35.435  1.00  0.00     0.211 HD
ENDBRANCH   1   8
TORSDOF 5
ENDMDL
MODEL 7
REMARK VINA RESULT:    -3.276      1.683      2.483
REMARK INTER + INTRA:          -4.155
REMARK INTER:                  -3.931
REMARK INTRA:                  -0.224
REMARK UNBOUND:                -0.209
REMARK SMILES OCC(O)CO
REMARK SMILES IDX 3 1 5 2 6 3 2 5 1 6 4 8
REMARK H PARENT 6 4 1 7 4 9
REMARK Flexibility Score: inf
ROOT
ATOM      1  C   UNL     1       2.126  50.653  35.946  1.00  0.00     0.165 C 
ENDROOT
BRANCH   1   2
ATOM      2  C   UNL     1       1.441  49.655  34.994  1.00  0.00     0.190 C 
BRANCH   2   3
ATOM      3  O   UNL     1       0.214  50.158  34.537  1.00  0.00    -0.394 OA
ATOM      4  H   UNL     1       0.108  49.841  33.603  1.00  0.00     0.210 HD
ENDBRANCH   2   3
ENDBRANCH   1   2
BRANCH   1   5
ATOM      5  C   UNL     1       2.932  51.711  35.181  1.00  0.00     0.190 C 
BRANCH   5   6
ATOM      6  O   UNL     1       2.608  51.682  33.818  1.00  0.00    -0.394 OA
ATOM      7  H   UNL     1       2.863  52.570  33.455  1.00  0.00     0.210 HD
ENDBRANCH   5   6
ENDBRANCH   1   5
BRANCH   1   8
ATOM      8  O   UNL     1       2.982  49.965  36.820  1.00  0.00    -0.388 OA
ATOM      9  H   UNL     1       2.550  49.976  37.713  1.00  0.00     0.211 HD
ENDBRANCH   1   8
TORSDOF 5
ENDMDL
MODEL 8
REMARK VINA RESULT:    -3.228     13.830     14.631
REMARK INTER + INTRA:          -4.098
REMARK INTER:                  -3.874
REMARK INTRA:                  -0.224
REMARK UNBOUND:                -0.209
REMARK SMILES OCC(O)CO
REMARK SMILES IDX 3 1 5 2 6 3 2 5 1 6 4 8
REMARK H PARENT 6 4 1 7 4 9
REMARK Flexibility Score: inf
ROOT
ATOM      1  C   UNL     1      -1.105  41.367  26.104  1.00  0.00     0.165 C 
ENDROOT
BRANCH   1   2
ATOM      2  C   UNL     1      -1.125  39.836  25.940  1.00  0.00     0.190 C 
BRANCH   2   3
ATOM      3  O   UNL     1      -2.433  39.339  26.021  1.00  0.00    -0.394 OA
ATOM      4  H   UNL     1      -2.396  38.534  26.600  1.00  0.00     0.210 HD
ENDBRANCH   2   3
ENDBRANCH   1   2
BRANCH   1   5
ATOM      5  C   UNL     1      -2.375  42.018  25.539  1.00  0.00     0.190 C 
BRANCH   5   6
ATOM      6  O   UNL     1      -3.374  42.075  26.520  1.00  0.00    -0.394 OA
ATOM      7  H   UNL     1      -3.427  43.025  26.803  1.00  0.00     0.210 HD
ENDBRANCH   5   6
ENDBRANCH   1   5
BRANCH   1   8
ATOM      8  O   UNL     1       0.016  41.902  25.451  1.00  0.00    -0.388 OA
ATOM      9  H   UNL     1      -0.148  41.811  24.477  1.00  0.00     0.211 HD
ENDBRANCH   1   8
TORSDOF 5
ENDMDL
MODEL 9
REMARK VINA RESULT:    -3.206      1.684      2.655
REMARK INTER + INTRA:          -4.071
REMARK INTER:                  -3.850
REMARK INTRA:                  -0.221
REMARK UNBOUND:                -0.209
REMARK SMILES OCC(O)CO
REMARK SMILES IDX 3 1 5 2 6 3 2 5 1 6 4 8
REMARK H PARENT 6 4 1 7 4 9
REMARK Flexibility Score: inf
ROOT
ATOM      1  C   UNL     1       1.747  49.850  35.034  1.00  0.00     0.165 C 
ENDROOT
BRANCH   1   2
ATOM      2  C   UNL     1       2.714  51.047  35.074  1.00  0.00     0.190 C 
BRANCH   2   3
ATOM      3  O   UNL     1       2.758  51.700  33.834  1.00  0.00    -0.394 OA
ATOM      4  H   UNL     1       3.596  52.231  33.822  1.00  0.00     0.210 HD
ENDBRANCH   2   3
ENDBRANCH   1   2
BRANCH   1   5
ATOM      5  C   UNL     1       0.299  50.277  35.310  1.00  0.00     0.190 C 
BRANCH   5   6
ATOM      6  O   UNL     1       0.095  51.604  34.909  1.00  0.00    -0.394 OA
ATOM      7  H   UNL     1      -0.346  51.559  34.021  1.00  0.00     0.210 HD
ENDBRANCH   5   6
ENDBRANCH   1   5
BRANCH   1   8
ATOM      8  O   UNL     1       2.133  48.893  35.985  1.00  0.00    -0.388 OA
ATOM      9  H   UNL     1       1.915  48.004  35.604  1.00  0.00     0.211 HD
ENDBRANCH   1   8
TORSDOF 5
ENDMDL
