MODEL 1
REMARK VINA RESULT:    23.041      0.000      0.000
REMARK INTER + INTRA:          26.854
REMARK INTER:                  27.081
REMARK INTRA:                  -0.228
REMARK UNBOUND:                -0.228
REMARK SMILES O=c1c(O)c(-c2ccc(O)cc2)oc2cc(O)cc(O)c12
REMARK SMILES IDX 5 1 3 2 2 3 1 4 21 5 19 6 18 7 16 8 15 9 14 10 13 11 6 12
REMARK SMILES IDX 7 13 8 14 9 15 12 16 11 17 10 18 4 20 20 22 17 24
REMARK H PARENT 10 19 4 21 20 23 17 25
REMARK Flexibility Score: inf
ROOT
ATOM      1  C   UNL     1      -6.112  -7.458  16.380  1.00  0.00     0.180 A 
ATOM      2  C   UNL     1      -5.726  -8.371  17.376  1.00  0.00     0.208 A 
ATOM      3  C   UNL     1      -6.072  -9.725  17.231  1.00  0.00     0.238 A 
ATOM      4  O   UNL     1      -5.788 -10.524  18.161  1.00  0.00    -0.285 OA
ATOM      5  C   UNL     1      -6.752 -10.158  16.066  1.00  0.00     0.111 A 
ATOM      6  C   UNL     1      -7.113 -11.512  15.793  1.00  0.00     0.134 A 
ATOM      7  C   UNL     1      -7.878 -11.806  14.657  1.00  0.00     0.093 A 
ATOM      8  C   UNL     1      -8.240 -10.809  13.753  1.00  0.00     0.123 A 
ATOM      9  C   UNL     1      -7.845  -9.490  13.982  1.00  0.00     0.094 A 
ATOM     10  C   UNL     1      -7.114  -9.158  15.125  1.00  0.00     0.146 A 
ATOM     11  O   UNL     1      -6.777  -7.889  15.316  1.00  0.00    -0.452 OA
ENDROOT
BRANCH   1  12
ATOM     12  C   UNL     1      -5.796  -6.014  16.469  1.00  0.00     0.021 A 
ATOM     13  C   UNL     1      -4.496  -5.531  16.232  1.00  0.00     0.016 A 
ATOM     14  C   UNL     1      -4.217  -4.166  16.347  1.00  0.00     0.047 A 
ATOM     15  C   UNL     1      -5.227  -3.270  16.712  1.00  0.00     0.115 A 
ATOM     16  C   UNL     1      -6.800  -5.111  16.857  1.00  0.00     0.016 A 
ATOM     17  C   UNL     1      -6.519  -3.746  16.969  1.00  0.00     0.047 A 
BRANCH  15  18
ATOM     18  O   UNL     1      -4.935  -1.912  16.821  1.00  0.00    -0.508 OA
ATOM     19  H   UNL     1      -5.119  -1.398  17.675  1.00  0.00     0.293 HD
ENDBRANCH  15  18
ENDBRANCH   1  12
BRANCH   2  20
ATOM     20  O   UNL     1      -4.988  -7.938  18.481  1.00  0.00    -0.502 OA
ATOM     21  H   UNL     1      -4.620  -6.998  18.555  1.00  0.00     0.293 HD
ENDBRANCH   2  20
BRANCH   6  22
ATOM     22  O   UNL     1      -6.729 -12.600  16.582  1.00  0.00    -0.507 OA
ATOM     23  H   UNL     1      -7.234 -13.470  16.651  1.00  0.00     0.293 HD
ENDBRANCH   6  22
BRANCH   8  24
ATOM     24  O   UNL     1      -8.986 -11.141  12.625  1.00  0.00    -0.508 OA
ATOM     25  H   UNL     1      -8.580 -11.661  11.855  1.00  0.00     0.293 HD
ENDBRANCH   8  24
TORSDOF 5
ENDMDL
MODEL 2
REMARK VINA RESULT:    24.413      1.222      3.070
REMARK INTER + INTRA:          28.467
REMARK INTER:                  28.626
REMARK INTRA:                  -0.159
REMARK UNBOUND:                -0.228
REMARK SMILES O=c1c(O)c(-c2ccc(O)cc2)oc2cc(O)cc(O)c12
REMARK SMILES IDX 5 1 3 2 2 3 1 4 21 5 19 6 18 7 16 8 15 9 14 10 13 11 6 12
REMARK SMILES IDX 7 13 8 14 9 15 12 16 11 17 10 18 4 20 20 22 17 24
REMARK H PARENT 10 19 4 21 20 23 17 25
REMARK Flexibility Score: inf
ROOT
ATOM      1  C   UNL     1      -6.378  -7.502  15.832  1.00  0.00     0.180 A 
ATOM      2  C   UNL     1      -7.236  -7.733  14.743  1.00  0.00     0.208 A 
ATOM      3  C   UNL     1      -7.607  -9.053  14.436  1.00  0.00     0.238 A 
ATOM      4  O   UNL     1      -8.316  -9.258  13.416  1.00  0.00    -0.285 OA
ATOM      5  C   UNL     1      -7.160 -10.119  15.253  1.00  0.00     0.111 A 
ATOM      6  C   UNL     1      -7.510 -11.490  15.062  1.00  0.00     0.134 A 
ATOM      7  C   UNL     1      -6.922 -12.472  15.870  1.00  0.00     0.093 A 
ATOM      8  C   UNL     1      -6.049 -12.128  16.901  1.00  0.00     0.123 A 
ATOM      9  C   UNL     1      -5.744 -10.787  17.132  1.00  0.00     0.094 A 
ATOM     10  C   UNL     1      -6.283  -9.788  16.320  1.00  0.00     0.146 A 
ATOM     11  O   UNL     1      -5.949  -8.526  16.560  1.00  0.00    -0.452 OA
ENDROOT
BRANCH   1  12
ATOM     12  C   UNL     1      -5.932  -6.142  16.209  1.00  0.00     0.021 A 
ATOM     13  C   UNL     1      -6.835  -5.184  16.707  1.00  0.00     0.016 A 
ATOM     14  C   UNL     1      -6.394  -3.898  17.032  1.00  0.00     0.047 A 
ATOM     15  C   UNL     1      -5.052  -3.548  16.853  1.00  0.00     0.115 A 
ATOM     16  C   UNL     1      -4.590  -5.776  16.010  1.00  0.00     0.016 A 
ATOM     17  C   UNL     1      -4.151  -4.490  16.338  1.00  0.00     0.047 A 
BRANCH  15  18
ATOM     18  O   UNL     1      -4.626  -2.264  17.183  1.00  0.00    -0.508 OA
ATOM     19  H   UNL     1      -4.648  -1.928  18.139  1.00  0.00     0.293 HD
ENDBRANCH  15  18
ENDBRANCH   1  12
BRANCH   2  20
ATOM     20  O   UNL     1      -7.729  -6.660  13.995  1.00  0.00    -0.502 OA
ATOM     21  H   UNL     1      -7.212  -5.798  13.874  1.00  0.00     0.293 HD
ENDBRANCH   2  20
BRANCH   6  22
ATOM     22  O   UNL     1      -8.441 -11.938  14.119  1.00  0.00    -0.507 OA
ATOM     23  H   UNL     1      -8.998 -12.773  14.209  1.00  0.00     0.293 HD
ENDBRANCH   6  22
BRANCH   8  24
ATOM     24  O   UNL     1      -5.497 -13.130  17.697  1.00  0.00    -0.508 OA
ATOM     25  H   UNL     1      -6.040 -13.937  17.985  1.00  0.00     0.293 HD
ENDBRANCH   8  24
TORSDOF 5
ENDMDL
MODEL 3
REMARK VINA RESULT:    25.667     10.374     11.133
REMARK INTER + INTRA:          29.941
REMARK INTER:                  29.444
REMARK INTRA:                   0.497
REMARK UNBOUND:                -0.228
REMARK SMILES O=c1c(O)c(-c2ccc(O)cc2)oc2cc(O)cc(O)c12
REMARK SMILES IDX 5 1 3 2 2 3 1 4 21 5 19 6 18 7 16 8 15 9 14 10 13 11 6 12
REMARK SMILES IDX 7 13 8 14 9 15 12 16 11 17 10 18 4 20 20 22 17 24
REMARK H PARENT 10 19 4 21 20 23 17 25
REMARK Flexibility Score: inf
ROOT
ATOM      1  C   UNL     1      -5.683 -17.486  12.789  1.00  0.00     0.180 A 
ATOM      2  C   UNL     1      -6.454 -16.935  11.750  1.00  0.00     0.208 A 
ATOM      3  C   UNL     1      -7.853 -16.918  11.876  1.00  0.00     0.238 A 
ATOM      4  O   UNL     1      -8.540 -16.491  10.912  1.00  0.00    -0.285 OA
ATOM      5  C   UNL     1      -8.460 -17.401  13.061  1.00  0.00     0.111 A 
ATOM      6  C   UNL     1      -9.866 -17.391  13.315  1.00  0.00     0.134 A 
ATOM      7  C   UNL     1     -10.361 -17.993  14.478  1.00  0.00     0.093 A 
ATOM      8  C   UNL     1      -9.501 -18.546  15.426  1.00  0.00     0.123 A 
ATOM      9  C   UNL     1      -8.122 -18.512  15.214  1.00  0.00     0.094 A 
ATOM     10  C   UNL     1      -7.600 -17.953  14.045  1.00  0.00     0.146 A 
ATOM     11  O   UNL     1      -6.283 -17.961  13.873  1.00  0.00    -0.452 OA
ENDROOT
BRANCH   1  12
ATOM     12  C   UNL     1      -4.205 -17.552  12.723  1.00  0.00     0.021 A 
ATOM     13  C   UNL     1      -3.468 -18.380  13.589  1.00  0.00     0.016 A 
ATOM     14  C   UNL     1      -2.072 -18.408  13.524  1.00  0.00     0.047 A 
ATOM     15  C   UNL     1      -1.395 -17.600  12.605  1.00  0.00     0.115 A 
ATOM     16  C   UNL     1      -3.517 -16.728  11.817  1.00  0.00     0.016 A 
ATOM     17  C   UNL     1      -2.121 -16.759  11.752  1.00  0.00     0.047 A 
BRANCH  15  18
ATOM     18  O   UNL     1      -0.004 -17.639  12.550  1.00  0.00    -0.508 OA
ATOM     19  H   UNL     1       0.496 -18.505  12.386  1.00  0.00     0.293 HD
ENDBRANCH  15  18
ENDBRANCH   1  12
BRANCH   2  20
ATOM     20  O   UNL     1      -5.832 -16.393  10.622  1.00  0.00    -0.502 OA
ATOM     21  H   UNL     1      -5.848 -15.402  10.416  1.00  0.00     0.293 HD
ENDBRANCH   2  20
BRANCH   6  22
ATOM     22  O   UNL     1     -10.809 -16.787  12.478  1.00  0.00    -0.507 OA
ATOM     23  H   UNL     1     -11.081 -17.131  11.571  1.00  0.00     0.293 HD
ENDBRANCH   6  22
BRANCH   8  24
ATOM     24  O   UNL     1     -10.028 -19.121  16.580  1.00  0.00    -0.508 OA
ATOM     25  H   UNL     1      -9.718 -20.029  16.909  1.00  0.00     0.293 HD
ENDBRANCH   8  24
TORSDOF 5
ENDMDL
