MODEL 1
REMARK VINA RESULT:    -6.720      0.000      0.000
REMARK INTER + INTRA:          -6.916
REMARK INTER:                  -6.916
REMARK INTRA:                   0.000
REMARK UNBOUND:                 0.000
REMARK SMILES O=c1ccc2ccc(O)cc2o1
REMARK SMILES IDX 6 1 7 2 8 3 10 4 11 5 5 6 4 7 3 8 2 9 1 10 12 11 9 12
REMARK H PARENT 9 13
REMARK Flexibility Score: inf
ROOT
ATOM      1  C   UNL     1      12.227  -5.705 -12.920  1.00  0.00     0.016 A 
ATOM      2  C   UNL     1      12.012  -4.575 -12.125  1.00  0.00     0.047 A 
ATOM      3  C   UNL     1      11.240  -4.667 -10.960  1.00  0.00     0.119 A 
ATOM      4  C   UNL     1      10.680  -5.897 -10.587  1.00  0.00     0.094 A 
ATOM      5  C   UNL     1      10.889  -7.033 -11.376  1.00  0.00     0.142 A 
ATOM      6  C   UNL     1      11.669  -6.937 -12.551  1.00  0.00     0.018 A 
ATOM      7  C   UNL     1      11.861  -8.089 -13.320  1.00  0.00     0.019 A 
ATOM      8  C   UNL     1      11.284  -9.290 -12.908  1.00  0.00     0.094 A 
ATOM      9  C   UNL     1      10.524  -9.310 -11.733  1.00  0.00     0.336 A 
ATOM     10  O   UNL     1       9.996 -10.385 -11.346  1.00  0.00    -0.246 OA
ATOM     11  O   UNL     1      10.356  -8.200 -11.020  1.00  0.00    -0.423 OA
ENDROOT
BRANCH   3  12
ATOM     12  O   UNL     1      11.037  -3.529 -10.182  1.00  0.00    -0.508 OA
ATOM     13  H   UNL     1      10.206  -2.958 -10.286  1.00  0.00     0.293 HD
ENDBRANCH   3  12
TORSDOF 1
ENDMDL
MODEL 2
REMARK VINA RESULT:    -6.663      2.898      4.428
REMARK INTER + INTRA:          -6.858
REMARK INTER:                  -6.858
REMARK INTRA:                   0.000
REMARK UNBOUND:                 0.000
REMARK SMILES O=c1ccc2ccc(O)cc2o1
REMARK SMILES IDX 6 1 7 2 8 3 10 4 11 5 5 6 4 7 3 8 2 9 1 10 12 11 9 12
REMARK H PARENT 9 13
REMARK Flexibility Score: inf
ROOT
ATOM      1  C   UNL     1      14.118  -3.493 -13.378  1.00  0.00     0.016 A 
ATOM      2  C   UNL     1      14.771  -4.075 -14.470  1.00  0.00     0.047 A 
ATOM      3  C   UNL     1      14.364  -5.326 -14.952  1.00  0.00     0.119 A 
ATOM      4  C   UNL     1      13.297  -5.998 -14.340  1.00  0.00     0.094 A 
ATOM      5  C   UNL     1      12.638  -5.424 -13.248  1.00  0.00     0.142 A 
ATOM      6  C   UNL     1      13.051  -4.162 -12.764  1.00  0.00     0.018 A 
ATOM      7  C   UNL     1      12.373  -3.613 -11.670  1.00  0.00     0.019 A 
ATOM      8  C   UNL     1      11.317  -4.319 -11.095  1.00  0.00     0.094 A 
ATOM      9  C   UNL     1      10.964  -5.564 -11.628  1.00  0.00     0.336 A 
ATOM     10  O   UNL     1      10.013  -6.216 -11.122  1.00  0.00    -0.246 OA
ATOM     11  O   UNL     1      11.625  -6.064 -12.668  1.00  0.00    -0.423 OA
ENDROOT
BRANCH   3  12
ATOM     12  O   UNL     1      15.027  -5.889 -16.040  1.00  0.00    -0.508 OA
ATOM     13  H   UNL     1      14.637  -5.852 -16.975  1.00  0.00     0.293 HD
ENDBRANCH   3  12
TORSDOF 1
ENDMDL
MODEL 3
REMARK VINA RESULT:    -6.658      2.434      4.562
REMARK INTER + INTRA:          -6.853
REMARK INTER:                  -6.853
REMARK INTRA:                   0.000
REMARK UNBOUND:                 0.000
REMARK SMILES O=c1ccc2ccc(O)cc2o1
REMARK SMILES IDX 6 1 7 2 8 3 10 4 11 5 5 6 4 7 3 8 2 9 1 10 12 11 9 12
REMARK H PARENT 9 13
REMARK Flexibility Score: inf
ROOT
ATOM      1  C   UNL     1      11.086  -4.378 -10.833  1.00  0.00     0.016 A 
ATOM      2  C   UNL     1      10.383  -5.543 -10.509  1.00  0.00     0.047 A 
ATOM      3  C   UNL     1      10.646  -6.739 -11.187  1.00  0.00     0.119 A 
ATOM      4  C   UNL     1      11.619  -6.772 -12.195  1.00  0.00     0.094 A 
ATOM      5  C   UNL     1      12.328  -5.612 -12.527  1.00  0.00     0.142 A 
ATOM      6  C   UNL     1      12.060  -4.406 -11.840  1.00  0.00     0.018 A 
ATOM      7  C   UNL     1      12.784  -3.263 -12.193  1.00  0.00     0.019 A 
ATOM      8  C   UNL     1      13.742  -3.345 -13.202  1.00  0.00     0.094 A 
ATOM      9  C   UNL     1      13.954  -4.572 -13.839  1.00  0.00     0.336 A 
ATOM     10  O   UNL     1      14.815  -4.666 -14.752  1.00  0.00    -0.246 OA
ATOM     11  O   UNL     1      13.252  -5.645 -13.485  1.00  0.00    -0.423 OA
ENDROOT
BRANCH   3  12
ATOM     12  O   UNL     1       9.934  -7.888 -10.850  1.00  0.00    -0.508 OA
ATOM     13  H   UNL     1       9.060  -7.839 -10.340  1.00  0.00     0.293 HD
ENDBRANCH   3  12
TORSDOF 1
ENDMDL
MODEL 4
REMARK VINA RESULT:    -6.316     18.738     19.667
REMARK INTER + INTRA:          -6.501
REMARK INTER:                  -6.501
REMARK INTRA:                   0.000
REMARK UNBOUND:                 0.000
REMARK SMILES O=c1ccc2ccc(O)cc2o1
REMARK SMILES IDX 6 1 7 2 8 3 10 4 11 5 5 6 4 7 3 8 2 9 1 10 12 11 9 12
REMARK H PARENT 9 13
REMARK Flexibility Score: inf
ROOT
ATOM      1  C   UNL     1      -3.814   5.090  -9.139  1.00  0.00     0.016 A 
ATOM      2  C   UNL     1      -4.120   4.335 -10.277  1.00  0.00     0.047 A 
ATOM      3  C   UNL     1      -3.511   4.627 -11.503  1.00  0.00     0.119 A 
ATOM      4  C   UNL     1      -2.589   5.680 -11.594  1.00  0.00     0.094 A 
ATOM      5  C   UNL     1      -2.277   6.441 -10.462  1.00  0.00     0.142 A 
ATOM      6  C   UNL     1      -2.894   6.143  -9.226  1.00  0.00     0.018 A 
ATOM      7  C   UNL     1      -2.562   6.920  -8.111  1.00  0.00     0.019 A 
ATOM      8  C   UNL     1      -1.640   7.957  -8.250  1.00  0.00     0.094 A 
ATOM      9  C   UNL     1      -1.069   8.194  -9.506  1.00  0.00     0.336 A 
ATOM     10  O   UNL     1      -0.235   9.125  -9.651  1.00  0.00    -0.246 OA
ATOM     11  O   UNL     1      -1.402   7.440 -10.550  1.00  0.00    -0.423 OA
ENDROOT
BRANCH   3  12
ATOM     12  O   UNL     1      -3.829   3.864 -12.625  1.00  0.00    -0.508 OA
ATOM     13  H   UNL     1      -3.795   4.257 -13.559  1.00  0.00     0.293 HD
ENDBRANCH   3  12
TORSDOF 1
ENDMDL
MODEL 5
REMARK VINA RESULT:    -6.305      2.835      4.969
REMARK INTER + INTRA:          -6.490
REMARK INTER:                  -6.490
REMARK INTRA:                   0.000
REMARK UNBOUND:                 0.000
REMARK SMILES O=c1ccc2ccc(O)cc2o1
REMARK SMILES IDX 6 1 7 2 8 3 10 4 11 5 5 6 4 7 3 8 2 9 1 10 12 11 9 12
REMARK H PARENT 9 13
REMARK Flexibility Score: inf
ROOT
ATOM      1  C   UNL     1      12.025  -6.218 -13.371  1.00  0.00     0.016 A 
ATOM      2  C   UNL     1      11.033  -5.987 -12.413  1.00  0.00     0.047 A 
ATOM      3  C   UNL     1      11.041  -4.807 -11.658  1.00  0.00     0.119 A 
ATOM      4  C   UNL     1      12.047  -3.852 -11.863  1.00  0.00     0.094 A 
ATOM      5  C   UNL     1      13.044  -4.075 -12.819  1.00  0.00     0.142 A 
ATOM      6  C   UNL     1      13.033  -5.266 -13.579  1.00  0.00     0.018 A 
ATOM      7  C   UNL     1      14.041  -5.461 -14.528  1.00  0.00     0.019 A 
ATOM      8  C   UNL     1      15.020  -4.483 -14.696  1.00  0.00     0.094 A 
ATOM      9  C   UNL     1      14.968  -3.328 -13.908  1.00  0.00     0.336 A 
ATOM     10  O   UNL     1      15.843  -2.433 -14.045  1.00  0.00    -0.246 OA
ATOM     11  O   UNL     1      13.998  -3.167 -13.012  1.00  0.00    -0.423 OA
ENDROOT
BRANCH   3  12
ATOM     12  O   UNL     1      10.045  -4.595 -10.707  1.00  0.00    -0.508 OA
ATOM     13  H   UNL     1       9.084  -4.419 -10.978  1.00  0.00     0.293 HD
ENDBRANCH   3  12
TORSDOF 1
ENDMDL
MODEL 6
REMARK VINA RESULT:    -6.273      2.158      3.329
REMARK INTER + INTRA:          -6.456
REMARK INTER:                  -6.456
REMARK INTRA:                   0.000
REMARK UNBOUND:                 0.000
REMARK SMILES O=c1ccc2ccc(O)cc2o1
REMARK SMILES IDX 6 1 7 2 8 3 10 4 11 5 5 6 4 7 3 8 2 9 1 10 12 11 9 12
REMARK H PARENT 9 13
REMARK Flexibility Score: inf
ROOT
ATOM      1  C   UNL     1      12.418  -3.450 -12.056  1.00  0.00     0.016 A 
ATOM      2  C   UNL     1      13.412  -3.239 -13.017  1.00  0.00     0.047 A 
ATOM      3  C   UNL     1      13.885  -4.307 -13.791  1.00  0.00     0.119 A 
ATOM      4  C   UNL     1      13.360  -5.593 -13.604  1.00  0.00     0.094 A 
ATOM      5  C   UNL     1      12.366  -5.814 -12.644  1.00  0.00     0.142 A 
ATOM      6  C   UNL     1      11.891  -4.735 -11.865  1.00  0.00     0.018 A 
ATOM      7  C   UNL     1      10.897  -4.986 -10.914  1.00  0.00     0.019 A 
ATOM      8  C   UNL     1      10.406  -6.282 -10.765  1.00  0.00     0.094 A 
ATOM      9  C   UNL     1      10.924  -7.302 -11.571  1.00  0.00     0.336 A 
ATOM     10  O   UNL     1      10.493  -8.478 -11.450  1.00  0.00    -0.246 OA
ATOM     11  O   UNL     1      11.870  -7.037 -12.468  1.00  0.00    -0.423 OA
ENDROOT
BRANCH   3  12
ATOM     12  O   UNL     1      14.876  -4.076 -14.743  1.00  0.00    -0.508 OA
ATOM     13  H   UNL     1      15.247  -3.147 -14.906  1.00  0.00     0.293 HD
ENDBRANCH   3  12
TORSDOF 1
ENDMDL
MODEL 7
REMARK VINA RESULT:    -6.193     17.747     18.826
REMARK INTER + INTRA:          -6.374
REMARK INTER:                  -6.374
REMARK INTRA:                   0.000
REMARK UNBOUND:                 0.000
REMARK SMILES O=c1ccc2ccc(O)cc2o1
REMARK SMILES IDX 6 1 7 2 8 3 10 4 11 5 5 6 4 7 3 8 2 9 1 10 12 11 9 12
REMARK H PARENT 9 13
REMARK Flexibility Score: inf
ROOT
ATOM      1  C   UNL     1      -3.199   7.243  -8.749  1.00  0.00     0.016 A 
ATOM      2  C   UNL     1      -2.216   7.267  -7.755  1.00  0.00     0.047 A 
ATOM      3  C   UNL     1      -1.148   6.361  -7.795  1.00  0.00     0.119 A 
ATOM      4  C   UNL     1      -1.063   5.426  -8.836  1.00  0.00     0.094 A 
ATOM      5  C   UNL     1      -2.042   5.395  -9.835  1.00  0.00     0.142 A 
ATOM      6  C   UNL     1      -3.118   6.310  -9.792  1.00  0.00     0.018 A 
ATOM      7  C   UNL     1      -4.081   6.255 -10.804  1.00  0.00     0.019 A 
ATOM      8  C   UNL     1      -3.953   5.308 -11.819  1.00  0.00     0.094 A 
ATOM      9  C   UNL     1      -2.862   4.433 -11.797  1.00  0.00     0.336 A 
ATOM     10  O   UNL     1      -2.729   3.571 -12.705  1.00  0.00    -0.246 OA
ATOM     11  O   UNL     1      -1.959   4.506 -10.822  1.00  0.00    -0.423 OA
ENDROOT
BRANCH   3  12
ATOM     12  O   UNL     1      -0.179   6.400  -6.795  1.00  0.00    -0.508 OA
ATOM     13  H   UNL     1      -0.063   7.215  -6.203  1.00  0.00     0.293 HD
ENDBRANCH   3  12
TORSDOF 1
ENDMDL
MODEL 8
REMARK VINA RESULT:    -6.156     17.380     18.796
REMARK INTER + INTRA:          -6.336
REMARK INTER:                  -6.336
REMARK INTRA:                   0.000
REMARK UNBOUND:                 0.000
REMARK SMILES O=c1ccc2ccc(O)cc2o1
REMARK SMILES IDX 6 1 7 2 8 3 10 4 11 5 5 6 4 7 3 8 2 9 1 10 12 11 9 12
REMARK H PARENT 9 13
REMARK Flexibility Score: inf
ROOT
ATOM      1  C   UNL     1      -0.995   4.250 -11.056  1.00  0.00     0.016 A 
ATOM      2  C   UNL     1      -1.981   4.026 -12.023  1.00  0.00     0.047 A 
ATOM      3  C   UNL     1      -3.155   4.791 -12.026  1.00  0.00     0.119 A 
ATOM      4  C   UNL     1      -3.344   5.785 -11.056  1.00  0.00     0.094 A 
ATOM      5  C   UNL     1      -2.364   6.016 -10.085  1.00  0.00     0.142 A 
ATOM      6  C   UNL     1      -1.181   5.243 -10.085  1.00  0.00     0.018 A 
ATOM      7  C   UNL     1      -0.219   5.496  -9.102  1.00  0.00     0.019 A 
ATOM      8  C   UNL     1      -0.451   6.496  -8.159  1.00  0.00     0.094 A 
ATOM      9  C   UNL     1      -1.647   7.222  -8.219  1.00  0.00     0.336 A 
ATOM     10  O   UNL     1      -1.875   8.128  -7.377  1.00  0.00    -0.246 OA
ATOM     11  O   UNL     1      -2.546   6.961  -9.165  1.00  0.00    -0.423 OA
ENDROOT
BRANCH   3  12
ATOM     12  O   UNL     1      -4.125   4.552 -12.997  1.00  0.00    -0.508 OA
ATOM     13  H   UNL     1      -4.204   3.652 -13.456  1.00  0.00     0.293 HD
ENDBRANCH   3  12
TORSDOF 1
ENDMDL
MODEL 9
REMARK VINA RESULT:    -6.123      1.862      4.817
REMARK INTER + INTRA:          -6.302
REMARK INTER:                  -6.302
REMARK INTRA:                   0.000
REMARK UNBOUND:                 0.000
REMARK SMILES O=c1ccc2ccc(O)cc2o1
REMARK SMILES IDX 6 1 7 2 8 3 10 4 11 5 5 6 4 7 3 8 2 9 1 10 12 11 9 12
REMARK H PARENT 9 13
REMARK Flexibility Score: inf
ROOT
ATOM      1  C   UNL     1      10.411  -6.889 -10.798  1.00  0.00     0.016 A 
ATOM      2  C   UNL     1      10.412  -8.191 -11.309  1.00  0.00     0.047 A 
ATOM      3  C   UNL     1      11.213  -8.517 -12.410  1.00  0.00     0.119 A 
ATOM      4  C   UNL     1      12.020  -7.536 -13.004  1.00  0.00     0.094 A 
ATOM      5  C   UNL     1      12.025  -6.231 -12.500  1.00  0.00     0.142 A 
ATOM      6  C   UNL     1      11.215  -5.905 -11.389  1.00  0.00     0.018 A 
ATOM      7  C   UNL     1      11.242  -4.592 -10.907  1.00  0.00     0.019 A 
ATOM      8  C   UNL     1      12.060  -3.651 -11.530  1.00  0.00     0.094 A 
ATOM      9  C   UNL     1      12.835  -4.046 -12.626  1.00  0.00     0.336 A 
ATOM     10  O   UNL     1      13.580  -3.210 -13.202  1.00  0.00    -0.246 OA
ATOM     11  O   UNL     1      12.791  -5.301 -13.066  1.00  0.00    -0.423 OA
ENDROOT
BRANCH   3  12
ATOM     12  O   UNL     1      11.200  -9.819 -12.905  1.00  0.00    -0.508 OA
ATOM     13  H   UNL     1      10.331 -10.324 -13.043  1.00  0.00     0.293 HD
ENDBRANCH   3  12
TORSDOF 1
ENDMDL
