MODEL 1
REMARK VINA RESULT:    -3.917      0.000      0.000
REMARK INTER + INTRA:          -4.736
REMARK INTER:                  -4.604
REMARK INTRA:                  -0.132
REMARK UNBOUND:                -0.132
REMARK SMILES O=C([O-])C=Cc1ccc(O)c(O)c1
REMARK SMILES IDX 6 1 13 2 7 3 11 4 8 5 9 6 5 7 4 8 2 9 1 10 3 11 12 12 10 14
REMARK H PARENT 12 13 10 15
REMARK Flexibility Score: inf
ROOT
ATOM      1  C   UNL     1      29.179 -35.181  13.006  1.00  0.00    -0.022 A 
ATOM      2  C   UNL     1      28.833 -33.814  13.013  1.00  0.00     0.058 A 
ATOM      3  C   UNL     1      30.534 -35.537  12.923  1.00  0.00     0.012 A 
ATOM      4  C   UNL     1      29.830 -32.827  12.965  1.00  0.00     0.157 A 
ATOM      5  C   UNL     1      31.526 -34.555  12.878  1.00  0.00     0.051 A 
ATOM      6  C   UNL     1      31.182 -33.200  12.901  1.00  0.00     0.157 A 
ENDROOT
BRANCH   1   7
ATOM      7  C   UNL     1      28.162 -36.261  13.042  1.00  0.00     0.010 C 
ATOM      8  C   UNL     1      27.659 -36.847  11.946  1.00  0.00     0.025 C 
BRANCH   8   9
ATOM      9  C   UNL     1      26.641 -37.906  12.029  1.00  0.00     0.064 C 
ATOM     10  O   UNL     1      26.459 -38.508  13.120  1.00  0.00    -0.545 OA
ATOM     11  O   UNL     1      25.875 -38.254  10.923  1.00  0.00    -0.545 OA
ENDBRANCH   8   9
ENDBRANCH   1   7
BRANCH   4  12
ATOM     12  O   UNL     1      29.480 -31.477  12.977  1.00  0.00    -0.504 OA
ATOM     13  H   UNL     1      30.031 -30.790  13.478  1.00  0.00     0.293 HD
ENDBRANCH   4  12
BRANCH   6  14
ATOM     14  O   UNL     1      32.194 -32.243  12.857  1.00  0.00    -0.504 OA
ATOM     15  H   UNL     1      32.373 -31.613  13.630  1.00  0.00     0.293 HD
ENDBRANCH   6  14
TORSDOF 4
ENDMDL
MODEL 2
REMARK VINA RESULT:    -3.661     17.635     19.947
REMARK INTER + INTRA:          -4.435
REMARK INTER:                  -4.297
REMARK INTRA:                  -0.138
REMARK UNBOUND:                -0.132
REMARK SMILES O=C([O-])C=Cc1ccc(O)c(O)c1
REMARK SMILES IDX 6 1 13 2 7 3 11 4 8 5 9 6 5 7 4 8 2 9 1 10 3 11 12 12 10 14
REMARK H PARENT 12 13 10 15
REMARK Flexibility Score: inf
ROOT
ATOM      1  C   UNL     1      42.009 -29.290  -0.463  1.00  0.00    -0.022 A 
ATOM      2  C   UNL     1      40.669 -29.617  -0.754  1.00  0.00     0.058 A 
ATOM      3  C   UNL     1      42.344 -28.906   0.845  1.00  0.00     0.012 A 
ATOM      4  C   UNL     1      39.692 -29.584   0.253  1.00  0.00     0.157 A 
ATOM      5  C   UNL     1      41.372 -28.875   1.848  1.00  0.00     0.051 A 
ATOM      6  C   UNL     1      40.047 -29.215   1.561  1.00  0.00     0.157 A 
ENDROOT
BRANCH   1   7
ATOM      7  C   UNL     1      43.074 -29.298  -1.495  1.00  0.00     0.010 C 
ATOM      8  C   UNL     1      44.236 -29.952  -1.362  1.00  0.00     0.025 C 
BRANCH   8   9
ATOM      9  C   UNL     1      45.270 -29.922  -2.407  1.00  0.00     0.064 C 
ATOM     10  O   UNL     1      46.108 -30.859  -2.480  1.00  0.00    -0.545 OA
ATOM     11  O   UNL     1      45.339 -28.875  -3.320  1.00  0.00    -0.545 OA
ENDBRANCH   8   9
ENDBRANCH   1   7
BRANCH   4  12
ATOM     12  O   UNL     1      38.370 -29.913  -0.043  1.00  0.00    -0.504 OA
ATOM     13  H   UNL     1      38.071 -30.876  -0.143  1.00  0.00     0.293 HD
ENDBRANCH   4  12
BRANCH   6  14
ATOM     14  O   UNL     1      39.100 -29.177   2.583  1.00  0.00    -0.504 OA
ATOM     15  H   UNL     1      39.341 -29.378   3.547  1.00  0.00     0.293 HD
ENDBRANCH   6  14
TORSDOF 4
ENDMDL
MODEL 3
REMARK VINA RESULT:    -3.603     10.953     13.722
REMARK INTER + INTRA:          -4.367
REMARK INTER:                  -4.244
REMARK INTRA:                  -0.123
REMARK UNBOUND:                -0.132
REMARK SMILES O=C([O-])C=Cc1ccc(O)c(O)c1
REMARK SMILES IDX 6 1 13 2 7 3 11 4 8 5 9 6 5 7 4 8 2 9 1 10 3 11 12 12 10 14
REMARK H PARENT 12 13 10 15
REMARK Flexibility Score: inf
ROOT
ATOM      1  C   UNL     1      41.671 -30.695  10.160  1.00  0.00    -0.022 A 
ATOM      2  C   UNL     1      42.047 -32.054  10.178  1.00  0.00     0.058 A 
ATOM      3  C   UNL     1      42.675 -29.714  10.148  1.00  0.00     0.012 A 
ATOM      4  C   UNL     1      43.403 -32.418  10.157  1.00  0.00     0.157 A 
ATOM      5  C   UNL     1      44.023 -30.077  10.125  1.00  0.00     0.051 A 
ATOM      6  C   UNL     1      44.394 -31.424  10.127  1.00  0.00     0.157 A 
ENDROOT
BRANCH   1   7
ATOM      7  C   UNL     1      40.253 -30.260  10.194  1.00  0.00     0.010 C 
ATOM      8  C   UNL     1      39.214 -31.106  10.173  1.00  0.00     0.025 C 
BRANCH   8   9
ATOM      9  C   UNL     1      37.822 -30.628  10.195  1.00  0.00     0.064 C 
ATOM     10  O   UNL     1      37.202 -30.575  11.289  1.00  0.00    -0.545 OA
ATOM     11  O   UNL     1      37.180 -30.232   9.028  1.00  0.00    -0.545 OA
ENDBRANCH   8   9
ENDBRANCH   1   7
BRANCH   4  12
ATOM     12  O   UNL     1      43.766 -33.764  10.171  1.00  0.00    -0.504 OA
ATOM     13  H   UNL     1      44.421 -34.145   9.497  1.00  0.00     0.293 HD
ENDBRANCH   4  12
BRANCH   6  14
ATOM     14  O   UNL     1      45.748 -31.755  10.101  1.00  0.00    -0.504 OA
ATOM     15  H   UNL     1      46.357 -31.473   9.341  1.00  0.00     0.293 HD
ENDBRANCH   6  14
TORSDOF 4
ENDMDL
MODEL 4
REMARK VINA RESULT:    -3.490      8.785     11.554
REMARK INTER + INTRA:          -4.235
REMARK INTER:                  -4.110
REMARK INTRA:                  -0.124
REMARK UNBOUND:                -0.132
REMARK SMILES O=C([O-])C=Cc1ccc(O)c(O)c1
REMARK SMILES IDX 6 1 13 2 7 3 11 4 8 5 9 6 5 7 4 8 2 9 1 10 3 11 12 12 10 14
REMARK H PARENT 12 13 10 15
REMARK Flexibility Score: inf
ROOT
ATOM      1  C   UNL     1      37.800 -30.524   9.695  1.00  0.00    -0.022 A 
ATOM      2  C   UNL     1      37.361 -30.920   8.415  1.00  0.00     0.058 A 
ATOM      3  C   UNL     1      36.859 -30.029  10.611  1.00  0.00     0.012 A 
ATOM      4  C   UNL     1      36.002 -30.845   8.073  1.00  0.00     0.157 A 
ATOM      5  C   UNL     1      35.506 -29.956  10.272  1.00  0.00     0.051 A 
ATOM      6  C   UNL     1      35.071 -30.364   9.008  1.00  0.00     0.157 A 
ENDROOT
BRANCH   1   7
ATOM      7  C   UNL     1      39.227 -30.572  10.098  1.00  0.00     0.010 C 
ATOM      8  C   UNL     1      39.955 -31.697  10.129  1.00  0.00     0.025 C 
BRANCH   8   9
ATOM      9  C   UNL     1      41.365 -31.700  10.549  1.00  0.00     0.064 C 
ATOM     10  O   UNL     1      42.208 -31.030   9.897  1.00  0.00    -0.545 OA
ATOM     11  O   UNL     1      41.783 -32.429  11.656  1.00  0.00    -0.545 OA
ENDBRANCH   8   9
ENDBRANCH   1   7
BRANCH   4  12
ATOM     12  O   UNL     1      35.576 -31.243   6.807  1.00  0.00    -0.504 OA
ATOM     13  H   UNL     1      35.832 -30.726   5.973  1.00  0.00     0.293 HD
ENDBRANCH   4  12
BRANCH   6  14
ATOM     14  O   UNL     1      33.714 -30.282   8.699  1.00  0.00    -0.504 OA
ATOM     15  H   UNL     1      33.244 -30.990   8.145  1.00  0.00     0.293 HD
ENDBRANCH   6  14
TORSDOF 4
ENDMDL
MODEL 5
REMARK VINA RESULT:    -3.489     12.980     15.201
REMARK INTER + INTRA:          -4.233
REMARK INTER:                  -4.110
REMARK INTRA:                  -0.123
REMARK UNBOUND:                -0.132
REMARK SMILES O=C([O-])C=Cc1ccc(O)c(O)c1
REMARK SMILES IDX 6 1 13 2 7 3 11 4 8 5 9 6 5 7 4 8 2 9 1 10 3 11 12 12 10 14
REMARK H PARENT 12 13 10 15
REMARK Flexibility Score: inf
ROOT
ATOM      1  C   UNL     1      26.225 -40.828  -0.366  1.00  0.00    -0.022 A 
ATOM      2  C   UNL     1      26.501 -41.675  -1.458  1.00  0.00     0.058 A 
ATOM      3  C   UNL     1      26.257 -39.438  -0.560  1.00  0.00     0.012 A 
ATOM      4  C   UNL     1      26.776 -41.137  -2.725  1.00  0.00     0.157 A 
ATOM      5  C   UNL     1      26.528 -38.903  -1.821  1.00  0.00     0.051 A 
ATOM      6  C   UNL     1      26.786 -39.744  -2.907  1.00  0.00     0.157 A 
ENDROOT
BRANCH   1   7
ATOM      7  C   UNL     1      25.942 -41.348   0.995  1.00  0.00     0.010 C 
ATOM      8  C   UNL     1      26.343 -42.550   1.431  1.00  0.00     0.025 C 
BRANCH   8   9
ATOM      9  C   UNL     1      26.028 -43.031   2.785  1.00  0.00     0.064 C 
ATOM     10  O   UNL     1      25.875 -44.264   2.987  1.00  0.00    -0.545 OA
ATOM     11  O   UNL     1      25.898 -42.146   3.849  1.00  0.00    -0.545 OA
ENDBRANCH   8   9
ENDBRANCH   1   7
BRANCH   4  12
ATOM     12  O   UNL     1      27.042 -41.982  -3.802  1.00  0.00    -0.504 OA
ATOM     13  H   UNL     1      26.952 -41.666  -4.761  1.00  0.00     0.293 HD
ENDBRANCH   4  12
BRANCH   6  14
ATOM     14  O   UNL     1      27.051 -39.181  -4.154  1.00  0.00    -0.504 OA
ATOM     15  H   UNL     1      27.080 -38.177  -4.295  1.00  0.00     0.293 HD
ENDBRANCH   6  14
TORSDOF 4
ENDMDL
MODEL 6
REMARK VINA RESULT:    -3.462     11.093     13.844
REMARK INTER + INTRA:          -4.201
REMARK INTER:                  -4.076
REMARK INTRA:                  -0.125
REMARK UNBOUND:                -0.132
REMARK SMILES O=C([O-])C=Cc1ccc(O)c(O)c1
REMARK SMILES IDX 6 1 13 2 7 3 11 4 8 5 9 6 5 7 4 8 2 9 1 10 3 11 12 12 10 14
REMARK H PARENT 12 13 10 15
REMARK Flexibility Score: inf
ROOT
ATOM      1  C   UNL     1      42.039 -32.254  11.653  1.00  0.00    -0.022 A 
ATOM      2  C   UNL     1      43.011 -31.893  10.698  1.00  0.00     0.058 A 
ATOM      3  C   UNL     1      42.455 -32.849  12.854  1.00  0.00     0.012 A 
ATOM      4  C   UNL     1      44.375 -32.101  10.957  1.00  0.00     0.157 A 
ATOM      5  C   UNL     1      43.813 -33.054  13.112  1.00  0.00     0.051 A 
ATOM      6  C   UNL     1      44.776 -32.681  12.171  1.00  0.00     0.157 A 
ENDROOT
BRANCH   1   7
ATOM      7  C   UNL     1      40.585 -32.066  11.421  1.00  0.00     0.010 C 
ATOM      8  C   UNL     1      40.079 -31.337  10.416  1.00  0.00     0.025 C 
BRANCH   8   9
ATOM      9  C   UNL     1      38.629 -31.168  10.232  1.00  0.00     0.064 C 
ATOM     10  O   UNL     1      37.886 -31.044  11.240  1.00  0.00    -0.545 OA
ATOM     11  O   UNL     1      38.066 -31.139   8.961  1.00  0.00    -0.545 OA
ENDBRANCH   8   9
ENDBRANCH   1   7
BRANCH   4  12
ATOM     12  O   UNL     1      45.330 -31.736  10.009  1.00  0.00    -0.504 OA
ATOM     13  H   UNL     1      45.481 -30.768   9.752  1.00  0.00     0.293 HD
ENDBRANCH   4  12
BRANCH   6  14
ATOM     14  O   UNL     1      46.123 -32.896  12.458  1.00  0.00    -0.504 OA
ATOM     15  H   UNL     1      46.648 -33.656  12.039  1.00  0.00     0.293 HD
ENDBRANCH   6  14
TORSDOF 4
ENDMDL
MODEL 7
REMARK VINA RESULT:    -3.156     10.894     13.643
REMARK INTER + INTRA:          -3.842
REMARK INTER:                  -3.696
REMARK INTRA:                  -0.145
REMARK UNBOUND:                -0.132
REMARK SMILES O=C([O-])C=Cc1ccc(O)c(O)c1
REMARK SMILES IDX 6 1 13 2 7 3 11 4 8 5 9 6 5 7 4 8 2 9 1 10 3 11 12 12 10 14
REMARK H PARENT 12 13 10 15
REMARK Flexibility Score: inf
ROOT
ATOM      1  C   UNL     1      41.385 -30.472  10.099  1.00  0.00    -0.022 A 
ATOM      2  C   UNL     1      42.420 -29.610   9.685  1.00  0.00     0.058 A 
ATOM      3  C   UNL     1      41.705 -31.786  10.474  1.00  0.00     0.012 A 
ATOM      4  C   UNL     1      43.753 -30.051   9.673  1.00  0.00     0.157 A 
ATOM      5  C   UNL     1      43.032 -32.224  10.464  1.00  0.00     0.051 A 
ATOM      6  C   UNL     1      44.059 -31.363  10.068  1.00  0.00     0.157 A 
ENDROOT
BRANCH   1   7
ATOM      7  C   UNL     1      39.960 -30.056  10.117  1.00  0.00     0.010 C 
ATOM      8  C   UNL     1      38.937 -30.895   9.903  1.00  0.00     0.025 C 
BRANCH   8   9
ATOM      9  C   UNL     1      37.539 -30.436   9.918  1.00  0.00     0.064 C 
ATOM     10  O   UNL     1      36.936 -30.248   8.829  1.00  0.00    -0.545 OA
ATOM     11  O   UNL     1      36.871 -30.207  11.115  1.00  0.00    -0.545 OA
ENDBRANCH   8   9
ENDBRANCH   1   7
BRANCH   4  12
ATOM     12  O   UNL     1      44.771 -29.190   9.266  1.00  0.00    -0.504 OA
ATOM     13  H   UNL     1      44.798 -28.803   8.330  1.00  0.00     0.293 HD
ENDBRANCH   4  12
BRANCH   6  14
ATOM     14  O   UNL     1      45.373 -31.829  10.071  1.00  0.00    -0.504 OA
ATOM     15  H   UNL     1      45.640 -32.683  10.547  1.00  0.00     0.293 HD
ENDBRANCH   6  14
TORSDOF 4
ENDMDL
MODEL 8
REMARK VINA RESULT:    -1.139      0.777      1.867
REMARK INTER + INTRA:          -1.471
REMARK INTER:                  -1.344
REMARK INTRA:                  -0.127
REMARK UNBOUND:                -0.132
REMARK SMILES O=C([O-])C=Cc1ccc(O)c(O)c1
REMARK SMILES IDX 6 1 13 2 7 3 11 4 8 5 9 6 5 7 4 8 2 9 1 10 3 11 12 12 10 14
REMARK H PARENT 12 13 10 15
REMARK Flexibility Score: inf
ROOT
ATOM      1  C   UNL     1      29.156 -34.990  12.843  1.00  0.00    -0.022 A 
ATOM      2  C   UNL     1      30.497 -35.300  12.538  1.00  0.00     0.058 A 
ATOM      3  C   UNL     1      28.815 -33.658  13.125  1.00  0.00     0.012 A 
ATOM      4  C   UNL     1      31.469 -34.289  12.489  1.00  0.00     0.157 A 
ATOM      5  C   UNL     1      29.782 -32.651  13.075  1.00  0.00     0.051 A 
ATOM      6  C   UNL     1      31.108 -32.958  12.756  1.00  0.00     0.157 A 
ENDROOT
BRANCH   1   7
ATOM      7  C   UNL     1      28.096 -36.026  12.919  1.00  0.00     0.010 C 
ATOM      8  C   UNL     1      27.695 -36.759  11.871  1.00  0.00     0.025 C 
BRANCH   8   9
ATOM      9  C   UNL     1      26.630 -37.767  11.990  1.00  0.00     0.064 C 
ATOM     10  O   UNL     1      26.395 -38.293  13.109  1.00  0.00    -0.545 OA
ATOM     11  O   UNL     1      25.875 -38.148  10.886  1.00  0.00    -0.545 OA
ENDBRANCH   8   9
ENDBRANCH   1   7
BRANCH   4  12
ATOM     12  O   UNL     1      32.792 -34.604  12.181  1.00  0.00    -0.504 OA
ATOM     13  H   UNL     1      33.209 -35.482  12.467  1.00  0.00     0.293 HD
ENDBRANCH   4  12
BRANCH   6  14
ATOM     14  O   UNL     1      32.050 -31.932  12.711  1.00  0.00    -0.504 OA
ATOM     15  H   UNL     1      32.059 -31.180  13.392  1.00  0.00     0.293 HD
ENDBRANCH   6  14
TORSDOF 4
ENDMDL
