MODEL 1
REMARK VINA RESULT:    -5.932      0.000      0.000
REMARK INTER + INTRA:          -6.346
REMARK INTER:                  -6.279
REMARK INTRA:                  -0.067
REMARK UNBOUND:                -0.067
REMARK SMILES CC(C)[C@@H]1CC[C@H](C)[C@H]2C=C[C@@H](C)C[C@@H]21
REMARK SMILES IDX 8 1 7 2 6 3 5 4 4 5 15 6 9 7 10 8 11 9 12 10 14 11 13 12
REMARK SMILES IDX 2 13 1 14 3 15
REMARK H PARENT
REMARK Flexibility Score: inf
ROOT
ATOM      1  C   UNL     1     151.247 145.021 163.978  1.00  0.00     0.008 C 
ATOM      2  C   UNL     1     149.907 145.095 163.220  1.00  0.00    -0.007 C 
ATOM      3  C   UNL     1     150.197 145.294 161.720  1.00  0.00     0.004 C 
ATOM      4  C   UNL     1     148.906 145.367 160.893  1.00  0.00     0.004 C 
ATOM      5  C   UNL     1     148.029 144.097 161.047  1.00  0.00    -0.005 C 
ATOM      6  C   UNL     1     147.737 143.922 162.577  1.00  0.00    -0.000 C 
ATOM      7  C   UNL     1     149.030 143.829 163.435  1.00  0.00     0.018 C 
ATOM      8  C   UNL     1     148.686 143.622 164.904  1.00  0.00    -0.027 C 
ATOM      9  C   UNL     1     147.526 143.087 165.321  1.00  0.00    -0.028 C 
ATOM     10  C   UNL     1     146.367 142.788 164.400  1.00  0.00     0.008 C 
ATOM     11  C   UNL     1     146.794 142.756 162.918  1.00  0.00     0.012 C 
ATOM     12  C   UNL     1     145.228 143.785 164.653  1.00  0.00     0.012 C 
ENDROOT
BRANCH   5  13
ATOM     13  C   UNL     1     148.581 142.810 160.305  1.00  0.00    -0.014 C 
ATOM     14  C   UNL     1     147.444 142.004 159.639  1.00  0.00     0.007 C 
ATOM     15  C   UNL     1     149.610 143.111 159.193  1.00  0.00     0.007 C 
ENDBRANCH   5  13
TORSDOF 1
ENDMDL
MODEL 2
REMARK VINA RESULT:    -5.928      3.013      5.363
REMARK INTER + INTRA:          -6.342
REMARK INTER:                  -6.272
REMARK INTRA:                  -0.070
REMARK UNBOUND:                -0.067
REMARK SMILES CC(C)[C@@H]1CC[C@H](C)[C@H]2C=C[C@@H](C)C[C@@H]21
REMARK SMILES IDX 8 1 7 2 6 3 5 4 4 5 15 6 9 7 10 8 11 9 12 10 14 11 13 12
REMARK SMILES IDX 2 13 1 14 3 15
REMARK H PARENT
REMARK Flexibility Score: inf
ROOT
ATOM      1  C   UNL     1     147.706 148.967 161.067  1.00  0.00     0.008 C 
ATOM      2  C   UNL     1     147.888 148.531 162.534  1.00  0.00    -0.007 C 
ATOM      3  C   UNL     1     146.722 149.092 163.367  1.00  0.00     0.004 C 
ATOM      4  C   UNL     1     146.828 148.689 164.845  1.00  0.00     0.004 C 
ATOM      5  C   UNL     1     146.859 147.150 165.040  1.00  0.00    -0.005 C 
ATOM      6  C   UNL     1     148.061 146.604 164.194  1.00  0.00    -0.000 C 
ATOM      7  C   UNL     1     147.967 146.985 162.691  1.00  0.00     0.018 C 
ATOM      8  C   UNL     1     149.137 146.397 161.913  1.00  0.00    -0.027 C 
ATOM      9  C   UNL     1     149.827 145.318 162.323  1.00  0.00    -0.028 C 
ATOM     10  C   UNL     1     149.635 144.671 163.674  1.00  0.00     0.008 C 
ATOM     11  C   UNL     1     148.309 145.093 164.340  1.00  0.00     0.012 C 
ATOM     12  C   UNL     1     150.850 144.958 164.568  1.00  0.00     0.012 C 
ENDROOT
BRANCH   5  13
ATOM     13  C   UNL     1     145.473 146.418 164.810  1.00  0.00    -0.014 C 
ATOM     14  C   UNL     1     145.235 145.304 165.853  1.00  0.00     0.007 C 
ATOM     15  C   UNL     1     144.244 147.351 164.882  1.00  0.00     0.007 C 
ENDBRANCH   5  13
TORSDOF 1
ENDMDL
MODEL 3
REMARK VINA RESULT:    -5.927      3.931      6.862
REMARK INTER + INTRA:          -6.340
REMARK INTER:                  -6.269
REMARK INTRA:                  -0.071
REMARK UNBOUND:                -0.067
REMARK SMILES CC(C)[C@@H]1CC[C@H](C)[C@H]2C=C[C@@H](C)C[C@@H]21
REMARK SMILES IDX 8 1 7 2 6 3 5 4 4 5 15 6 9 7 10 8 11 9 12 10 14 11 13 12
REMARK SMILES IDX 2 13 1 14 3 15
REMARK H PARENT
REMARK Flexibility Score: inf
ROOT
ATOM      1  C   UNL     1     143.047 141.787 161.106  1.00  0.00     0.008 C 
ATOM      2  C   UNL     1     142.843 142.259 162.559  1.00  0.00    -0.007 C 
ATOM      3  C   UNL     1     143.999 141.720 163.422  1.00  0.00     0.004 C 
ATOM      4  C   UNL     1     143.872 142.159 164.887  1.00  0.00     0.004 C 
ATOM      5  C   UNL     1     143.837 143.701 165.045  1.00  0.00    -0.005 C 
ATOM      6  C   UNL     1     142.646 144.225 164.170  1.00  0.00    -0.000 C 
ATOM      7  C   UNL     1     142.761 143.808 162.677  1.00  0.00     0.018 C 
ATOM      8  C   UNL     1     141.601 144.375 161.870  1.00  0.00    -0.027 C 
ATOM      9  C   UNL     1     140.904 145.462 162.244  1.00  0.00    -0.028 C 
ATOM     10  C   UNL     1     141.077 146.143 163.582  1.00  0.00     0.008 C 
ATOM     11  C   UNL     1     142.394 145.739 164.275  1.00  0.00     0.012 C 
ATOM     12  C   UNL     1     139.850 145.875 164.465  1.00  0.00     0.012 C 
ENDROOT
BRANCH   5  13
ATOM     13  C   UNL     1     145.225 144.429 164.816  1.00  0.00    -0.014 C 
ATOM     14  C   UNL     1     145.469 145.537 165.866  1.00  0.00     0.007 C 
ATOM     15  C   UNL     1     146.451 143.492 164.880  1.00  0.00     0.007 C 
ENDBRANCH   5  13
TORSDOF 1
ENDMDL
MODEL 4
REMARK VINA RESULT:    -5.926      4.523      5.502
REMARK INTER + INTRA:          -6.339
REMARK INTER:                  -6.267
REMARK INTRA:                  -0.073
REMARK UNBOUND:                -0.067
REMARK SMILES CC(C)[C@@H]1CC[C@H](C)[C@H]2C=C[C@@H](C)C[C@@H]21
REMARK SMILES IDX 8 1 7 2 6 3 5 4 4 5 15 6 9 7 10 8 11 9 12 10 14 11 13 12
REMARK SMILES IDX 2 13 1 14 3 15
REMARK H PARENT
REMARK Flexibility Score: inf
ROOT
ATOM      1  C   UNL     1     144.868 139.697 164.358  1.00  0.00     0.008 C 
ATOM      2  C   UNL     1     144.985 140.947 163.464  1.00  0.00    -0.007 C 
ATOM      3  C   UNL     1     145.172 140.497 162.003  1.00  0.00     0.004 C 
ATOM      4  C   UNL     1     145.286 141.692 161.047  1.00  0.00     0.004 C 
ATOM      5  C   UNL     1     144.045 142.621 161.105  1.00  0.00    -0.005 C 
ATOM      6  C   UNL     1     143.883 143.076 162.596  1.00  0.00    -0.000 C 
ATOM      7  C   UNL     1     143.748 141.884 163.584  1.00  0.00     0.018 C 
ATOM      8  C   UNL     1     143.555 142.385 165.009  1.00  0.00    -0.027 C 
ATOM      9  C   UNL     1     143.059 143.599 165.303  1.00  0.00    -0.028 C 
ATOM     10  C   UNL     1     142.798 144.665 164.264  1.00  0.00     0.008 C 
ATOM     11  C   UNL     1     142.749 144.088 162.835  1.00  0.00     0.012 C 
ATOM     12  C   UNL     1     143.832 145.791 164.400  1.00  0.00     0.012 C 
ENDROOT
BRANCH   5  13
ATOM     13  C   UNL     1     142.740 142.038 160.423  1.00  0.00    -0.014 C 
ATOM     14  C   UNL     1     141.983 143.120 159.622  1.00  0.00     0.007 C 
ATOM     15  C   UNL     1     143.004 140.875 159.441  1.00  0.00     0.007 C 
ENDBRANCH   5  13
TORSDOF 1
ENDMDL
MODEL 5
REMARK VINA RESULT:    -5.921      5.279      7.590
REMARK INTER + INTRA:          -6.334
REMARK INTER:                  -6.264
REMARK INTRA:                  -0.070
REMARK UNBOUND:                -0.067
REMARK SMILES CC(C)[C@@H]1CC[C@H](C)[C@H]2C=C[C@@H](C)C[C@@H]21
REMARK SMILES IDX 8 1 7 2 6 3 5 4 4 5 15 6 9 7 10 8 11 9 12 10 14 11 13 12
REMARK SMILES IDX 2 13 1 14 3 15
REMARK H PARENT
REMARK Flexibility Score: inf
ROOT
ATOM      1  C   UNL     1     141.707 147.687 161.085  1.00  0.00     0.008 C 
ATOM      2  C   UNL     1     142.159 147.885 162.545  1.00  0.00    -0.007 C 
ATOM      3  C   UNL     1     141.606 146.727 163.397  1.00  0.00     0.004 C 
ATOM      4  C   UNL     1     142.024 146.849 164.868  1.00  0.00     0.004 C 
ATOM      5  C   UNL     1     143.565 146.880 165.047  1.00  0.00    -0.005 C 
ATOM      6  C   UNL     1     144.104 148.072 164.183  1.00  0.00    -0.000 C 
ATOM      7  C   UNL     1     143.707 147.963 162.685  1.00  0.00     0.018 C 
ATOM      8  C   UNL     1     144.288 149.124 161.889  1.00  0.00    -0.027 C 
ATOM      9  C   UNL     1     145.372 149.817 162.280  1.00  0.00    -0.028 C 
ATOM     10  C   UNL     1     146.033 149.638 163.627  1.00  0.00     0.008 C 
ATOM     11  C   UNL     1     145.616 148.320 164.310  1.00  0.00     0.012 C 
ATOM     12  C   UNL     1     145.757 150.862 164.511  1.00  0.00     0.012 C 
ENDROOT
BRANCH   5  13
ATOM     13  C   UNL     1     144.292 145.491 164.824  1.00  0.00    -0.014 C 
ATOM     14  C   UNL     1     145.384 145.240 165.888  1.00  0.00     0.007 C 
ATOM     15  C   UNL     1     143.351 144.267 164.871  1.00  0.00     0.007 C 
ENDBRANCH   5  13
TORSDOF 1
ENDMDL
MODEL 6
REMARK VINA RESULT:    -5.921      4.484      5.413
REMARK INTER + INTRA:          -6.334
REMARK INTER:                  -6.262
REMARK INTRA:                  -0.072
REMARK UNBOUND:                -0.067
REMARK SMILES CC(C)[C@@H]1CC[C@H](C)[C@H]2C=C[C@@H](C)C[C@@H]21
REMARK SMILES IDX 8 1 7 2 6 3 5 4 4 5 15 6 9 7 10 8 11 9 12 10 14 11 13 12
REMARK SMILES IDX 2 13 1 14 3 15
REMARK H PARENT
REMARK Flexibility Score: inf
ROOT
ATOM      1  C   UNL     1     146.130 150.997 164.782  1.00  0.00     0.008 C 
ATOM      2  C   UNL     1     145.896 149.873 163.755  1.00  0.00    -0.007 C 
ATOM      3  C   UNL     1     145.739 150.502 162.358  1.00  0.00     0.004 C 
ATOM      4  C   UNL     1     145.512 149.439 161.274  1.00  0.00     0.004 C 
ATOM      5  C   UNL     1     146.666 148.405 161.205  1.00  0.00    -0.005 C 
ATOM      6  C   UNL     1     146.798 147.769 162.632  1.00  0.00    -0.000 C 
ATOM      7  C   UNL     1     147.045 148.824 163.746  1.00  0.00     0.018 C 
ATOM      8  C   UNL     1     147.204 148.148 165.101  1.00  0.00    -0.027 C 
ATOM      9  C   UNL     1     147.592 146.870 165.247  1.00  0.00    -0.028 C 
ATOM     10  C   UNL     1     147.751 145.911 164.090  1.00  0.00     0.008 C 
ATOM     11  C   UNL     1     147.839 146.642 162.735  1.00  0.00     0.012 C 
ATOM     12  C   UNL     1     146.621 144.871 164.115  1.00  0.00     0.012 C 
ENDROOT
BRANCH   5  13
ATOM     13  C   UNL     1     148.013 148.946 160.571  1.00  0.00    -0.014 C 
ATOM     14  C   UNL     1     148.656 147.907 159.625  1.00  0.00     0.007 C 
ATOM     15  C   UNL     1     147.849 150.242 159.746  1.00  0.00     0.007 C 
ENDBRANCH   5  13
TORSDOF 1
ENDMDL
MODEL 7
REMARK VINA RESULT:    -5.920      5.391      7.765
REMARK INTER + INTRA:          -6.332
REMARK INTER:                  -6.263
REMARK INTRA:                  -0.069
REMARK UNBOUND:                -0.067
REMARK SMILES CC(C)[C@@H]1CC[C@H](C)[C@H]2C=C[C@@H](C)C[C@@H]21
REMARK SMILES IDX 8 1 7 2 6 3 5 4 4 5 15 6 9 7 10 8 11 9 12 10 14 11 13 12
REMARK SMILES IDX 2 13 1 14 3 15
REMARK H PARENT
REMARK Flexibility Score: inf
ROOT
ATOM      1  C   UNL     1     139.755 146.130 164.765  1.00  0.00     0.008 C 
ATOM      2  C   UNL     1     140.897 145.919 163.752  1.00  0.00    -0.007 C 
ATOM      3  C   UNL     1     140.290 145.747 162.348  1.00  0.00     0.004 C 
ATOM      4  C   UNL     1     141.371 145.542 161.278  1.00  0.00     0.004 C 
ATOM      5  C   UNL     1     142.382 146.717 161.221  1.00  0.00    -0.005 C 
ATOM      6  C   UNL     1     142.996 146.865 162.656  1.00  0.00    -0.000 C 
ATOM      7  C   UNL     1     141.921 147.090 163.756  1.00  0.00     0.018 C 
ATOM      8  C   UNL     1     142.575 147.265 165.120  1.00  0.00    -0.027 C 
ATOM      9  C   UNL     1     143.843 147.681 165.281  1.00  0.00    -0.028 C 
ATOM     10  C   UNL     1     144.814 147.858 164.137  1.00  0.00     0.008 C 
ATOM     11  C   UNL     1     144.099 147.930 162.772  1.00  0.00     0.012 C 
ATOM     12  C   UNL     1     145.877 146.752 164.177  1.00  0.00     0.012 C 
ENDROOT
BRANCH   5  13
ATOM     13  C   UNL     1     141.820 148.051 160.578  1.00  0.00    -0.014 C 
ATOM     14  C   UNL     1     142.861 148.720 159.651  1.00  0.00     0.007 C 
ATOM     15  C   UNL     1     140.544 147.858 159.730  1.00  0.00     0.007 C 
ENDBRANCH   5  13
TORSDOF 1
ENDMDL
MODEL 8
REMARK VINA RESULT:    -5.917      1.794      4.260
REMARK INTER + INTRA:          -6.330
REMARK INTER:                  -6.258
REMARK INTRA:                  -0.072
REMARK UNBOUND:                -0.067
REMARK SMILES CC(C)[C@@H]1CC[C@H](C)[C@H]2C=C[C@@H](C)C[C@@H]21
REMARK SMILES IDX 8 1 7 2 6 3 5 4 4 5 15 6 9 7 10 8 11 9 12 10 14 11 13 12
REMARK SMILES IDX 2 13 1 14 3 15
REMARK H PARENT
REMARK Flexibility Score: inf
ROOT
ATOM      1  C   UNL     1     149.055 143.061 161.089  1.00  0.00     0.008 C 
ATOM      2  C   UNL     1     148.593 142.873 162.546  1.00  0.00    -0.007 C 
ATOM      3  C   UNL     1     149.154 144.027 163.398  1.00  0.00     0.004 C 
ATOM      4  C   UNL     1     148.726 143.914 164.867  1.00  0.00     0.004 C 
ATOM      5  C   UNL     1     147.184 143.900 165.038  1.00  0.00    -0.005 C 
ATOM      6  C   UNL     1     146.638 142.711 164.175  1.00  0.00    -0.000 C 
ATOM      7  C   UNL     1     147.044 142.810 162.678  1.00  0.00     0.018 C 
ATOM      8  C   UNL     1     146.455 141.653 161.883  1.00  0.00    -0.027 C 
ATOM      9  C   UNL     1     145.362 140.973 162.270  1.00  0.00    -0.028 C 
ATOM     10  C   UNL     1     144.696 141.162 163.612  1.00  0.00     0.008 C 
ATOM     11  C   UNL     1     145.122 142.478 164.294  1.00  0.00     0.012 C 
ATOM     12  C   UNL     1     144.955 139.938 164.502  1.00  0.00     0.012 C 
ENDROOT
BRANCH   5  13
ATOM     13  C   UNL     1     146.472 145.295 164.806  1.00  0.00    -0.014 C 
ATOM     14  C   UNL     1     145.366 145.553 165.854  1.00  0.00     0.007 C 
ATOM     15  C   UNL     1     147.423 146.511 164.871  1.00  0.00     0.007 C 
ENDBRANCH   5  13
TORSDOF 1
ENDMDL
MODEL 9
REMARK VINA RESULT:    -5.863      2.415      4.447
REMARK INTER + INTRA:          -6.273
REMARK INTER:                  -6.211
REMARK INTRA:                  -0.062
REMARK UNBOUND:                -0.067
REMARK SMILES CC(C)[C@@H]1CC[C@H](C)[C@H]2C=C[C@@H](C)C[C@@H]21
REMARK SMILES IDX 8 1 7 2 6 3 5 4 4 5 15 6 9 7 10 8 11 9 12 10 14 11 13 12
REMARK SMILES IDX 2 13 1 14 3 15
REMARK H PARENT
REMARK Flexibility Score: inf
ROOT
ATOM      1  C   UNL     1     147.614 148.179 163.731  1.00  0.00     0.008 C 
ATOM      2  C   UNL     1     147.440 146.882 164.544  1.00  0.00    -0.007 C 
ATOM      3  C   UNL     1     145.957 146.737 164.936  1.00  0.00     0.004 C 
ATOM      4  C   UNL     1     145.701 145.457 165.742  1.00  0.00     0.004 C 
ATOM      5  C   UNL     1     146.120 144.176 164.974  1.00  0.00    -0.005 C 
ATOM      6  C   UNL     1     147.633 144.340 164.598  1.00  0.00    -0.000 C 
ATOM      7  C   UNL     1     147.916 145.622 163.766  1.00  0.00     0.018 C 
ATOM      8  C   UNL     1     149.391 145.709 163.397  1.00  0.00    -0.027 C 
ATOM      9  C   UNL     1     150.199 144.637 163.333  1.00  0.00    -0.028 C 
ATOM     10  C   UNL     1     149.786 143.254 163.781  1.00  0.00     0.008 C 
ATOM     11  C   UNL     1     148.256 143.116 163.907  1.00  0.00     0.012 C 
ATOM     12  C   UNL     1     150.511 142.888 165.083  1.00  0.00     0.012 C 
ENDROOT
BRANCH   5  13
ATOM     13  C   UNL     1     145.160 143.767 163.782  1.00  0.00    -0.014 C 
ATOM     14  C   UNL     1     144.988 142.235 163.687  1.00  0.00     0.007 C 
ATOM     15  C   UNL     1     143.737 144.359 163.882  1.00  0.00     0.007 C 
ENDBRANCH   5  13
TORSDOF 1
ENDMDL
