MODEL 1
REMARK VINA RESULT:    -2.293      0.000      0.000
REMARK INTER + INTRA:          -2.782
REMARK INTER:                  -2.695
REMARK INTRA:                  -0.087
REMARK UNBOUND:                -0.087
REMARK SMILES O=C([O-])CCC(=O)[O-]
REMARK SMILES IDX 4 1 2 2 1 3 3 4 5 5 6 6 7 7 8 8
REMARK H PARENT
REMARK Flexibility Score: inf
ROOT
ATOM      1  C   UNL     1     -96.938 -46.331 -12.004  1.00  0.00     0.059 C 
ENDROOT
BRANCH   1   2
ATOM      2  C   UNL     1     -97.648 -45.012 -12.066  1.00  0.00     0.042 C 
ATOM      3  O   UNL     1     -97.024 -43.945 -11.825  1.00  0.00    -0.550 OA
ATOM      4  O   UNL     1     -98.988 -44.959 -12.429  1.00  0.00    -0.550 OA
ENDBRANCH   1   2
BRANCH   1   5
ATOM      5  C   UNL     1     -95.559 -46.198 -11.349  1.00  0.00     0.059 C 
BRANCH   5   6
ATOM      6  C   UNL     1     -94.464 -46.631 -12.275  1.00  0.00     0.042 C 
ATOM      7  O   UNL     1     -94.066 -47.825 -12.272  1.00  0.00    -0.550 OA
ATOM      8  O   UNL     1     -93.855 -45.705 -13.113  1.00  0.00    -0.550 OA
ENDBRANCH   5   6
ENDBRANCH   1   5
TORSDOF 3
ENDMDL
MODEL 2
REMARK VINA RESULT:    -2.286      0.382      1.641
REMARK INTER + INTRA:          -2.775
REMARK INTER:                  -2.660
REMARK INTRA:                  -0.115
REMARK UNBOUND:                -0.087
REMARK SMILES O=C([O-])CCC(=O)[O-]
REMARK SMILES IDX 4 1 2 2 1 3 3 4 5 5 6 6 7 7 8 8
REMARK H PARENT
REMARK Flexibility Score: inf
ROOT
ATOM      1  C   UNL     1     -96.679 -46.587 -11.859  1.00  0.00     0.059 C 
ENDROOT
BRANCH   1   2
ATOM      2  C   UNL     1     -97.509 -45.357 -12.065  1.00  0.00     0.042 C 
ATOM      3  O   UNL     1     -98.713 -45.458 -12.420  1.00  0.00    -0.550 OA
ATOM      4  O   UNL     1     -96.965 -44.101 -11.827  1.00  0.00    -0.550 OA
ENDBRANCH   1   2
BRANCH   1   5
ATOM      5  C   UNL     1     -95.296 -46.247 -11.294  1.00  0.00     0.059 C 
BRANCH   5   6
ATOM      6  C   UNL     1     -94.213 -46.486 -12.302  1.00  0.00     0.042 C 
ATOM      7  O   UNL     1     -93.969 -45.624 -13.186  1.00  0.00    -0.550 OA
ATOM      8  O   UNL     1     -93.502 -47.679 -12.289  1.00  0.00    -0.550 OA
ENDBRANCH   5   6
ENDBRANCH   1   5
TORSDOF 3
ENDMDL
MODEL 3
REMARK VINA RESULT:    -2.283      0.221      4.037
REMARK INTER + INTRA:          -2.771
REMARK INTER:                  -2.675
REMARK INTRA:                  -0.095
REMARK UNBOUND:                -0.087
REMARK SMILES O=C([O-])CCC(=O)[O-]
REMARK SMILES IDX 4 1 2 2 1 3 3 4 5 5 6 6 7 7 8 8
REMARK H PARENT
REMARK Flexibility Score: inf
ROOT
ATOM      1  C   UNL     1     -95.380 -46.198 -11.345  1.00  0.00     0.059 C 
ENDROOT
BRANCH   1   2
ATOM      2  C   UNL     1     -94.281 -46.540 -12.305  1.00  0.00     0.042 C 
ATOM      3  O   UNL     1     -93.859 -45.676 -13.117  1.00  0.00    -0.550 OA
ATOM      4  O   UNL     1     -93.697 -47.801 -12.275  1.00  0.00    -0.550 OA
ENDBRANCH   1   2
BRANCH   1   5
ATOM      5  C   UNL     1     -96.762 -46.441 -11.959  1.00  0.00     0.059 C 
BRANCH   5   6
ATOM      6  C   UNL     1     -97.561 -45.175 -12.038  1.00  0.00     0.042 C 
ATOM      7  O   UNL     1     -97.030 -44.072 -11.747  1.00  0.00    -0.550 OA
ATOM      8  O   UNL     1     -98.902 -45.221 -12.396  1.00  0.00    -0.550 OA
ENDBRANCH   5   6
ENDBRANCH   1   5
TORSDOF 3
ENDMDL
MODEL 4
REMARK VINA RESULT:    -2.277      0.407      4.083
REMARK INTER + INTRA:          -2.764
REMARK INTER:                  -2.716
REMARK INTRA:                  -0.047
REMARK UNBOUND:                -0.087
REMARK SMILES O=C([O-])CCC(=O)[O-]
REMARK SMILES IDX 4 1 2 2 1 3 3 4 5 5 6 6 7 7 8 8
REMARK H PARENT
REMARK Flexibility Score: inf
ROOT
ATOM      1  C   UNL     1     -95.803 -45.947 -11.407  1.00  0.00     0.059 C 
ENDROOT
BRANCH   1   2
ATOM      2  C   UNL     1     -94.766 -46.655 -12.225  1.00  0.00     0.042 C 
ATOM      3  O   UNL     1     -94.789 -47.910 -12.325  1.00  0.00    -0.550 OA
ATOM      4  O   UNL     1     -93.801 -45.927 -12.909  1.00  0.00    -0.550 OA
ENDBRANCH   1   2
BRANCH   1   5
ATOM      5  C   UNL     1     -97.203 -46.107 -12.009  1.00  0.00     0.059 C 
BRANCH   5   6
ATOM      6  C   UNL     1     -97.930 -44.799 -12.072  1.00  0.00     0.042 C 
ATOM      7  O   UNL     1     -99.127 -44.757 -12.459  1.00  0.00    -0.550 OA
ATOM      8  O   UNL     1     -97.272 -43.621 -11.740  1.00  0.00    -0.550 OA
ENDBRANCH   5   6
ENDBRANCH   1   5
TORSDOF 3
ENDMDL
MODEL 5
REMARK VINA RESULT:    -2.251     10.143     11.245
REMARK INTER + INTRA:          -2.733
REMARK INTER:                  -2.611
REMARK INTRA:                  -0.123
REMARK UNBOUND:                -0.087
REMARK SMILES O=C([O-])CCC(=O)[O-]
REMARK SMILES IDX 4 1 2 2 1 3 3 4 5 5 6 6 7 7 8 8
REMARK H PARENT
REMARK Flexibility Score: inf
ROOT
ATOM      1  C   UNL     1     -95.584 -53.730 -19.436  1.00  0.00     0.059 C 
ENDROOT
BRANCH   1   2
ATOM      2  C   UNL     1     -96.305 -53.790 -20.749  1.00  0.00     0.042 C 
ATOM      3  O   UNL     1     -97.386 -54.429 -20.848  1.00  0.00    -0.550 OA
ATOM      4  O   UNL     1     -95.806 -53.107 -21.851  1.00  0.00    -0.550 OA
ENDBRANCH   1   2
BRANCH   1   5
ATOM      5  C   UNL     1     -96.540 -53.416 -18.281  1.00  0.00     0.059 C 
BRANCH   5   6
ATOM      6  C   UNL     1     -96.605 -54.545 -17.297  1.00  0.00     0.042 C 
ATOM      7  O   UNL     1     -96.528 -54.314 -16.062  1.00  0.00    -0.550 OA
ATOM      8  O   UNL     1     -96.712 -55.855 -17.747  1.00  0.00    -0.550 OA
ENDBRANCH   5   6
ENDBRANCH   1   5
TORSDOF 3
ENDMDL
MODEL 6
REMARK VINA RESULT:    -2.229     10.167     11.266
REMARK INTER + INTRA:          -2.707
REMARK INTER:                  -2.584
REMARK INTRA:                  -0.123
REMARK UNBOUND:                -0.087
REMARK SMILES O=C([O-])CCC(=O)[O-]
REMARK SMILES IDX 4 1 2 2 1 3 3 4 5 5 6 6 7 7 8 8
REMARK H PARENT
REMARK Flexibility Score: inf
ROOT
ATOM      1  C   UNL     1     -96.384 -53.375 -18.380  1.00  0.00     0.059 C 
ENDROOT
BRANCH   1   2
ATOM      2  C   UNL     1     -96.576 -54.514 -17.425  1.00  0.00     0.042 C 
ATOM      3  O   UNL     1     -96.644 -55.696 -17.856  1.00  0.00    -0.550 OA
ATOM      4  O   UNL     1     -96.639 -54.275 -16.058  1.00  0.00    -0.550 OA
ENDBRANCH   1   2
BRANCH   1   5
ATOM      5  C   UNL     1     -95.505 -53.778 -19.568  1.00  0.00     0.059 C 
BRANCH   5   6
ATOM      6  C   UNL     1     -96.266 -53.732 -20.858  1.00  0.00     0.042 C 
ATOM      7  O   UNL     1     -95.810 -53.091 -21.841  1.00  0.00    -0.550 OA
ATOM      8  O   UNL     1     -97.498 -54.365 -20.961  1.00  0.00    -0.550 OA
ENDBRANCH   5   6
ENDBRANCH   1   5
TORSDOF 3
ENDMDL
MODEL 7
REMARK VINA RESULT:    -2.217      1.333      4.174
REMARK INTER + INTRA:          -2.693
REMARK INTER:                  -2.661
REMARK INTRA:                  -0.033
REMARK UNBOUND:                -0.087
REMARK SMILES O=C([O-])CCC(=O)[O-]
REMARK SMILES IDX 4 1 2 2 1 3 3 4 5 5 6 6 7 7 8 8
REMARK H PARENT
REMARK Flexibility Score: inf
ROOT
ATOM      1  C   UNL     1     -96.609 -45.976 -12.010  1.00  0.00     0.059 C 
ENDROOT
BRANCH   1   2
ATOM      2  C   UNL     1     -95.165 -46.204 -11.676  1.00  0.00     0.042 C 
ATOM      3  O   UNL     1     -94.321 -46.364 -12.597  1.00  0.00    -0.550 OA
ATOM      4  O   UNL     1     -94.747 -46.199 -10.351  1.00  0.00    -0.550 OA
ENDBRANCH   1   2
BRANCH   1   5
ATOM      5  C   UNL     1     -97.033 -44.532 -11.724  1.00  0.00     0.059 C 
BRANCH   5   6
ATOM      6  C   UNL     1     -98.450 -44.280 -12.139  1.00  0.00     0.042 C 
ATOM      7  O   UNL     1     -99.174 -45.233 -12.531  1.00  0.00    -0.550 OA
ATOM      8  O   UNL     1     -98.959 -42.988 -12.130  1.00  0.00    -0.550 OA
ENDBRANCH   5   6
ENDBRANCH   1   5
TORSDOF 3
ENDMDL
MODEL 8
REMARK VINA RESULT:    -2.204     10.223     11.261
REMARK INTER + INTRA:          -2.677
REMARK INTER:                  -2.555
REMARK INTRA:                  -0.123
REMARK UNBOUND:                -0.087
REMARK SMILES O=C([O-])CCC(=O)[O-]
REMARK SMILES IDX 4 1 2 2 1 3 3 4 5 5 6 6 7 7 8 8
REMARK H PARENT
REMARK Flexibility Score: inf
ROOT
ATOM      1  C   UNL     1     -95.603 -53.856 -19.525  1.00  0.00     0.059 C 
ENDROOT
BRANCH   1   2
ATOM      2  C   UNL     1     -96.383 -53.950 -20.802  1.00  0.00     0.042 C 
ATOM      3  O   UNL     1     -96.038 -53.272 -21.805  1.00  0.00    -0.550 OA
ATOM      4  O   UNL     1     -97.466 -54.816 -20.895  1.00  0.00    -0.550 OA
ENDBRANCH   1   2
BRANCH   1   5
ATOM      5  C   UNL     1     -96.499 -53.468 -18.344  1.00  0.00     0.059 C 
BRANCH   5   6
ATOM      6  C   UNL     1     -96.568 -54.561 -17.322  1.00  0.00     0.042 C 
ATOM      7  O   UNL     1     -96.597 -55.766 -17.683  1.00  0.00    -0.550 OA
ATOM      8  O   UNL     1     -96.640 -54.245 -15.971  1.00  0.00    -0.550 OA
ENDBRANCH   5   6
ENDBRANCH   1   5
TORSDOF 3
ENDMDL
MODEL 9
REMARK VINA RESULT:    -2.140      1.451      2.121
REMARK INTER + INTRA:          -2.603
REMARK INTER:                  -2.480
REMARK INTRA:                  -0.123
REMARK UNBOUND:                -0.087
REMARK SMILES O=C([O-])CCC(=O)[O-]
REMARK SMILES IDX 4 1 2 2 1 3 3 4 5 5 6 6 7 7 8 8
REMARK H PARENT
REMARK Flexibility Score: inf
ROOT
ATOM      1  C   UNL     1     -97.413 -46.056 -11.945  1.00  0.00     0.059 C 
ENDROOT
BRANCH   1   2
ATOM      2  C   UNL     1     -98.128 -44.750 -12.118  1.00  0.00     0.042 C 
ATOM      3  O   UNL     1     -99.319 -44.731 -12.526  1.00  0.00    -0.550 OA
ATOM      4  O   UNL     1     -97.492 -43.559 -11.792  1.00  0.00    -0.550 OA
ENDBRANCH   1   2
BRANCH   1   5
ATOM      5  C   UNL     1     -95.892 -45.876 -11.982  1.00  0.00     0.059 C 
BRANCH   5   6
ATOM      6  C   UNL     1     -95.271 -46.147 -10.645  1.00  0.00     0.042 C 
ATOM      7  O   UNL     1     -94.363 -47.011 -10.532  1.00  0.00    -0.550 OA
ATOM      8  O   UNL     1     -95.725 -45.472  -9.519  1.00  0.00    -0.550 OA
ENDBRANCH   5   6
ENDBRANCH   1   5
TORSDOF 3
ENDMDL
