MODEL 1
REMARK VINA RESULT:    -3.487      0.000      0.000
REMARK INTER + INTRA:          -4.667
REMARK INTER:                  -4.506
REMARK INTRA:                  -0.162
REMARK UNBOUND:                -0.162
REMARK SMILES CCCCCCC(=O)[O-]
REMARK SMILES IDX 5 1 6 2 7 3 8 4 9 5 4 6 3 7 2 8 1 9
REMARK H PARENT
REMARK Flexibility Score: inf
ROOT
ATOM      1  C   UNL     1     -17.844  43.334  -6.170  1.00  0.00     0.006 C 
ENDROOT
BRANCH   1   2
ATOM      2  C   UNL     1     -17.315  44.054  -7.414  1.00  0.00     0.053 C 
BRANCH   2   3
ATOM      3  C   UNL     1     -18.409  44.834  -8.072  1.00  0.00     0.041 C 
ATOM      4  O   UNL     1     -19.536  44.936  -7.519  1.00  0.00    -0.550 OA
ATOM      5  O   UNL     1     -18.170  45.489  -9.273  1.00  0.00    -0.550 OA
ENDBRANCH   2   3
ENDBRANCH   1   2
BRANCH   1   6
ATOM      6  C   UNL     1     -16.712  43.066  -5.167  1.00  0.00     0.000 C 
BRANCH   6   7
ATOM      7  C   UNL     1     -17.168  43.258  -3.705  1.00  0.00    -0.000 C 
BRANCH   7   8
ATOM      8  C   UNL     1     -18.662  43.590  -3.566  1.00  0.00    -0.003 C 
ATOM      9  C   UNL     1     -19.498  42.406  -3.086  1.00  0.00     0.004 C 
ENDBRANCH   7   8
ENDBRANCH   6   7
ENDBRANCH   1   6
TORSDOF 5
ENDMDL
MODEL 2
REMARK VINA RESULT:    -3.480      1.345      1.345
REMARK INTER + INTRA:          -4.659
REMARK INTER:                  -4.495
REMARK INTRA:                  -0.164
REMARK UNBOUND:                -0.162
REMARK SMILES CCCCCCC(=O)[O-]
REMARK SMILES IDX 5 1 6 2 7 3 8 4 9 5 4 6 3 7 2 8 1 9
REMARK H PARENT
REMARK Flexibility Score: inf
ROOT
ATOM      1  C   UNL     1     -17.992  43.668  -6.400  1.00  0.00     0.006 C 
ENDROOT
BRANCH   1   2
ATOM      2  C   UNL     1     -17.604  43.881  -7.866  1.00  0.00     0.053 C 
BRANCH   2   3
ATOM      3  C   UNL     1     -18.763  43.576  -8.763  1.00  0.00     0.041 C 
ATOM      4  O   UNL     1     -19.605  44.471  -9.037  1.00  0.00    -0.550 OA
ATOM      5  O   UNL     1     -18.886  42.316  -9.335  1.00  0.00    -0.550 OA
ENDBRANCH   2   3
ENDBRANCH   1   2
BRANCH   1   6
ATOM      6  C   UNL     1     -16.760  43.324  -5.549  1.00  0.00     0.000 C 
BRANCH   6   7
ATOM      7  C   UNL     1     -17.133  42.980  -4.092  1.00  0.00    -0.000 C 
BRANCH   7   8
ATOM      8  C   UNL     1     -18.515  43.503  -3.671  1.00  0.00    -0.003 C 
ATOM      9  C   UNL     1     -19.420  42.414  -3.099  1.00  0.00     0.004 C 
ENDBRANCH   7   8
ENDBRANCH   6   7
ENDBRANCH   1   6
TORSDOF 5
ENDMDL
MODEL 3
REMARK VINA RESULT:    -3.475      1.399      1.420
REMARK INTER + INTRA:          -4.652
REMARK INTER:                  -4.480
REMARK INTRA:                  -0.172
REMARK UNBOUND:                -0.162
REMARK SMILES CCCCCCC(=O)[O-]
REMARK SMILES IDX 5 1 6 2 7 3 8 4 9 5 4 6 3 7 2 8 1 9
REMARK H PARENT
REMARK Flexibility Score: inf
ROOT
ATOM      1  C   UNL     1     -18.090  43.679  -6.485  1.00  0.00     0.006 C 
ENDROOT
BRANCH   1   2
ATOM      2  C   UNL     1     -17.738  43.992  -7.942  1.00  0.00     0.053 C 
BRANCH   2   3
ATOM      3  C   UNL     1     -18.825  43.521  -8.856  1.00  0.00     0.041 C 
ATOM      4  O   UNL     1     -18.861  42.318  -9.229  1.00  0.00    -0.550 OA
ATOM      5  O   UNL     1     -19.825  44.397  -9.258  1.00  0.00    -0.550 OA
ENDBRANCH   2   3
ENDBRANCH   1   2
BRANCH   1   6
ATOM      6  C   UNL     1     -16.838  43.279  -5.690  1.00  0.00     0.000 C 
BRANCH   6   7
ATOM      7  C   UNL     1     -17.154  42.994  -4.207  1.00  0.00    -0.000 C 
BRANCH   7   8
ATOM      8  C   UNL     1     -18.528  43.515  -3.759  1.00  0.00    -0.003 C 
ATOM      9  C   UNL     1     -19.371  42.455  -3.053  1.00  0.00     0.004 C 
ENDBRANCH   7   8
ENDBRANCH   6   7
ENDBRANCH   1   6
TORSDOF 5
ENDMDL
MODEL 4
REMARK VINA RESULT:    -3.431      2.258      4.257
REMARK INTER + INTRA:          -4.595
REMARK INTER:                  -4.257
REMARK INTRA:                  -0.338
REMARK UNBOUND:                -0.162
REMARK SMILES CCCCCCC(=O)[O-]
REMARK SMILES IDX 5 1 6 2 7 3 8 4 9 5 4 6 3 7 2 8 1 9
REMARK H PARENT
REMARK Flexibility Score: inf
ROOT
ATOM      1  C   UNL     1     -16.926  42.606  -5.153  1.00  0.00     0.006 C 
ENDROOT
BRANCH   1   2
ATOM      2  C   UNL     1     -17.232  43.015  -3.709  1.00  0.00     0.053 C 
BRANCH   2   3
ATOM      3  C   UNL     1     -18.692  43.296  -3.543  1.00  0.00     0.041 C 
ATOM      4  O   UNL     1     -19.225  44.259  -4.153  1.00  0.00    -0.550 OA
ATOM      5  O   UNL     1     -19.473  42.465  -2.750  1.00  0.00    -0.550 OA
ENDBRANCH   2   3
ENDBRANCH   1   2
BRANCH   1   6
ATOM      6  C   UNL     1     -16.058  43.663  -5.853  1.00  0.00     0.000 C 
BRANCH   6   7
ATOM      7  C   UNL     1     -16.530  43.946  -7.295  1.00  0.00    -0.000 C 
BRANCH   7   8
ATOM      8  C   UNL     1     -18.017  43.634  -7.528  1.00  0.00    -0.003 C 
ATOM      9  C   UNL     1     -18.895  44.884  -7.556  1.00  0.00     0.004 C 
ENDBRANCH   7   8
ENDBRANCH   6   7
ENDBRANCH   1   6
TORSDOF 5
ENDMDL
MODEL 5
REMARK VINA RESULT:    -3.232      1.165      1.282
REMARK INTER + INTRA:          -4.338
REMARK INTER:                  -4.148
REMARK INTRA:                  -0.190
REMARK UNBOUND:                -0.162
REMARK SMILES CCCCCCC(=O)[O-]
REMARK SMILES IDX 5 1 6 2 7 3 8 4 9 5 4 6 3 7 2 8 1 9
REMARK H PARENT
REMARK Flexibility Score: inf
ROOT
ATOM      1  C   UNL     1     -18.211  43.991  -6.491  1.00  0.00     0.006 C 
ENDROOT
BRANCH   1   2
ATOM      2  C   UNL     1     -18.353  43.641  -7.975  1.00  0.00     0.053 C 
BRANCH   2   3
ATOM      3  C   UNL     1     -18.054  44.835  -8.826  1.00  0.00     0.041 C 
ATOM      4  O   UNL     1     -18.761  45.084  -9.838  1.00  0.00    -0.550 OA
ATOM      5  O   UNL     1     -17.025  45.698  -8.475  1.00  0.00    -0.550 OA
ENDBRANCH   2   3
ENDBRANCH   1   2
BRANCH   1   6
ATOM      6  C   UNL     1     -17.020  43.252  -5.862  1.00  0.00     0.000 C 
BRANCH   6   7
ATOM      7  C   UNL     1     -17.464  42.231  -4.793  1.00  0.00    -0.000 C 
BRANCH   7   8
ATOM      8  C   UNL     1     -18.015  42.880  -3.514  1.00  0.00    -0.003 C 
ATOM      9  C   UNL     1     -19.441  42.443  -3.186  1.00  0.00     0.004 C 
ENDBRANCH   7   8
ENDBRANCH   6   7
ENDBRANCH   1   6
TORSDOF 5
ENDMDL
MODEL 6
REMARK VINA RESULT:    -3.156      2.882      4.865
REMARK INTER + INTRA:          -4.240
REMARK INTER:                  -4.048
REMARK INTRA:                  -0.192
REMARK UNBOUND:                -0.162
REMARK SMILES CCCCCCC(=O)[O-]
REMARK SMILES IDX 5 1 6 2 7 3 8 4 9 5 4 6 3 7 2 8 1 9
REMARK H PARENT
REMARK Flexibility Score: inf
ROOT
ATOM      1  C   UNL     1     -18.291  43.770  -6.164  1.00  0.00     0.006 C 
ENDROOT
BRANCH   1   2
ATOM      2  C   UNL     1     -17.610  42.620  -5.415  1.00  0.00     0.053 C 
BRANCH   2   3
ATOM      3  C   UNL     1     -17.565  42.905  -3.947  1.00  0.00     0.041 C 
ATOM      4  O   UNL     1     -16.524  43.386  -3.427  1.00  0.00    -0.550 OA
ATOM      5  O   UNL     1     -18.689  42.684  -3.162  1.00  0.00    -0.550 OA
ENDBRANCH   2   3
ENDBRANCH   1   2
BRANCH   1   6
ATOM      6  C   UNL     1     -17.627  44.007  -7.529  1.00  0.00     0.000 C 
BRANCH   6   7
ATOM      7  C   UNL     1     -18.548  44.774  -8.501  1.00  0.00    -0.000 C 
BRANCH   7   8
ATOM      8  C   UNL     1     -19.552  43.873  -9.237  1.00  0.00    -0.003 C 
ATOM      9  C   UNL     1     -18.950  42.541  -9.680  1.00  0.00     0.004 C 
ENDBRANCH   7   8
ENDBRANCH   6   7
ENDBRANCH   1   6
TORSDOF 5
ENDMDL
MODEL 7
REMARK VINA RESULT:    -2.914      1.296      1.843
REMARK INTER + INTRA:          -3.928
REMARK INTER:                  -3.816
REMARK INTRA:                  -0.112
REMARK UNBOUND:                -0.162
REMARK SMILES CCCCCCC(=O)[O-]
REMARK SMILES IDX 5 1 6 2 7 3 8 4 9 5 4 6 3 7 2 8 1 9
REMARK H PARENT
REMARK Flexibility Score: inf
ROOT
ATOM      1  C   UNL     1     -17.426  43.903  -7.939  1.00  0.00     0.006 C 
ENDROOT
BRANCH   1   2
ATOM      2  C   UNL     1     -17.590  45.305  -8.533  1.00  0.00     0.053 C 
BRANCH   2   3
ATOM      3  C   UNL     1     -18.465  45.261  -9.746  1.00  0.00     0.041 C 
ATOM      4  O   UNL     1     -19.329  44.354  -9.872  1.00  0.00    -0.550 OA
ATOM      5  O   UNL     1     -18.358  46.249 -10.716  1.00  0.00    -0.550 OA
ENDBRANCH   2   3
ENDBRANCH   1   2
BRANCH   1   6
ATOM      6  C   UNL     1     -18.126  43.797  -6.576  1.00  0.00     0.000 C 
BRANCH   6   7
ATOM      7  C   UNL     1     -17.189  43.245  -5.480  1.00  0.00    -0.000 C 
BRANCH   7   8
ATOM      8  C   UNL     1     -17.822  42.128  -4.634  1.00  0.00    -0.003 C 
ATOM      9  C   UNL     1     -18.811  42.651  -3.594  1.00  0.00     0.004 C 
ENDBRANCH   7   8
ENDBRANCH   6   7
ENDBRANCH   1   6
TORSDOF 5
ENDMDL
MODEL 8
REMARK VINA RESULT:    -2.484      3.035      5.146
REMARK INTER + INTRA:          -3.372
REMARK INTER:                  -3.260
REMARK INTRA:                  -0.112
REMARK UNBOUND:                -0.162
REMARK SMILES CCCCCCC(=O)[O-]
REMARK SMILES IDX 5 1 6 2 7 3 8 4 9 5 4 6 3 7 2 8 1 9
REMARK H PARENT
REMARK Flexibility Score: inf
ROOT
ATOM      1  C   UNL     1     -16.238  43.439  -6.088  1.00  0.00     0.006 C 
ENDROOT
BRANCH   1   2
ATOM      2  C   UNL     1     -17.619  43.099  -5.519  1.00  0.00     0.053 C 
BRANCH   2   3
ATOM      3  C   UNL     1     -17.628  43.269  -4.032  1.00  0.00     0.041 C 
ATOM      4  O   UNL     1     -18.715  43.234  -3.398  1.00  0.00    -0.550 OA
ATOM      5  O   UNL     1     -16.433  43.418  -3.342  1.00  0.00    -0.550 OA
ENDBRANCH   2   3
ENDBRANCH   1   2
BRANCH   1   6
ATOM      6  C   UNL     1     -16.363  44.217  -7.407  1.00  0.00     0.000 C 
BRANCH   6   7
ATOM      7  C   UNL     1     -15.009  44.352  -8.136  1.00  0.00    -0.000 C 
BRANCH   7   8
ATOM      8  C   UNL     1     -14.985  45.475  -9.185  1.00  0.00    -0.003 C 
ATOM      9  C   UNL     1     -15.261  46.855  -8.593  1.00  0.00     0.004 C 
ENDBRANCH   7   8
ENDBRANCH   6   7
ENDBRANCH   1   6
TORSDOF 5
ENDMDL
MODEL 9
REMARK VINA RESULT:    -2.436      3.302      4.698
REMARK INTER + INTRA:          -3.309
REMARK INTER:                  -2.942
REMARK INTRA:                  -0.367
REMARK UNBOUND:                -0.162
REMARK SMILES CCCCCCC(=O)[O-]
REMARK SMILES IDX 5 1 6 2 7 3 8 4 9 5 4 6 3 7 2 8 1 9
REMARK H PARENT
REMARK Flexibility Score: inf
ROOT
ATOM      1  C   UNL     1     -18.723  43.423  -8.877  1.00  0.00     0.006 C 
ENDROOT
BRANCH   1   2
ATOM      2  C   UNL     1     -18.436  43.853 -10.319  1.00  0.00     0.053 C 
BRANCH   2   3
ATOM      3  C   UNL     1     -19.334  44.982 -10.717  1.00  0.00     0.041 C 
ATOM      4  O   UNL     1     -18.845  46.090 -11.060  1.00  0.00    -0.550 OA
ATOM      5  O   UNL     1     -20.710  44.795 -10.756  1.00  0.00    -0.550 OA
ENDBRANCH   2   3
ENDBRANCH   1   2
BRANCH   1   6
ATOM      6  C   UNL     1     -17.775  44.126  -7.894  1.00  0.00     0.000 C 
BRANCH   6   7
ATOM      7  C   UNL     1     -16.407  44.448  -8.532  1.00  0.00    -0.000 C 
BRANCH   7   8
ATOM      8  C   UNL     1     -16.049  45.943  -8.499  1.00  0.00    -0.003 C 
ATOM      9  C   UNL     1     -15.545  46.467  -9.842  1.00  0.00     0.004 C 
ENDBRANCH   7   8
ENDBRANCH   6   7
ENDBRANCH   1   6
TORSDOF 5
ENDMDL
