MODEL 1
REMARK VINA RESULT:    -4.204      0.000      0.000
REMARK INTER + INTRA:          -4.916
REMARK INTER:                  -5.187
REMARK INTRA:                   0.271
REMARK UNBOUND:                 0.271
REMARK SMILES C=C1[C@@H]2CC[C@H]3[C@H]2C(C)(C)CCC[C@@]13C
REMARK SMILES IDX 14 1 6 2 7 3 3 4 2 5 1 6 4 7 5 8 15 9 8 10 9 11 10 12 11 13
REMARK SMILES IDX 13 15 12 16
REMARK H PARENT
REMARK Flexibility Score: 80.00
ROOT
ATOM      1  C   UNL     1       1.691  14.911  13.417  1.00  0.00    -0.008 C 
ATOM      2  C   UNL     1       0.730  14.669  14.577  1.00  0.00     0.003 C 
ATOM      3  C   UNL     1       1.665  15.107  15.715  1.00  0.00     0.006 C 
ATOM      4  C   UNL     1       2.626  13.944  15.519  1.00  0.00     0.019 C 
ATOM      5  C   UNL     1       2.908  14.180  14.015  1.00  0.00    -0.068 C 
ATOM      6  C   UNL     1       4.042  13.869  13.381  1.00  0.00     0.009 C 
ATOM      7  C   UNL     1       1.730  12.721  15.620  1.00  0.00     0.008 C 
ATOM      8  C   UNL     1       0.453  13.183  14.918  1.00  0.00     0.005 C 
ATOM      9  C   UNL     1       1.213  14.285  12.092  1.00  0.00     0.016 C 
ENDROOT
BRANCH   3  10
ATOM     10  C   UNL     1       1.027  16.208  16.590  1.00  0.00    -0.032 C 
ATOM     11  C   UNL     1       1.893  16.425  17.857  1.00  0.00     0.011 C 
ATOM     12  C   UNL     1      -0.399  15.841  17.071  1.00  0.00     0.011 C 
BRANCH  10  13
ATOM     13  C   UNL     1       1.005  17.542  15.703  1.00  0.00     0.007 CG0
ATOM     14  G   UNL     1       0.886  17.433  14.117  1.00  0.00     0.000 G0
ENDBRANCH  10  13
ENDBRANCH   3  10
BRANCH   1  15
ATOM     15  C   UNL     1       1.882  16.498  13.285  1.00  0.00     0.011 C 
BRANCH  15  16
ATOM     16  C   UNL     1       0.892  17.435  14.117  1.00  0.00     0.001 CG0
ATOM     17  G   UNL     1       1.009  17.547  15.703  1.00  0.00     0.000 G0
ENDBRANCH  15  16
ENDBRANCH   1  15
TORSDOF 0
ENDMDL
MODEL 2
REMARK VINA RESULT:    -3.750      1.436      3.657
REMARK INTER + INTRA:          -4.356
REMARK INTER:                  -4.625
REMARK INTRA:                   0.270
REMARK UNBOUND:                 0.271
REMARK SMILES C=C1[C@@H]2CC[C@H]3[C@H]2C(C)(C)CCC[C@@]13C
REMARK SMILES IDX 14 1 6 2 7 3 3 4 2 5 1 6 4 7 5 8 15 9 8 10 9 11 10 12 11 13
REMARK SMILES IDX 13 15 12 16
REMARK H PARENT
REMARK Flexibility Score: 80.00
ROOT
ATOM      1  C   UNL     1       1.521  14.884  17.596  1.00  0.00    -0.008 C 
ATOM      2  C   UNL     1       1.904  14.771  16.123  1.00  0.00     0.003 C 
ATOM      3  C   UNL     1       0.507  15.012  15.528  1.00  0.00     0.006 C 
ATOM      4  C   UNL     1      -0.067  13.712  16.069  1.00  0.00     0.019 C 
ATOM      5  C   UNL     1       0.302  13.943  17.555  1.00  0.00    -0.068 C 
ATOM      6  C   UNL     1      -0.373  13.466  18.604  1.00  0.00     0.009 C 
ATOM      7  C   UNL     1       0.880  12.653  15.532  1.00  0.00     0.008 C 
ATOM      8  C   UNL     1       2.241  13.342  15.627  1.00  0.00     0.005 C 
ATOM      9  C   UNL     1       2.624  14.387  18.550  1.00  0.00     0.016 C 
ENDROOT
BRANCH   3  10
ATOM     10  C   UNL     1       0.510  16.177  14.514  1.00  0.00    -0.032 C 
ATOM     11  C   UNL     1      -0.846  16.209  13.763  1.00  0.00     0.011 C 
ATOM     12  C   UNL     1       1.620  16.039  13.444  1.00  0.00     0.011 C 
BRANCH  10  13
ATOM     13  C   UNL     1       0.700  17.523  15.364  1.00  0.00     0.007 CG0
ATOM     14  G   UNL     1       1.503  17.479  16.740  1.00  0.00     0.000 G0
ENDBRANCH  10  13
ENDBRANCH   3  10
BRANCH   1  15
ATOM     15  C   UNL     1       1.150  16.420  17.871  1.00  0.00     0.011 C 
BRANCH  15  16
ATOM     16  C   UNL     1       1.514  17.485  16.737  1.00  0.00     0.001 CG0
ATOM     17  G   UNL     1       0.707  17.526  15.364  1.00  0.00     0.000 G0
ENDBRANCH  15  16
ENDBRANCH   1  15
TORSDOF 0
ENDMDL
MODEL 3
REMARK VINA RESULT:    -3.731      1.699      4.206
REMARK INTER + INTRA:          -4.333
REMARK INTER:                  -4.593
REMARK INTRA:                   0.260
REMARK UNBOUND:                 0.271
REMARK SMILES C=C1[C@@H]2CC[C@H]3[C@H]2C(C)(C)CCC[C@@]13C
REMARK SMILES IDX 14 1 6 2 7 3 3 4 2 5 1 6 4 7 5 8 15 9 8 10 9 11 10 12 11 13
REMARK SMILES IDX 13 15 12 16
REMARK H PARENT
REMARK Flexibility Score: 80.00
ROOT
ATOM      1  C   UNL     1       0.993  15.265  16.244  1.00  0.00    -0.008 C 
ATOM      2  C   UNL     1       0.249  15.627  14.961  1.00  0.00     0.003 C 
ATOM      3  C   UNL     1       1.306  16.574  14.371  1.00  0.00     0.006 C 
ATOM      4  C   UNL     1       1.125  17.628  15.452  1.00  0.00     0.019 C 
ATOM      5  C   UNL     1       1.364  16.699  16.667  1.00  0.00    -0.068 C 
ATOM      6  C   UNL     1       1.875  17.076  17.842  1.00  0.00     0.009 C 
ATOM      7  C   UNL     1      -0.364  17.931  15.408  1.00  0.00     0.008 C 
ATOM      8  C   UNL     1      -0.978  16.558  15.140  1.00  0.00     0.005 C 
ATOM      9  C   UNL     1       0.104  14.550  17.280  1.00  0.00     0.016 C 
ENDROOT
BRANCH   3  10
ATOM     10  C   UNL     1       1.723  16.149  12.946  1.00  0.00    -0.032 C 
ATOM     11  C   UNL     1       2.592  17.264  12.310  1.00  0.00     0.011 C 
ATOM     12  C   UNL     1       0.513  15.923  12.008  1.00  0.00     0.011 C 
BRANCH  10  13
ATOM     13  C   UNL     1       2.583  14.805  13.103  1.00  0.00     0.007 CG0
ATOM     14  G   UNL     1       2.298  13.825  14.327  1.00  0.00     0.000 G0
ENDBRANCH  10  13
ENDBRANCH   3  10
BRANCH   1  15
ATOM     15  C   UNL     1       2.250  14.363  15.822  1.00  0.00     0.011 C 
BRANCH  15  16
ATOM     16  C   UNL     1       2.300  13.816  14.322  1.00  0.00     0.001 CG0
ATOM     17  G   UNL     1       2.584  14.801  13.101  1.00  0.00     0.000 G0
ENDBRANCH  15  16
ENDBRANCH   1  15
TORSDOF 0
ENDMDL
MODEL 4
REMARK VINA RESULT:    -3.575      1.551      1.881
REMARK INTER + INTRA:          -4.140
REMARK INTER:                  -4.402
REMARK INTRA:                   0.262
REMARK UNBOUND:                 0.271
REMARK SMILES C=C1[C@@H]2CC[C@H]3[C@H]2C(C)(C)CCC[C@@]13C
REMARK SMILES IDX 14 1 6 2 7 3 3 4 2 5 1 6 4 7 5 8 15 9 8 10 9 11 10 12 11 13
REMARK SMILES IDX 13 15 12 16
REMARK H PARENT
REMARK Flexibility Score: 80.00
ROOT
ATOM      1  C   UNL     1       1.057  15.020  14.162  1.00  0.00    -0.008 C 
ATOM      2  C   UNL     1       0.203  14.064  14.990  1.00  0.00     0.003 C 
ATOM      3  C   UNL     1       1.215  13.807  16.118  1.00  0.00     0.006 C 
ATOM      4  C   UNL     1       2.192  13.065  15.219  1.00  0.00     0.019 C 
ATOM      5  C   UNL     1       2.341  14.170  14.144  1.00  0.00    -0.068 C 
ATOM      6  C   UNL     1       3.428  14.383  13.397  1.00  0.00     0.009 C 
ATOM      7  C   UNL     1       1.347  11.960  14.609  1.00  0.00     0.008 C 
ATOM      8  C   UNL     1       0.002  12.651  14.386  1.00  0.00     0.005 C 
ATOM      9  C   UNL     1       0.491  15.272  12.751  1.00  0.00     0.016 C 
ENDROOT
BRANCH   3  10
ATOM     10  C   UNL     1       0.617  14.119  17.507  1.00  0.00    -0.032 C 
ATOM     11  C   UNL     1       1.577  13.602  18.608  1.00  0.00     0.011 C 
ATOM     12  C   UNL     1      -0.752  13.436  17.738  1.00  0.00     0.011 C 
BRANCH  10  13
ATOM     13  C   UNL     1       0.482  15.714  17.599  1.00  0.00     0.007 CG0
ATOM     14  G   UNL     1       0.234  16.562  16.272  1.00  0.00     0.000 G0
ENDBRANCH  10  13
ENDBRANCH   3  10
BRANCH   1  15
ATOM     15  C   UNL     1       1.187  16.382  14.998  1.00  0.00     0.011 C 
BRANCH  15  16
ATOM     16  C   UNL     1       0.236  16.566  16.268  1.00  0.00     0.001 CG0
ATOM     17  G   UNL     1       0.475  15.723  17.599  1.00  0.00     0.000 G0
ENDBRANCH  15  16
ENDBRANCH   1  15
TORSDOF 0
ENDMDL
MODEL 5
REMARK VINA RESULT:    -3.496      1.935      3.617
REMARK INTER + INTRA:          -4.042
REMARK INTER:                  -4.312
REMARK INTRA:                   0.270
REMARK UNBOUND:                 0.271
REMARK SMILES C=C1[C@@H]2CC[C@H]3[C@H]2C(C)(C)CCC[C@@]13C
REMARK SMILES IDX 14 1 6 2 7 3 3 4 2 5 1 6 4 7 5 8 15 9 8 10 9 11 10 12 11 13
REMARK SMILES IDX 13 15 12 16
REMARK H PARENT
REMARK Flexibility Score: 80.00
ROOT
ATOM      1  C   UNL     1       1.308  16.364  13.540  1.00  0.00    -0.008 C 
ATOM      2  C   UNL     1       1.402  16.433  15.062  1.00  0.00     0.003 C 
ATOM      3  C   UNL     1       0.473  15.251  15.380  1.00  0.00     0.006 C 
ATOM      4  C   UNL     1      -0.773  15.946  14.853  1.00  0.00     0.019 C 
ATOM      5  C   UNL     1      -0.226  16.275  13.442  1.00  0.00    -0.068 C 
ATOM      6  C   UNL     1      -0.962  16.382  12.332  1.00  0.00     0.009 C 
ATOM      7  C   UNL     1      -0.809  17.250  15.633  1.00  0.00     0.008 C 
ATOM      8  C   UNL     1       0.669  17.628  15.724  1.00  0.00     0.005 C 
ATOM      9  C   UNL     1       1.878  17.612  12.840  1.00  0.00     0.016 C 
ENDROOT
BRANCH   3  10
ATOM     10  C   UNL     1       1.165  14.204  16.281  1.00  0.00    -0.032 C 
ATOM     11  C   UNL     1       0.116  13.175  16.773  1.00  0.00     0.011 C 
ATOM     12  C   UNL     1       1.814  14.830  17.539  1.00  0.00     0.011 C 
BRANCH  10  13
ATOM     13  C   UNL     1       2.267  13.476  15.372  1.00  0.00     0.007 CG0
ATOM     14  G   UNL     1       2.953  14.272  14.174  1.00  0.00     0.000 G0
ENDBRANCH  10  13
ENDBRANCH   3  10
BRANCH   1  15
ATOM     15  C   UNL     1       2.070  15.029  13.081  1.00  0.00     0.011 C 
BRANCH  15  16
ATOM     16  C   UNL     1       2.955  14.268  14.171  1.00  0.00     0.001 CG0
ATOM     17  G   UNL     1       2.271  13.489  15.382  1.00  0.00     0.000 G0
ENDBRANCH  15  16
ENDBRANCH   1  15
TORSDOF 0
ENDMDL
MODEL 6
REMARK VINA RESULT:    -3.421      1.560      3.084
REMARK INTER + INTRA:          -3.950
REMARK INTER:                  -4.208
REMARK INTRA:                   0.258
REMARK UNBOUND:                 0.271
REMARK SMILES C=C1[C@@H]2CC[C@H]3[C@H]2C(C)(C)CCC[C@@]13C
REMARK SMILES IDX 14 1 6 2 7 3 3 4 2 5 1 6 4 7 5 8 15 9 8 10 9 11 10 12 11 13
REMARK SMILES IDX 13 15 12 16
REMARK H PARENT
REMARK Flexibility Score: 80.00
ROOT
ATOM      1  C   UNL     1       0.556  13.112  14.586  1.00  0.00    -0.008 C 
ATOM      2  C   UNL     1       1.554  13.942  15.388  1.00  0.00     0.003 C 
ATOM      3  C   UNL     1       1.048  15.333  14.973  1.00  0.00     0.006 C 
ATOM      4  C   UNL     1       1.472  15.175  13.522  1.00  0.00     0.019 C 
ATOM      5  C   UNL     1       0.720  13.851  13.244  1.00  0.00    -0.068 C 
ATOM      6  C   UNL     1       0.237  13.467  12.059  1.00  0.00     0.009 C 
ATOM      7  C   UNL     1       2.951  14.837  13.618  1.00  0.00     0.008 C 
ATOM      8  C   UNL     1       3.009  13.939  14.853  1.00  0.00     0.005 C 
ATOM      9  C   UNL     1       0.938  11.622  14.496  1.00  0.00     0.016 C 
ENDROOT
BRANCH   3  10
ATOM     10  C   UNL     1       0.702  16.206  16.199  1.00  0.00    -0.032 C 
ATOM     11  C   UNL     1       0.432  17.660  15.736  1.00  0.00     0.011 C 
ATOM     12  C   UNL     1       1.850  16.264  17.237  1.00  0.00     0.011 C 
BRANCH  10  13
ATOM     13  C   UNL     1      -0.623  15.580  16.848  1.00  0.00     0.007 CG0
ATOM     14  G   UNL     1      -0.917  14.021  16.692  1.00  0.00     0.000 G0
ENDBRANCH  10  13
ENDBRANCH   3  10
BRANCH   1  15
ATOM     15  C   UNL     1      -0.881  13.313  15.270  1.00  0.00     0.011 C 
BRANCH  15  16
ATOM     16  C   UNL     1      -0.929  14.022  16.700  1.00  0.00     0.001 CG0
ATOM     17  G   UNL     1      -0.626  15.579  16.853  1.00  0.00     0.000 G0
ENDBRANCH  15  16
ENDBRANCH   1  15
TORSDOF 0
ENDMDL
MODEL 7
REMARK VINA RESULT:    -3.314      1.768      3.857
REMARK INTER + INTRA:          -3.817
REMARK INTER:                  -4.074
REMARK INTRA:                   0.256
REMARK UNBOUND:                 0.271
REMARK SMILES C=C1[C@@H]2CC[C@H]3[C@H]2C(C)(C)CCC[C@@]13C
REMARK SMILES IDX 14 1 6 2 7 3 3 4 2 5 1 6 4 7 5 8 15 9 8 10 9 11 10 12 11 13
REMARK SMILES IDX 13 15 12 16
REMARK H PARENT
REMARK Flexibility Score: 80.00
ROOT
ATOM      1  C   UNL     1       1.332  16.887  13.668  1.00  0.00    -0.008 C 
ATOM      2  C   UNL     1       1.499  16.135  14.986  1.00  0.00     0.003 C 
ATOM      3  C   UNL     1       0.686  14.885  14.615  1.00  0.00     0.006 C 
ATOM      4  C   UNL     1      -0.637  15.631  14.547  1.00  0.00     0.019 C 
ATOM      5  C   UNL     1      -0.193  16.718  13.537  1.00  0.00    -0.068 C 
ATOM      6  C   UNL     1      -0.991  17.334  12.661  1.00  0.00     0.009 C 
ATOM      7  C   UNL     1      -0.740  16.300  15.907  1.00  0.00     0.008 C 
ATOM      8  C   UNL     1       0.706  16.709  16.188  1.00  0.00     0.005 C 
ATOM      9  C   UNL     1       1.763  18.364  13.754  1.00  0.00     0.016 C 
ENDROOT
BRANCH   3  10
ATOM     10  C   UNL     1       1.506  13.590  14.807  1.00  0.00    -0.032 C 
ATOM     11  C   UNL     1       0.574  12.362  14.649  1.00  0.00     0.011 C 
ATOM     12  C   UNL     1       2.153  13.493  16.210  1.00  0.00     0.011 C 
BRANCH  10  13
ATOM     13  C   UNL     1       2.625  13.583  13.660  1.00  0.00     0.007 CG0
ATOM     14  G   UNL     1       3.165  14.964  13.076  1.00  0.00     0.000 G0
ENDBRANCH  10  13
ENDBRANCH   3  10
BRANCH   1  15
ATOM     15  C   UNL     1       2.175  16.089  12.561  1.00  0.00     0.011 C 
BRANCH  15  16
ATOM     16  C   UNL     1       3.179  14.955  13.068  1.00  0.00     0.001 CG0
ATOM     17  G   UNL     1       2.630  13.575  13.647  1.00  0.00     0.000 G0
ENDBRANCH  15  16
ENDBRANCH   1  15
TORSDOF 0
ENDMDL
MODEL 8
REMARK VINA RESULT:    -3.288      1.622      3.368
REMARK INTER + INTRA:          -3.786
REMARK INTER:                  -4.055
REMARK INTRA:                   0.270
REMARK UNBOUND:                 0.271
REMARK SMILES C=C1[C@@H]2CC[C@H]3[C@H]2C(C)(C)CCC[C@@]13C
REMARK SMILES IDX 14 1 6 2 7 3 3 4 2 5 1 6 4 7 5 8 15 9 8 10 9 11 10 12 11 13
REMARK SMILES IDX 13 15 12 16
REMARK H PARENT
REMARK Flexibility Score: 80.00
ROOT
ATOM      1  C   UNL     1       0.369  17.182  14.832  1.00  0.00    -0.008 C 
ATOM      2  C   UNL     1      -0.364  15.844  14.826  1.00  0.00     0.003 C 
ATOM      3  C   UNL     1       0.870  14.932  14.743  1.00  0.00     0.006 C 
ATOM      4  C   UNL     1       1.245  15.383  13.340  1.00  0.00     0.019 C 
ATOM      5  C   UNL     1       1.297  16.902  13.635  1.00  0.00    -0.068 C 
ATOM      6  C   UNL     1       2.073  17.788  13.004  1.00  0.00     0.009 C 
ATOM      7  C   UNL     1      -0.018  15.127  12.535  1.00  0.00     0.008 C 
ATOM      8  C   UNL     1      -1.125  15.503  13.519  1.00  0.00     0.005 C 
ATOM      9  C   UNL     1      -0.563  18.386  14.594  1.00  0.00     0.016 C 
ENDROOT
BRANCH   3  10
ATOM     10  C   UNL     1       0.895  13.895  15.888  1.00  0.00    -0.032 C 
ATOM     11  C   UNL     1       2.008  12.852  15.614  1.00  0.00     0.011 C 
ATOM     12  C   UNL     1      -0.437  13.117  16.021  1.00  0.00     0.011 C 
BRANCH  10  13
ATOM     13  C   UNL     1       1.219  14.706  17.232  1.00  0.00     0.007 CG0
ATOM     14  G   UNL     1       0.765  16.228  17.365  1.00  0.00     0.000 G0
ENDBRANCH  10  13
ENDBRANCH   3  10
BRANCH   1  15
ATOM     15  C   UNL     1       1.133  17.295  16.238  1.00  0.00     0.011 C 
BRANCH  15  16
ATOM     16  C   UNL     1       0.767  16.228  17.368  1.00  0.00     0.001 CG0
ATOM     17  G   UNL     1       1.219  14.706  17.235  1.00  0.00     0.000 G0
ENDBRANCH  15  16
ENDBRANCH   1  15
TORSDOF 0
ENDMDL
MODEL 9
REMARK VINA RESULT:    -3.268      1.881      4.272
REMARK INTER + INTRA:          -3.761
REMARK INTER:                  -3.997
REMARK INTRA:                   0.235
REMARK UNBOUND:                 0.271
REMARK SMILES C=C1[C@@H]2CC[C@H]3[C@H]2C(C)(C)CCC[C@@]13C
REMARK SMILES IDX 14 1 6 2 7 3 3 4 2 5 1 6 4 7 5 8 15 9 8 10 9 11 10 12 11 13
REMARK SMILES IDX 13 15 12 16
REMARK H PARENT
REMARK Flexibility Score: 80.00
ROOT
ATOM      1  C   UNL     1       1.127  14.999  16.293  1.00  0.00    -0.008 C 
ATOM      2  C   UNL     1       1.227  13.486  16.116  1.00  0.00     0.003 C 
ATOM      3  C   UNL     1       0.130  13.329  15.052  1.00  0.00     0.006 C 
ATOM      4  C   UNL     1      -0.996  13.720  15.996  1.00  0.00     0.019 C 
ATOM      5  C   UNL     1      -0.404  15.077  16.449  1.00  0.00    -0.068 C 
ATOM      6  C   UNL     1      -1.113  16.142  16.832  1.00  0.00     0.009 C 
ATOM      7  C   UNL     1      -0.838  12.753  17.158  1.00  0.00     0.008 C 
ATOM      8  C   UNL     1       0.681  12.638  17.293  1.00  0.00     0.005 C 
ATOM      9  C   UNL     1       1.879  15.516  17.534  1.00  0.00     0.016 C 
ENDROOT
BRANCH   3  10
ATOM     10  C   UNL     1       0.655  12.610  13.790  1.00  0.00    -0.032 C 
ATOM     11  C   UNL     1      -0.532  12.298  12.844  1.00  0.00     0.011 C 
ATOM     12  C   UNL     1       1.348  11.263  14.111  1.00  0.00     0.011 C 
BRANCH  10  13
ATOM     13  C   UNL     1       1.675  13.621  13.078  1.00  0.00     0.007 CG0
ATOM     14  G   UNL     1       2.440  14.713  13.950  1.00  0.00     0.000 G0
ENDBRANCH  10  13
ENDBRANCH   3  10
BRANCH   1  15
ATOM     15  C   UNL     1       1.680  15.669  14.944  1.00  0.00     0.011 C 
BRANCH  15  16
ATOM     16  C   UNL     1       2.460  14.729  13.916  1.00  0.00     0.001 CG0
ATOM     17  G   UNL     1       1.686  13.622  13.069  1.00  0.00     0.000 G0
ENDBRANCH  15  16
ENDBRANCH   1  15
TORSDOF 0
ENDMDL
