MODEL 1
REMARK VINA RESULT:    -3.341      0.000      0.000
REMARK INTER + INTRA:          -4.083
REMARK INTER:                  -3.927
REMARK INTRA:                  -0.156
REMARK UNBOUND:                -0.156
REMARK SMILES O=C([O-])CCC(=O)[O-]
REMARK SMILES IDX 4 1 2 2 1 3 3 4 5 5 6 6 7 7 8 8
REMARK H PARENT
REMARK Flexibility Score: inf
ROOT
ATOM      1  C   UNL     1     157.439 167.713 168.399  1.00  0.00     0.059 C 
ENDROOT
BRANCH   1   2
ATOM      2  C   UNL     1     158.547 167.840 167.399  1.00  0.00     0.042 C 
ATOM      3  O   UNL     1     158.549 168.791 166.572  1.00  0.00    -0.550 OA
ATOM      4  O   UNL     1     159.557 166.887 167.353  1.00  0.00    -0.550 OA
ENDBRANCH   1   2
BRANCH   1   5
ATOM      5  C   UNL     1     156.108 167.364 167.726  1.00  0.00     0.059 C 
BRANCH   5   6
ATOM      6  C   UNL     1     156.050 165.920 167.331  1.00  0.00     0.042 C 
ATOM      7  O   UNL     1     155.475 165.577 166.265  1.00  0.00    -0.550 OA
ATOM      8  O   UNL     1     156.596 164.949 168.162  1.00  0.00    -0.550 OA
ENDBRANCH   5   6
ENDBRANCH   1   5
TORSDOF 3
ENDMDL
MODEL 2
REMARK VINA RESULT:    -3.324     21.866     23.063
REMARK INTER + INTRA:          -4.063
REMARK INTER:                  -3.910
REMARK INTRA:                  -0.153
REMARK UNBOUND:                -0.156
REMARK SMILES O=C([O-])CCC(=O)[O-]
REMARK SMILES IDX 4 1 2 2 1 3 3 4 5 5 6 6 7 7 8 8
REMARK H PARENT
REMARK Flexibility Score: inf
ROOT
ATOM      1  C   UNL     1     157.402 150.451 149.612  1.00  0.00     0.059 C 
ENDROOT
BRANCH   1   2
ATOM      2  C   UNL     1     158.533 150.408 150.594  1.00  0.00     0.042 C 
ATOM      3  O   UNL     1     159.404 151.317 150.597  1.00  0.00    -0.550 OA
ATOM      4  O   UNL     1     158.646 149.342 151.478  1.00  0.00    -0.550 OA
ENDBRANCH   1   2
BRANCH   1   5
ATOM      5  C   UNL     1     156.069 150.766 150.298  1.00  0.00     0.059 C 
BRANCH   5   6
ATOM      6  C   UNL     1     155.989 152.202 150.715  1.00  0.00     0.042 C 
ATOM      7  O   UNL     1     155.531 152.508 151.848  1.00  0.00    -0.550 OA
ATOM      8  O   UNL     1     156.383 153.206 149.839  1.00  0.00    -0.550 OA
ENDBRANCH   5   6
ENDBRANCH   1   5
TORSDOF 3
ENDMDL
MODEL 3
REMARK VINA RESULT:    -3.324     22.023     23.265
REMARK INTER + INTRA:          -4.063
REMARK INTER:                  -3.903
REMARK INTRA:                  -0.160
REMARK UNBOUND:                -0.156
REMARK SMILES O=C([O-])CCC(=O)[O-]
REMARK SMILES IDX 4 1 2 2 1 3 3 4 5 5 6 6 7 7 8 8
REMARK H PARENT
REMARK Flexibility Score: inf
ROOT
ATOM      1  C   UNL     1     156.113 150.624 150.247  1.00  0.00     0.059 C 
ENDROOT
BRANCH   1   2
ATOM      2  C   UNL     1     156.068 152.081 150.593  1.00  0.00     0.042 C 
ATOM      3  O   UNL     1     155.551 152.460 151.677  1.00  0.00    -0.550 OA
ATOM      4  O   UNL     1     156.560 153.024 149.699  1.00  0.00    -0.550 OA
ENDBRANCH   1   2
BRANCH   1   5
ATOM      5  C   UNL     1     157.446 150.239 149.599  1.00  0.00     0.059 C 
BRANCH   5   6
ATOM      6  C   UNL     1     158.552 150.171 150.607  1.00  0.00     0.042 C 
ATOM      7  O   UNL     1     158.576 149.244 151.459  1.00  0.00    -0.550 OA
ATOM      8  O   UNL     1     159.534 151.153 150.631  1.00  0.00    -0.550 OA
ENDBRANCH   5   6
ENDBRANCH   1   5
TORSDOF 3
ENDMDL
MODEL 4
REMARK VINA RESULT:    -3.311     16.676     17.327
REMARK INTER + INTRA:          -4.048
REMARK INTER:                  -3.897
REMARK INTRA:                  -0.151
REMARK UNBOUND:                -0.156
REMARK SMILES O=C([O-])CCC(=O)[O-]
REMARK SMILES IDX 4 1 2 2 1 3 3 4 5 5 6 6 7 7 8 8
REMARK H PARENT
REMARK Flexibility Score: inf
ROOT
ATOM      1  C   UNL     1     160.612 167.724 149.635  1.00  0.00     0.059 C 
ENDROOT
BRANCH   1   2
ATOM      2  C   UNL     1     159.480 167.821 150.611  1.00  0.00     0.042 C 
ATOM      3  O   UNL     1     159.420 168.786 151.419  1.00  0.00    -0.550 OA
ATOM      4  O   UNL     1     158.512 166.825 150.657  1.00  0.00    -0.550 OA
ENDBRANCH   1   2
BRANCH   1   5
ATOM      5  C   UNL     1     161.911 167.286 150.319  1.00  0.00     0.059 C 
BRANCH   5   6
ATOM      6  C   UNL     1     161.875 165.836 150.696  1.00  0.00     0.042 C 
ATOM      7  O   UNL     1     161.445 164.980 149.880  1.00  0.00    -0.550 OA
ATOM      8  O   UNL     1     162.278 165.437 151.964  1.00  0.00    -0.550 OA
ENDBRANCH   5   6
ENDBRANCH   1   5
TORSDOF 3
ENDMDL
MODEL 5
REMARK VINA RESULT:    -3.304     15.066     16.044
REMARK INTER + INTRA:          -4.040
REMARK INTER:                  -3.892
REMARK INTRA:                  -0.147
REMARK UNBOUND:                -0.156
REMARK SMILES O=C([O-])CCC(=O)[O-]
REMARK SMILES IDX 4 1 2 2 1 3 3 4 5 5 6 6 7 7 8 8
REMARK H PARENT
REMARK Flexibility Score: inf
ROOT
ATOM      1  C   UNL     1     161.951 150.797 167.675  1.00  0.00     0.059 C 
ENDROOT
BRANCH   1   2
ATOM      2  C   UNL     1     161.992 152.241 167.277  1.00  0.00     0.042 C 
ATOM      3  O   UNL     1     161.675 153.136 168.105  1.00  0.00    -0.550 OA
ATOM      4  O   UNL     1     162.341 152.596 165.980  1.00  0.00    -0.550 OA
ENDBRANCH   1   2
BRANCH   1   5
ATOM      5  C   UNL     1     160.631 150.438 168.363  1.00  0.00     0.059 C 
BRANCH   5   6
ATOM      6  C   UNL     1     159.489 150.425 167.394  1.00  0.00     0.042 C 
ATOM      7  O   UNL     1     158.629 151.345 167.416  1.00  0.00    -0.550 OA
ATOM      8  O   UNL     1     159.351 149.376 166.493  1.00  0.00    -0.550 OA
ENDBRANCH   5   6
ENDBRANCH   1   5
TORSDOF 3
ENDMDL
MODEL 6
REMARK VINA RESULT:    -3.230      1.013      3.359
REMARK INTER + INTRA:          -3.952
REMARK INTER:                  -3.803
REMARK INTRA:                  -0.150
REMARK UNBOUND:                -0.156
REMARK SMILES O=C([O-])CCC(=O)[O-]
REMARK SMILES IDX 4 1 2 2 1 3 3 4 5 5 6 6 7 7 8 8
REMARK H PARENT
REMARK Flexibility Score: inf
ROOT
ATOM      1  C   UNL     1     157.243 166.066 168.261  1.00  0.00     0.059 C 
ENDROOT
BRANCH   1   2
ATOM      2  C   UNL     1     156.692 165.518 166.980  1.00  0.00     0.042 C 
ATOM      3  O   UNL     1     155.470 165.651 166.706  1.00  0.00    -0.550 OA
ATOM      4  O   UNL     1     157.521 164.824 166.107  1.00  0.00    -0.550 OA
ENDBRANCH   1   2
BRANCH   1   5
ATOM      5  C   UNL     1     157.477 167.577 168.174  1.00  0.00     0.059 C 
BRANCH   5   6
ATOM      6  C   UNL     1     158.658 167.904 167.312  1.00  0.00     0.042 C 
ATOM      7  O   UNL     1     158.602 168.867 166.502  1.00  0.00    -0.550 OA
ATOM      8  O   UNL     1     159.804 167.122 167.374  1.00  0.00    -0.550 OA
ENDBRANCH   5   6
ENDBRANCH   1   5
TORSDOF 3
ENDMDL
MODEL 7
REMARK VINA RESULT:    -3.221     14.946     16.330
REMARK INTER + INTRA:          -3.942
REMARK INTER:                  -3.796
REMARK INTRA:                  -0.145
REMARK UNBOUND:                -0.156
REMARK SMILES O=C([O-])CCC(=O)[O-]
REMARK SMILES IDX 4 1 2 2 1 3 3 4 5 5 6 6 7 7 8 8
REMARK H PARENT
REMARK Flexibility Score: inf
ROOT
ATOM      1  C   UNL     1     160.747 150.642 168.399  1.00  0.00     0.059 C 
ENDROOT
BRANCH   1   2
ATOM      2  C   UNL     1     159.633 150.252 167.476  1.00  0.00     0.042 C 
ATOM      3  O   UNL     1     159.668 149.147 166.873  1.00  0.00    -0.550 OA
ATOM      4  O   UNL     1     158.577 151.126 167.251  1.00  0.00    -0.550 OA
ENDBRANCH   1   2
BRANCH   1   5
ATOM      5  C   UNL     1     162.004 151.053 167.626  1.00  0.00     0.059 C 
BRANCH   5   6
ATOM      6  C   UNL     1     161.875 152.433 167.055  1.00  0.00     0.042 C 
ATOM      7  O   UNL     1     162.038 152.626 165.822  1.00  0.00    -0.550 OA
ATOM      8  O   UNL     1     161.614 153.511 167.892  1.00  0.00    -0.550 OA
ENDBRANCH   5   6
ENDBRANCH   1   5
TORSDOF 3
ENDMDL
MODEL 8
REMARK VINA RESULT:    -3.210     16.661     17.280
REMARK INTER + INTRA:          -3.929
REMARK INTER:                  -3.816
REMARK INTRA:                  -0.114
REMARK UNBOUND:                -0.156
REMARK SMILES O=C([O-])CCC(=O)[O-]
REMARK SMILES IDX 4 1 2 2 1 3 3 4 5 5 6 6 7 7 8 8
REMARK H PARENT
REMARK Flexibility Score: inf
ROOT
ATOM      1  C   UNL     1     161.953 166.877 150.379  1.00  0.00     0.059 C 
ENDROOT
BRANCH   1   2
ATOM      2  C   UNL     1     161.859 165.517 151.000  1.00  0.00     0.042 C 
ATOM      3  O   UNL     1     161.411 165.384 152.169  1.00  0.00    -0.550 OA
ATOM      4  O   UNL     1     162.304 164.401 150.302  1.00  0.00    -0.550 OA
ENDBRANCH   1   2
BRANCH   1   5
ATOM      5  C   UNL     1     160.694 167.220 149.576  1.00  0.00     0.059 C 
BRANCH   5   6
ATOM      6  C   UNL     1     159.609 167.763 150.456  1.00  0.00     0.042 C 
ATOM      7  O   UNL     1     159.748 168.882 151.015  1.00  0.00    -0.550 OA
ATOM      8  O   UNL     1     158.462 167.014 150.689  1.00  0.00    -0.550 OA
ENDBRANCH   5   6
ENDBRANCH   1   5
TORSDOF 3
ENDMDL
MODEL 9
REMARK VINA RESULT:    -3.166     16.655     17.225
REMARK INTER + INTRA:          -3.877
REMARK INTER:                  -3.732
REMARK INTRA:                  -0.145
REMARK UNBOUND:                -0.156
REMARK SMILES O=C([O-])CCC(=O)[O-]
REMARK SMILES IDX 4 1 2 2 1 3 3 4 5 5 6 6 7 7 8 8
REMARK H PARENT
REMARK Flexibility Score: inf
ROOT
ATOM      1  C   UNL     1     160.884 166.437 149.382  1.00  0.00     0.059 C 
ENDROOT
BRANCH   1   2
ATOM      2  C   UNL     1     160.930 167.792 150.018  1.00  0.00     0.042 C 
ATOM      3  O   UNL     1     162.033 168.375 150.189  1.00  0.00    -0.550 OA
ATOM      4  O   UNL     1     159.758 168.395 150.459  1.00  0.00    -0.550 OA
ENDBRANCH   1   2
BRANCH   1   5
ATOM      5  C   UNL     1     161.546 165.375 150.266  1.00  0.00     0.059 C 
BRANCH   5   6
ATOM      6  C   UNL     1     160.636 164.931 151.370  1.00  0.00     0.042 C 
ATOM      7  O   UNL     1     159.673 164.157 151.125  1.00  0.00    -0.550 OA
ATOM      8  O   UNL     1     160.827 165.403 152.663  1.00  0.00    -0.550 OA
ENDBRANCH   5   6
ENDBRANCH   1   5
TORSDOF 3
ENDMDL
