MODEL 1
REMARK VINA RESULT:    -3.456      0.000      0.000
REMARK INTER + INTRA:          -6.225
REMARK INTER:                  -5.274
REMARK INTRA:                  -0.951
REMARK UNBOUND:                -0.951
REMARK SMILES CC(=O)CCC=C(C)CCC=C(C)CCC=C(C)C
REMARK SMILES IDX 10 1 11 2 12 3 13 4 14 5 15 6 16 7 18 8 17 9 19 10 9 11 7 12
REMARK SMILES IDX 6 13 8 14 5 15 4 16 2 17 3 18 1 19
REMARK H PARENT
REMARK Flexibility Score: inf
ROOT
ATOM      1  C   UNL     1      -3.439 -11.018  -8.710  1.00  0.00     0.032 C 
ENDROOT
BRANCH   1   2
ATOM      2  C   UNL     1      -2.986 -11.795  -7.498  1.00  0.00    -0.028 C 
ATOM      3  C   UNL     1      -2.287 -12.952  -7.543  1.00  0.00    -0.077 C 
ATOM      4  C   UNL     1      -1.938 -13.625  -8.849  1.00  0.00     0.039 C 
BRANCH   3   5
ATOM      5  C   UNL     1      -1.884 -13.622  -6.246  1.00  0.00     0.034 C 
BRANCH   5   6
ATOM      6  C   UNL     1      -1.132 -14.937  -6.493  1.00  0.00     0.032 C 
BRANCH   6   7
ATOM      7  C   UNL     1      -0.737 -15.598  -5.193  1.00  0.00    -0.028 C 
ATOM      8  C   UNL     1       1.574 -14.630  -5.188  1.00  0.00     0.039 C 
ATOM      9  C   UNL     1       0.479 -15.493  -4.610  1.00  0.00    -0.080 C 
ATOM     10  C   UNL     1       0.737 -16.272  -3.347  1.00  0.00     0.039 C 
ENDBRANCH   6   7
ENDBRANCH   5   6
ENDBRANCH   3   5
ENDBRANCH   1   2
BRANCH   1  11
ATOM     11  C   UNL     1      -4.876 -11.375  -9.117  1.00  0.00     0.034 C 
BRANCH  11  12
ATOM     12  C   UNL     1      -5.368 -12.619  -8.407  1.00  0.00    -0.077 C 
ATOM     13  C   UNL     1      -5.264 -13.818  -9.025  1.00  0.00    -0.028 C 
ATOM     14  C   UNL     1      -6.029 -12.469  -7.058  1.00  0.00     0.039 C 
BRANCH  13  15
ATOM     15  C   UNL     1      -5.711 -15.127  -8.426  1.00  0.00     0.035 C 
BRANCH  15  16
ATOM     16  C   UNL     1      -4.507 -15.952  -7.960  1.00  0.00     0.079 C 
BRANCH  16  17
ATOM     17  C   UNL     1      -4.504 -16.092  -6.463  1.00  0.00     0.130 C 
ATOM     18  O   UNL     1      -5.054 -15.247  -5.773  1.00  0.00    -0.300 OA
ATOM     19  C   UNL     1      -3.848 -17.272  -5.813  1.00  0.00     0.087 C 
ENDBRANCH  16  17
ENDBRANCH  15  16
ENDBRANCH  13  15
ENDBRANCH  11  12
ENDBRANCH   1  11
TORSDOF 9
ENDMDL
MODEL 2
REMARK VINA RESULT:    -2.873      1.771      5.765
REMARK INTER + INTRA:          -5.336
REMARK INTER:                  -3.536
REMARK INTRA:                  -1.800
REMARK UNBOUND:                -0.951
REMARK SMILES CC(=O)CCC=C(C)CCC=C(C)CCC=C(C)C
REMARK SMILES IDX 10 1 11 2 12 3 13 4 14 5 15 6 16 7 18 8 17 9 19 10 9 11 7 12
REMARK SMILES IDX 6 13 8 14 5 15 4 16 2 17 3 18 1 19
REMARK H PARENT
REMARK Flexibility Score: inf
ROOT
ATOM      1  C   UNL     1      -5.056 -15.717  -5.854  1.00  0.00     0.032 C 
ENDROOT
BRANCH   1   2
ATOM      2  C   UNL     1      -5.637 -14.730  -6.838  1.00  0.00    -0.028 C 
ATOM      3  C   UNL     1      -5.241 -14.603  -8.126  1.00  0.00    -0.077 C 
ATOM      4  C   UNL     1      -4.106 -15.420  -8.697  1.00  0.00     0.039 C 
BRANCH   3   5
ATOM      5  C   UNL     1      -5.920 -13.579  -9.010  1.00  0.00     0.034 C 
BRANCH   5   6
ATOM      6  C   UNL     1      -5.752 -12.155  -8.465  1.00  0.00     0.032 C 
BRANCH   6   7
ATOM      7  C   UNL     1      -4.537 -11.477  -9.057  1.00  0.00    -0.028 C 
ATOM      8  C   UNL     1      -3.108 -11.864  -7.035  1.00  0.00     0.039 C 
ATOM      9  C   UNL     1      -3.355 -11.315  -8.420  1.00  0.00    -0.080 C 
ATOM     10  C   UNL     1      -2.261 -10.557  -9.123  1.00  0.00     0.039 C 
ENDBRANCH   6   7
ENDBRANCH   5   6
ENDBRANCH   3   5
ENDBRANCH   1   2
BRANCH   1  11
ATOM     11  C   UNL     1      -3.939 -15.092  -5.006  1.00  0.00     0.034 C 
BRANCH  11  12
ATOM     12  C   UNL     1      -2.573 -15.606  -5.411  1.00  0.00    -0.077 C 
ATOM     13  C   UNL     1      -1.542 -14.737  -5.508  1.00  0.00    -0.028 C 
ATOM     14  C   UNL     1      -2.425 -17.066  -5.767  1.00  0.00     0.039 C 
BRANCH  13  15
ATOM     15  C   UNL     1      -0.136 -15.121  -5.896  1.00  0.00     0.035 C 
BRANCH  15  16
ATOM     16  C   UNL     1       0.805 -15.028  -4.691  1.00  0.00     0.079 C 
BRANCH  16  17
ATOM     17  C   UNL     1       0.742 -16.285  -3.867  1.00  0.00     0.130 C 
ATOM     18  O   UNL     1       0.412 -17.338  -4.391  1.00  0.00    -0.300 OA
ATOM     19  C   UNL     1       1.103 -16.257  -2.413  1.00  0.00     0.087 C 
ENDBRANCH  16  17
ENDBRANCH  15  16
ENDBRANCH  13  15
ENDBRANCH  11  12
ENDBRANCH   1  11
TORSDOF 9
ENDMDL
MODEL 3
REMARK VINA RESULT:    -2.708      1.607      4.444
REMARK INTER + INTRA:          -5.084
REMARK INTER:                  -4.136
REMARK INTRA:                  -0.948
REMARK UNBOUND:                -0.951
REMARK SMILES CC(=O)CCC=C(C)CCC=C(C)CCC=C(C)C
REMARK SMILES IDX 10 1 11 2 12 3 13 4 14 5 15 6 16 7 18 8 17 9 19 10 9 11 7 12
REMARK SMILES IDX 6 13 8 14 5 15 4 16 2 17 3 18 1 19
REMARK H PARENT
REMARK Flexibility Score: inf
ROOT
ATOM      1  C   UNL     1      -2.973 -12.279  -9.046  1.00  0.00     0.032 C 
ENDROOT
BRANCH   1   2
ATOM      2  C   UNL     1      -3.566 -13.666  -9.090  1.00  0.00    -0.028 C 
ATOM      3  C   UNL     1      -4.890 -13.939  -9.026  1.00  0.00    -0.077 C 
ATOM      4  C   UNL     1      -5.922 -12.852  -8.839  1.00  0.00     0.039 C 
BRANCH   3   5
ATOM      5  C   UNL     1      -5.351 -15.379  -9.095  1.00  0.00     0.034 C 
BRANCH   5   6
ATOM      6  C   UNL     1      -4.500 -16.294  -8.205  1.00  0.00     0.032 C 
BRANCH   6   7
ATOM      7  C   UNL     1      -4.606 -15.901  -6.749  1.00  0.00    -0.028 C 
ATOM      8  C   UNL     1      -3.676 -18.069  -5.905  1.00  0.00     0.039 C 
ATOM      9  C   UNL     1      -4.268 -16.694  -5.707  1.00  0.00    -0.080 C 
ATOM     10  C   UNL     1      -4.497 -16.179  -4.311  1.00  0.00     0.039 C 
ENDBRANCH   6   7
ENDBRANCH   5   6
ENDBRANCH   3   5
ENDBRANCH   1   2
BRANCH   1  11
ATOM     11  C   UNL     1      -2.668 -11.830  -7.610  1.00  0.00     0.034 C 
BRANCH  11  12
ATOM     12  C   UNL     1      -2.511 -13.011  -6.674  1.00  0.00    -0.077 C 
ATOM     13  C   UNL     1      -1.528 -13.911  -6.905  1.00  0.00    -0.028 C 
ATOM     14  C   UNL     1      -3.508 -13.186  -5.554  1.00  0.00     0.039 C 
BRANCH  13  15
ATOM     15  C   UNL     1      -1.264 -15.124  -6.049  1.00  0.00     0.035 C 
BRANCH  15  16
ATOM     16  C   UNL     1       0.090 -15.006  -5.341  1.00  0.00     0.079 C 
BRANCH  16  17
ATOM     17  C   UNL     1       0.290 -16.146  -4.380  1.00  0.00     0.130 C 
ATOM     18  O   UNL     1      -0.123 -17.260  -4.665  1.00  0.00    -0.300 OA
ATOM     19  C   UNL     1       1.012 -15.927  -3.085  1.00  0.00     0.087 C 
ENDBRANCH  16  17
ENDBRANCH  15  16
ENDBRANCH  13  15
ENDBRANCH  11  12
ENDBRANCH   1  11
TORSDOF 9
ENDMDL
MODEL 4
REMARK VINA RESULT:    -2.473      2.009      5.439
REMARK INTER + INTRA:          -4.726
REMARK INTER:                  -3.713
REMARK INTRA:                  -1.013
REMARK UNBOUND:                -0.951
REMARK SMILES CC(=O)CCC=C(C)CCC=C(C)CCC=C(C)C
REMARK SMILES IDX 10 1 11 2 12 3 13 4 14 5 15 6 16 7 18 8 17 9 19 10 9 11 7 12
REMARK SMILES IDX 6 13 8 14 5 15 4 16 2 17 3 18 1 19
REMARK H PARENT
REMARK Flexibility Score: inf
ROOT
ATOM      1  C   UNL     1      -5.602 -15.351  -5.986  1.00  0.00     0.032 C 
ENDROOT
BRANCH   1   2
ATOM      2  C   UNL     1      -5.645 -14.654  -7.323  1.00  0.00    -0.028 C 
ATOM      3  C   UNL     1      -5.934 -13.344  -7.499  1.00  0.00    -0.077 C 
ATOM      4  C   UNL     1      -6.310 -12.447  -6.344  1.00  0.00     0.039 C 
BRANCH   3   5
ATOM      5  C   UNL     1      -5.929 -12.768  -8.899  1.00  0.00     0.034 C 
BRANCH   5   6
ATOM      6  C   UNL     1      -4.739 -11.826  -9.124  1.00  0.00     0.032 C 
BRANCH   6   7
ATOM      7  C   UNL     1      -3.816 -11.807  -7.927  1.00  0.00    -0.028 C 
ATOM      8  C   UNL     1      -2.522 -13.823  -8.661  1.00  0.00     0.039 C 
ATOM      9  C   UNL     1      -2.837 -12.710  -7.692  1.00  0.00    -0.080 C 
ATOM     10  C   UNL     1      -2.047 -12.593  -6.415  1.00  0.00     0.039 C 
ENDBRANCH   6   7
ENDBRANCH   5   6
ENDBRANCH   3   5
ENDBRANCH   1   2
BRANCH   1  11
ATOM     11  C   UNL     1      -4.487 -16.404  -5.922  1.00  0.00     0.034 C 
BRANCH  11  12
ATOM     12  C   UNL     1      -3.231 -15.852  -5.280  1.00  0.00    -0.077 C 
ATOM     13  C   UNL     1      -2.031 -16.101  -5.853  1.00  0.00    -0.028 C 
ATOM     14  C   UNL     1      -3.354 -15.105  -3.974  1.00  0.00     0.039 C 
BRANCH  13  15
ATOM     15  C   UNL     1      -0.711 -15.607  -5.317  1.00  0.00     0.035 C 
BRANCH  15  16
ATOM     16  C   UNL     1      -0.015 -16.698  -4.496  1.00  0.00     0.079 C 
BRANCH  16  17
ATOM     17  C   UNL     1       0.895 -16.089  -3.465  1.00  0.00     0.130 C 
ATOM     18  O   UNL     1       1.797 -15.343  -3.816  1.00  0.00    -0.300 OA
ATOM     19  C   UNL     1       0.690 -16.375  -2.008  1.00  0.00     0.087 C 
ENDBRANCH  16  17
ENDBRANCH  15  16
ENDBRANCH  13  15
ENDBRANCH  11  12
ENDBRANCH   1  11
TORSDOF 9
ENDMDL
MODEL 5
REMARK VINA RESULT:    -2.355      1.874      5.559
REMARK INTER + INTRA:          -4.545
REMARK INTER:                  -4.501
REMARK INTRA:                  -0.044
REMARK UNBOUND:                -0.951
REMARK SMILES CC(=O)CCC=C(C)CCC=C(C)CCC=C(C)C
REMARK SMILES IDX 10 1 11 2 12 3 13 4 14 5 15 6 16 7 18 8 17 9 19 10 9 11 7 12
REMARK SMILES IDX 6 13 8 14 5 15 4 16 2 17 3 18 1 19
REMARK H PARENT
REMARK Flexibility Score: inf
ROOT
ATOM      1  C   UNL     1      -3.911 -15.799  -8.354  1.00  0.00     0.032 C 
ENDROOT
BRANCH   1   2
ATOM      2  C   UNL     1      -3.730 -14.391  -8.866  1.00  0.00    -0.028 C 
ATOM      3  C   UNL     1      -2.706 -13.574  -8.526  1.00  0.00    -0.077 C 
ATOM      4  C   UNL     1      -1.652 -13.987  -7.527  1.00  0.00     0.039 C 
BRANCH   3   5
ATOM      5  C   UNL     1      -2.639 -12.185  -9.125  1.00  0.00     0.034 C 
BRANCH   5   6
ATOM      6  C   UNL     1      -3.950 -11.414  -8.926  1.00  0.00     0.032 C 
BRANCH   6   7
ATOM      7  C   UNL     1      -4.575 -11.726  -7.585  1.00  0.00    -0.028 C 
ATOM      8  C   UNL     1      -6.527 -12.949  -8.573  1.00  0.00     0.039 C 
ATOM      9  C   UNL     1      -5.742 -12.388  -7.412  1.00  0.00    -0.080 C 
ATOM     10  C   UNL     1      -6.266 -12.560  -6.010  1.00  0.00     0.039 C 
ENDBRANCH   6   7
ENDBRANCH   5   6
ENDBRANCH   3   5
ENDBRANCH   1   2
BRANCH   1  11
ATOM     11  C   UNL     1      -4.613 -15.828  -6.989  1.00  0.00     0.034 C 
BRANCH  11  12
ATOM     12  C   UNL     1      -3.684 -16.301  -5.890  1.00  0.00    -0.077 C 
ATOM     13  C   UNL     1      -2.780 -15.438  -5.372  1.00  0.00    -0.028 C 
ATOM     14  C   UNL     1      -3.747 -17.747  -5.460  1.00  0.00     0.039 C 
BRANCH  13  15
ATOM     15  C   UNL     1      -1.804 -15.782  -4.275  1.00  0.00     0.035 C 
BRANCH  15  16
ATOM     16  C   UNL     1      -0.516 -16.372  -4.858  1.00  0.00     0.079 C 
BRANCH  16  17
ATOM     17  C   UNL     1       0.689 -15.843  -4.130  1.00  0.00     0.130 C 
ATOM     18  O   UNL     1       1.377 -14.975  -4.645  1.00  0.00    -0.300 OA
ATOM     19  C   UNL     1       1.038 -16.360  -2.767  1.00  0.00     0.087 C 
ENDBRANCH  16  17
ENDBRANCH  15  16
ENDBRANCH  13  15
ENDBRANCH  11  12
ENDBRANCH   1  11
TORSDOF 9
ENDMDL
MODEL 6
REMARK VINA RESULT:    -1.697      1.808      4.144
REMARK INTER + INTRA:          -3.541
REMARK INTER:                  -3.385
REMARK INTRA:                  -0.156
REMARK UNBOUND:                -0.951
REMARK SMILES CC(=O)CCC=C(C)CCC=C(C)CCC=C(C)C
REMARK SMILES IDX 10 1 11 2 12 3 13 4 14 5 15 6 16 7 18 8 17 9 19 10 9 11 7 12
REMARK SMILES IDX 6 13 8 14 5 15 4 16 2 17 3 18 1 19
REMARK H PARENT
REMARK Flexibility Score: inf
ROOT
ATOM      1  C   UNL     1      -5.331 -12.077  -8.786  1.00  0.00     0.032 C 
ENDROOT
BRANCH   1   2
ATOM      2  C   UNL     1      -5.446 -12.969  -7.574  1.00  0.00    -0.028 C 
ATOM      3  C   UNL     1      -5.491 -14.321  -7.614  1.00  0.00    -0.077 C 
ATOM      4  C   UNL     1      -5.491 -15.081  -8.918  1.00  0.00     0.039 C 
BRANCH   3   5
ATOM      5  C   UNL     1      -5.595 -15.095  -6.317  1.00  0.00     0.034 C 
BRANCH   5   6
ATOM      6  C   UNL     1      -4.279 -15.803  -5.969  1.00  0.00     0.032 C 
BRANCH   6   7
ATOM      7  C   UNL     1      -4.496 -17.278  -5.720  1.00  0.00    -0.028 C 
ATOM      8  C   UNL     1      -2.054 -17.784  -5.482  1.00  0.00     0.039 C 
ATOM      9  C   UNL     1      -3.509 -18.182  -5.528  1.00  0.00    -0.080 C 
ATOM     10  C   UNL     1      -3.888 -19.630  -5.361  1.00  0.00     0.039 C 
ENDBRANCH   6   7
ENDBRANCH   5   6
ENDBRANCH   3   5
ENDBRANCH   1   2
BRANCH   1  11
ATOM     11  C   UNL     1      -3.869 -11.754  -9.125  1.00  0.00     0.034 C 
BRANCH  11  12
ATOM     12  C   UNL     1      -2.964 -11.921  -7.922  1.00  0.00    -0.077 C 
ATOM     13  C   UNL     1      -2.609 -13.166  -7.529  1.00  0.00    -0.028 C 
ATOM     14  C   UNL     1      -2.549 -10.691  -7.151  1.00  0.00     0.039 C 
BRANCH  13  15
ATOM     15  C   UNL     1      -1.713 -13.467  -6.354  1.00  0.00     0.035 C 
BRANCH  15  16
ATOM     16  C   UNL     1      -0.901 -14.743  -6.602  1.00  0.00     0.079 C 
BRANCH  16  17
ATOM     17  C   UNL     1       0.278 -14.812  -5.671  1.00  0.00     0.130 C 
ATOM     18  O   UNL     1       1.258 -14.112  -5.879  1.00  0.00    -0.300 OA
ATOM     19  C   UNL     1       0.251 -15.719  -4.478  1.00  0.00     0.087 C 
ENDBRANCH  16  17
ENDBRANCH  15  16
ENDBRANCH  13  15
ENDBRANCH  11  12
ENDBRANCH   1  11
TORSDOF 9
ENDMDL
MODEL 7
REMARK VINA RESULT:    -1.604      1.343      2.772
REMARK INTER + INTRA:          -3.399
REMARK INTER:                  -2.102
REMARK INTRA:                  -1.297
REMARK UNBOUND:                -0.951
REMARK SMILES CC(=O)CCC=C(C)CCC=C(C)CCC=C(C)C
REMARK SMILES IDX 10 1 11 2 12 3 13 4 14 5 15 6 16 7 18 8 17 9 19 10 9 11 7 12
REMARK SMILES IDX 6 13 8 14 5 15 4 16 2 17 3 18 1 19
REMARK H PARENT
REMARK Flexibility Score: inf
ROOT
ATOM      1  C   UNL     1      -3.093 -12.505  -5.405  1.00  0.00     0.032 C 
ENDROOT
BRANCH   1   2
ATOM      2  C   UNL     1      -2.782 -13.943  -5.742  1.00  0.00    -0.028 C 
ATOM      3  C   UNL     1      -3.123 -15.005  -4.975  1.00  0.00    -0.077 C 
ATOM      4  C   UNL     1      -3.813 -14.838  -3.642  1.00  0.00     0.039 C 
BRANCH   3   5
ATOM      5  C   UNL     1      -2.759 -16.399  -5.440  1.00  0.00     0.034 C 
BRANCH   5   6
ATOM      6  C   UNL     1      -1.260 -16.527  -5.741  1.00  0.00     0.032 C 
BRANCH   6   7
ATOM      7  C   UNL     1      -0.454 -16.677  -4.471  1.00  0.00    -0.028 C 
ATOM      8  C   UNL     1       1.108 -14.797  -5.022  1.00  0.00     0.039 C 
ATOM      9  C   UNL     1       0.625 -15.929  -4.148  1.00  0.00    -0.080 C 
ATOM     10  C   UNL     1       1.363 -16.249  -2.875  1.00  0.00     0.039 C 
ENDBRANCH   6   7
ENDBRANCH   5   6
ENDBRANCH   3   5
ENDBRANCH   1   2
BRANCH   1  11
ATOM     11  C   UNL     1      -2.870 -11.573  -6.604  1.00  0.00     0.034 C 
BRANCH  11  12
ATOM     12  C   UNL     1      -3.539 -12.100  -7.856  1.00  0.00    -0.077 C 
ATOM     13  C   UNL     1      -4.889 -12.101  -7.935  1.00  0.00    -0.028 C 
ATOM     14  C   UNL     1      -2.674 -12.680  -8.950  1.00  0.00     0.039 C 
BRANCH  13  15
ATOM     15  C   UNL     1      -5.674 -12.593  -9.124  1.00  0.00     0.035 C 
BRANCH  15  16
ATOM     16  C   UNL     1      -6.450 -13.867  -8.775  1.00  0.00     0.079 C 
BRANCH  16  17
ATOM     17  C   UNL     1      -5.626 -14.768  -7.896  1.00  0.00     0.130 C 
ATOM     18  O   UNL     1      -5.788 -14.750  -6.685  1.00  0.00    -0.300 OA
ATOM     19  C   UNL     1      -4.622 -15.703  -8.499  1.00  0.00     0.087 C 
ENDBRANCH  16  17
ENDBRANCH  15  16
ENDBRANCH  13  15
ENDBRANCH  11  12
ENDBRANCH   1  11
TORSDOF 9
ENDMDL
MODEL 8
REMARK VINA RESULT:    -0.544      1.574      3.708
REMARK INTER + INTRA:          -1.781
REMARK INTER:                  -1.051
REMARK INTRA:                  -0.730
REMARK UNBOUND:                -0.951
REMARK SMILES CC(=O)CCC=C(C)CCC=C(C)CCC=C(C)C
REMARK SMILES IDX 10 1 11 2 12 3 13 4 14 5 15 6 16 7 18 8 17 9 19 10 9 11 7 12
REMARK SMILES IDX 6 13 8 14 5 15 4 16 2 17 3 18 1 19
REMARK H PARENT
REMARK Flexibility Score: inf
ROOT
ATOM      1  C   UNL     1      -4.092 -16.584  -5.791  1.00  0.00     0.032 C 
ENDROOT
BRANCH   1   2
ATOM      2  C   UNL     1      -2.769 -16.014  -6.241  1.00  0.00    -0.028 C 
ATOM      3  C   UNL     1      -2.153 -14.953  -5.671  1.00  0.00    -0.077 C 
ATOM      4  C   UNL     1      -2.782 -14.180  -4.536  1.00  0.00     0.039 C 
BRANCH   3   5
ATOM      5  C   UNL     1      -0.818 -14.493  -6.216  1.00  0.00     0.034 C 
BRANCH   5   6
ATOM      6  C   UNL     1       0.320 -14.733  -5.216  1.00  0.00     0.032 C 
BRANCH   6   7
ATOM      7  C   UNL     1       0.343 -16.168  -4.741  1.00  0.00    -0.028 C 
ATOM      8  C   UNL     1       1.132 -15.586  -2.435  1.00  0.00     0.039 C 
ATOM      9  C   UNL     1       0.730 -16.569  -3.509  1.00  0.00    -0.080 C 
ATOM     10  C   UNL     1       0.761 -18.045  -3.213  1.00  0.00     0.039 C 
ENDBRANCH   6   7
ENDBRANCH   5   6
ENDBRANCH   3   5
ENDBRANCH   1   2
BRANCH   1  11
ATOM     11  C   UNL     1      -5.240 -15.580  -5.970  1.00  0.00     0.034 C 
BRANCH  11  12
ATOM     12  C   UNL     1      -5.215 -14.938  -7.341  1.00  0.00    -0.077 C 
ATOM     13  C   UNL     1      -5.649 -13.665  -7.483  1.00  0.00    -0.028 C 
ATOM     14  C   UNL     1      -4.777 -15.770  -8.522  1.00  0.00     0.039 C 
BRANCH  13  15
ATOM     15  C   UNL     1      -5.673 -12.913  -8.790  1.00  0.00     0.035 C 
BRANCH  15  16
ATOM     16  C   UNL     1      -4.870 -11.612  -8.683  1.00  0.00     0.079 C 
BRANCH  16  17
ATOM     17  C   UNL     1      -3.422 -11.901  -8.396  1.00  0.00     0.130 C 
ATOM     18  O   UNL     1      -2.828 -11.248  -7.552  1.00  0.00    -0.300 OA
ATOM     19  C   UNL     1      -2.710 -13.000  -9.125  1.00  0.00     0.087 C 
ENDBRANCH  16  17
ENDBRANCH  15  16
ENDBRANCH  13  15
ENDBRANCH  11  12
ENDBRANCH   1  11
TORSDOF 9
ENDMDL
