MODEL 1
REMARK VINA RESULT:    -4.469      0.000      0.000
REMARK INTER + INTRA:          -5.534
REMARK INTER:                  -5.252
REMARK INTRA:                  -0.282
REMARK UNBOUND:                -0.282
REMARK SMILES COc1cc2ccc(=O)oc2c(OC)c1OC
REMARK SMILES IDX 3 1 15 2 12 3 11 4 5 5 4 6 6 7 7 8 8 9 9 10 10 11 2 12 1 13
REMARK SMILES IDX 16 14 17 15 13 16 14 17
REMARK H PARENT
REMARK Flexibility Score: inf
ROOT
ATOM      1  C   UNL     1      24.307   8.667 -17.509  1.00  0.00     0.165 A 
ATOM      2  C   UNL     1      23.061   9.120 -18.013  1.00  0.00     0.207 A 
ATOM      3  C   UNL     1      22.515   8.541 -19.175  1.00  0.00     0.208 A 
ATOM      4  C   UNL     1      23.211   7.505 -19.841  1.00  0.00     0.184 A 
ATOM      5  C   UNL     1      24.450   7.060 -19.333  1.00  0.00     0.025 A 
ATOM      6  C   UNL     1      24.988   7.637 -18.181  1.00  0.00     0.062 A 
ATOM      7  C   UNL     1      25.125   6.033 -20.005  1.00  0.00     0.020 A 
ATOM      8  C   UNL     1      24.562   5.479 -21.152  1.00  0.00     0.094 A 
ATOM      9  C   UNL     1      23.334   5.965 -21.601  1.00  0.00     0.336 A 
ATOM     10  O   UNL     1      22.804   5.480 -22.635  1.00  0.00    -0.246 OA
ATOM     11  O   UNL     1      22.716   6.940 -20.941  1.00  0.00    -0.419 OA
ENDROOT
BRANCH   1  12
ATOM     12  O   UNL     1      24.848   9.247 -16.351  1.00  0.00    -0.493 OA
ATOM     13  C   UNL     1      24.830   8.660 -15.053  1.00  0.00     0.278 C 
ENDBRANCH   1  12
BRANCH   2  14
ATOM     14  O   UNL     1      22.305  10.145 -17.410  1.00  0.00    -0.490 OA
ATOM     15  C   UNL     1      21.493  10.034 -16.247  1.00  0.00     0.278 C 
ENDBRANCH   2  14
BRANCH   3  16
ATOM     16  O   UNL     1      21.274   9.045 -19.612  1.00  0.00    -0.490 OA
ATOM     17  C   UNL     1      19.990   8.496 -19.332  1.00  0.00     0.278 C 
ENDBRANCH   3  16
TORSDOF 3
ENDMDL
MODEL 2
REMARK VINA RESULT:    -4.394     21.488     22.708
REMARK INTER + INTRA:          -5.446
REMARK INTER:                  -5.156
REMARK INTRA:                  -0.290
REMARK UNBOUND:                -0.282
REMARK SMILES COc1cc2ccc(=O)oc2c(OC)c1OC
REMARK SMILES IDX 3 1 15 2 12 3 11 4 5 5 4 6 6 7 7 8 8 9 9 10 10 11 2 12 1 13
REMARK SMILES IDX 16 14 17 15 13 16 14 17
REMARK H PARENT
REMARK Flexibility Score: inf
ROOT
ATOM      1  C   UNL     1      11.314  -7.017 -11.012  1.00  0.00     0.165 A 
ATOM      2  C   UNL     1      10.040  -7.387 -11.515  1.00  0.00     0.207 A 
ATOM      3  C   UNL     1       8.906  -7.330 -10.682  1.00  0.00     0.208 A 
ATOM      4  C   UNL     1       9.038  -6.901  -9.340  1.00  0.00     0.184 A 
ATOM      5  C   UNL     1      10.308  -6.534  -8.847  1.00  0.00     0.025 A 
ATOM      6  C   UNL     1      11.430  -6.594  -9.676  1.00  0.00     0.062 A 
ATOM      7  C   UNL     1      10.419  -6.112  -7.517  1.00  0.00     0.020 A 
ATOM      8  C   UNL     1       9.281  -6.065  -6.715  1.00  0.00     0.094 A 
ATOM      9  C   UNL     1       8.055  -6.441  -7.265  1.00  0.00     0.336 A 
ATOM     10  O   UNL     1       7.012  -6.407  -6.560  1.00  0.00    -0.246 OA
ATOM     11  O   UNL     1       7.981  -6.837  -8.532  1.00  0.00    -0.419 OA
ENDROOT
BRANCH   1  12
ATOM     12  O   UNL     1      12.442  -7.076 -11.846  1.00  0.00    -0.493 OA
ATOM     13  C   UNL     1      13.387  -8.142 -11.872  1.00  0.00     0.278 C 
ENDBRANCH   1  12
BRANCH   2  14
ATOM     14  O   UNL     1       9.824  -7.824 -12.837  1.00  0.00    -0.490 OA
ATOM     15  C   UNL     1      10.073  -9.125 -13.356  1.00  0.00     0.278 C 
ENDBRANCH   2  14
BRANCH   3  16
ATOM     16  O   UNL     1       7.677  -7.713 -11.255  1.00  0.00    -0.490 OA
ATOM     17  C   UNL     1       7.028  -8.971 -11.105  1.00  0.00     0.278 C 
ENDBRANCH   3  16
TORSDOF 3
ENDMDL
MODEL 3
REMARK VINA RESULT:    -4.303     15.312     16.698
REMARK INTER + INTRA:          -5.339
REMARK INTER:                  -5.054
REMARK INTRA:                  -0.285
REMARK UNBOUND:                -0.282
REMARK SMILES COc1cc2ccc(=O)oc2c(OC)c1OC
REMARK SMILES IDX 3 1 15 2 12 3 11 4 5 5 4 6 6 7 7 8 8 9 9 10 10 11 2 12 1 13
REMARK SMILES IDX 16 14 17 15 13 16 14 17
REMARK H PARENT
REMARK Flexibility Score: inf
ROOT
ATOM      1  C   UNL     1      22.894  -5.621 -10.819  1.00  0.00     0.165 A 
ATOM      2  C   UNL     1      22.572  -4.284 -10.469  1.00  0.00     0.207 A 
ATOM      3  C   UNL     1      22.968  -3.764  -9.222  1.00  0.00     0.208 A 
ATOM      4  C   UNL     1      23.690  -4.576  -8.317  1.00  0.00     0.184 A 
ATOM      5  C   UNL     1      24.007  -5.904  -8.671  1.00  0.00     0.025 A 
ATOM      6  C   UNL     1      23.612  -6.417  -9.909  1.00  0.00     0.062 A 
ATOM      7  C   UNL     1      24.723  -6.693  -7.762  1.00  0.00     0.020 A 
ATOM      8  C   UNL     1      25.102  -6.153  -6.536  1.00  0.00     0.094 A 
ATOM      9  C   UNL     1      24.757  -4.832  -6.247  1.00  0.00     0.336 A 
ATOM     10  O   UNL     1      25.088  -4.321  -5.146  1.00  0.00    -0.246 OA
ATOM     11  O   UNL     1      24.077  -4.107  -7.131  1.00  0.00    -0.419 OA
ENDROOT
BRANCH   1  12
ATOM     12  O   UNL     1      22.497  -6.137 -12.063  1.00  0.00    -0.493 OA
ATOM     13  C   UNL     1      21.392  -7.011 -12.273  1.00  0.00     0.278 C 
ENDBRANCH   1  12
BRANCH   2  14
ATOM     14  O   UNL     1      21.857  -3.412 -11.313  1.00  0.00    -0.490 OA
ATOM     15  C   UNL     1      20.445  -3.357 -11.483  1.00  0.00     0.278 C 
ENDBRANCH   2  14
BRANCH   3  16
ATOM     16  O   UNL     1      22.610  -2.429  -8.950  1.00  0.00    -0.490 OA
ATOM     17  C   UNL     1      21.558  -1.991  -8.097  1.00  0.00     0.278 C 
ENDBRANCH   3  16
TORSDOF 3
ENDMDL
MODEL 4
REMARK VINA RESULT:    -4.285     15.282     17.600
REMARK INTER + INTRA:          -5.319
REMARK INTER:                  -5.055
REMARK INTRA:                  -0.263
REMARK UNBOUND:                -0.282
REMARK SMILES COc1cc2ccc(=O)oc2c(OC)c1OC
REMARK SMILES IDX 3 1 15 2 12 3 11 4 5 5 4 6 6 7 7 8 8 9 9 10 10 11 2 12 1 13
REMARK SMILES IDX 16 14 17 15 13 16 14 17
REMARK H PARENT
REMARK Flexibility Score: inf
ROOT
ATOM      1  C   UNL     1       6.743   1.526 -15.126  1.00  0.00     0.165 A 
ATOM      2  C   UNL     1       7.677   2.509 -15.543  1.00  0.00     0.207 A 
ATOM      3  C   UNL     1       7.749   2.888 -16.897  1.00  0.00     0.208 A 
ATOM      4  C   UNL     1       6.886   2.288 -17.844  1.00  0.00     0.184 A 
ATOM      5  C   UNL     1       5.959   1.312 -17.422  1.00  0.00     0.025 A 
ATOM      6  C   UNL     1       5.892   0.938 -16.078  1.00  0.00     0.062 A 
ATOM      7  C   UNL     1       5.113   0.729 -18.373  1.00  0.00     0.020 A 
ATOM      8  C   UNL     1       5.205   1.123 -19.706  1.00  0.00     0.094 A 
ATOM      9  C   UNL     1       6.143   2.094 -20.056  1.00  0.00     0.336 A 
ATOM     10  O   UNL     1       6.245   2.467 -21.254  1.00  0.00    -0.246 OA
ATOM     11  O   UNL     1       6.933   2.630 -19.130  1.00  0.00    -0.419 OA
ENDROOT
BRANCH   1  12
ATOM     12  O   UNL     1       6.676   1.150 -13.775  1.00  0.00    -0.493 OA
ATOM     13  C   UNL     1       5.892   1.801 -12.780  1.00  0.00     0.278 C 
ENDBRANCH   1  12
BRANCH   2  14
ATOM     14  O   UNL     1       8.571   3.153 -14.664  1.00  0.00    -0.490 OA
ATOM     15  C   UNL     1       9.739   2.594 -14.075  1.00  0.00     0.278 C 
ENDBRANCH   2  14
BRANCH   3  16
ATOM     16  O   UNL     1       8.702   3.870 -17.231  1.00  0.00    -0.490 OA
ATOM     17  C   UNL     1       9.994   3.643 -17.785  1.00  0.00     0.278 C 
ENDBRANCH   3  16
TORSDOF 3
ENDMDL
MODEL 5
REMARK VINA RESULT:    -4.279     14.463     15.806
REMARK INTER + INTRA:          -5.311
REMARK INTER:                  -5.031
REMARK INTRA:                  -0.280
REMARK UNBOUND:                -0.282
REMARK SMILES COc1cc2ccc(=O)oc2c(OC)c1OC
REMARK SMILES IDX 3 1 15 2 12 3 11 4 5 5 4 6 6 7 7 8 8 9 9 10 10 11 2 12 1 13
REMARK SMILES IDX 16 14 17 15 13 16 14 17
REMARK H PARENT
REMARK Flexibility Score: inf
ROOT
ATOM      1  C   UNL     1      22.204  -2.902  -6.524  1.00  0.00     0.165 A 
ATOM      2  C   UNL     1      22.643  -2.616  -7.843  1.00  0.00     0.207 A 
ATOM      3  C   UNL     1      21.705  -2.376  -8.865  1.00  0.00     0.208 A 
ATOM      4  C   UNL     1      20.321  -2.418  -8.576  1.00  0.00     0.184 A 
ATOM      5  C   UNL     1      19.892  -2.702  -7.263  1.00  0.00     0.025 A 
ATOM      6  C   UNL     1      20.825  -2.941  -6.252  1.00  0.00     0.062 A 
ATOM      7  C   UNL     1      18.518  -2.740  -6.995  1.00  0.00     0.020 A 
ATOM      8  C   UNL     1      17.612  -2.499  -8.024  1.00  0.00     0.094 A 
ATOM      9  C   UNL     1      18.103  -2.224  -9.301  1.00  0.00     0.336 A 
ATOM     10  O   UNL     1      17.304  -2.001 -10.249  1.00  0.00    -0.246 OA
ATOM     11  O   UNL     1      19.413  -2.194  -9.525  1.00  0.00    -0.419 OA
ENDROOT
BRANCH   1  12
ATOM     12  O   UNL     1      23.143  -3.142  -5.509  1.00  0.00    -0.493 OA
ATOM     13  C   UNL     1      23.626  -4.426  -5.125  1.00  0.00     0.278 C 
ENDBRANCH   1  12
BRANCH   2  14
ATOM     14  O   UNL     1      24.002  -2.555  -8.213  1.00  0.00    -0.490 OA
ATOM     15  C   UNL     1      24.846  -3.653  -8.538  1.00  0.00     0.278 C 
ENDBRANCH   2  14
BRANCH   3  16
ATOM     16  O   UNL     1      22.220  -2.099 -10.147  1.00  0.00    -0.490 OA
ATOM     17  C   UNL     1      22.289  -3.003 -11.246  1.00  0.00     0.278 C 
ENDBRANCH   3  16
TORSDOF 3
ENDMDL
MODEL 6
REMARK VINA RESULT:    -4.255     15.407     17.570
REMARK INTER + INTRA:          -5.283
REMARK INTER:                  -5.101
REMARK INTRA:                  -0.182
REMARK UNBOUND:                -0.282
REMARK SMILES COc1cc2ccc(=O)oc2c(OC)c1OC
REMARK SMILES IDX 3 1 15 2 12 3 11 4 5 5 4 6 6 7 7 8 8 9 9 10 10 11 2 12 1 13
REMARK SMILES IDX 16 14 17 15 13 16 14 17
REMARK H PARENT
REMARK Flexibility Score: inf
ROOT
ATOM      1  C   UNL     1      14.990   4.004  -6.511  1.00  0.00     0.165 A 
ATOM      2  C   UNL     1      14.117   3.246  -7.333  1.00  0.00     0.207 A 
ATOM      3  C   UNL     1      12.890   2.781  -6.821  1.00  0.00     0.208 A 
ATOM      4  C   UNL     1      12.527   3.071  -5.486  1.00  0.00     0.184 A 
ATOM      5  C   UNL     1      13.400   3.826  -4.674  1.00  0.00     0.025 A 
ATOM      6  C   UNL     1      14.616   4.285  -5.185  1.00  0.00     0.062 A 
ATOM      7  C   UNL     1      13.024   4.104  -3.355  1.00  0.00     0.020 A 
ATOM      8  C   UNL     1      11.805   3.632  -2.875  1.00  0.00     0.094 A 
ATOM      9  C   UNL     1      10.988   2.892  -3.730  1.00  0.00     0.336 A 
ATOM     10  O   UNL     1       9.881   2.454  -3.320  1.00  0.00    -0.246 OA
ATOM     11  O   UNL     1      11.371   2.644  -4.979  1.00  0.00    -0.419 OA
ENDROOT
BRANCH   1  12
ATOM     12  O   UNL     1      16.213   4.465  -7.024  1.00  0.00    -0.493 OA
ATOM     13  C   UNL     1      16.359   5.501  -7.990  1.00  0.00     0.278 C 
ENDBRANCH   1  12
BRANCH   2  14
ATOM     14  O   UNL     1      14.404   2.914  -8.672  1.00  0.00    -0.490 OA
ATOM     15  C   UNL     1      15.207   1.832  -9.128  1.00  0.00     0.278 C 
ENDBRANCH   2  14
BRANCH   3  16
ATOM     16  O   UNL     1      12.079   2.035  -7.700  1.00  0.00    -0.490 OA
ATOM     17  C   UNL     1      10.957   2.516  -8.432  1.00  0.00     0.278 C 
ENDBRANCH   3  16
TORSDOF 3
ENDMDL
MODEL 7
REMARK VINA RESULT:    -4.239     21.980     23.414
REMARK INTER + INTRA:          -5.264
REMARK INTER:                  -5.065
REMARK INTRA:                  -0.199
REMARK UNBOUND:                -0.282
REMARK SMILES COc1cc2ccc(=O)oc2c(OC)c1OC
REMARK SMILES IDX 3 1 15 2 12 3 11 4 5 5 4 6 6 7 7 8 8 9 9 10 10 11 2 12 1 13
REMARK SMILES IDX 16 14 17 15 13 16 14 17
REMARK H PARENT
REMARK Flexibility Score: inf
ROOT
ATOM      1  C   UNL     1       8.283  -8.287 -10.480  1.00  0.00     0.165 A 
ATOM      2  C   UNL     1       9.403  -7.450 -10.725  1.00  0.00     0.207 A 
ATOM      3  C   UNL     1       9.893  -6.607  -9.709  1.00  0.00     0.208 A 
ATOM      4  C   UNL     1       9.268  -6.594  -8.441  1.00  0.00     0.184 A 
ATOM      5  C   UNL     1       8.155  -7.429  -8.203  1.00  0.00     0.025 A 
ATOM      6  C   UNL     1       7.672  -8.263  -9.214  1.00  0.00     0.062 A 
ATOM      7  C   UNL     1       7.550  -7.403  -6.941  1.00  0.00     0.020 A 
ATOM      8  C   UNL     1       8.054  -6.560  -5.955  1.00  0.00     0.094 A 
ATOM      9  C   UNL     1       9.158  -5.760  -6.255  1.00  0.00     0.336 A 
ATOM     10  O   UNL     1       9.633  -4.990  -5.381  1.00  0.00    -0.246 OA
ATOM     11  O   UNL     1       9.712  -5.807  -7.463  1.00  0.00    -0.419 OA
ENDROOT
BRANCH   1  12
ATOM     12  O   UNL     1       7.797  -9.125 -11.495  1.00  0.00    -0.493 OA
ATOM     13  C   UNL     1       7.116  -8.685 -12.666  1.00  0.00     0.278 C 
ENDBRANCH   1  12
BRANCH   2  14
ATOM     14  O   UNL     1      10.081  -7.403 -11.959  1.00  0.00    -0.490 OA
ATOM     15  C   UNL     1      11.033  -8.343 -12.445  1.00  0.00     0.278 C 
ENDBRANCH   2  14
BRANCH   3  16
ATOM     16  O   UNL     1      11.007  -5.807 -10.032  1.00  0.00    -0.490 OA
ATOM     17  C   UNL     1      12.373  -6.109  -9.763  1.00  0.00     0.278 C 
ENDBRANCH   3  16
TORSDOF 3
ENDMDL
MODEL 8
REMARK VINA RESULT:    -4.198      9.106     11.233
REMARK INTER + INTRA:          -5.217
REMARK INTER:                  -4.928
REMARK INTRA:                  -0.288
REMARK UNBOUND:                -0.282
REMARK SMILES COc1cc2ccc(=O)oc2c(OC)c1OC
REMARK SMILES IDX 3 1 15 2 12 3 11 4 5 5 4 6 6 7 7 8 8 9 9 10 10 11 2 12 1 13
REMARK SMILES IDX 16 14 17 15 13 16 14 17
REMARK H PARENT
REMARK Flexibility Score: inf
ROOT
ATOM      1  C   UNL     1      13.993   2.456 -16.745  1.00  0.00     0.165 A 
ATOM      2  C   UNL     1      14.761   3.649 -16.720  1.00  0.00     0.207 A 
ATOM      3  C   UNL     1      14.343   4.775 -17.454  1.00  0.00     0.208 A 
ATOM      4  C   UNL     1      13.154   4.718 -18.218  1.00  0.00     0.184 A 
ATOM      5  C   UNL     1      12.395   3.528 -18.237  1.00  0.00     0.025 A 
ATOM      6  C   UNL     1      12.814   2.413 -17.509  1.00  0.00     0.062 A 
ATOM      7  C   UNL     1      11.220   3.490 -18.998  1.00  0.00     0.020 A 
ATOM      8  C   UNL     1      10.830   4.618 -19.715  1.00  0.00     0.094 A 
ATOM      9  C   UNL     1      11.625   5.763 -19.652  1.00  0.00     0.336 A 
ATOM     10  O   UNL     1      11.294   6.796 -20.290  1.00  0.00    -0.246 OA
ATOM     11  O   UNL     1      12.736   5.770 -18.920  1.00  0.00    -0.419 OA
ENDROOT
BRANCH   1  12
ATOM     12  O   UNL     1      14.415   1.335 -16.013  1.00  0.00    -0.493 OA
ATOM     13  C   UNL     1      13.849   0.900 -14.780  1.00  0.00     0.278 C 
ENDBRANCH   1  12
BRANCH   2  14
ATOM     14  O   UNL     1      15.956   3.788 -15.986  1.00  0.00    -0.490 OA
ATOM     15  C   UNL     1      16.075   4.026 -14.588  1.00  0.00     0.278 C 
ENDBRANCH   2  14
BRANCH   3  16
ATOM     16  O   UNL     1      15.160   5.921 -17.378  1.00  0.00    -0.490 OA
ATOM     17  C   UNL     1      14.938   7.067 -16.562  1.00  0.00     0.278 C 
ENDBRANCH   3  16
TORSDOF 3
ENDMDL
