MODEL 1
REMARK VINA RESULT:    -5.044      0.000      0.000
REMARK INTER + INTRA:          -5.918
REMARK INTER:                  -5.781
REMARK INTRA:                  -0.137
REMARK UNBOUND:                -0.137
REMARK SMILES O=C([O-])C=Cc1ccc(O)cc1
REMARK SMILES IDX 6 1 7 2 12 3 8 4 11 5 9 6 5 7 4 8 2 9 1 10 3 11 10 12
REMARK H PARENT 10 13
REMARK Flexibility Score: inf
ROOT
ATOM      1  C   UNL     1     -12.230 -46.713  -3.166  1.00  0.00    -0.025 A 
ATOM      2  C   UNL     1     -12.608 -47.933  -3.752  1.00  0.00     0.012 A 
ATOM      3  C   UNL     1     -12.748 -46.378  -1.899  1.00  0.00     0.012 A 
ATOM      4  C   UNL     1     -13.501 -48.790  -3.101  1.00  0.00     0.047 A 
ATOM      5  C   UNL     1     -13.641 -47.237  -1.251  1.00  0.00     0.047 A 
ATOM      6  C   UNL     1     -14.021 -48.444  -1.851  1.00  0.00     0.115 A 
ENDROOT
BRANCH   1   7
ATOM      7  C   UNL     1     -11.271 -45.843  -3.893  1.00  0.00     0.010 C 
ATOM      8  C   UNL     1     -10.183 -45.300  -3.330  1.00  0.00     0.025 C 
BRANCH   8   9
ATOM      9  C   UNL     1      -9.260 -44.432  -4.080  1.00  0.00     0.064 C 
ATOM     10  O   UNL     1      -8.358 -44.916  -4.812  1.00  0.00    -0.545 OA
ATOM     11  O   UNL     1      -9.386 -43.052  -3.975  1.00  0.00    -0.545 OA
ENDBRANCH   8   9
ENDBRANCH   1   7
BRANCH   6  12
ATOM     12  O   UNL     1     -14.912 -49.306  -1.214  1.00  0.00    -0.508 OA
ATOM     13  H   UNL     1     -14.735 -50.302  -1.157  1.00  0.00     0.293 HD
ENDBRANCH   6  12
TORSDOF 3
ENDMDL
MODEL 2
REMARK VINA RESULT:    -5.027      4.147      6.258
REMARK INTER + INTRA:          -5.898
REMARK INTER:                  -5.757
REMARK INTRA:                  -0.142
REMARK UNBOUND:                -0.137
REMARK SMILES O=C([O-])C=Cc1ccc(O)cc1
REMARK SMILES IDX 6 1 7 2 12 3 8 4 11 5 9 6 5 7 4 8 2 9 1 10 3 11 10 12
REMARK H PARENT 10 13
REMARK Flexibility Score: inf
ROOT
ATOM      1  C   UNL     1     -15.556 -46.933  -3.012  1.00  0.00    -0.025 A 
ATOM      2  C   UNL     1     -15.063 -46.308  -4.169  1.00  0.00     0.012 A 
ATOM      3  C   UNL     1     -15.157 -48.255  -2.730  1.00  0.00     0.012 A 
ATOM      4  C   UNL     1     -14.211 -46.993  -5.041  1.00  0.00     0.047 A 
ATOM      5  C   UNL     1     -14.305 -48.938  -3.604  1.00  0.00     0.047 A 
ATOM      6  C   UNL     1     -13.832 -48.308  -4.763  1.00  0.00     0.115 A 
ENDROOT
BRANCH   1   7
ATOM      7  C   UNL     1     -16.450 -46.160  -2.112  1.00  0.00     0.010 C 
ATOM      8  C   UNL     1     -17.515 -45.466  -2.536  1.00  0.00     0.025 C 
BRANCH   8   9
ATOM      9  C   UNL     1     -18.372 -44.701  -1.615  1.00  0.00     0.064 C 
ATOM     10  O   UNL     1     -19.247 -45.271  -0.912  1.00  0.00    -0.545 OA
ATOM     11  O   UNL     1     -18.214 -43.324  -1.522  1.00  0.00    -0.545 OA
ENDBRANCH   8   9
ENDBRANCH   1   7
BRANCH   6  12
ATOM     12  O   UNL     1     -12.984 -48.981  -5.641  1.00  0.00    -0.508 OA
ATOM     13  H   UNL     1     -13.347 -49.562  -6.387  1.00  0.00     0.293 HD
ENDBRANCH   6  12
TORSDOF 3
ENDMDL
MODEL 3
REMARK VINA RESULT:    -4.943      6.401      8.641
REMARK INTER + INTRA:          -5.802
REMARK INTER:                  -5.654
REMARK INTRA:                  -0.149
REMARK UNBOUND:                -0.137
REMARK SMILES O=C([O-])C=Cc1ccc(O)cc1
REMARK SMILES IDX 6 1 7 2 12 3 8 4 11 5 9 6 5 7 4 8 2 9 1 10 3 11 10 12
REMARK H PARENT 10 13
REMARK Flexibility Score: inf
ROOT
ATOM      1  C   UNL     1     -14.379 -44.117   2.830  1.00  0.00    -0.025 A 
ATOM      2  C   UNL     1     -13.742 -43.597   1.690  1.00  0.00     0.012 A 
ATOM      3  C   UNL     1     -13.744 -43.987   4.082  1.00  0.00     0.012 A 
ATOM      4  C   UNL     1     -12.489 -42.985   1.791  1.00  0.00     0.047 A 
ATOM      5  C   UNL     1     -12.491 -43.375   4.179  1.00  0.00     0.047 A 
ATOM      6  C   UNL     1     -11.860 -42.874   3.033  1.00  0.00     0.115 A 
ENDROOT
BRANCH   1   7
ATOM      7  C   UNL     1     -15.714 -44.748   2.673  1.00  0.00     0.010 C 
ATOM      8  C   UNL     1     -16.571 -44.445   1.687  1.00  0.00     0.025 C 
BRANCH   8   9
ATOM      9  C   UNL     1     -17.891 -45.084   1.571  1.00  0.00     0.064 C 
ATOM     10  O   UNL     1     -18.949 -44.401   1.566  1.00  0.00    -0.545 OA
ATOM     11  O   UNL     1     -17.973 -46.468   1.467  1.00  0.00    -0.545 OA
ENDBRANCH   8   9
ENDBRANCH   1   7
BRANCH   6  12
ATOM     12  O   UNL     1     -10.610 -42.263   3.119  1.00  0.00    -0.508 OA
ATOM     13  H   UNL     1      -9.754 -42.786   2.973  1.00  0.00     0.293 HD
ENDBRANCH   6  12
TORSDOF 3
ENDMDL
MODEL 4
REMARK VINA RESULT:    -4.898      3.409      5.914
REMARK INTER + INTRA:          -5.750
REMARK INTER:                  -5.613
REMARK INTRA:                  -0.137
REMARK UNBOUND:                -0.137
REMARK SMILES O=C([O-])C=Cc1ccc(O)cc1
REMARK SMILES IDX 6 1 7 2 12 3 8 4 11 5 9 6 5 7 4 8 2 9 1 10 3 11 10 12
REMARK H PARENT 10 13
REMARK Flexibility Score: inf
ROOT
ATOM      1  C   UNL     1     -14.304 -48.306  -2.053  1.00  0.00    -0.025 A 
ATOM      2  C   UNL     1     -15.013 -48.944  -3.085  1.00  0.00     0.012 A 
ATOM      3  C   UNL     1     -13.044 -47.743  -2.339  1.00  0.00     0.012 A 
ATOM      4  C   UNL     1     -14.467 -49.041  -4.369  1.00  0.00     0.047 A 
ATOM      5  C   UNL     1     -12.502 -47.842  -3.625  1.00  0.00     0.047 A 
ATOM      6  C   UNL     1     -13.211 -48.493  -4.642  1.00  0.00     0.115 A 
ENDROOT
BRANCH   1   7
ATOM      7  C   UNL     1     -14.931 -48.220  -0.709  1.00  0.00     0.010 C 
ATOM      8  C   UNL     1     -15.449 -47.093  -0.199  1.00  0.00     0.025 C 
BRANCH   8   9
ATOM      9  C   UNL     1     -16.051 -47.044   1.143  1.00  0.00     0.064 C 
ATOM     10  O   UNL     1     -15.761 -47.899   2.021  1.00  0.00    -0.545 OA
ATOM     11  O   UNL     1     -16.960 -46.037   1.446  1.00  0.00    -0.545 OA
ENDBRANCH   8   9
ENDBRANCH   1   7
BRANCH   6  12
ATOM     12  O   UNL     1     -12.678 -48.599  -5.925  1.00  0.00    -0.508 OA
ATOM     13  H   UNL     1     -12.492 -47.778  -6.490  1.00  0.00     0.293 HD
ENDBRANCH   6  12
TORSDOF 3
ENDMDL
MODEL 5
REMARK VINA RESULT:    -4.886      2.789      3.168
REMARK INTER + INTRA:          -5.737
REMARK INTER:                  -5.602
REMARK INTRA:                  -0.135
REMARK UNBOUND:                -0.137
REMARK SMILES O=C([O-])C=Cc1ccc(O)cc1
REMARK SMILES IDX 6 1 7 2 12 3 8 4 11 5 9 6 5 7 4 8 2 9 1 10 3 11 10 12
REMARK H PARENT 10 13
REMARK Flexibility Score: inf
ROOT
ATOM      1  C   UNL     1     -13.066 -47.959  -5.082  1.00  0.00    -0.025 A 
ATOM      2  C   UNL     1     -14.203 -48.784  -5.100  1.00  0.00     0.012 A 
ATOM      3  C   UNL     1     -12.491 -47.620  -3.841  1.00  0.00     0.012 A 
ATOM      4  C   UNL     1     -14.771 -49.240  -3.907  1.00  0.00     0.047 A 
ATOM      5  C   UNL     1     -13.061 -48.079  -2.649  1.00  0.00     0.047 A 
ATOM      6  C   UNL     1     -14.204 -48.888  -2.679  1.00  0.00     0.115 A 
ENDROOT
BRANCH   1   7
ATOM      7  C   UNL     1     -12.494 -47.509  -6.377  1.00  0.00     0.010 C 
ATOM      8  C   UNL     1     -12.012 -46.277  -6.590  1.00  0.00     0.025 C 
BRANCH   8   9
ATOM      9  C   UNL     1     -11.463 -45.863  -7.892  1.00  0.00     0.064 C 
ATOM     10  O   UNL     1     -10.523 -46.499  -8.437  1.00  0.00    -0.545 OA
ATOM     11  O   UNL     1     -11.991 -44.747  -8.531  1.00  0.00    -0.545 OA
ENDBRANCH   8   9
ENDBRANCH   1   7
BRANCH   6  12
ATOM     12  O   UNL     1     -14.781 -49.349  -1.497  1.00  0.00    -0.508 OA
ATOM     13  H   UNL     1     -15.087 -48.709  -0.773  1.00  0.00     0.293 HD
ENDBRANCH   6  12
TORSDOF 3
ENDMDL
MODEL 6
REMARK VINA RESULT:    -4.808      4.454      6.181
REMARK INTER + INTRA:          -5.647
REMARK INTER:                  -5.494
REMARK INTRA:                  -0.153
REMARK UNBOUND:                -0.137
REMARK SMILES O=C([O-])C=Cc1ccc(O)cc1
REMARK SMILES IDX 6 1 7 2 12 3 8 4 11 5 9 6 5 7 4 8 2 9 1 10 3 11 10 12
REMARK H PARENT 10 13
REMARK Flexibility Score: inf
ROOT
ATOM      1  C   UNL     1     -16.163 -45.704  -3.233  1.00  0.00    -0.025 A 
ATOM      2  C   UNL     1     -17.008 -45.698  -2.111  1.00  0.00     0.012 A 
ATOM      3  C   UNL     1     -16.169 -44.588  -4.095  1.00  0.00     0.012 A 
ATOM      4  C   UNL     1     -17.859 -44.616  -1.865  1.00  0.00     0.047 A 
ATOM      5  C   UNL     1     -17.021 -43.507  -3.846  1.00  0.00     0.047 A 
ATOM      6  C   UNL     1     -17.870 -43.520  -2.732  1.00  0.00     0.115 A 
ENDROOT
BRANCH   1   7
ATOM      7  C   UNL     1     -15.270 -46.871  -3.445  1.00  0.00     0.010 C 
ATOM      8  C   UNL     1     -15.254 -47.950  -2.650  1.00  0.00     0.025 C 
BRANCH   8   9
ATOM      9  C   UNL     1     -14.345 -49.085  -2.885  1.00  0.00     0.064 C 
ATOM     10  O   UNL     1     -14.074 -49.473  -4.051  1.00  0.00    -0.545 OA
ATOM     11  O   UNL     1     -13.779 -49.741  -1.799  1.00  0.00    -0.545 OA
ENDBRANCH   8   9
ENDBRANCH   1   7
BRANCH   6  12
ATOM     12  O   UNL     1     -18.724 -42.449  -2.477  1.00  0.00    -0.508 OA
ATOM     13  H   UNL     1     -18.521 -41.772  -1.751  1.00  0.00     0.293 HD
ENDBRANCH   6  12
TORSDOF 3
ENDMDL
MODEL 7
REMARK VINA RESULT:    -4.796      1.441      5.875
REMARK INTER + INTRA:          -5.634
REMARK INTER:                  -5.493
REMARK INTRA:                  -0.140
REMARK UNBOUND:                -0.137
REMARK SMILES O=C([O-])C=Cc1ccc(O)cc1
REMARK SMILES IDX 6 1 7 2 12 3 8 4 11 5 9 6 5 7 4 8 2 9 1 10 3 11 10 12
REMARK H PARENT 10 13
REMARK Flexibility Score: inf
ROOT
ATOM      1  C   UNL     1     -11.203 -45.728  -4.001  1.00  0.00    -0.025 A 
ATOM      2  C   UNL     1     -11.495 -45.358  -5.325  1.00  0.00     0.012 A 
ATOM      3  C   UNL     1     -10.073 -45.168  -3.372  1.00  0.00     0.012 A 
ATOM      4  C   UNL     1     -10.665 -44.469  -6.016  1.00  0.00     0.047 A 
ATOM      5  C   UNL     1      -9.245 -44.280  -4.066  1.00  0.00     0.047 A 
ATOM      6  C   UNL     1      -9.538 -43.930  -5.391  1.00  0.00     0.115 A 
ENDROOT
BRANCH   1   7
ATOM      7  C   UNL     1     -12.121 -46.666  -3.308  1.00  0.00     0.010 C 
ATOM      8  C   UNL     1     -12.505 -47.846  -3.815  1.00  0.00     0.025 C 
BRANCH   8   9
ATOM      9  C   UNL     1     -13.426 -48.745  -3.102  1.00  0.00     0.064 C 
ATOM     10  O   UNL     1     -14.591 -48.961  -3.531  1.00  0.00    -0.545 OA
ATOM     11  O   UNL     1     -13.005 -49.365  -1.932  1.00  0.00    -0.545 OA
ENDBRANCH   8   9
ENDBRANCH   1   7
BRANCH   6  12
ATOM     12  O   UNL     1      -8.718 -43.047  -6.091  1.00  0.00    -0.508 OA
ATOM     13  H   UNL     1      -8.172 -42.340  -5.613  1.00  0.00     0.293 HD
ENDBRANCH   6  12
TORSDOF 3
ENDMDL
MODEL 8
REMARK VINA RESULT:    -4.769      1.220      5.884
REMARK INTER + INTRA:          -5.603
REMARK INTER:                  -5.467
REMARK INTRA:                  -0.135
REMARK UNBOUND:                -0.137
REMARK SMILES O=C([O-])C=Cc1ccc(O)cc1
REMARK SMILES IDX 6 1 7 2 12 3 8 4 11 5 9 6 5 7 4 8 2 9 1 10 3 11 10 12
REMARK H PARENT 10 13
REMARK Flexibility Score: inf
ROOT
ATOM      1  C   UNL     1     -11.504 -45.908  -3.702  1.00  0.00    -0.025 A 
ATOM      2  C   UNL     1     -10.441 -45.347  -2.973  1.00  0.00     0.012 A 
ATOM      3  C   UNL     1     -11.606 -45.626  -5.080  1.00  0.00     0.012 A 
ATOM      4  C   UNL     1      -9.515 -44.505  -3.596  1.00  0.00     0.047 A 
ATOM      5  C   UNL     1     -10.678 -44.783  -5.700  1.00  0.00     0.047 A 
ATOM      6  C   UNL     1      -9.632 -44.219  -4.958  1.00  0.00     0.115 A 
ENDROOT
BRANCH   1   7
ATOM      7  C   UNL     1     -12.454 -46.804  -2.998  1.00  0.00     0.010 C 
ATOM      8  C   UNL     1     -12.706 -48.066  -3.372  1.00  0.00     0.025 C 
BRANCH   8   9
ATOM      9  C   UNL     1     -13.665 -48.922  -2.655  1.00  0.00     0.064 C 
ATOM     10  O   UNL     1     -13.281 -49.749  -1.787  1.00  0.00    -0.545 OA
ATOM     11  O   UNL     1     -15.021 -48.817  -2.943  1.00  0.00    -0.545 OA
ENDBRANCH   8   9
ENDBRANCH   1   7
BRANCH   6  12
ATOM     12  O   UNL     1      -8.703 -43.376  -5.566  1.00  0.00    -0.508 OA
ATOM     13  H   UNL     1      -7.901 -43.019  -5.060  1.00  0.00     0.293 HD
ENDBRANCH   6  12
TORSDOF 3
ENDMDL
MODEL 9
REMARK VINA RESULT:    -4.703      4.197      5.770
REMARK INTER + INTRA:          -5.527
REMARK INTER:                  -5.391
REMARK INTRA:                  -0.136
REMARK UNBOUND:                -0.137
REMARK SMILES O=C([O-])C=Cc1ccc(O)cc1
REMARK SMILES IDX 6 1 7 2 12 3 8 4 11 5 9 6 5 7 4 8 2 9 1 10 3 11 10 12
REMARK H PARENT 10 13
REMARK Flexibility Score: inf
ROOT
ATOM      1  C   UNL     1     -16.305 -45.967  -2.327  1.00  0.00    -0.025 A 
ATOM      2  C   UNL     1     -17.406 -45.276  -2.861  1.00  0.00     0.012 A 
ATOM      3  C   UNL     1     -16.086 -45.926  -0.935  1.00  0.00     0.012 A 
ATOM      4  C   UNL     1     -18.255 -44.538  -2.030  1.00  0.00     0.047 A 
ATOM      5  C   UNL     1     -16.937 -45.187  -0.107  1.00  0.00     0.047 A 
ATOM      6  C   UNL     1     -18.023 -44.490  -0.653  1.00  0.00     0.115 A 
ENDROOT
BRANCH   1   7
ATOM      7  C   UNL     1     -15.439 -46.744  -3.249  1.00  0.00     0.010 C 
ATOM      8  C   UNL     1     -15.111 -48.030  -3.058  1.00  0.00     0.025 C 
BRANCH   8   9
ATOM      9  C   UNL     1     -14.239 -48.765  -3.989  1.00  0.00     0.064 C 
ATOM     10  O   UNL     1     -14.719 -49.520  -4.875  1.00  0.00    -0.545 OA
ATOM     11  O   UNL     1     -12.860 -48.625  -3.887  1.00  0.00    -0.545 OA
ENDBRANCH   8   9
ENDBRANCH   1   7
BRANCH   6  12
ATOM     12  O   UNL     1     -18.876 -43.750   0.164  1.00  0.00    -0.508 OA
ATOM     13  H   UNL     1     -19.816 -44.065   0.370  1.00  0.00     0.293 HD
ENDBRANCH   6  12
TORSDOF 3
ENDMDL
