MODEL 1
REMARK VINA RESULT:    -5.726      0.000      0.000
REMARK INTER + INTRA:         -11.092
REMARK INTER:                  -8.906
REMARK INTRA:                  -2.186
REMARK UNBOUND:                -2.186
REMARK SMILES COc1cc(CNC(=O)CCCCC=CC(C)C)ccc1O
REMARK SMILES IDX 11 1 12 2 13 3 14 4 15 5 16 6 17 7 18 8 10 9 8 10 9 11 7 12
REMARK SMILES IDX 6 14 5 15 4 16 19 17 3 18 20 19 21 20 2 21 1 22 22 23
REMARK H PARENT 7 13 22 24
REMARK Flexibility Score: inf
ROOT
ATOM      1  C   UNL     1     123.368 125.802 125.113  1.00  0.00     0.010 C 
ENDROOT
BRANCH   1   2
ATOM      2  C   UNL     1     123.919 126.683 123.982  1.00  0.00     0.005 C 
BRANCH   2   3
ATOM      3  C   UNL     1     124.120 125.909 122.671  1.00  0.00     0.027 C 
BRANCH   3   4
ATOM      4  C   UNL     1     123.129 126.362 121.629  1.00  0.00    -0.031 C 
ATOM      5  C   UNL     1     122.121 125.605 121.152  1.00  0.00    -0.028 C 
BRANCH   5   6
ATOM      6  C   UNL     1     121.887 124.154 121.518  1.00  0.00     0.005 C 
ATOM      7  C   UNL     1     121.186 123.433 120.362  1.00  0.00     0.012 C 
ATOM      8  C   UNL     1     121.044 124.065 122.794  1.00  0.00     0.012 C 
ENDBRANCH   5   6
ENDBRANCH   3   4
ENDBRANCH   2   3
ENDBRANCH   1   2
BRANCH   1   9
ATOM      9  C   UNL     1     124.476 125.194 125.984  1.00  0.00     0.100 C 
BRANCH   9  10
ATOM     10  C   UNL     1     124.713 123.763 125.602  1.00  0.00     0.220 C 
ATOM     11  O   UNL     1     125.781 123.195 125.956  1.00  0.00    -0.275 OA
ATOM     12  N   UNL     1     123.748 123.060 124.810  1.00  0.00    -0.352 N 
ATOM     13  H   UNL     1     122.870 123.558 124.534  1.00  0.00     0.163 HD
BRANCH  12  14
ATOM     14  C   UNL     1     123.971 121.680 124.381  1.00  0.00     0.151 C 
BRANCH  14  15
ATOM     15  C   UNL     1     124.225 121.624 122.898  1.00  0.00    -0.025 A 
ATOM     16  C   UNL     1     125.151 122.497 122.306  1.00  0.00     0.056 A 
ATOM     17  C   UNL     1     123.484 120.750 122.089  1.00  0.00     0.009 A 
ATOM     18  C   UNL     1     125.361 122.478 120.912  1.00  0.00     0.160 A 
ATOM     19  C   UNL     1     123.688 120.728 120.708  1.00  0.00     0.050 A 
ATOM     20  C   UNL     1     124.624 121.587 120.118  1.00  0.00     0.157 A 
BRANCH  18  21
ATOM     21  O   UNL     1     126.284 123.329 120.282  1.00  0.00    -0.493 OA
ATOM     22  C   UNL     1     127.681 123.072 120.185  1.00  0.00     0.278 C 
ENDBRANCH  18  21
BRANCH  20  23
ATOM     23  O   UNL     1     124.826 121.562 118.738  1.00  0.00    -0.504 OA
ATOM     24  H   UNL     1     124.160 121.123 118.114  1.00  0.00     0.293 HD
ENDBRANCH  20  23
ENDBRANCH  14  15
ENDBRANCH  12  14
ENDBRANCH   9  10
ENDBRANCH   1   9
TORSDOF 10
ENDMDL
MODEL 2
REMARK VINA RESULT:    -5.701      2.064      4.805
REMARK INTER + INTRA:         -11.054
REMARK INTER:                  -8.892
REMARK INTRA:                  -2.162
REMARK UNBOUND:                -2.186
REMARK SMILES COc1cc(CNC(=O)CCCCC=CC(C)C)ccc1O
REMARK SMILES IDX 11 1 12 2 13 3 14 4 15 5 16 6 17 7 18 8 10 9 8 10 9 11 7 12
REMARK SMILES IDX 6 14 5 15 4 16 19 17 3 18 20 19 21 20 2 21 1 22 22 23
REMARK H PARENT 7 13 22 24
REMARK Flexibility Score: inf
ROOT
ATOM      1  C   UNL     1     124.357 121.853 125.009  1.00  0.00     0.010 C 
ENDROOT
BRANCH   1   2
ATOM      2  C   UNL     1     123.806 121.008 123.850  1.00  0.00     0.005 C 
BRANCH   2   3
ATOM      3  C   UNL     1     123.636 121.817 122.556  1.00  0.00     0.027 C 
BRANCH   3   4
ATOM      4  C   UNL     1     124.669 121.412 121.535  1.00  0.00    -0.031 C 
ATOM      5  C   UNL     1     125.681 122.198 121.119  1.00  0.00    -0.028 C 
BRANCH   5   6
ATOM      6  C   UNL     1     125.879 123.641 121.538  1.00  0.00     0.005 C 
ATOM      7  C   UNL     1     126.602 124.411 120.428  1.00  0.00     0.012 C 
ATOM      8  C   UNL     1     126.681 123.702 122.843  1.00  0.00     0.012 C 
ENDBRANCH   5   6
ENDBRANCH   3   4
ENDBRANCH   2   3
ENDBRANCH   1   2
BRANCH   1   9
ATOM      9  C   UNL     1     123.250 122.435 125.897  1.00  0.00     0.100 C 
BRANCH   9  10
ATOM     10  C   UNL     1     123.001 123.872 125.547  1.00  0.00     0.220 C 
ATOM     11  O   UNL     1     121.928 124.423 125.909  1.00  0.00    -0.275 OA
ATOM     12  N   UNL     1     123.964 124.600 124.774  1.00  0.00    -0.352 N 
ATOM     13  H   UNL     1     124.846 124.116 124.489  1.00  0.00     0.163 HD
BRANCH  12  14
ATOM     14  C   UNL     1     123.731 125.987 124.375  1.00  0.00     0.151 C 
BRANCH  14  15
ATOM     15  C   UNL     1     123.501 126.076 122.889  1.00  0.00    -0.025 A 
ATOM     16  C   UNL     1     122.580 125.220 122.264  1.00  0.00     0.056 A 
ATOM     17  C   UNL     1     124.257 126.965 122.111  1.00  0.00     0.009 A 
ATOM     18  C   UNL     1     122.393 125.270 120.867  1.00  0.00     0.160 A 
ATOM     19  C   UNL     1     124.074 127.018 120.728  1.00  0.00     0.050 A 
ATOM     20  C   UNL     1     123.145 126.176 120.104  1.00  0.00     0.157 A 
BRANCH  18  21
ATOM     21  O   UNL     1     121.477 124.436 120.205  1.00  0.00    -0.493 OA
ATOM     22  C   UNL     1     120.093 124.729 120.040  1.00  0.00     0.278 C 
ENDBRANCH  18  21
BRANCH  20  23
ATOM     23  O   UNL     1     122.965 126.231 118.723  1.00  0.00    -0.504 OA
ATOM     24  H   UNL     1     122.242 126.805 118.306  1.00  0.00     0.293 HD
ENDBRANCH  20  23
ENDBRANCH  14  15
ENDBRANCH  12  14
ENDBRANCH   9  10
ENDBRANCH   1   9
TORSDOF 10
ENDMDL
MODEL 3
REMARK VINA RESULT:    -5.630      1.302      2.470
REMARK INTER + INTRA:         -10.943
REMARK INTER:                  -8.790
REMARK INTRA:                  -2.153
REMARK UNBOUND:                -2.186
REMARK SMILES COc1cc(CNC(=O)CCCCC=CC(C)C)ccc1O
REMARK SMILES IDX 11 1 12 2 13 3 14 4 15 5 16 6 17 7 18 8 10 9 8 10 9 11 7 12
REMARK SMILES IDX 6 14 5 15 4 16 19 17 3 18 20 19 21 20 2 21 1 22 22 23
REMARK H PARENT 7 13 22 24
REMARK Flexibility Score: inf
ROOT
ATOM      1  C   UNL     1     123.531 125.692 125.269  1.00  0.00     0.010 C 
ENDROOT
BRANCH   1   2
ATOM      2  C   UNL     1     122.261 124.872 125.542  1.00  0.00     0.005 C 
BRANCH   2   3
ATOM      3  C   UNL     1     122.058 123.738 124.527  1.00  0.00     0.027 C 
BRANCH   3   4
ATOM      4  C   UNL     1     120.922 124.059 123.589  1.00  0.00    -0.031 C 
ATOM      5  C   UNL     1     121.068 124.335 122.278  1.00  0.00    -0.028 C 
BRANCH   5   6
ATOM      6  C   UNL     1     122.400 124.461 121.567  1.00  0.00     0.005 C 
ATOM      7  C   UNL     1     122.858 125.923 121.575  1.00  0.00     0.012 C 
ATOM      8  C   UNL     1     122.278 123.946 120.130  1.00  0.00     0.012 C 
ENDBRANCH   5   6
ENDBRANCH   3   4
ENDBRANCH   2   3
ENDBRANCH   1   2
BRANCH   1   9
ATOM      9  C   UNL     1     124.764 125.133 125.993  1.00  0.00     0.100 C 
BRANCH   9  10
ATOM     10  C   UNL     1     125.579 124.288 125.060  1.00  0.00     0.220 C 
ATOM     11  O   UNL     1     126.427 123.484 125.532  1.00  0.00    -0.275 OA
ATOM     12  N   UNL     1     125.418 124.422 123.643  1.00  0.00    -0.352 N 
ATOM     13  H   UNL     1     124.704 125.096 123.282  1.00  0.00     0.163 HD
BRANCH  12  14
ATOM     14  C   UNL     1     126.231 123.648 122.705  1.00  0.00     0.151 C 
BRANCH  14  15
ATOM     15  C   UNL     1     125.413 122.547 122.084  1.00  0.00    -0.025 A 
ATOM     16  C   UNL     1     125.594 122.207 120.734  1.00  0.00     0.056 A 
ATOM     17  C   UNL     1     124.414 121.904 122.831  1.00  0.00     0.009 A 
ATOM     18  C   UNL     1     124.800 121.207 120.136  1.00  0.00     0.160 A 
ATOM     19  C   UNL     1     123.626 120.913 122.243  1.00  0.00     0.050 A 
ATOM     20  C   UNL     1     123.817 120.561 120.900  1.00  0.00     0.157 A 
BRANCH  18  21
ATOM     21  O   UNL     1     124.955 120.833 118.791  1.00  0.00    -0.493 OA
ATOM     22  C   UNL     1     124.279 121.448 117.700  1.00  0.00     0.278 C 
ENDBRANCH  18  21
BRANCH  20  23
ATOM     23  O   UNL     1     123.028 119.571 120.316  1.00  0.00    -0.504 OA
ATOM     24  H   UNL     1     122.153 119.794 119.856  1.00  0.00     0.293 HD
ENDBRANCH  20  23
ENDBRANCH  14  15
ENDBRANCH  12  14
ENDBRANCH   9  10
ENDBRANCH   1   9
TORSDOF 10
ENDMDL
MODEL 4
REMARK VINA RESULT:    -5.589      2.211      4.155
REMARK INTER + INTRA:         -10.880
REMARK INTER:                  -8.695
REMARK INTRA:                  -2.185
REMARK UNBOUND:                -2.186
REMARK SMILES COc1cc(CNC(=O)CCCCC=CC(C)C)ccc1O
REMARK SMILES IDX 11 1 12 2 13 3 14 4 15 5 16 6 17 7 18 8 10 9 8 10 9 11 7 12
REMARK SMILES IDX 6 14 5 15 4 16 19 17 3 18 20 19 21 20 2 21 1 22 22 23
REMARK H PARENT 7 13 22 24
REMARK Flexibility Score: inf
ROOT
ATOM      1  C   UNL     1     124.286 121.745 125.257  1.00  0.00     0.010 C 
ENDROOT
BRANCH   1   2
ATOM      2  C   UNL     1     123.629 121.002 124.084  1.00  0.00     0.005 C 
BRANCH   2   3
ATOM      3  C   UNL     1     124.196 121.425 122.721  1.00  0.00     0.027 C 
BRANCH   3   4
ATOM      4  C   UNL     1     123.301 120.957 121.602  1.00  0.00    -0.031 C 
ATOM      5  C   UNL     1     122.631 121.774 120.766  1.00  0.00    -0.028 C 
BRANCH   5   6
ATOM      6  C   UNL     1     122.598 123.285 120.881  1.00  0.00     0.005 C 
ATOM      7  C   UNL     1     121.312 123.724 121.588  1.00  0.00     0.012 C 
ATOM      8  C   UNL     1     122.688 123.918 119.489  1.00  0.00     0.012 C 
ENDBRANCH   5   6
ENDBRANCH   3   4
ENDBRANCH   2   3
ENDBRANCH   1   2
BRANCH   1   9
ATOM      9  C   UNL     1     123.297 122.637 126.020  1.00  0.00     0.100 C 
BRANCH   9  10
ATOM     10  C   UNL     1     122.933 123.836 125.197  1.00  0.00     0.220 C 
ATOM     11  O   UNL     1     121.719 124.126 125.024  1.00  0.00    -0.275 OA
ATOM     12  N   UNL     1     123.960 124.625 124.582  1.00  0.00    -0.352 N 
ATOM     13  H   UNL     1     124.959 124.361 124.746  1.00  0.00     0.163 HD
BRANCH  12  14
ATOM     14  C   UNL     1     123.637 125.772 123.735  1.00  0.00     0.151 C 
BRANCH  14  15
ATOM     15  C   UNL     1     124.515 125.785 122.511  1.00  0.00    -0.025 A 
ATOM     16  C   UNL     1     124.319 126.751 121.511  1.00  0.00     0.056 A 
ATOM     17  C   UNL     1     125.486 124.789 122.329  1.00  0.00     0.009 A 
ATOM     18  C   UNL     1     125.110 126.742 120.343  1.00  0.00     0.160 A 
ATOM     19  C   UNL     1     126.271 124.776 121.174  1.00  0.00     0.050 A 
ATOM     20  C   UNL     1     126.088 125.749 120.183  1.00  0.00     0.157 A 
BRANCH  18  21
ATOM     21  O   UNL     1     124.951 127.695 119.324  1.00  0.00    -0.493 OA
ATOM     22  C   UNL     1     124.029 127.575 118.246  1.00  0.00     0.278 C 
ENDBRANCH  18  21
BRANCH  20  23
ATOM     23  O   UNL     1     126.874 125.733 119.032  1.00  0.00    -0.504 OA
ATOM     24  H   UNL     1     127.519 124.976 118.842  1.00  0.00     0.293 HD
ENDBRANCH  20  23
ENDBRANCH  14  15
ENDBRANCH  12  14
ENDBRANCH   9  10
ENDBRANCH   1   9
TORSDOF 10
ENDMDL
MODEL 5
REMARK VINA RESULT:    -5.574      1.847      3.339
REMARK INTER + INTRA:         -10.856
REMARK INTER:                  -8.720
REMARK INTRA:                  -2.137
REMARK UNBOUND:                -2.186
REMARK SMILES COc1cc(CNC(=O)CCCCC=CC(C)C)ccc1O
REMARK SMILES IDX 11 1 12 2 13 3 14 4 15 5 16 6 17 7 18 8 10 9 8 10 9 11 7 12
REMARK SMILES IDX 6 14 5 15 4 16 19 17 3 18 20 19 21 20 2 21 1 22 22 23
REMARK H PARENT 7 13 22 24
REMARK Flexibility Score: inf
ROOT
ATOM      1  C   UNL     1     121.915 123.549 124.981  1.00  0.00     0.010 C 
ENDROOT
BRANCH   1   2
ATOM      2  C   UNL     1     121.065 123.993 123.781  1.00  0.00     0.005 C 
BRANCH   2   3
ATOM      3  C   UNL     1     121.893 124.166 122.499  1.00  0.00     0.027 C 
BRANCH   3   4
ATOM      4  C   UNL     1     121.458 123.178 121.447  1.00  0.00    -0.031 C 
ATOM      5  C   UNL     1     122.212 122.155 121.000  1.00  0.00    -0.028 C 
BRANCH   5   6
ATOM      6  C   UNL     1     123.647 121.898 121.415  1.00  0.00     0.005 C 
ATOM      7  C   UNL     1     124.388 121.161 120.295  1.00  0.00     0.012 C 
ATOM      8  C   UNL     1     123.679 121.077 122.709  1.00  0.00     0.012 C 
ENDBRANCH   5   6
ENDBRANCH   3   4
ENDBRANCH   2   3
ENDBRANCH   1   2
BRANCH   1   9
ATOM      9  C   UNL     1     122.526 124.732 125.744  1.00  0.00     0.100 C 
BRANCH   9  10
ATOM     10  C   UNL     1     123.993 124.840 125.454  1.00  0.00     0.220 C 
ATOM     11  O   UNL     1     124.661 125.778 125.967  1.00  0.00    -0.275 OA
ATOM     12  N   UNL     1     124.622 123.903 124.570  1.00  0.00    -0.352 N 
ATOM     13  H   UNL     1     124.042 123.134 124.162  1.00  0.00     0.163 HD
BRANCH  12  14
ATOM     14  C   UNL     1     126.040 124.008 124.229  1.00  0.00     0.151 C 
BRANCH  14  15
ATOM     15  C   UNL     1     126.212 124.170 122.742  1.00  0.00    -0.025 A 
ATOM     16  C   UNL     1     125.425 125.093 122.035  1.00  0.00     0.056 A 
ATOM     17  C   UNL     1     127.109 123.349 122.043  1.00  0.00     0.009 A 
ATOM     18  C   UNL     1     125.552 125.218 120.637  1.00  0.00     0.160 A 
ATOM     19  C   UNL     1     127.239 123.470 120.658  1.00  0.00     0.050 A 
ATOM     20  C   UNL     1     126.466 124.402 119.954  1.00  0.00     0.157 A 
BRANCH  18  21
ATOM     21  O   UNL     1     124.789 126.134 119.894  1.00  0.00    -0.493 OA
ATOM     22  C   UNL     1     125.084 127.523 119.780  1.00  0.00     0.278 C 
ENDBRANCH  18  21
BRANCH  20  23
ATOM     23  O   UNL     1     126.598 124.519 118.571  1.00  0.00    -0.504 OA
ATOM     24  H   UNL     1     127.481 124.344 118.106  1.00  0.00     0.293 HD
ENDBRANCH  20  23
ENDBRANCH  14  15
ENDBRANCH  12  14
ENDBRANCH   9  10
ENDBRANCH   1   9
TORSDOF 10
ENDMDL
MODEL 6
REMARK VINA RESULT:    -5.562      1.825      3.418
REMARK INTER + INTRA:         -10.837
REMARK INTER:                  -8.651
REMARK INTRA:                  -2.186
REMARK UNBOUND:                -2.186
REMARK SMILES COc1cc(CNC(=O)CCCCC=CC(C)C)ccc1O
REMARK SMILES IDX 11 1 12 2 13 3 14 4 15 5 16 6 17 7 18 8 10 9 8 10 9 11 7 12
REMARK SMILES IDX 6 14 5 15 4 16 19 17 3 18 20 19 21 20 2 21 1 22 22 23
REMARK H PARENT 7 13 22 24
REMARK Flexibility Score: inf
ROOT
ATOM      1  C   UNL     1     125.859 124.356 124.843  1.00  0.00     0.010 C 
ENDROOT
BRANCH   1   2
ATOM      2  C   UNL     1     126.641 123.642 123.730  1.00  0.00     0.005 C 
BRANCH   2   3
ATOM      3  C   UNL     1     125.865 123.580 122.406  1.00  0.00     0.027 C 
BRANCH   3   4
ATOM      4  C   UNL     1     126.345 124.647 121.456  1.00  0.00    -0.031 C 
ATOM      5  C   UNL     1     125.608 125.701 121.055  1.00  0.00    -0.028 C 
BRANCH   5   6
ATOM      6  C   UNL     1     124.154 125.923 121.418  1.00  0.00     0.005 C 
ATOM      7  C   UNL     1     123.441 126.664 120.282  1.00  0.00     0.012 C 
ATOM      8  C   UNL     1     124.056 126.721 122.722  1.00  0.00     0.012 C 
ENDBRANCH   5   6
ENDBRANCH   3   4
ENDBRANCH   2   3
ENDBRANCH   1   2
BRANCH   1   9
ATOM      9  C   UNL     1     125.205 123.378 125.828  1.00  0.00     0.100 C 
BRANCH   9  10
ATOM     10  C   UNL     1     123.775 123.133 125.450  1.00  0.00     0.220 C 
ATOM     11  O   UNL     1     123.223 122.048 125.777  1.00  0.00    -0.275 OA
ATOM     12  N   UNL     1     123.055 124.111 124.690  1.00  0.00    -0.352 N 
ATOM     13  H   UNL     1     123.539 125.002 124.434  1.00  0.00     0.163 HD
BRANCH  12  14
ATOM     14  C   UNL     1     121.675 123.882 124.264  1.00  0.00     0.151 C 
BRANCH  14  15
ATOM     15  C   UNL     1     121.615 123.649 122.777  1.00  0.00    -0.025 A 
ATOM     16  C   UNL     1     122.478 122.724 122.171  1.00  0.00     0.056 A 
ATOM     17  C   UNL     1     120.745 124.408 121.980  1.00  0.00     0.009 A 
ATOM     18  C   UNL     1     122.456 122.533 120.774  1.00  0.00     0.160 A 
ATOM     19  C   UNL     1     120.719 124.223 120.596  1.00  0.00     0.050 A 
ATOM     20  C   UNL     1     121.569 123.288 119.992  1.00  0.00     0.157 A 
BRANCH  18  21
ATOM     21  O   UNL     1     123.298 121.612 120.130  1.00  0.00    -0.493 OA
ATOM     22  C   UNL     1     123.317 120.213 120.398  1.00  0.00     0.278 C 
ENDBRANCH  18  21
BRANCH  20  23
ATOM     23  O   UNL     1     121.541 123.105 118.610  1.00  0.00    -0.504 OA
ATOM     24  H   UNL     1     122.393 123.057 118.064  1.00  0.00     0.293 HD
ENDBRANCH  20  23
ENDBRANCH  14  15
ENDBRANCH  12  14
ENDBRANCH   9  10
ENDBRANCH   1   9
TORSDOF 10
ENDMDL
MODEL 7
REMARK VINA RESULT:    -5.560      2.250      3.866
REMARK INTER + INTRA:         -10.834
REMARK INTER:                  -8.542
REMARK INTRA:                  -2.293
REMARK UNBOUND:                -2.186
REMARK SMILES COc1cc(CNC(=O)CCCCC=CC(C)C)ccc1O
REMARK SMILES IDX 11 1 12 2 13 3 14 4 15 5 16 6 17 7 18 8 10 9 8 10 9 11 7 12
REMARK SMILES IDX 6 14 5 15 4 16 19 17 3 18 20 19 21 20 2 21 1 22 22 23
REMARK H PARENT 7 13 22 24
REMARK Flexibility Score: inf
ROOT
ATOM      1  C   UNL     1     125.865 123.423 125.209  1.00  0.00     0.010 C 
ENDROOT
BRANCH   1   2
ATOM      2  C   UNL     1     126.634 123.984 124.004  1.00  0.00     0.005 C 
BRANCH   2   3
ATOM      3  C   UNL     1     126.101 123.460 122.663  1.00  0.00     0.027 C 
BRANCH   3   4
ATOM      4  C   UNL     1     126.665 124.259 121.516  1.00  0.00    -0.031 C 
ATOM      5  C   UNL     1     125.981 125.192 120.825  1.00  0.00    -0.028 C 
BRANCH   5   6
ATOM      6  C   UNL     1     124.514 125.513 121.030  1.00  0.00     0.005 C 
ATOM      7  C   UNL     1     123.884 125.940 119.701  1.00  0.00     0.012 C 
ATOM      8  C   UNL     1     124.362 126.621 122.077  1.00  0.00     0.012 C 
ENDBRANCH   5   6
ENDBRANCH   3   4
ENDBRANCH   2   3
ENDBRANCH   1   2
BRANCH   1   9
ATOM      9  C   UNL     1     125.133 124.513 126.004  1.00  0.00     0.100 C 
BRANCH   9  10
ATOM     10  C   UNL     1     123.819 124.837 125.358  1.00  0.00     0.220 C 
ATOM     11  O   UNL     1     123.386 126.020 125.389  1.00  0.00    -0.275 OA
ATOM     12  N   UNL     1     123.045 123.799 124.742  1.00  0.00    -0.352 N 
ATOM     13  H   UNL     1     123.432 122.827 124.730  1.00  0.00     0.163 HD
BRANCH  12  14
ATOM     14  C   UNL     1     121.739 124.073 124.146  1.00  0.00     0.151 C 
BRANCH  14  15
ATOM     15  C   UNL     1     121.738 123.702 122.686  1.00  0.00    -0.025 A 
ATOM     16  C   UNL     1     120.886 124.364 121.789  1.00  0.00     0.056 A 
ATOM     17  C   UNL     1     122.537 122.644 122.228  1.00  0.00     0.009 A 
ATOM     18  C   UNL     1     120.850 123.991 120.429  1.00  0.00     0.160 A 
ATOM     19  C   UNL     1     122.505 122.271 120.883  1.00  0.00     0.050 A 
ATOM     20  C   UNL     1     121.667 122.942 119.983  1.00  0.00     0.157 A 
BRANCH  18  21
ATOM     21  O   UNL     1     120.017 124.633 119.499  1.00  0.00    -0.493 OA
ATOM     22  C   UNL     1     120.347 125.842 118.821  1.00  0.00     0.278 C 
ENDBRANCH  18  21
BRANCH  20  23
ATOM     23  O   UNL     1     121.638 122.568 118.640  1.00  0.00    -0.504 OA
ATOM     24  H   UNL     1     121.008 123.010 117.981  1.00  0.00     0.293 HD
ENDBRANCH  20  23
ENDBRANCH  14  15
ENDBRANCH  12  14
ENDBRANCH   9  10
ENDBRANCH   1   9
TORSDOF 10
ENDMDL
MODEL 8
REMARK VINA RESULT:    -5.495      1.501      3.061
REMARK INTER + INTRA:         -10.733
REMARK INTER:                  -8.562
REMARK INTRA:                  -2.171
REMARK UNBOUND:                -2.186
REMARK SMILES COc1cc(CNC(=O)CCCCC=CC(C)C)ccc1O
REMARK SMILES IDX 11 1 12 2 13 3 14 4 15 5 16 6 17 7 18 8 10 9 8 10 9 11 7 12
REMARK SMILES IDX 6 14 5 15 4 16 19 17 3 18 20 19 21 20 2 21 1 22 22 23
REMARK H PARENT 7 13 22 24
REMARK Flexibility Score: inf
ROOT
ATOM      1  C   UNL     1     121.989 123.506 124.937  1.00  0.00     0.010 C 
ENDROOT
BRANCH   1   2
ATOM      2  C   UNL     1     121.005 124.009 123.869  1.00  0.00     0.005 C 
BRANCH   2   3
ATOM      3  C   UNL     1     121.453 123.664 122.442  1.00  0.00     0.027 C 
BRANCH   3   4
ATOM      4  C   UNL     1     121.104 124.779 121.490  1.00  0.00    -0.031 C 
ATOM      5  C   UNL     1     122.007 125.545 120.846  1.00  0.00    -0.028 C 
BRANCH   5   6
ATOM      6  C   UNL     1     123.506 125.467 121.052  1.00  0.00     0.005 C 
ATOM      7  C   UNL     1     123.983 126.677 121.861  1.00  0.00     0.012 C 
ATOM      8  C   UNL     1     124.219 125.413 119.697  1.00  0.00     0.012 C 
ENDBRANCH   5   6
ENDBRANCH   3   4
ENDBRANCH   2   3
ENDBRANCH   1   2
BRANCH   1   9
ATOM      9  C   UNL     1     122.710 124.650 125.663  1.00  0.00     0.100 C 
BRANCH   9  10
ATOM     10  C   UNL     1     124.090 124.833 125.105  1.00  0.00     0.220 C 
ATOM     11  O   UNL     1     124.729 125.888 125.364  1.00  0.00    -0.275 OA
ATOM     12  N   UNL     1     124.661 123.831 124.254  1.00  0.00    -0.352 N 
ATOM     13  H   UNL     1     124.107 122.966 124.060  1.00  0.00     0.163 HD
BRANCH  12  14
ATOM     14  C   UNL     1     125.984 124.001 123.656  1.00  0.00     0.151 C 
BRANCH  14  15
ATOM     15  C   UNL     1     126.057 123.293 122.329  1.00  0.00    -0.025 A 
ATOM     16  C   UNL     1     125.123 122.296 122.008  1.00  0.00     0.056 A 
ATOM     17  C   UNL     1     127.101 123.575 121.436  1.00  0.00     0.009 A 
ATOM     18  C   UNL     1     125.212 121.599 120.785  1.00  0.00     0.160 A 
ATOM     19  C   UNL     1     127.194 122.888 120.224  1.00  0.00     0.050 A 
ATOM     20  C   UNL     1     126.252 121.904 119.895  1.00  0.00     0.157 A 
BRANCH  18  21
ATOM     21  O   UNL     1     124.293 120.601 120.423  1.00  0.00    -0.493 OA
ATOM     22  C   UNL     1     122.917 120.601 120.788  1.00  0.00     0.278 C 
ENDBRANCH  18  21
BRANCH  20  23
ATOM     23  O   UNL     1     126.348 121.220 118.683  1.00  0.00    -0.504 OA
ATOM     24  H   UNL     1     127.043 121.467 117.990  1.00  0.00     0.293 HD
ENDBRANCH  20  23
ENDBRANCH  14  15
ENDBRANCH  12  14
ENDBRANCH   9  10
ENDBRANCH   1   9
TORSDOF 10
ENDMDL
MODEL 9
REMARK VINA RESULT:    -5.492      1.775      3.170
REMARK INTER + INTRA:         -10.729
REMARK INTER:                  -8.458
REMARK INTRA:                  -2.271
REMARK UNBOUND:                -2.186
REMARK SMILES COc1cc(CNC(=O)CCCCC=CC(C)C)ccc1O
REMARK SMILES IDX 11 1 12 2 13 3 14 4 15 5 16 6 17 7 18 8 10 9 8 10 9 11 7 12
REMARK SMILES IDX 6 14 5 15 4 16 19 17 3 18 20 19 21 20 2 21 1 22 22 23
REMARK H PARENT 7 13 22 24
REMARK Flexibility Score: inf
ROOT
ATOM      1  C   UNL     1     122.232 123.274 124.855  1.00  0.00     0.010 C 
ENDROOT
BRANCH   1   2
ATOM      2  C   UNL     1     121.235 123.983 123.926  1.00  0.00     0.005 C 
BRANCH   2   3
ATOM      3  C   UNL     1     121.843 124.330 122.560  1.00  0.00     0.027 C 
BRANCH   3   4
ATOM      4  C   UNL     1     121.284 123.433 121.485  1.00  0.00    -0.031 C 
ATOM      5  C   UNL     1     121.976 122.455 120.869  1.00  0.00    -0.028 C 
BRANCH   5   6
ATOM      6  C   UNL     1     123.448 122.170 121.092  1.00  0.00     0.005 C 
ATOM      7  C   UNL     1     124.107 121.769 119.768  1.00  0.00     0.012 C 
ATOM      8  C   UNL     1     123.614 121.058 122.132  1.00  0.00     0.012 C 
ENDBRANCH   5   6
ENDBRANCH   3   4
ENDBRANCH   2   3
ENDBRANCH   1   2
BRANCH   1   9
ATOM      9  C   UNL     1     122.992 124.249 125.764  1.00  0.00     0.100 C 
BRANCH   9  10
ATOM     10  C   UNL     1     124.388 124.454 125.257  1.00  0.00     0.220 C 
ATOM     11  O   UNL     1     125.072 125.420 125.690  1.00  0.00    -0.275 OA
ATOM     12  N   UNL     1     124.927 123.577 124.259  1.00  0.00    -0.352 N 
ATOM     13  H   UNL     1     124.336 122.783 123.920  1.00  0.00     0.163 HD
BRANCH  12  14
ATOM     14  C   UNL     1     126.266 123.778 123.708  1.00  0.00     0.151 C 
BRANCH  14  15
ATOM     15  C   UNL     1     126.185 124.199 122.265  1.00  0.00    -0.025 A 
ATOM     16  C   UNL     1     126.995 123.579 121.301  1.00  0.00     0.056 A 
ATOM     17  C   UNL     1     125.353 125.263 121.888  1.00  0.00     0.009 A 
ATOM     18  C   UNL     1     126.954 123.999 119.955  1.00  0.00     0.160 A 
ATOM     19  C   UNL     1     125.309 125.683 120.557  1.00  0.00     0.050 A 
ATOM     20  C   UNL     1     126.104 125.054 119.590  1.00  0.00     0.157 A 
BRANCH  18  21
ATOM     21  O   UNL     1     127.742 123.400 118.959  1.00  0.00    -0.493 OA
ATOM     22  C   UNL     1     127.365 122.241 118.221  1.00  0.00     0.278 C 
ENDBRANCH  18  21
BRANCH  20  23
ATOM     23  O   UNL     1     126.058 125.475 118.262  1.00  0.00    -0.504 OA
ATOM     24  H   UNL     1     126.596 125.011 117.540  1.00  0.00     0.293 HD
ENDBRANCH  20  23
ENDBRANCH  14  15
ENDBRANCH  12  14
ENDBRANCH   9  10
ENDBRANCH   1   9
TORSDOF 10
ENDMDL
