MODEL 1
REMARK VINA RESULT:    -2.802      0.000      0.000
REMARK INTER + INTRA:          -3.138
REMARK INTER:                  -3.130
REMARK INTRA:                  -0.008
REMARK UNBOUND:                -0.008
REMARK SMILES CCCC(=O)[O-]
REMARK SMILES IDX 3 1 4 2 5 3 6 4 2 5 1 6
REMARK H PARENT
REMARK Flexibility Score: inf
ROOT
ATOM      1  C   UNL     1      -5.209  -3.698   2.243  1.00  0.00     0.052 C 
ENDROOT
BRANCH   1   2
ATOM      2  C   UNL     1      -4.795  -4.142   0.873  1.00  0.00     0.041 C 
ATOM      3  O   UNL     1      -4.501  -5.348   0.660  1.00  0.00    -0.550 OA
ATOM      4  O   UNL     1      -4.703  -3.218  -0.159  1.00  0.00    -0.550 OA
ENDBRANCH   1   2
BRANCH   1   5
ATOM      5  C   UNL     1      -4.814  -2.240   2.510  1.00  0.00     0.003 C 
ATOM      6  C   UNL     1      -4.491  -1.986   3.983  1.00  0.00     0.004 C 
ENDBRANCH   1   5
TORSDOF 2
ENDMDL
MODEL 2
REMARK VINA RESULT:    -2.738      2.923      3.796
REMARK INTER + INTRA:          -3.066
REMARK INTER:                  -3.061
REMARK INTRA:                  -0.005
REMARK UNBOUND:                -0.008
REMARK SMILES CCCC(=O)[O-]
REMARK SMILES IDX 3 1 4 2 5 3 6 4 2 5 1 6
REMARK H PARENT
REMARK Flexibility Score: inf
ROOT
ATOM      1  C   UNL     1      -6.247  -5.503  -0.645  1.00  0.00     0.052 C 
ENDROOT
BRANCH   1   2
ATOM      2  C   UNL     1      -5.990  -5.364  -2.114  1.00  0.00     0.041 C 
ATOM      3  O   UNL     1      -6.501  -4.410  -2.759  1.00  0.00    -0.550 OA
ATOM      4  O   UNL     1      -5.213  -6.305  -2.777  1.00  0.00    -0.550 OA
ENDBRANCH   1   2
BRANCH   1   5
ATOM      5  C   UNL     1      -5.008  -5.144   0.185  1.00  0.00     0.003 C 
ATOM      6  C   UNL     1      -5.336  -4.947   1.665  1.00  0.00     0.004 C 
ENDBRANCH   1   5
TORSDOF 2
ENDMDL
MODEL 3
REMARK VINA RESULT:    -2.718      2.204      3.484
REMARK INTER + INTRA:          -3.044
REMARK INTER:                  -3.006
REMARK INTRA:                  -0.038
REMARK UNBOUND:                -0.008
REMARK SMILES CCCC(=O)[O-]
REMARK SMILES IDX 3 1 4 2 5 3 6 4 2 5 1 6
REMARK H PARENT
REMARK Flexibility Score: inf
ROOT
ATOM      1  C   UNL     1      -4.789  -4.946   0.540  1.00  0.00     0.052 C 
ENDROOT
BRANCH   1   2
ATOM      2  C   UNL     1      -4.899  -3.458   0.677  1.00  0.00     0.041 C 
ATOM      3  O   UNL     1      -4.757  -2.914   1.804  1.00  0.00    -0.550 OA
ATOM      4  O   UNL     1      -5.192  -2.677  -0.433  1.00  0.00    -0.550 OA
ENDBRANCH   1   2
BRANCH   1   5
ATOM      5  C   UNL     1      -5.587  -5.465  -0.664  1.00  0.00     0.003 C 
ATOM      6  C   UNL     1      -7.073  -5.630  -0.348  1.00  0.00     0.004 C 
ENDBRANCH   1   5
TORSDOF 2
ENDMDL
MODEL 4
REMARK VINA RESULT:    -2.711      2.493      4.246
REMARK INTER + INTRA:          -3.037
REMARK INTER:                  -3.029
REMARK INTRA:                  -0.007
REMARK UNBOUND:                -0.008
REMARK SMILES CCCC(=O)[O-]
REMARK SMILES IDX 3 1 4 2 5 3 6 4 2 5 1 6
REMARK H PARENT
REMARK Flexibility Score: inf
ROOT
ATOM      1  C   UNL     1      -6.246  -5.443  -0.224  1.00  0.00     0.052 C 
ENDROOT
BRANCH   1   2
ATOM      2  C   UNL     1      -5.238  -4.904   0.744  1.00  0.00     0.041 C 
ATOM      3  O   UNL     1      -5.150  -5.391   1.902  1.00  0.00    -0.550 OA
ATOM      4  O   UNL     1      -4.420  -3.844   0.379  1.00  0.00    -0.550 OA
ENDBRANCH   1   2
BRANCH   1   5
ATOM      5  C   UNL     1      -5.641  -5.645  -1.620  1.00  0.00     0.003 C 
ATOM      6  C   UNL     1      -6.699  -5.988  -2.668  1.00  0.00     0.004 C 
ENDBRANCH   1   5
TORSDOF 2
ENDMDL
MODEL 5
REMARK VINA RESULT:    -2.668      2.343      3.747
REMARK INTER + INTRA:          -2.988
REMARK INTER:                  -2.982
REMARK INTRA:                  -0.006
REMARK UNBOUND:                -0.008
REMARK SMILES CCCC(=O)[O-]
REMARK SMILES IDX 3 1 4 2 5 3 6 4 2 5 1 6
REMARK H PARENT
REMARK Flexibility Score: inf
ROOT
ATOM      1  C   UNL     1      -4.854  -4.913   0.629  1.00  0.00     0.052 C 
ENDROOT
BRANCH   1   2
ATOM      2  C   UNL     1      -5.147  -4.692   2.082  1.00  0.00     0.041 C 
ATOM      3  O   UNL     1      -5.485  -5.659   2.814  1.00  0.00    -0.550 OA
ATOM      4  O   UNL     1      -5.080  -3.413   2.618  1.00  0.00    -0.550 OA
ENDBRANCH   1   2
BRANCH   1   5
ATOM      5  C   UNL     1      -6.113  -5.319  -0.148  1.00  0.00     0.003 C 
ATOM      6  C   UNL     1      -5.818  -5.619  -1.617  1.00  0.00     0.004 C 
ENDBRANCH   1   5
TORSDOF 2
ENDMDL
MODEL 6
REMARK VINA RESULT:    -2.650      1.994      2.524
REMARK INTER + INTRA:          -2.968
REMARK INTER:                  -2.938
REMARK INTRA:                  -0.030
REMARK UNBOUND:                -0.008
REMARK SMILES CCCC(=O)[O-]
REMARK SMILES IDX 3 1 4 2 5 3 6 4 2 5 1 6
REMARK H PARENT
REMARK Flexibility Score: inf
ROOT
ATOM      1  C   UNL     1      -4.797  -4.993   0.512  1.00  0.00     0.052 C 
ENDROOT
BRANCH   1   2
ATOM      2  C   UNL     1      -5.851  -5.447  -0.452  1.00  0.00     0.041 C 
ATOM      3  O   UNL     1      -7.029  -5.646  -0.054  1.00  0.00    -0.550 OA
ATOM      4  O   UNL     1      -5.524  -5.683  -1.780  1.00  0.00    -0.550 OA
ENDBRANCH   1   2
BRANCH   1   5
ATOM      5  C   UNL     1      -5.341  -4.895   1.943  1.00  0.00     0.003 C 
ATOM      6  C   UNL     1      -5.134  -3.508   2.550  1.00  0.00     0.004 C 
ENDBRANCH   1   5
TORSDOF 2
ENDMDL
MODEL 7
REMARK VINA RESULT:    -2.628      5.271      6.295
REMARK INTER + INTRA:          -2.944
REMARK INTER:                  -2.889
REMARK INTRA:                  -0.054
REMARK UNBOUND:                -0.008
REMARK SMILES CCCC(=O)[O-]
REMARK SMILES IDX 3 1 4 2 5 3 6 4 2 5 1 6
REMARK H PARENT
REMARK Flexibility Score: inf
ROOT
ATOM      1  C   UNL     1      -2.301  -0.298   6.422  1.00  0.00     0.052 C 
ENDROOT
BRANCH   1   2
ATOM      2  C   UNL     1      -1.421   0.411   5.439  1.00  0.00     0.041 C 
ATOM      3  O   UNL     1      -1.768   1.525   4.966  1.00  0.00    -0.550 OA
ATOM      4  O   UNL     1      -0.233  -0.174   5.019  1.00  0.00    -0.550 OA
ENDBRANCH   1   2
BRANCH   1   5
ATOM      5  C   UNL     1      -3.761  -0.335   5.952  1.00  0.00     0.003 C 
ATOM      6  C   UNL     1      -4.015  -1.444   4.931  1.00  0.00     0.004 C 
ENDBRANCH   1   5
TORSDOF 2
ENDMDL
MODEL 8
REMARK VINA RESULT:    -2.577     13.466     14.115
REMARK INTER + INTRA:          -2.886
REMARK INTER:                  -2.827
REMARK INTRA:                  -0.059
REMARK UNBOUND:                -0.008
REMARK SMILES CCCC(=O)[O-]
REMARK SMILES IDX 3 1 4 2 5 3 6 4 2 5 1 6
REMARK H PARENT
REMARK Flexibility Score: inf
ROOT
ATOM      1  C   UNL     1       2.465   6.055   6.583  1.00  0.00     0.052 C 
ENDROOT
BRANCH   1   2
ATOM      2  C   UNL     1       2.367   7.459   7.096  1.00  0.00     0.041 C 
ATOM      3  O   UNL     1       1.833   8.355   6.391  1.00  0.00    -0.550 OA
ATOM      4  O   UNL     1       2.894   7.785   8.339  1.00  0.00    -0.550 OA
ENDBRANCH   1   2
BRANCH   1   5
ATOM      5  C   UNL     1       2.991   6.014   5.142  1.00  0.00     0.003 C 
ATOM      6  C   UNL     1       4.495   6.276   5.064  1.00  0.00     0.004 C 
ENDBRANCH   1   5
TORSDOF 2
ENDMDL
MODEL 9
REMARK VINA RESULT:    -2.485     10.867     11.513
REMARK INTER + INTRA:          -2.784
REMARK INTER:                  -2.754
REMARK INTRA:                  -0.029
REMARK UNBOUND:                -0.008
REMARK SMILES CCCC(=O)[O-]
REMARK SMILES IDX 3 1 4 2 5 3 6 4 2 5 1 6
REMARK H PARENT
REMARK Flexibility Score: inf
ROOT
ATOM      1  C   UNL     1       5.615  -7.353  -0.560  1.00  0.00     0.052 C 
ENDROOT
BRANCH   1   2
ATOM      2  C   UNL     1       5.056  -6.655  -1.762  1.00  0.00     0.041 C 
ATOM      3  O   UNL     1       4.897  -7.283  -2.842  1.00  0.00    -0.550 OA
ATOM      4  O   UNL     1       4.743  -5.304  -1.698  1.00  0.00    -0.550 OA
ENDBRANCH   1   2
BRANCH   1   5
ATOM      5  C   UNL     1       5.146  -8.813  -0.483  1.00  0.00     0.003 C 
ATOM      6  C   UNL     1       6.300  -9.781  -0.223  1.00  0.00     0.004 C 
ENDBRANCH   1   5
TORSDOF 2
ENDMDL
