MODEL 1
REMARK VINA RESULT:    14.550      0.000      0.000
REMARK INTER + INTRA:          24.415
REMARK INTER:                  20.929
REMARK INTRA:                   3.486
REMARK UNBOUND:                 3.486
REMARK SMILES O=c1c(O[C@H]2O[C@H](CO)[C@@H](O)[C@@H](O)[C@H]2O)c(-c2ccc(O)cc2)oc2cc(O)cc(O)c12
REMARK SMILES IDX 4 1 3 2 16 3 24 4 2 5 25 6 1 7 32 8 26 9 30 10 27 11 29 12
REMARK SMILES IDX 17 13 18 14 19 15 20 16 23 17 22 18 21 19 31 21 28 23 5 25
REMARK SMILES IDX 14 26 6 27 12 28 7 29 10 30 15 31 13 33 8 35 9 36 11 38
REMARK H PARENT 21 20 31 22 28 24 15 32 13 34 9 37 11 39
REMARK Flexibility Score: inf
ROOT
ATOM      1  O   UNL     1      13.624 -11.361  29.853  1.00  0.00    -0.454 OA
ENDROOT
BRANCH   1   2
ATOM      2  C   UNL     1      14.174 -12.244  28.907  1.00  0.00     0.214 A 
ATOM      3  C   UNL     1      14.471 -11.858  27.585  1.00  0.00     0.180 A 
ATOM      4  O   UNL     1      14.876 -12.769  26.710  1.00  0.00    -0.452 OA
ATOM      5  C   UNL     1      14.449 -13.559  29.298  1.00  0.00     0.239 A 
ATOM      6  C   UNL     1      15.065 -14.047  27.016  1.00  0.00     0.146 A 
ATOM      7  O   UNL     1      14.320 -13.853  30.515  1.00  0.00    -0.285 OA
ATOM      8  C   UNL     1      14.853 -14.517  28.337  1.00  0.00     0.111 A 
ATOM      9  C   UNL     1      15.484 -14.919  26.009  1.00  0.00     0.094 A 
ATOM     10  C   UNL     1      15.051 -15.908  28.602  1.00  0.00     0.134 A 
ATOM     11  C   UNL     1      15.701 -16.266  26.282  1.00  0.00     0.123 A 
ATOM     12  C   UNL     1      15.503 -16.748  27.576  1.00  0.00     0.093 A 
BRANCH   3  13
ATOM     13  C   UNL     1      14.371 -10.460  27.126  1.00  0.00     0.021 A 
ATOM     14  C   UNL     1      13.162  -9.749  27.237  1.00  0.00     0.016 A 
ATOM     15  C   UNL     1      13.068  -8.445  26.737  1.00  0.00     0.047 A 
ATOM     16  C   UNL     1      14.175  -7.845  26.114  1.00  0.00     0.115 A 
ATOM     17  C   UNL     1      15.486  -9.844  26.527  1.00  0.00     0.016 A 
ATOM     18  C   UNL     1      15.384  -8.545  26.016  1.00  0.00     0.047 A 
BRANCH  16  19
ATOM     19  O   UNL     1      14.083  -6.558  25.584  1.00  0.00    -0.508 OA
ATOM     20  H   UNL     1      14.420  -6.346  24.647  1.00  0.00     0.293 HD
ENDBRANCH  16  19
ENDBRANCH   3  13
BRANCH  10  21
ATOM     21  O   UNL     1      14.786 -16.521  29.831  1.00  0.00    -0.507 OA
ATOM     22  H   UNL     1      14.627 -17.502  29.979  1.00  0.00     0.293 HD
ENDBRANCH  10  21
BRANCH  11  23
ATOM     23  O   UNL     1      16.082 -17.125  25.255  1.00  0.00    -0.508 OA
ATOM     24  H   UNL     1      15.407 -17.507  24.603  1.00  0.00     0.293 HD
ENDBRANCH  11  23
ENDBRANCH   1   2
BRANCH   1  25
ATOM     25  C   UNL     1      12.235 -10.999  29.956  1.00  0.00     0.339 C 
ATOM     26  C   UNL     1      11.272 -12.228  29.938  1.00  0.00     0.214 C 
ATOM     27  O   UNL     1      11.887 -10.061  28.952  1.00  0.00    -0.332 OA
ATOM     28  C   UNL     1       9.874 -11.829  29.403  1.00  0.00     0.180 C 
ATOM     29  C   UNL     1      10.646  -9.413  29.222  1.00  0.00     0.179 C 
ATOM     30  C   UNL     1       9.561 -10.371  29.804  1.00  0.00     0.177 C 
BRANCH  26  31
ATOM     31  O   UNL     1      11.789 -13.279  29.170  1.00  0.00    -0.384 OA
ATOM     32  H   UNL     1      12.321 -13.849  29.785  1.00  0.00     0.211 HD
ENDBRANCH  26  31
BRANCH  28  33
ATOM     33  O   UNL     1       9.842 -11.960  27.997  1.00  0.00    -0.387 OA
ATOM     34  H   UNL     1       8.963 -11.613  27.699  1.00  0.00     0.211 HD
ENDBRANCH  28  33
BRANCH  29  35
ATOM     35  C   UNL     1      10.866  -8.166  30.103  1.00  0.00     0.191 C 
BRANCH  35  36
ATOM     36  O   UNL     1      12.189  -8.119  30.563  1.00  0.00    -0.394 OA
ATOM     37  H   UNL     1      12.218  -7.451  31.293  1.00  0.00     0.210 HD
ENDBRANCH  35  36
ENDBRANCH  29  35
BRANCH  30  38
ATOM     38  O   UNL     1       8.296  -9.991  29.329  1.00  0.00    -0.387 OA
ATOM     39  H   UNL     1       8.036  -9.172  29.824  1.00  0.00     0.211 HD
ENDBRANCH  30  38
ENDBRANCH   1  25
TORSDOF 11
ENDMDL
MODEL 2
REMARK VINA RESULT:    15.733      1.858      5.894
REMARK INTER + INTRA:          26.117
REMARK INTER:                  25.771
REMARK INTRA:                   0.346
REMARK UNBOUND:                 3.486
REMARK SMILES O=c1c(O[C@H]2O[C@H](CO)[C@@H](O)[C@@H](O)[C@H]2O)c(-c2ccc(O)cc2)oc2cc(O)cc(O)c12
REMARK SMILES IDX 4 1 3 2 16 3 24 4 2 5 25 6 1 7 32 8 26 9 30 10 27 11 29 12
REMARK SMILES IDX 17 13 18 14 19 15 20 16 23 17 22 18 21 19 31 21 28 23 5 25
REMARK SMILES IDX 14 26 6 27 12 28 7 29 10 30 15 31 13 33 8 35 9 36 11 38
REMARK H PARENT 21 20 31 22 28 24 15 32 13 34 9 37 11 39
REMARK Flexibility Score: inf
ROOT
ATOM      1  O   UNL     1      13.924  -9.681  28.648  1.00  0.00    -0.454 OA
ENDROOT
BRANCH   1   2
ATOM      2  C   UNL     1      14.154  -9.561  27.266  1.00  0.00     0.214 A 
ATOM      3  C   UNL     1      14.440 -10.667  26.442  1.00  0.00     0.180 A 
ATOM      4  O   UNL     1      14.765 -10.473  25.170  1.00  0.00    -0.452 OA
ATOM      5  C   UNL     1      14.084  -8.292  26.682  1.00  0.00     0.239 A 
ATOM      6  C   UNL     1      14.798  -9.277  24.597  1.00  0.00     0.146 A 
ATOM      7  O   UNL     1      13.684  -7.335  27.394  1.00  0.00    -0.285 OA
ATOM      8  C   UNL     1      14.463  -8.110  25.330  1.00  0.00     0.111 A 
ATOM      9  C   UNL     1      15.164  -9.192  23.252  1.00  0.00     0.094 A 
ATOM     10  C   UNL     1      14.538  -6.847  24.665  1.00  0.00     0.134 A 
ATOM     11  C   UNL     1      15.207  -7.960  22.605  1.00  0.00     0.123 A 
ATOM     12  C   UNL     1      14.877  -6.801  23.306  1.00  0.00     0.093 A 
BRANCH   3  13
ATOM     13  C   UNL     1      14.376 -12.058  26.930  1.00  0.00     0.021 A 
ATOM     14  C   UNL     1      15.470 -12.641  27.597  1.00  0.00     0.016 A 
ATOM     15  C   UNL     1      15.414 -13.981  27.996  1.00  0.00     0.047 A 
ATOM     16  C   UNL     1      14.272 -14.752  27.724  1.00  0.00     0.115 A 
ATOM     17  C   UNL     1      13.223 -12.827  26.685  1.00  0.00     0.016 A 
ATOM     18  C   UNL     1      13.176 -14.171  27.074  1.00  0.00     0.047 A 
BRANCH  16  19
ATOM     19  O   UNL     1      14.217 -16.098  28.089  1.00  0.00    -0.508 OA
ATOM     20  H   UNL     1      14.258 -16.384  29.065  1.00  0.00     0.293 HD
ENDBRANCH  16  19
ENDBRANCH   3  13
BRANCH  10  21
ATOM     21  O   UNL     1      14.329  -5.613  25.292  1.00  0.00    -0.507 OA
ATOM     22  H   UNL     1      14.490  -4.709  24.883  1.00  0.00     0.293 HD
ENDBRANCH  10  21
BRANCH  11  23
ATOM     23  O   UNL     1      15.611  -7.894  21.275  1.00  0.00    -0.508 OA
ATOM     24  H   UNL     1      16.521  -8.227  20.978  1.00  0.00     0.293 HD
ENDBRANCH  11  23
ENDBRANCH   1   2
BRANCH   1  25
ATOM     25  C   UNL     1      12.783 -10.309  29.259  1.00  0.00     0.339 C 
ATOM     26  C   UNL     1      13.136 -11.122  30.544  1.00  0.00     0.214 C 
ATOM     27  O   UNL     1      12.092 -11.114  28.318  1.00  0.00    -0.332 OA
ATOM     28  C   UNL     1      12.110 -12.258  30.782  1.00  0.00     0.180 C 
ATOM     29  C   UNL     1      10.784 -11.466  28.763  1.00  0.00     0.179 C 
ATOM     30  C   UNL     1      10.719 -11.813  30.282  1.00  0.00     0.177 C 
BRANCH  26  31
ATOM     31  O   UNL     1      14.428 -11.661  30.476  1.00  0.00    -0.384 OA
ATOM     32  H   UNL     1      14.464 -12.218  29.656  1.00  0.00     0.211 HD
ENDBRANCH  26  31
BRANCH  28  33
ATOM     33  O   UNL     1      12.517 -13.426  30.100  1.00  0.00    -0.387 OA
ATOM     34  H   UNL     1      13.224 -13.151  29.463  1.00  0.00     0.211 HD
ENDBRANCH  28  33
BRANCH  29  35
ATOM     35  C   UNL     1       9.764 -10.380  28.360  1.00  0.00     0.191 C 
BRANCH  35  36
ATOM     36  O   UNL     1       8.701 -10.346  29.272  1.00  0.00    -0.394 OA
ATOM     37  H   UNL     1       9.023  -9.864  30.074  1.00  0.00     0.210 HD
ENDBRANCH  35  36
ENDBRANCH  29  35
BRANCH  30  38
ATOM     38  O   UNL     1       9.773 -12.829  30.491  1.00  0.00    -0.387 OA
ATOM     39  H   UNL     1      10.259 -13.600  30.884  1.00  0.00     0.211 HD
ENDBRANCH  30  38
ENDBRANCH   1  25
TORSDOF 11
ENDMDL
MODEL 3
REMARK VINA RESULT:    16.997      2.036      6.073
REMARK INTER + INTRA:          27.935
REMARK INTER:                  27.660
REMARK INTRA:                   0.275
REMARK UNBOUND:                 3.486
REMARK SMILES O=c1c(O[C@H]2O[C@H](CO)[C@@H](O)[C@@H](O)[C@H]2O)c(-c2ccc(O)cc2)oc2cc(O)cc(O)c12
REMARK SMILES IDX 4 1 3 2 16 3 24 4 2 5 25 6 1 7 32 8 26 9 30 10 27 11 29 12
REMARK SMILES IDX 17 13 18 14 19 15 20 16 23 17 22 18 21 19 31 21 28 23 5 25
REMARK SMILES IDX 14 26 6 27 12 28 7 29 10 30 15 31 13 33 8 35 9 36 11 38
REMARK H PARENT 21 20 31 22 28 24 15 32 13 34 9 37 11 39
REMARK Flexibility Score: inf
ROOT
ATOM      1  O   UNL     1      13.523  -9.406  28.276  1.00  0.00    -0.454 OA
ENDROOT
BRANCH   1   2
ATOM      2  C   UNL     1      13.924  -9.331  26.929  1.00  0.00     0.214 A 
ATOM      3  C   UNL     1      14.338 -10.458  26.193  1.00  0.00     0.180 A 
ATOM      4  O   UNL     1      14.817 -10.301  24.966  1.00  0.00    -0.452 OA
ATOM      5  C   UNL     1      13.900  -8.086  26.292  1.00  0.00     0.239 A 
ATOM      6  C   UNL     1      14.895  -9.126  24.354  1.00  0.00     0.146 A 
ATOM      7  O   UNL     1      13.390  -7.116  26.909  1.00  0.00    -0.285 OA
ATOM      8  C   UNL     1      14.443  -7.943  24.992  1.00  0.00     0.111 A 
ATOM      9  C   UNL     1      15.427  -9.080  23.063  1.00  0.00     0.094 A 
ATOM     10  C   UNL     1      14.572  -6.703  24.292  1.00  0.00     0.134 A 
ATOM     11  C   UNL     1      15.524  -7.872  22.379  1.00  0.00     0.123 A 
ATOM     12  C   UNL     1      15.080  -6.697  22.986  1.00  0.00     0.093 A 
BRANCH   3  13
ATOM     13  C   UNL     1      14.245 -11.831  26.723  1.00  0.00     0.021 A 
ATOM     14  C   UNL     1      15.395 -12.519  27.152  1.00  0.00     0.016 A 
ATOM     15  C   UNL     1      15.295 -13.844  27.594  1.00  0.00     0.047 A 
ATOM     16  C   UNL     1      14.050 -14.495  27.599  1.00  0.00     0.115 A 
ATOM     17  C   UNL     1      12.995 -12.478  26.759  1.00  0.00     0.016 A 
ATOM     18  C   UNL     1      12.902 -13.808  27.188  1.00  0.00     0.047 A 
BRANCH  16  19
ATOM     19  O   UNL     1      13.943 -15.825  28.007  1.00  0.00    -0.508 OA
ATOM     20  H   UNL     1      13.706 -16.067  28.967  1.00  0.00     0.293 HD
ENDBRANCH  16  19
ENDBRANCH   3  13
BRANCH  10  21
ATOM     21  O   UNL     1      14.257  -5.453  24.838  1.00  0.00    -0.507 OA
ATOM     22  H   UNL     1      13.514  -4.848  24.536  1.00  0.00     0.293 HD
ENDBRANCH  10  21
BRANCH  11  23
ATOM     23  O   UNL     1      16.092  -7.843  21.109  1.00  0.00    -0.508 OA
ATOM     24  H   UNL     1      16.010  -7.031  20.508  1.00  0.00     0.293 HD
ENDBRANCH  11  23
ENDBRANCH   1   2
BRANCH   1  25
ATOM     25  C   UNL     1      12.696 -10.435  28.849  1.00  0.00     0.339 C 
ATOM     26  C   UNL     1      11.267 -10.502  28.223  1.00  0.00     0.214 C 
ATOM     27  O   UNL     1      12.630 -10.295  30.259  1.00  0.00    -0.332 OA
ATOM     28  C   UNL     1      10.249 -11.097  29.227  1.00  0.00     0.180 C 
ATOM     29  C   UNL     1      12.130 -11.468  30.897  1.00  0.00     0.179 C 
ATOM     30  C   UNL     1      10.953 -12.138  30.124  1.00  0.00     0.177 C 
BRANCH  26  31
ATOM     31  O   UNL     1      10.828  -9.241  27.798  1.00  0.00    -0.384 OA
ATOM     32  H   UNL     1      10.030  -9.016  28.343  1.00  0.00     0.211 HD
ENDBRANCH  26  31
BRANCH  28  33
ATOM     33  O   UNL     1       9.699 -10.068  30.022  1.00  0.00    -0.387 OA
ATOM     34  H   UNL     1       9.301  -9.409  29.399  1.00  0.00     0.211 HD
ENDBRANCH  28  33
BRANCH  29  35
ATOM     35  C   UNL     1      13.278 -12.455  31.195  1.00  0.00     0.191 C 
BRANCH  35  36
ATOM     36  O   UNL     1      13.049 -13.680  30.557  1.00  0.00    -0.394 OA
ATOM     37  H   UNL     1      12.591 -13.480  29.702  1.00  0.00     0.210 HD
ENDBRANCH  35  36
ENDBRANCH  29  35
BRANCH  30  38
ATOM     38  O   UNL     1      10.045 -12.691  31.041  1.00  0.00    -0.387 OA
ATOM     39  H   UNL     1       9.351 -12.002  31.213  1.00  0.00     0.211 HD
ENDBRANCH  30  38
ENDBRANCH   1  25
TORSDOF 11
ENDMDL
MODEL 4
REMARK VINA RESULT:    17.012      7.455     12.498
REMARK INTER + INTRA:          27.957
REMARK INTER:                  28.271
REMARK INTRA:                  -0.314
REMARK UNBOUND:                 3.486
REMARK SMILES O=c1c(O[C@H]2O[C@H](CO)[C@@H](O)[C@@H](O)[C@H]2O)c(-c2ccc(O)cc2)oc2cc(O)cc(O)c12
REMARK SMILES IDX 4 1 3 2 16 3 24 4 2 5 25 6 1 7 32 8 26 9 30 10 27 11 29 12
REMARK SMILES IDX 17 13 18 14 19 15 20 16 23 17 22 18 21 19 31 21 28 23 5 25
REMARK SMILES IDX 14 26 6 27 12 28 7 29 10 30 15 31 13 33 8 35 9 36 11 38
REMARK H PARENT 21 20 31 22 28 24 15 32 13 34 9 37 11 39
REMARK Flexibility Score: inf
ROOT
ATOM      1  O   UNL     1      16.059  -2.787  27.672  1.00  0.00    -0.454 OA
ENDROOT
BRANCH   1   2
ATOM      2  C   UNL     1      15.445  -1.930  26.740  1.00  0.00     0.214 A 
ATOM      3  C   UNL     1      15.042  -2.359  25.460  1.00  0.00     0.180 A 
ATOM      4  O   UNL     1      14.579  -1.474  24.586  1.00  0.00    -0.452 OA
ATOM      5  C   UNL     1      15.215  -0.599  27.103  1.00  0.00     0.239 A 
ATOM      6  C   UNL     1      14.427  -0.184  24.860  1.00  0.00     0.146 A 
ATOM      7  O   UNL     1      15.441  -0.264  28.295  1.00  0.00    -0.285 OA
ATOM      8  C   UNL     1      14.746   0.329  26.142  1.00  0.00     0.111 A 
ATOM      9  C   UNL     1      13.939   0.657  23.857  1.00  0.00     0.094 A 
ATOM     10  C   UNL     1      14.582   1.731  26.371  1.00  0.00     0.134 A 
ATOM     11  C   UNL     1      13.757   2.015  24.098  1.00  0.00     0.123 A 
ATOM     12  C   UNL     1      14.059   2.540  25.354  1.00  0.00     0.093 A 
BRANCH   3  13
ATOM     13  C   UNL     1      15.093  -3.773  25.044  1.00  0.00     0.021 A 
ATOM     14  C   UNL     1      14.958  -4.133  23.690  1.00  0.00     0.016 A 
ATOM     15  C   UNL     1      14.945  -5.483  23.322  1.00  0.00     0.047 A 
ATOM     16  C   UNL     1      15.056  -6.484  24.302  1.00  0.00     0.115 A 
ATOM     17  C   UNL     1      15.234  -4.779  26.019  1.00  0.00     0.016 A 
ATOM     18  C   UNL     1      15.207  -6.129  25.648  1.00  0.00     0.047 A 
BRANCH  16  19
ATOM     19  O   UNL     1      15.013  -7.833  23.950  1.00  0.00    -0.508 OA
ATOM     20  H   UNL     1      14.790  -8.552  24.636  1.00  0.00     0.293 HD
ENDBRANCH  16  19
ENDBRANCH   3  13
BRANCH  10  21
ATOM     21  O   UNL     1      14.948   2.384  27.554  1.00  0.00    -0.507 OA
ATOM     22  H   UNL     1      14.572   3.254  27.888  1.00  0.00     0.293 HD
ENDBRANCH  10  21
BRANCH  11  23
ATOM     23  O   UNL     1      13.305   2.842  23.073  1.00  0.00    -0.508 OA
ATOM     24  H   UNL     1      13.857   3.623  22.737  1.00  0.00     0.293 HD
ENDBRANCH  11  23
ENDBRANCH   1   2
BRANCH   1  25
ATOM     25  C   UNL     1      17.458  -3.118  27.713  1.00  0.00     0.339 C 
ATOM     26  C   UNL     1      17.876  -3.885  29.008  1.00  0.00     0.214 C 
ATOM     27  O   UNL     1      18.253  -1.959  27.526  1.00  0.00    -0.332 OA
ATOM     28  C   UNL     1      19.372  -3.651  29.332  1.00  0.00     0.180 C 
ATOM     29  C   UNL     1      19.606  -2.275  27.208  1.00  0.00     0.179 C 
ATOM     30  C   UNL     1      20.167  -3.482  28.020  1.00  0.00     0.177 C 
BRANCH  26  31
ATOM     31  O   UNL     1      17.091  -3.511  30.106  1.00  0.00    -0.384 OA
ATOM     32  H   UNL     1      17.641  -2.893  30.655  1.00  0.00     0.211 HD
ENDBRANCH  26  31
BRANCH  28  33
ATOM     33  O   UNL     1      19.516  -2.499  30.136  1.00  0.00    -0.387 OA
ATOM     34  H   UNL     1      20.115  -2.748  30.885  1.00  0.00     0.211 HD
ENDBRANCH  28  33
BRANCH  29  35
ATOM     35  C   UNL     1      19.776  -2.457  25.685  1.00  0.00     0.191 C 
BRANCH  35  36
ATOM     36  O   UNL     1      19.164  -1.402  24.995  1.00  0.00    -0.394 OA
ATOM     37  H   UNL     1      19.113  -1.670  24.043  1.00  0.00     0.210 HD
ENDBRANCH  35  36
ENDBRANCH  29  35
BRANCH  30  38
ATOM     38  O   UNL     1      21.528  -3.270  28.293  1.00  0.00    -0.387 OA
ATOM     39  H   UNL     1      21.636  -2.305  28.494  1.00  0.00     0.211 HD
ENDBRANCH  30  38
ENDBRANCH   1  25
TORSDOF 11
ENDMDL
MODEL 5
REMARK VINA RESULT:    17.074      1.288      2.161
REMARK INTER + INTRA:          28.045
REMARK INTER:                  28.196
REMARK INTRA:                  -0.151
REMARK UNBOUND:                 3.486
REMARK SMILES O=c1c(O[C@H]2O[C@H](CO)[C@@H](O)[C@@H](O)[C@H]2O)c(-c2ccc(O)cc2)oc2cc(O)cc(O)c12
REMARK SMILES IDX 4 1 3 2 16 3 24 4 2 5 25 6 1 7 32 8 26 9 30 10 27 11 29 12
REMARK SMILES IDX 17 13 18 14 19 15 20 16 23 17 22 18 21 19 31 21 28 23 5 25
REMARK SMILES IDX 14 26 6 27 12 28 7 29 10 30 15 31 13 33 8 35 9 36 11 38
REMARK H PARENT 21 20 31 22 28 24 15 32 13 34 9 37 11 39
REMARK Flexibility Score: inf
ROOT
ATOM      1  O   UNL     1      13.469 -10.583  28.827  1.00  0.00    -0.454 OA
ENDROOT
BRANCH   1   2
ATOM      2  C   UNL     1      14.090 -11.633  28.126  1.00  0.00     0.214 A 
ATOM      3  C   UNL     1      14.537 -11.502  26.796  1.00  0.00     0.180 A 
ATOM      4  O   UNL     1      15.006 -12.563  26.153  1.00  0.00    -0.452 OA
ATOM      5  C   UNL     1      14.281 -12.854  28.779  1.00  0.00     0.239 A 
ATOM      6  C   UNL     1      15.123 -13.764  26.708  1.00  0.00     0.146 A 
ATOM      7  O   UNL     1      14.015 -12.916  30.007  1.00  0.00    -0.285 OA
ATOM      8  C   UNL     1      14.757 -13.978  28.061  1.00  0.00     0.111 A 
ATOM      9  C   UNL     1      15.621 -14.812  25.930  1.00  0.00     0.094 A 
ATOM     10  C   UNL     1      14.884 -15.297  28.597  1.00  0.00     0.134 A 
ATOM     11  C   UNL     1      15.767 -16.086  26.469  1.00  0.00     0.123 A 
ATOM     12  C   UNL     1      15.418 -16.318  27.799  1.00  0.00     0.093 A 
BRANCH   3  13
ATOM     13  C   UNL     1      14.529 -10.213  26.079  1.00  0.00     0.021 A 
ATOM     14  C   UNL     1      14.988 -10.122  24.752  1.00  0.00     0.016 A 
ATOM     15  C   UNL     1      15.031  -8.879  24.109  1.00  0.00     0.047 A 
ATOM     16  C   UNL     1      14.628  -7.718  24.788  1.00  0.00     0.115 A 
ATOM     17  C   UNL     1      14.098  -9.050  26.745  1.00  0.00     0.016 A 
ATOM     18  C   UNL     1      14.156  -7.807  26.104  1.00  0.00     0.047 A 
BRANCH  16  19
ATOM     19  O   UNL     1      14.697  -6.470  24.169  1.00  0.00    -0.508 OA
ATOM     20  H   UNL     1      15.536  -5.897  24.224  1.00  0.00     0.293 HD
ENDBRANCH  16  19
ENDBRANCH   3  13
BRANCH  10  21
ATOM     21  O   UNL     1      14.471 -15.669  29.882  1.00  0.00    -0.507 OA
ATOM     22  H   UNL     1      14.862 -15.336  30.746  1.00  0.00     0.293 HD
ENDBRANCH  10  21
BRANCH  11  23
ATOM     23  O   UNL     1      16.229 -17.125  25.666  1.00  0.00    -0.508 OA
ATOM     24  H   UNL     1      16.505 -16.971  24.703  1.00  0.00     0.293 HD
ENDBRANCH  11  23
ENDBRANCH   1   2
BRANCH   1  25
ATOM     25  C   UNL     1      12.058 -10.297  28.834  1.00  0.00     0.339 C 
ATOM     26  C   UNL     1      11.589  -9.522  30.106  1.00  0.00     0.214 C 
ATOM     27  O   UNL     1      11.306 -11.485  28.652  1.00  0.00    -0.332 OA
ATOM     28  C   UNL     1      10.095  -9.799  30.405  1.00  0.00     0.180 C 
ATOM     29  C   UNL     1       9.950 -11.219  28.301  1.00  0.00     0.179 C 
ATOM     30  C   UNL     1       9.333 -10.017  29.080  1.00  0.00     0.177 C 
BRANCH  26  31
ATOM     31  O   UNL     1      12.364  -9.852  31.227  1.00  0.00    -0.384 OA
ATOM     32  H   UNL     1      13.299  -9.951  30.910  1.00  0.00     0.211 HD
ENDBRANCH  26  31
BRANCH  28  33
ATOM     33  O   UNL     1       9.972 -10.942  31.226  1.00  0.00    -0.387 OA
ATOM     34  H   UNL     1      10.561 -10.794  32.009  1.00  0.00     0.211 HD
ENDBRANCH  28  33
BRANCH  29  35
ATOM     35  C   UNL     1       9.805 -11.069  26.772  1.00  0.00     0.191 C 
BRANCH  35  36
ATOM     36  O   UNL     1      10.346 -12.184  26.117  1.00  0.00    -0.394 OA
ATOM     37  H   UNL     1      10.989 -11.842  25.446  1.00  0.00     0.210 HD
ENDBRANCH  35  36
ENDBRANCH  29  35
BRANCH  30  38
ATOM     38  O   UNL     1       7.975 -10.269  29.330  1.00  0.00    -0.387 OA
ATOM     39  H   UNL     1       7.679 -10.944  28.665  1.00  0.00     0.211 HD
ENDBRANCH  30  38
ENDBRANCH   1  25
TORSDOF 11
ENDMDL
MODEL 6
REMARK VINA RESULT:    17.530      7.538     12.591
REMARK INTER + INTRA:          28.702
REMARK INTER:                  27.018
REMARK INTRA:                   1.684
REMARK UNBOUND:                 3.486
REMARK SMILES O=c1c(O[C@H]2O[C@H](CO)[C@@H](O)[C@@H](O)[C@H]2O)c(-c2ccc(O)cc2)oc2cc(O)cc(O)c12
REMARK SMILES IDX 4 1 3 2 16 3 24 4 2 5 25 6 1 7 32 8 26 9 30 10 27 11 29 12
REMARK SMILES IDX 17 13 18 14 19 15 20 16 23 17 22 18 21 19 31 21 28 23 5 25
REMARK SMILES IDX 14 26 6 27 12 28 7 29 10 30 15 31 13 33 8 35 9 36 11 38
REMARK H PARENT 21 20 31 22 28 24 15 32 13 34 9 37 11 39
REMARK Flexibility Score: inf
ROOT
ATOM      1  O   UNL     1      15.656  -2.232  27.870  1.00  0.00    -0.454 OA
ENDROOT
BRANCH   1   2
ATOM      2  C   UNL     1      15.159  -1.429  26.828  1.00  0.00     0.214 A 
ATOM      3  C   UNL     1      14.888  -1.933  25.540  1.00  0.00     0.180 A 
ATOM      4  O   UNL     1      14.535  -1.100  24.570  1.00  0.00    -0.452 OA
ATOM      5  C   UNL     1      14.912  -0.076  27.083  1.00  0.00     0.239 A 
ATOM      6  C   UNL     1      14.375   0.205  24.746  1.00  0.00     0.146 A 
ATOM      7  O   UNL     1      15.015   0.330  28.269  1.00  0.00    -0.285 OA
ATOM      8  C   UNL     1      14.563   0.794  26.022  1.00  0.00     0.111 A 
ATOM      9  C   UNL     1      14.010   0.987  23.648  1.00  0.00     0.094 A 
ATOM     10  C   UNL     1      14.398   2.209  26.147  1.00  0.00     0.134 A 
ATOM     11  C   UNL     1      13.825   2.359  23.785  1.00  0.00     0.123 A 
ATOM     12  C   UNL     1      14.000   2.959  25.032  1.00  0.00     0.093 A 
BRANCH   3  13
ATOM     13  C   UNL     1      14.961  -3.371  25.219  1.00  0.00     0.021 A 
ATOM     14  C   UNL     1      14.937  -3.815  23.884  1.00  0.00     0.016 A 
ATOM     15  C   UNL     1      14.943  -5.186  23.601  1.00  0.00     0.047 A 
ATOM     16  C   UNL     1      14.961  -6.123  24.647  1.00  0.00     0.115 A 
ATOM     17  C   UNL     1      15.009  -4.314  26.263  1.00  0.00     0.016 A 
ATOM     18  C   UNL     1      15.000  -5.684  25.976  1.00  0.00     0.047 A 
BRANCH  16  19
ATOM     19  O   UNL     1      14.934  -7.491  24.378  1.00  0.00    -0.508 OA
ATOM     20  H   UNL     1      14.107  -8.053  24.568  1.00  0.00     0.293 HD
ENDBRANCH  16  19
ENDBRANCH   3  13
BRANCH  10  21
ATOM     21  O   UNL     1      14.646   2.931  27.320  1.00  0.00    -0.507 OA
ATOM     22  H   UNL     1      14.820   3.919  27.378  1.00  0.00     0.293 HD
ENDBRANCH  10  21
BRANCH  11  23
ATOM     23  O   UNL     1      13.498   3.125  22.669  1.00  0.00    -0.508 OA
ATOM     24  H   UNL     1      13.627   4.130  22.657  1.00  0.00     0.293 HD
ENDBRANCH  11  23
ENDBRANCH   1   2
BRANCH   1  25
ATOM     25  C   UNL     1      17.043  -2.395  28.216  1.00  0.00     0.339 C 
ATOM     26  C   UNL     1      18.013  -1.619  27.271  1.00  0.00     0.214 C 
ATOM     27  O   UNL     1      17.384  -3.770  28.281  1.00  0.00    -0.332 OA
ATOM     28  C   UNL     1      19.407  -2.292  27.231  1.00  0.00     0.180 C 
ATOM     29  C   UNL     1      18.622  -3.990  28.953  1.00  0.00     0.179 C 
ATOM     30  C   UNL     1      19.713  -2.932  28.603  1.00  0.00     0.177 C 
BRANCH  26  31
ATOM     31  O   UNL     1      17.500  -1.520  25.971  1.00  0.00    -0.384 OA
ATOM     32  H   UNL     1      18.277  -1.410  25.363  1.00  0.00     0.211 HD
ENDBRANCH  26  31
BRANCH  28  33
ATOM     33  O   UNL     1      19.437  -3.279  26.221  1.00  0.00    -0.387 OA
ATOM     34  H   UNL     1      19.404  -2.799  25.354  1.00  0.00     0.211 HD
ENDBRANCH  28  33
BRANCH  29  35
ATOM     35  C   UNL     1      18.397  -4.126  30.474  1.00  0.00     0.191 C 
BRANCH  35  36
ATOM     36  O   UNL     1      17.049  -4.395  30.747  1.00  0.00    -0.394 OA
ATOM     37  H   UNL     1      16.833  -3.947  31.603  1.00  0.00     0.210 HD
ENDBRANCH  35  36
ENDBRANCH  29  35
BRANCH  30  38
ATOM     38  O   UNL     1      20.975  -3.548  28.588  1.00  0.00    -0.387 OA
ATOM     39  H   UNL     1      21.281  -3.602  29.530  1.00  0.00     0.211 HD
ENDBRANCH  30  38
ENDBRANCH   1  25
TORSDOF 11
ENDMDL
