MODEL 1
REMARK VINA RESULT:    35.138      0.000      0.000
REMARK INTER + INTRA:          57.383
REMARK INTER:                  57.733
REMARK INTRA:                  -0.350
REMARK UNBOUND:                -0.350
REMARK SMILES COc1ccc([C@@H]2CC(=O)c3c(O)cc(O[C@H]4O[C@H](CO[C@H]5O[C@H](C)[C@H](O)[C@H](O)[C@@H]5O)[C@H](O)[C@H](O)[C@H]4O)cc3O2)cc1O
REMARK SMILES IDX 19 1 32 2 34 3 36 4 17 5 18 6 20 7 21 8 22 9 25 10 24 11
REMARK SMILES IDX 26 12 23 13 28 14 30 15 27 16 29 18 31 20 33 22 35 24 16 26
REMARK SMILES IDX 15 27 14 28 38 29 12 30 39 31 11 32 40 33 9 34 7 35 10 36
REMARK SMILES IDX 8 37 13 38 6 40 41 41 5 42 42 43 4 44 3 45 43 46 2 48 1 49
REMARK SMILES IDX 37 50
REMARK H PARENT 27 17 29 19 31 21 33 23 35 25 13 39 43 47 37 51
REMARK Flexibility Score: inf
ROOT
ATOM      1  C   UNL     1      12.299  22.975   1.934  1.00  0.00     0.180 C 
ATOM      2  C   UNL     1      12.348  21.772   2.874  1.00  0.00     0.177 C 
ATOM      3  C   UNL     1      12.040  22.232   4.299  1.00  0.00     0.180 C 
ATOM      4  C   UNL     1      12.755  23.550   4.680  1.00  0.00     0.214 C 
ATOM      5  C   UNL     1      13.559  24.270   3.554  1.00  0.00     0.339 C 
ATOM      6  O   UNL     1      13.354  23.886   2.184  1.00  0.00    -0.332 OA
ENDROOT
BRANCH   1   7
ATOM      7  C   UNL     1      10.932  23.675   1.821  1.00  0.00     0.198 C 
BRANCH   7   8
ATOM      8  O   UNL     1      10.490  23.735   0.478  1.00  0.00    -0.347 OA
BRANCH   8   9
ATOM      9  C   UNL     1      11.280  22.978  -0.431  1.00  0.00     0.281 C 
ATOM     10  C   UNL     1      11.656  19.894  -1.459  1.00  0.00     0.041 C 
ATOM     11  C   UNL     1      10.790  21.093  -1.901  1.00  0.00     0.150 C 
ATOM     12  C   UNL     1      11.298  21.858  -3.147  1.00  0.00     0.174 C 
ATOM     13  O   UNL     1      10.385  21.933  -0.834  1.00  0.00    -0.344 OA
ATOM     14  C   UNL     1      12.354  22.879  -2.782  1.00  0.00     0.179 C 
ATOM     15  C   UNL     1      11.768  23.790  -1.677  1.00  0.00     0.202 C 
BRANCH  12  16
ATOM     16  O   UNL     1      11.794  20.991  -4.131  1.00  0.00    -0.388 OA
ATOM     17  H   UNL     1      12.348  20.283  -3.682  1.00  0.00     0.211 HD
ENDBRANCH  12  16
BRANCH  14  18
ATOM     18  O   UNL     1      13.558  22.235  -2.446  1.00  0.00    -0.387 OA
ATOM     19  H   UNL     1      14.319  22.832  -2.682  1.00  0.00     0.211 HD
ENDBRANCH  14  18
BRANCH  15  20
ATOM     20  O   UNL     1      12.797  24.671  -1.297  1.00  0.00    -0.385 OA
ATOM     21  H   UNL     1      13.124  25.132  -2.124  1.00  0.00     0.211 HD
ENDBRANCH  15  20
ENDBRANCH   8   9
ENDBRANCH   7   8
ENDBRANCH   1   7
BRANCH   2  22
ATOM     22  O   UNL     1      11.438  20.761   2.465  1.00  0.00    -0.387 OA
ATOM     23  H   UNL     1      11.260  20.160   3.240  1.00  0.00     0.211 HD
ENDBRANCH   2  22
BRANCH   3  24
ATOM     24  O   UNL     1      10.665  22.405   4.495  1.00  0.00    -0.387 OA
ATOM     25  H   UNL     1      10.443  23.343   4.301  1.00  0.00     0.211 HD
ENDBRANCH   3  24
BRANCH   5  26
ATOM     26  O   UNL     1      14.966  24.245   3.834  1.00  0.00    -0.462 OA
BRANCH  26  27
ATOM     27  C   UNL     1      15.586  24.929   4.883  1.00  0.00     0.130 A 
ATOM     28  C   UNL     1      15.580  26.342   4.864  1.00  0.00     0.093 A 
ATOM     29  C   UNL     1      16.260  24.255   5.919  1.00  0.00     0.094 A 
ATOM     30  C   UNL     1      16.086  27.071   5.945  1.00  0.00     0.133 A 
ATOM     31  C   UNL     1      16.845  24.972   6.963  1.00  0.00     0.138 A 
ATOM     32  C   UNL     1      16.642  26.358   7.030  1.00  0.00     0.102 A 
ATOM     33  O   UNL     1      17.609  24.339   7.971  1.00  0.00    -0.484 OA
ATOM     34  C   UNL     1      16.886  27.008   8.338  1.00  0.00     0.174 C 
ATOM     35  C   UNL     1      18.489  25.113   8.801  1.00  0.00     0.211 C 
ATOM     36  O   UNL     1      16.124  27.961   8.706  1.00  0.00    -0.294 OA
ATOM     37  C   UNL     1      17.737  26.302   9.375  1.00  0.00     0.131 C 
BRANCH  30  38
ATOM     38  O   UNL     1      16.032  28.461   5.959  1.00  0.00    -0.507 OA
ATOM     39  H   UNL     1      16.580  28.980   6.608  1.00  0.00     0.293 HD
ENDBRANCH  30  38
BRANCH  35  40
ATOM     40  C   UNL     1      19.147  24.217   9.834  1.00  0.00    -0.003 A 
ATOM     41  C   UNL     1      19.829  24.802  10.900  1.00  0.00     0.057 A 
ATOM     42  C   UNL     1      19.045  22.815   9.770  1.00  0.00     0.011 A 
ATOM     43  C   UNL     1      20.456  24.032  11.889  1.00  0.00     0.158 A 
ATOM     44  C   UNL     1      19.645  22.035  10.764  1.00  0.00     0.051 A 
ATOM     45  C   UNL     1      20.355  22.625  11.801  1.00  0.00     0.160 A 
BRANCH  43  46
ATOM     46  O   UNL     1      21.123  24.675  12.929  1.00  0.00    -0.504 OA
ATOM     47  H   UNL     1      20.693  25.436  13.415  1.00  0.00     0.293 HD
ENDBRANCH  43  46
BRANCH  45  48
ATOM     48  O   UNL     1      20.978  21.759  12.727  1.00  0.00    -0.493 OA
ATOM     49  C   UNL     1      21.125  20.353  12.641  1.00  0.00     0.278 C 
ENDBRANCH  45  48
ENDBRANCH  35  40
ENDBRANCH  26  27
ENDBRANCH   5  26
BRANCH   4  50
ATOM     50  O   UNL     1      13.620  23.275   5.765  1.00  0.00    -0.384 OA
ATOM     51  H   UNL     1      13.251  23.682   6.590  1.00  0.00     0.211 HD
ENDBRANCH   4  50
TORSDOF 15
ENDMDL
MODEL 2
REMARK VINA RESULT:    37.342      2.646     12.411
REMARK INTER + INTRA:          61.005
REMARK INTER:                  53.807
REMARK INTRA:                   7.198
REMARK UNBOUND:                -0.350
REMARK SMILES COc1ccc([C@@H]2CC(=O)c3c(O)cc(O[C@H]4O[C@H](CO[C@H]5O[C@H](C)[C@H](O)[C@H](O)[C@@H]5O)[C@H](O)[C@H](O)[C@H]4O)cc3O2)cc1O
REMARK SMILES IDX 19 1 32 2 34 3 36 4 17 5 18 6 20 7 21 8 22 9 25 10 24 11
REMARK SMILES IDX 26 12 23 13 28 14 30 15 27 16 29 18 31 20 33 22 35 24 16 26
REMARK SMILES IDX 15 27 14 28 38 29 12 30 39 31 11 32 40 33 9 34 7 35 10 36
REMARK SMILES IDX 8 37 13 38 6 40 41 41 5 42 42 43 4 44 3 45 43 46 2 48 1 49
REMARK SMILES IDX 37 50
REMARK H PARENT 27 17 29 19 31 21 33 23 35 25 13 39 43 47 37 51
REMARK Flexibility Score: inf
ROOT
ATOM      1  C   UNL     1      18.173  23.360   9.141  1.00  0.00     0.180 C 
ATOM      2  C   UNL     1      17.621  22.408  10.201  1.00  0.00     0.177 C 
ATOM      3  C   UNL     1      17.315  21.056   9.556  1.00  0.00     0.180 C 
ATOM      4  C   UNL     1      16.617  21.183   8.181  1.00  0.00     0.214 C 
ATOM      5  C   UNL     1      16.444  22.621   7.605  1.00  0.00     0.339 C 
ATOM      6  O   UNL     1      17.192  23.706   8.179  1.00  0.00    -0.332 OA
ENDROOT
BRANCH   1   7
ATOM      7  C   UNL     1      19.504  22.935   8.495  1.00  0.00     0.198 C 
BRANCH   7   8
ATOM      8  O   UNL     1      20.583  23.066   9.402  1.00  0.00    -0.347 OA
BRANCH   8   9
ATOM      9  C   UNL     1      20.191  23.204  10.761  1.00  0.00     0.281 C 
ATOM     10  C   UNL     1      18.932  21.423  13.202  1.00  0.00     0.041 C 
ATOM     11  C   UNL     1      20.359  21.741  12.707  1.00  0.00     0.150 C 
ATOM     12  C   UNL     1      21.122  22.814  13.521  1.00  0.00     0.174 C 
ATOM     13  O   UNL     1      20.457  21.904  11.303  1.00  0.00    -0.344 OA
ATOM     14  C   UNL     1      20.760  24.214  13.074  1.00  0.00     0.179 C 
ATOM     15  C   UNL     1      20.991  24.297  11.546  1.00  0.00     0.202 C 
BRANCH  12  16
ATOM     16  O   UNL     1      20.905  22.683  14.900  1.00  0.00    -0.388 OA
ATOM     17  H   UNL     1      20.628  23.577  15.265  1.00  0.00     0.211 HD
ENDBRANCH  12  16
BRANCH  14  18
ATOM     18  O   UNL     1      19.460  24.538  13.498  1.00  0.00    -0.387 OA
ATOM     19  H   UNL     1      19.490  25.394  14.006  1.00  0.00     0.211 HD
ENDBRANCH  14  18
BRANCH  15  20
ATOM     20  O   UNL     1      20.565  25.576  11.146  1.00  0.00    -0.385 OA
ATOM     21  H   UNL     1      21.267  25.955  10.539  1.00  0.00     0.211 HD
ENDBRANCH  15  20
ENDBRANCH   8   9
ENDBRANCH   7   8
ENDBRANCH   1   7
BRANCH   2  22
ATOM     22  O   UNL     1      18.531  22.255  11.280  1.00  0.00    -0.387 OA
ATOM     23  H   UNL     1      19.281  22.901  11.159  1.00  0.00     0.211 HD
ENDBRANCH   2  22
BRANCH   3  24
ATOM     24  O   UNL     1      18.477  20.294   9.390  1.00  0.00    -0.387 OA
ATOM     25  H   UNL     1      19.231  20.910   9.252  1.00  0.00     0.211 HD
ENDBRANCH   3  24
BRANCH   5  26
ATOM     26  O   UNL     1      15.058  22.991   7.558  1.00  0.00    -0.462 OA
BRANCH  26  27
ATOM     27  C   UNL     1      14.140  22.535   6.609  1.00  0.00     0.130 A 
ATOM     28  C   UNL     1      13.365  21.393   6.913  1.00  0.00     0.093 A 
ATOM     29  C   UNL     1      14.007  23.143   5.346  1.00  0.00     0.094 A 
ATOM     30  C   UNL     1      12.354  20.966   6.046  1.00  0.00     0.133 A 
ATOM     31  C   UNL     1      13.061  22.676   4.434  1.00  0.00     0.138 A 
ATOM     32  C   UNL     1      12.163  21.679   4.842  1.00  0.00     0.102 A 
ATOM     33  O   UNL     1      12.961  23.197   3.124  1.00  0.00    -0.484 OA
ATOM     34  C   UNL     1      10.929  21.520   4.039  1.00  0.00     0.174 C 
ATOM     35  C   UNL     1      12.253  22.468   2.110  1.00  0.00     0.211 C 
ATOM     36  O   UNL     1       9.836  21.244   4.633  1.00  0.00    -0.294 OA
ATOM     37  C   UNL     1      10.881  22.072   2.627  1.00  0.00     0.131 C 
BRANCH  30  38
ATOM     38  O   UNL     1      11.550  19.877   6.366  1.00  0.00    -0.507 OA
ATOM     39  H   UNL     1      11.894  19.151   6.953  1.00  0.00     0.293 HD
ENDBRANCH  30  38
BRANCH  35  40
ATOM     40  C   UNL     1      12.241  23.261   0.816  1.00  0.00    -0.003 A 
ATOM     41  C   UNL     1      13.455  23.619   0.231  1.00  0.00     0.057 A 
ATOM     42  C   UNL     1      11.039  23.601   0.167  1.00  0.00     0.011 A 
ATOM     43  C   UNL     1      13.514  24.348  -0.965  1.00  0.00     0.158 A 
ATOM     44  C   UNL     1      11.083  24.306  -1.040  1.00  0.00     0.051 A 
ATOM     45  C   UNL     1      12.296  24.692  -1.596  1.00  0.00     0.160 A 
BRANCH  43  46
ATOM     46  O   UNL     1      14.757  24.676  -1.500  1.00  0.00    -0.504 OA
ATOM     47  H   UNL     1      15.441  23.966  -1.670  1.00  0.00     0.293 HD
ENDBRANCH  43  46
BRANCH  45  48
ATOM     48  O   UNL     1      12.245  25.453  -2.785  1.00  0.00    -0.493 OA
ATOM     49  C   UNL     1      12.006  24.992  -4.102  1.00  0.00     0.278 C 
ENDBRANCH  45  48
ENDBRANCH  35  40
ENDBRANCH  26  27
ENDBRANCH   5  26
BRANCH   4  50
ATOM     50  O   UNL     1      15.347  20.568   8.283  1.00  0.00    -0.384 OA
ATOM     51  H   UNL     1      15.195  19.993   7.490  1.00  0.00     0.211 HD
ENDBRANCH   4  50
TORSDOF 15
ENDMDL
MODEL 3
REMARK VINA RESULT:    37.417      1.876     12.597
REMARK INTER + INTRA:          61.128
REMARK INTER:                  62.348
REMARK INTRA:                  -1.219
REMARK UNBOUND:                -0.350
REMARK SMILES COc1ccc([C@@H]2CC(=O)c3c(O)cc(O[C@H]4O[C@H](CO[C@H]5O[C@H](C)[C@H](O)[C@H](O)[C@@H]5O)[C@H](O)[C@H](O)[C@H]4O)cc3O2)cc1O
REMARK SMILES IDX 19 1 32 2 34 3 36 4 17 5 18 6 20 7 21 8 22 9 25 10 24 11
REMARK SMILES IDX 26 12 23 13 28 14 30 15 27 16 29 18 31 20 33 22 35 24 16 26
REMARK SMILES IDX 15 27 14 28 38 29 12 30 39 31 11 32 40 33 9 34 7 35 10 36
REMARK SMILES IDX 8 37 13 38 6 40 41 41 5 42 42 43 4 44 3 45 43 46 2 48 1 49
REMARK SMILES IDX 37 50
REMARK H PARENT 27 17 29 19 31 21 33 23 35 25 13 39 43 47 37 51
REMARK Flexibility Score: inf
ROOT
ATOM      1  C   UNL     1      19.800  24.310   8.028  1.00  0.00     0.180 C 
ATOM      2  C   UNL     1      19.945  25.827   7.915  1.00  0.00     0.177 C 
ATOM      3  C   UNL     1      18.709  26.499   8.511  1.00  0.00     0.180 C 
ATOM      4  C   UNL     1      17.386  25.809   8.102  1.00  0.00     0.214 C 
ATOM      5  C   UNL     1      17.500  24.494   7.274  1.00  0.00     0.339 C 
ATOM      6  O   UNL     1      18.764  23.814   7.198  1.00  0.00    -0.332 OA
ENDROOT
BRANCH   1   7
ATOM      7  C   UNL     1      19.719  23.756   9.462  1.00  0.00     0.198 C 
BRANCH   7   8
ATOM      8  O   UNL     1      20.997  23.400   9.952  1.00  0.00    -0.347 OA
BRANCH   8   9
ATOM      9  C   UNL     1      20.992  22.880  11.276  1.00  0.00     0.281 C 
ATOM     10  C   UNL     1      21.125  23.916  14.378  1.00  0.00     0.041 C 
ATOM     11  C   UNL     1      19.991  23.640  13.367  1.00  0.00     0.150 C 
ATOM     12  C   UNL     1      19.237  22.303  13.560  1.00  0.00     0.174 C 
ATOM     13  O   UNL     1      20.341  23.916  12.022  1.00  0.00    -0.344 OA
ATOM     14  C   UNL     1      19.969  21.151  12.905  1.00  0.00     0.179 C 
ATOM     15  C   UNL     1      20.216  21.529  11.425  1.00  0.00     0.202 C 
BRANCH  12  16
ATOM     16  O   UNL     1      19.012  22.016  14.914  1.00  0.00    -0.388 OA
ATOM     17  H   UNL     1      18.870  21.026  15.010  1.00  0.00     0.211 HD
ENDBRANCH  12  16
BRANCH  14  18
ATOM     18  O   UNL     1      21.124  20.829  13.638  1.00  0.00    -0.387 OA
ATOM     19  H   UNL     1      21.389  19.892  13.428  1.00  0.00     0.211 HD
ENDBRANCH  14  18
BRANCH  15  20
ATOM     20  O   UNL     1      20.971  20.482  10.866  1.00  0.00    -0.385 OA
ATOM     21  H   UNL     1      21.888  20.839  10.672  1.00  0.00     0.211 HD
ENDBRANCH  15  20
ENDBRANCH   8   9
ENDBRANCH   7   8
ENDBRANCH   1   7
BRANCH   2  22
ATOM     22  O   UNL     1      21.125  26.281   8.563  1.00  0.00    -0.387 OA
ATOM     23  H   UNL     1      21.898  25.745   8.232  1.00  0.00     0.211 HD
ENDBRANCH   2  22
BRANCH   3  24
ATOM     24  O   UNL     1      18.771  26.537   9.909  1.00  0.00    -0.387 OA
ATOM     25  H   UNL     1      18.371  25.709  10.257  1.00  0.00     0.211 HD
ENDBRANCH   3  24
BRANCH   5  26
ATOM     26  O   UNL     1      16.998  24.682   5.943  1.00  0.00    -0.462 OA
BRANCH  26  27
ATOM     27  C   UNL     1      15.826  24.109   5.440  1.00  0.00     0.130 A 
ATOM     28  C   UNL     1      15.088  23.239   6.275  1.00  0.00     0.093 A 
ATOM     29  C   UNL     1      15.396  24.327   4.118  1.00  0.00     0.094 A 
ATOM     30  C   UNL     1      13.854  22.732   5.861  1.00  0.00     0.133 A 
ATOM     31  C   UNL     1      14.207  23.758   3.660  1.00  0.00     0.138 A 
ATOM     32  C   UNL     1      13.389  23.075   4.572  1.00  0.00     0.102 A 
ATOM     33  O   UNL     1      13.790  23.875   2.315  1.00  0.00    -0.484 OA
ATOM     34  C   UNL     1      11.975  22.873   4.181  1.00  0.00     0.174 C 
ATOM     35  C   UNL     1      12.784  22.993   1.793  1.00  0.00     0.211 C 
ATOM     36  O   UNL     1      11.069  22.954   5.074  1.00  0.00    -0.294 OA
ATOM     37  C   UNL     1      11.581  22.981   2.720  1.00  0.00     0.131 C 
BRANCH  30  38
ATOM     38  O   UNL     1      13.094  21.922   6.699  1.00  0.00    -0.507 OA
ATOM     39  H   UNL     1      12.460  21.256   6.318  1.00  0.00     0.293 HD
ENDBRANCH  30  38
BRANCH  35  40
ATOM     40  C   UNL     1      12.473  23.358   0.353  1.00  0.00    -0.003 A 
ATOM     41  C   UNL     1      13.491  23.874  -0.449  1.00  0.00     0.057 A 
ATOM     42  C   UNL     1      11.200  23.144  -0.207  1.00  0.00     0.011 A 
ATOM     43  C   UNL     1      13.271  24.228  -1.787  1.00  0.00     0.158 A 
ATOM     44  C   UNL     1      10.973  23.469  -1.548  1.00  0.00     0.051 A 
ATOM     45  C   UNL     1      11.982  24.018  -2.329  1.00  0.00     0.160 A 
BRANCH  43  46
ATOM     46  O   UNL     1      14.328  24.738  -2.537  1.00  0.00    -0.504 OA
ATOM     47  H   UNL     1      14.217  25.582  -3.062  1.00  0.00     0.293 HD
ENDBRANCH  43  46
BRANCH  45  48
ATOM     48  O   UNL     1      11.648  24.371  -3.655  1.00  0.00    -0.493 OA
ATOM     49  C   UNL     1      11.980  25.561  -4.347  1.00  0.00     0.278 C 
ENDBRANCH  45  48
ENDBRANCH  35  40
ENDBRANCH  26  27
ENDBRANCH   5  26
BRANCH   4  50
ATOM     50  O   UNL     1      16.615  26.748   7.378  1.00  0.00    -0.384 OA
ATOM     51  H   UNL     1      15.680  26.425   7.313  1.00  0.00     0.211 HD
ENDBRANCH   4  50
TORSDOF 15
ENDMDL
MODEL 4
REMARK VINA RESULT:    37.714      2.577     12.014
REMARK INTER + INTRA:          61.617
REMARK INTER:                  62.891
REMARK INTRA:                  -1.274
REMARK UNBOUND:                -0.350
REMARK SMILES COc1ccc([C@@H]2CC(=O)c3c(O)cc(O[C@H]4O[C@H](CO[C@H]5O[C@H](C)[C@H](O)[C@H](O)[C@@H]5O)[C@H](O)[C@H](O)[C@H]4O)cc3O2)cc1O
REMARK SMILES IDX 19 1 32 2 34 3 36 4 17 5 18 6 20 7 21 8 22 9 25 10 24 11
REMARK SMILES IDX 26 12 23 13 28 14 30 15 27 16 29 18 31 20 33 22 35 24 16 26
REMARK SMILES IDX 15 27 14 28 38 29 12 30 39 31 11 32 40 33 9 34 7 35 10 36
REMARK SMILES IDX 8 37 13 38 6 40 41 41 5 42 42 43 4 44 3 45 43 46 2 48 1 49
REMARK SMILES IDX 37 50
REMARK H PARENT 27 17 29 19 31 21 33 23 35 25 13 39 43 47 37 51
REMARK Flexibility Score: inf
ROOT
ATOM      1  C   UNL     1      14.808  22.012   8.194  1.00  0.00     0.180 C 
ATOM      2  C   UNL     1      13.667  22.307   9.166  1.00  0.00     0.177 C 
ATOM      3  C   UNL     1      12.769  21.075   9.280  1.00  0.00     0.180 C 
ATOM      4  C   UNL     1      12.479  20.407   7.915  1.00  0.00     0.214 C 
ATOM      5  C   UNL     1      13.221  20.985   6.672  1.00  0.00     0.339 C 
ATOM      6  O   UNL     1      14.344  21.861   6.864  1.00  0.00    -0.332 OA
ENDROOT
BRANCH   1   7
ATOM      7  C   UNL     1      15.764  20.881   8.615  1.00  0.00     0.198 C 
BRANCH   7   8
ATOM      8  O   UNL     1      16.467  21.211   9.798  1.00  0.00    -0.347 OA
BRANCH   8   9
ATOM      9  C   UNL     1      17.636  21.991   9.585  1.00  0.00     0.281 C 
ATOM     10  C   UNL     1      18.504  25.064   8.865  1.00  0.00     0.041 C 
ATOM     11  C   UNL     1      18.248  24.280  10.170  1.00  0.00     0.150 C 
ATOM     12  C   UNL     1      19.515  23.810  10.924  1.00  0.00     0.174 C 
ATOM     13  O   UNL     1      17.244  23.287  10.056  1.00  0.00    -0.344 OA
ATOM     14  C   UNL     1      20.048  22.510  10.361  1.00  0.00     0.179 C 
ATOM     15  C   UNL     1      18.892  21.482  10.369  1.00  0.00     0.202 C 
BRANCH  12  16
ATOM     16  O   UNL     1      20.525  24.783  10.914  1.00  0.00    -0.388 OA
ATOM     17  H   UNL     1      20.175  25.601  10.447  1.00  0.00     0.211 HD
ENDBRANCH  12  16
BRANCH  14  18
ATOM     18  O   UNL     1      20.640  22.730   9.105  1.00  0.00    -0.387 OA
ATOM     19  H   UNL     1      20.220  22.120   8.439  1.00  0.00     0.211 HD
ENDBRANCH  14  18
BRANCH  15  20
ATOM     20  O   UNL     1      19.389  20.315   9.763  1.00  0.00    -0.385 OA
ATOM     21  H   UNL     1      20.253  20.082  10.214  1.00  0.00     0.211 HD
ENDBRANCH  15  20
ENDBRANCH   8   9
ENDBRANCH   7   8
ENDBRANCH   1   7
BRANCH   2  22
ATOM     22  O   UNL     1      14.163  22.686  10.442  1.00  0.00    -0.387 OA
ATOM     23  H   UNL     1      13.663  22.181  11.142  1.00  0.00     0.211 HD
ENDBRANCH   2  22
BRANCH   3  24
ATOM     24  O   UNL     1      13.325  20.113  10.131  1.00  0.00    -0.387 OA
ATOM     25  H   UNL     1      13.943  20.568  10.746  1.00  0.00     0.211 HD
ENDBRANCH   3  24
BRANCH   5  26
ATOM     26  O   UNL     1      12.296  21.613   5.771  1.00  0.00    -0.462 OA
BRANCH  26  27
ATOM     27  C   UNL     1      12.647  22.240   4.572  1.00  0.00     0.130 A 
ATOM     28  C   UNL     1      13.475  23.385   4.626  1.00  0.00     0.093 A 
ATOM     29  C   UNL     1      12.157  21.800   3.328  1.00  0.00     0.094 A 
ATOM     30  C   UNL     1      13.946  23.978   3.451  1.00  0.00     0.133 A 
ATOM     31  C   UNL     1      12.550  22.436   2.150  1.00  0.00     0.138 A 
ATOM     32  C   UNL     1      13.535  23.432   2.216  1.00  0.00     0.102 A 
ATOM     33  O   UNL     1      12.008  22.086   0.892  1.00  0.00    -0.484 OA
ATOM     34  C   UNL     1      14.233  23.767   0.953  1.00  0.00     0.174 C 
ATOM     35  C   UNL     1      12.144  22.978  -0.225  1.00  0.00     0.211 C 
ATOM     36  O   UNL     1      15.478  24.040   0.988  1.00  0.00    -0.294 OA
ATOM     37  C   UNL     1      13.597  23.396  -0.373  1.00  0.00     0.131 C 
BRANCH  30  38
ATOM     38  O   UNL     1      14.807  25.070   3.497  1.00  0.00    -0.507 OA
ATOM     39  H   UNL     1      14.932  25.647   2.695  1.00  0.00     0.293 HD
ENDBRANCH  30  38
BRANCH  35  40
ATOM     40  C   UNL     1      11.533  22.351  -1.464  1.00  0.00    -0.003 A 
ATOM     41  C   UNL     1      11.885  22.850  -2.718  1.00  0.00     0.057 A 
ATOM     42  C   UNL     1      10.660  21.251  -1.383  1.00  0.00     0.011 A 
ATOM     43  C   UNL     1      11.360  22.315  -3.902  1.00  0.00     0.158 A 
ATOM     44  C   UNL     1      10.147  20.690  -2.558  1.00  0.00     0.051 A 
ATOM     45  C   UNL     1      10.473  21.217  -3.801  1.00  0.00     0.160 A 
BRANCH  43  46
ATOM     46  O   UNL     1      11.750  22.857  -5.124  1.00  0.00    -0.504 OA
ATOM     47  H   UNL     1      11.551  23.812  -5.343  1.00  0.00     0.293 HD
ENDBRANCH  43  46
BRANCH  45  48
ATOM     48  O   UNL     1       9.864  20.627  -4.930  1.00  0.00    -0.493 OA
ATOM     49  C   UNL     1       8.662  19.879  -4.978  1.00  0.00     0.278 C 
ENDBRANCH  45  48
ENDBRANCH  35  40
ENDBRANCH  26  27
ENDBRANCH   5  26
BRANCH   4  50
ATOM     50  O   UNL     1      11.083  20.468   7.692  1.00  0.00    -0.384 OA
ATOM     51  H   UNL     1      10.911  20.659   6.735  1.00  0.00     0.211 HD
ENDBRANCH   4  50
TORSDOF 15
ENDMDL
MODEL 5
REMARK VINA RESULT:    38.110      2.892      5.090
REMARK INTER + INTRA:          62.268
REMARK INTER:                  61.507
REMARK INTRA:                   0.760
REMARK UNBOUND:                -0.350
REMARK SMILES COc1ccc([C@@H]2CC(=O)c3c(O)cc(O[C@H]4O[C@H](CO[C@H]5O[C@H](C)[C@H](O)[C@H](O)[C@@H]5O)[C@H](O)[C@H](O)[C@H]4O)cc3O2)cc1O
REMARK SMILES IDX 19 1 32 2 34 3 36 4 17 5 18 6 20 7 21 8 22 9 25 10 24 11
REMARK SMILES IDX 26 12 23 13 28 14 30 15 27 16 29 18 31 20 33 22 35 24 16 26
REMARK SMILES IDX 15 27 14 28 38 29 12 30 39 31 11 32 40 33 9 34 7 35 10 36
REMARK SMILES IDX 8 37 13 38 6 40 41 41 5 42 42 43 4 44 3 45 43 46 2 48 1 49
REMARK SMILES IDX 37 50
REMARK H PARENT 27 17 29 19 31 21 33 23 35 25 13 39 43 47 37 51
REMARK Flexibility Score: inf
ROOT
ATOM      1  C   UNL     1      11.636  20.769  -0.127  1.00  0.00     0.180 C 
ATOM      2  C   UNL     1      10.648  21.868   0.260  1.00  0.00     0.177 C 
ATOM      3  C   UNL     1      11.319  22.825   1.245  1.00  0.00     0.180 C 
ATOM      4  C   UNL     1      12.143  22.098   2.333  1.00  0.00     0.214 C 
ATOM      5  C   UNL     1      12.277  20.550   2.203  1.00  0.00     0.339 C 
ATOM      6  O   UNL     1      11.929  19.913   0.963  1.00  0.00    -0.332 OA
ENDROOT
BRANCH   1   7
ATOM      7  C   UNL     1      12.905  21.243  -0.860  1.00  0.00     0.198 C 
BRANCH   7   8
ATOM      8  O   UNL     1      12.779  21.094  -2.261  1.00  0.00    -0.347 OA
BRANCH   8   9
ATOM      9  C   UNL     1      12.196  22.212  -2.918  1.00  0.00     0.281 C 
ATOM     10  C   UNL     1      11.497  25.361  -2.365  1.00  0.00     0.041 C 
ATOM     11  C   UNL     1      12.711  24.597  -2.935  1.00  0.00     0.150 C 
ATOM     12  C   UNL     1      12.847  24.617  -4.476  1.00  0.00     0.174 C 
ATOM     13  O   UNL     1      12.910  23.320  -2.354  1.00  0.00    -0.344 OA
ATOM     14  C   UNL     1      11.994  23.548  -5.124  1.00  0.00     0.179 C 
ATOM     15  C   UNL     1      12.360  22.192  -4.475  1.00  0.00     0.202 C 
BRANCH  12  16
ATOM     16  O   UNL     1      12.532  25.871  -5.017  1.00  0.00    -0.388 OA
ATOM     17  H   UNL     1      11.535  25.990  -4.985  1.00  0.00     0.211 HD
ENDBRANCH  12  16
BRANCH  14  18
ATOM     18  O   UNL     1      10.634  23.897  -5.045  1.00  0.00    -0.387 OA
ATOM     19  H   UNL     1      10.349  23.869  -4.092  1.00  0.00     0.211 HD
ENDBRANCH  14  18
BRANCH  15  20
ATOM     20  O   UNL     1      11.494  21.234  -5.032  1.00  0.00    -0.385 OA
ATOM     21  H   UNL     1      11.026  20.771  -4.276  1.00  0.00     0.211 HD
ENDBRANCH  15  20
ENDBRANCH   8   9
ENDBRANCH   7   8
ENDBRANCH   1   7
BRANCH   2  22
ATOM     22  O   UNL     1      10.184  22.570  -0.885  1.00  0.00    -0.387 OA
ATOM     23  H   UNL     1      10.907  22.575  -1.571  1.00  0.00     0.211 HD
ENDBRANCH   2  22
BRANCH   3  24
ATOM     24  O   UNL     1      12.160  23.730   0.587  1.00  0.00    -0.387 OA
ATOM     25  H   UNL     1      12.953  23.878   1.151  1.00  0.00     0.211 HD
ENDBRANCH   3  24
BRANCH   5  26
ATOM     26  O   UNL     1      11.588  19.885   3.272  1.00  0.00    -0.462 OA
BRANCH  26  27
ATOM     27  C   UNL     1      11.706  20.211   4.626  1.00  0.00     0.130 A 
ATOM     28  C   UNL     1      10.526  20.422   5.375  1.00  0.00     0.093 A 
ATOM     29  C   UNL     1      12.957  20.388   5.245  1.00  0.00     0.094 A 
ATOM     30  C   UNL     1      10.587  20.637   6.755  1.00  0.00     0.133 A 
ATOM     31  C   UNL     1      13.036  20.688   6.605  1.00  0.00     0.138 A 
ATOM     32  C   UNL     1      11.858  20.683   7.367  1.00  0.00     0.102 A 
ATOM     33  O   UNL     1      14.267  20.966   7.242  1.00  0.00    -0.484 OA
ATOM     34  C   UNL     1      12.013  20.567   8.836  1.00  0.00     0.174 C 
ATOM     35  C   UNL     1      14.286  21.620   8.520  1.00  0.00     0.211 C 
ATOM     36  O   UNL     1      11.168  19.876   9.494  1.00  0.00    -0.294 OA
ATOM     37  C   UNL     1      13.346  20.904   9.476  1.00  0.00     0.131 C 
BRANCH  30  38
ATOM     38  O   UNL     1       9.427  20.789   7.508  1.00  0.00    -0.507 OA
ATOM     39  H   UNL     1       8.536  20.795   7.065  1.00  0.00     0.293 HD
ENDBRANCH  30  38
BRANCH  35  40
ATOM     40  C   UNL     1      15.715  21.751   9.013  1.00  0.00    -0.003 A 
ATOM     41  C   UNL     1      16.150  22.982   9.505  1.00  0.00     0.057 A 
ATOM     42  C   UNL     1      16.596  20.654   9.031  1.00  0.00     0.011 A 
ATOM     43  C   UNL     1      17.456  23.169   9.978  1.00  0.00     0.158 A 
ATOM     44  C   UNL     1      17.894  20.821   9.524  1.00  0.00     0.051 A 
ATOM     45  C   UNL     1      18.331  22.059   9.976  1.00  0.00     0.160 A 
BRANCH  43  46
ATOM     46  O   UNL     1      17.831  24.422  10.457  1.00  0.00    -0.504 OA
ATOM     47  H   UNL     1      18.678  24.535  10.976  1.00  0.00     0.293 HD
ENDBRANCH  43  46
BRANCH  45  48
ATOM     48  O   UNL     1      19.675  22.151  10.401  1.00  0.00    -0.493 OA
ATOM     49  C   UNL     1      20.627  23.143  10.064  1.00  0.00     0.278 C 
ENDBRANCH  45  48
ENDBRANCH  35  40
ENDBRANCH  26  27
ENDBRANCH   5  26
BRANCH   4  50
ATOM     50  O   UNL     1      11.571  22.410   3.589  1.00  0.00    -0.384 OA
ATOM     51  H   UNL     1      11.421  23.389   3.648  1.00  0.00     0.211 HD
ENDBRANCH   4  50
TORSDOF 15
ENDMDL
