MODEL 1
REMARK VINA RESULT:    -5.331      0.000      0.000
REMARK INTER + INTRA:          -6.065
REMARK INTER:                  -5.954
REMARK INTRA:                  -0.111
REMARK UNBOUND:                -0.111
REMARK SMILES COc1cc2ccc(=O)oc2cc1OC
REMARK SMILES IDX 3 1 13 2 12 3 11 4 5 5 4 6 6 7 7 8 8 9 9 10 10 11 2 12 1 13
REMARK SMILES IDX 14 14 15 15
REMARK H PARENT
REMARK Flexibility Score: inf
ROOT
ATOM      1  C   UNL     1     260.042 -27.656  58.102  1.00  0.00     0.161 A 
ATOM      2  C   UNL     1     261.100 -26.870  57.613  1.00  0.00     0.164 A 
ATOM      3  C   UNL     1     261.369 -26.843  56.230  1.00  0.00     0.098 A 
ATOM      4  C   UNL     1     260.592 -27.593  55.343  1.00  0.00     0.142 A 
ATOM      5  C   UNL     1     259.532 -28.380  55.834  1.00  0.00     0.022 A 
ATOM      6  C   UNL     1     259.259 -28.411  57.207  1.00  0.00     0.062 A 
ATOM      7  C   UNL     1     258.772 -29.119  54.921  1.00  0.00     0.019 A 
ATOM      8  C   UNL     1     259.082 -29.055  53.562  1.00  0.00     0.094 A 
ATOM      9  C   UNL     1     260.150 -28.252  53.149  1.00  0.00     0.336 A 
ATOM     10  O   UNL     1     260.446 -28.181  51.927  1.00  0.00    -0.246 OA
ATOM     11  O   UNL     1     260.856 -27.559  54.039  1.00  0.00    -0.423 OA
ENDROOT
BRANCH   1  12
ATOM     12  O   UNL     1     259.801 -27.658  59.486  1.00  0.00    -0.493 OA
ATOM     13  C   UNL     1     259.433 -28.808  60.240  1.00  0.00     0.278 C 
ENDBRANCH   1  12
BRANCH   2  14
ATOM     14  O   UNL     1     261.859 -26.130  58.533  1.00  0.00    -0.493 OA
ATOM     15  C   UNL     1     263.270 -25.949  58.454  1.00  0.00     0.278 C 
ENDBRANCH   2  14
TORSDOF 2
ENDMDL
MODEL 2
REMARK VINA RESULT:    -5.283      1.475      5.082
REMARK INTER + INTRA:          -6.012
REMARK INTER:                  -5.903
REMARK INTRA:                  -0.109
REMARK UNBOUND:                -0.111
REMARK SMILES COc1cc2ccc(=O)oc2cc1OC
REMARK SMILES IDX 3 1 13 2 12 3 11 4 5 5 4 6 6 7 7 8 8 9 9 10 10 11 2 12 1 13
REMARK SMILES IDX 14 14 15 15
REMARK H PARENT
REMARK Flexibility Score: inf
ROOT
ATOM      1  C   UNL     1     259.848 -28.174  56.026  1.00  0.00     0.161 A 
ATOM      2  C   UNL     1     260.965 -27.360  56.279  1.00  0.00     0.164 A 
ATOM      3  C   UNL     1     261.235 -26.934  57.596  1.00  0.00     0.098 A 
ATOM      4  C   UNL     1     260.399 -27.316  58.648  1.00  0.00     0.142 A 
ATOM      5  C   UNL     1     259.279 -28.132  58.393  1.00  0.00     0.022 A 
ATOM      6  C   UNL     1     259.006 -28.559  57.088  1.00  0.00     0.062 A 
ATOM      7  C   UNL     1     258.463 -28.497  59.468  1.00  0.00     0.019 A 
ATOM      8  C   UNL     1     258.776 -28.048  60.751  1.00  0.00     0.094 A 
ATOM      9  C   UNL     1     259.904 -27.240  60.927  1.00  0.00     0.336 A 
ATOM     10  O   UNL     1     260.205 -26.823  62.077  1.00  0.00    -0.246 OA
ATOM     11  O   UNL     1     260.665 -26.908  59.887  1.00  0.00    -0.423 OA
ENDROOT
BRANCH   1  12
ATOM     12  O   UNL     1     259.609 -28.581  54.702  1.00  0.00    -0.493 OA
ATOM     13  C   UNL     1     258.485 -29.347  54.283  1.00  0.00     0.278 C 
ENDBRANCH   1  12
BRANCH   2  14
ATOM     14  O   UNL     1     261.782 -26.996  55.198  1.00  0.00    -0.493 OA
ATOM     15  C   UNL     1     262.226 -25.669  54.931  1.00  0.00     0.278 C 
ENDBRANCH   2  14
TORSDOF 2
ENDMDL
MODEL 3
REMARK VINA RESULT:    -5.211      2.164      4.994
REMARK INTER + INTRA:          -5.931
REMARK INTER:                  -5.796
REMARK INTRA:                  -0.135
REMARK UNBOUND:                -0.111
REMARK SMILES COc1cc2ccc(=O)oc2cc1OC
REMARK SMILES IDX 3 1 13 2 12 3 11 4 5 5 4 6 6 7 7 8 8 9 9 10 10 11 2 12 1 13
REMARK SMILES IDX 14 14 15 15
REMARK H PARENT
REMARK Flexibility Score: inf
ROOT
ATOM      1  C   UNL     1     261.403 -26.503  56.563  1.00  0.00     0.161 A 
ATOM      2  C   UNL     1     262.404 -26.310  57.530  1.00  0.00     0.164 A 
ATOM      3  C   UNL     1     262.221 -26.812  58.835  1.00  0.00     0.098 A 
ATOM      4  C   UNL     1     261.053 -27.500  59.171  1.00  0.00     0.142 A 
ATOM      5  C   UNL     1     260.049 -27.694  58.200  1.00  0.00     0.022 A 
ATOM      6  C   UNL     1     260.225 -27.198  56.903  1.00  0.00     0.062 A 
ATOM      7  C   UNL     1     258.892 -28.387  58.568  1.00  0.00     0.019 A 
ATOM      8  C   UNL     1     258.763 -28.863  59.872  1.00  0.00     0.094 A 
ATOM      9  C   UNL     1     259.800 -28.632  60.782  1.00  0.00     0.336 A 
ATOM     10  O   UNL     1     259.703 -29.054  61.965  1.00  0.00    -0.246 OA
ATOM     11  O   UNL     1     260.891 -27.971  60.405  1.00  0.00    -0.423 OA
ENDROOT
BRANCH   1  12
ATOM     12  O   UNL     1     261.619 -25.990  55.273  1.00  0.00    -0.493 OA
ATOM     13  C   UNL     1     261.928 -26.781  54.130  1.00  0.00     0.278 C 
ENDBRANCH   1  12
BRANCH   2  14
ATOM     14  O   UNL     1     263.564 -25.614  57.158  1.00  0.00    -0.493 OA
ATOM     15  C   UNL     1     263.958 -24.355  57.694  1.00  0.00     0.278 C 
ENDBRANCH   2  14
TORSDOF 2
ENDMDL
MODEL 4
REMARK VINA RESULT:    -5.203      8.002     10.296
REMARK INTER + INTRA:          -5.922
REMARK INTER:                  -5.760
REMARK INTRA:                  -0.162
REMARK UNBOUND:                -0.111
REMARK SMILES COc1cc2ccc(=O)oc2cc1OC
REMARK SMILES IDX 3 1 13 2 12 3 11 4 5 5 4 6 6 7 7 8 8 9 9 10 10 11 2 12 1 13
REMARK SMILES IDX 14 14 15 15
REMARK H PARENT
REMARK Flexibility Score: inf
ROOT
ATOM      1  C   UNL     1     254.327 -24.139  49.621  1.00  0.00     0.161 A 
ATOM      2  C   UNL     1     253.771 -23.018  50.260  1.00  0.00     0.164 A 
ATOM      3  C   UNL     1     253.397 -23.100  51.617  1.00  0.00     0.098 A 
ATOM      4  C   UNL     1     253.576 -24.289  52.328  1.00  0.00     0.142 A 
ATOM      5  C   UNL     1     254.135 -25.413  51.688  1.00  0.00     0.022 A 
ATOM      6  C   UNL     1     254.508 -25.337  50.340  1.00  0.00     0.062 A 
ATOM      7  C   UNL     1     254.302 -26.587  52.428  1.00  0.00     0.019 A 
ATOM      8  C   UNL     1     253.915 -26.614  53.768  1.00  0.00     0.094 A 
ATOM      9  C   UNL     1     253.367 -25.460  54.336  1.00  0.00     0.336 A 
ATOM     10  O   UNL     1     253.011 -25.463  55.544  1.00  0.00    -0.246 OA
ATOM     11  O   UNL     1     253.220 -24.355  53.609  1.00  0.00    -0.423 OA
ENDROOT
BRANCH   1  12
ATOM     12  O   UNL     1     254.689 -24.021  48.269  1.00  0.00    -0.493 OA
ATOM     13  C   UNL     1     253.888 -24.459  47.177  1.00  0.00     0.278 C 
ENDBRANCH   1  12
BRANCH   2  14
ATOM     14  O   UNL     1     253.605 -21.841  49.514  1.00  0.00    -0.493 OA
ATOM     15  C   UNL     1     252.369 -21.407  48.952  1.00  0.00     0.278 C 
ENDBRANCH   2  14
TORSDOF 2
ENDMDL
MODEL 5
REMARK VINA RESULT:    -5.100      3.219      5.222
REMARK INTER + INTRA:          -5.808
REMARK INTER:                  -5.648
REMARK INTRA:                  -0.159
REMARK UNBOUND:                -0.111
REMARK SMILES COc1cc2ccc(=O)oc2cc1OC
REMARK SMILES IDX 3 1 13 2 12 3 11 4 5 5 4 6 6 7 7 8 8 9 9 10 10 11 2 12 1 13
REMARK SMILES IDX 14 14 15 15
REMARK H PARENT
REMARK Flexibility Score: inf
ROOT
ATOM      1  C   UNL     1     262.786 -28.131  57.673  1.00  0.00     0.161 A 
ATOM      2  C   UNL     1     263.172 -27.107  58.555  1.00  0.00     0.164 A 
ATOM      3  C   UNL     1     262.298 -26.707  59.586  1.00  0.00     0.098 A 
ATOM      4  C   UNL     1     261.052 -27.322  59.736  1.00  0.00     0.142 A 
ATOM      5  C   UNL     1     260.666 -28.349  58.852  1.00  0.00     0.022 A 
ATOM      6  C   UNL     1     261.530 -28.751  57.826  1.00  0.00     0.062 A 
ATOM      7  C   UNL     1     259.413 -28.945  59.029  1.00  0.00     0.019 A 
ATOM      8  C   UNL     1     258.588 -28.510  60.066  1.00  0.00     0.094 A 
ATOM      9  C   UNL     1     259.038 -27.485  60.904  1.00  0.00     0.336 A 
ATOM     10  O   UNL     1     258.309 -27.079  61.847  1.00  0.00    -0.246 OA
ATOM     11  O   UNL     1     260.236 -26.936  60.714  1.00  0.00    -0.423 OA
ENDROOT
BRANCH   1  12
ATOM     12  O   UNL     1     263.682 -28.505  56.658  1.00  0.00    -0.493 OA
ATOM     13  C   UNL     1     264.585 -29.603  56.741  1.00  0.00     0.278 C 
ENDBRANCH   1  12
BRANCH   2  14
ATOM     14  O   UNL     1     264.430 -26.512  58.375  1.00  0.00    -0.493 OA
ATOM     15  C   UNL     1     265.568 -26.765  59.193  1.00  0.00     0.278 C 
ENDBRANCH   2  14
TORSDOF 2
ENDMDL
MODEL 6
REMARK VINA RESULT:    -5.001      1.574      5.610
REMARK INTER + INTRA:          -5.696
REMARK INTER:                  -5.577
REMARK INTRA:                  -0.119
REMARK UNBOUND:                -0.111
REMARK SMILES COc1cc2ccc(=O)oc2cc1OC
REMARK SMILES IDX 3 1 13 2 12 3 11 4 5 5 4 6 6 7 7 8 8 9 9 10 10 11 2 12 1 13
REMARK SMILES IDX 14 14 15 15
REMARK H PARENT
REMARK Flexibility Score: inf
ROOT
ATOM      1  C   UNL     1     261.099 -27.186  55.696  1.00  0.00     0.161 A 
ATOM      2  C   UNL     1     260.071 -28.142  55.630  1.00  0.00     0.164 A 
ATOM      3  C   UNL     1     259.540 -28.681  56.819  1.00  0.00     0.098 A 
ATOM      4  C   UNL     1     260.030 -28.272  58.061  1.00  0.00     0.142 A 
ATOM      5  C   UNL     1     261.061 -27.313  58.128  1.00  0.00     0.022 A 
ATOM      6  C   UNL     1     261.592 -26.774  56.950  1.00  0.00     0.062 A 
ATOM      7  C   UNL     1     261.529 -26.924  59.387  1.00  0.00     0.019 A 
ATOM      8  C   UNL     1     260.968 -27.490  60.531  1.00  0.00     0.094 A 
ATOM      9  C   UNL     1     259.948 -28.436  60.388  1.00  0.00     0.336 A 
ATOM     10  O   UNL     1     259.428 -28.959  61.409  1.00  0.00    -0.246 OA
ATOM     11  O   UNL     1     259.521 -28.788  59.178  1.00  0.00    -0.423 OA
ENDROOT
BRANCH   1  12
ATOM     12  O   UNL     1     261.604 -26.669  54.491  1.00  0.00    -0.493 OA
ATOM     13  C   UNL     1     262.867 -27.014  53.930  1.00  0.00     0.278 C 
ENDBRANCH   1  12
BRANCH   2  14
ATOM     14  O   UNL     1     259.604 -28.529  54.364  1.00  0.00    -0.493 OA
ATOM     15  C   UNL     1     258.460 -29.349  54.142  1.00  0.00     0.278 C 
ENDBRANCH   2  14
TORSDOF 2
ENDMDL
MODEL 7
REMARK VINA RESULT:    -4.798      8.404     10.065
REMARK INTER + INTRA:          -5.470
REMARK INTER:                  -5.344
REMARK INTRA:                  -0.126
REMARK UNBOUND:                -0.111
REMARK SMILES COc1cc2ccc(=O)oc2cc1OC
REMARK SMILES IDX 3 1 13 2 12 3 11 4 5 5 4 6 6 7 7 8 8 9 9 10 10 11 2 12 1 13
REMARK SMILES IDX 14 14 15 15
REMARK H PARENT
REMARK Flexibility Score: inf
ROOT
ATOM      1  C   UNL     1     253.821 -25.934  51.165  1.00  0.00     0.161 A 
ATOM      2  C   UNL     1     253.934 -25.192  52.353  1.00  0.00     0.164 A 
ATOM      3  C   UNL     1     253.757 -23.794  52.324  1.00  0.00     0.098 A 
ATOM      4  C   UNL     1     253.470 -23.143  51.122  1.00  0.00     0.142 A 
ATOM      5  C   UNL     1     253.356 -23.887  49.931  1.00  0.00     0.022 A 
ATOM      6  C   UNL     1     253.531 -25.276  49.953  1.00  0.00     0.062 A 
ATOM      7  C   UNL     1     253.067 -23.205  48.744  1.00  0.00     0.019 A 
ATOM      8  C   UNL     1     252.901 -21.821  48.772  1.00  0.00     0.094 A 
ATOM      9  C   UNL     1     253.030 -21.149  49.992  1.00  0.00     0.336 A 
ATOM     10  O   UNL     1     252.884 -19.899  50.039  1.00  0.00    -0.246 OA
ATOM     11  O   UNL     1     253.304 -21.822  51.106  1.00  0.00    -0.423 OA
ENDROOT
BRANCH   1  12
ATOM     12  O   UNL     1     254.003 -27.326  51.231  1.00  0.00    -0.493 OA
ATOM     13  C   UNL     1     253.140 -28.283  50.625  1.00  0.00     0.278 C 
ENDBRANCH   1  12
BRANCH   2  14
ATOM     14  O   UNL     1     254.224 -25.880  53.542  1.00  0.00    -0.493 OA
ATOM     15  C   UNL     1     253.344 -25.970  54.658  1.00  0.00     0.278 C 
ENDBRANCH   2  14
TORSDOF 2
ENDMDL
MODEL 8
REMARK VINA RESULT:    -4.769      2.124      4.853
REMARK INTER + INTRA:          -5.437
REMARK INTER:                  -5.331
REMARK INTRA:                  -0.106
REMARK UNBOUND:                -0.111
REMARK SMILES COc1cc2ccc(=O)oc2cc1OC
REMARK SMILES IDX 3 1 13 2 12 3 11 4 5 5 4 6 6 7 7 8 8 9 9 10 10 11 2 12 1 13
REMARK SMILES IDX 14 14 15 15
REMARK H PARENT
REMARK Flexibility Score: inf
ROOT
ATOM      1  C   UNL     1     262.369 -27.262  55.307  1.00  0.00     0.161 A 
ATOM      2  C   UNL     1     263.310 -27.639  56.279  1.00  0.00     0.164 A 
ATOM      3  C   UNL     1     262.870 -28.073  57.547  1.00  0.00     0.098 A 
ATOM      4  C   UNL     1     261.506 -28.130  57.840  1.00  0.00     0.142 A 
ATOM      5  C   UNL     1     260.562 -27.752  56.865  1.00  0.00     0.022 A 
ATOM      6  C   UNL     1     260.993 -27.320  55.604  1.00  0.00     0.062 A 
ATOM      7  C   UNL     1     259.203 -27.821  57.190  1.00  0.00     0.019 A 
ATOM      8  C   UNL     1     258.824 -28.258  58.459  1.00  0.00     0.094 A 
ATOM      9  C   UNL     1     259.817 -28.616  59.375  1.00  0.00     0.336 A 
ATOM     10  O   UNL     1     259.495 -29.014  60.527  1.00  0.00    -0.246 OA
ATOM     11  O   UNL     1     261.102 -28.542  59.040  1.00  0.00    -0.423 OA
ENDROOT
BRANCH   1  12
ATOM     12  O   UNL     1     262.842 -26.835  54.055  1.00  0.00    -0.493 OA
ATOM     13  C   UNL     1     262.025 -26.648  52.903  1.00  0.00     0.278 C 
ENDBRANCH   1  12
BRANCH   2  14
ATOM     14  O   UNL     1     264.672 -27.569  55.949  1.00  0.00    -0.493 OA
ATOM     15  C   UNL     1     265.646 -28.538  56.326  1.00  0.00     0.278 C 
ENDBRANCH   2  14
TORSDOF 2
ENDMDL
MODEL 9
REMARK VINA RESULT:    -4.752      9.051     10.945
REMARK INTER + INTRA:          -5.418
REMARK INTER:                  -5.268
REMARK INTRA:                  -0.151
REMARK UNBOUND:                -0.111
REMARK SMILES COc1cc2ccc(=O)oc2cc1OC
REMARK SMILES IDX 3 1 13 2 12 3 11 4 5 5 4 6 6 7 7 8 8 9 9 10 10 11 2 12 1 13
REMARK SMILES IDX 14 14 15 15
REMARK H PARENT
REMARK Flexibility Score: inf
ROOT
ATOM      1  C   UNL     1     252.432 -22.526  51.312  1.00  0.00     0.161 A 
ATOM      2  C   UNL     1     251.521 -23.035  50.371  1.00  0.00     0.164 A 
ATOM      3  C   UNL     1     251.540 -24.407  50.051  1.00  0.00     0.098 A 
ATOM      4  C   UNL     1     252.457 -25.264  50.663  1.00  0.00     0.142 A 
ATOM      5  C   UNL     1     253.371 -24.755  51.607  1.00  0.00     0.022 A 
ATOM      6  C   UNL     1     253.357 -23.392  51.929  1.00  0.00     0.062 A 
ATOM      7  C   UNL     1     254.276 -25.638  52.203  1.00  0.00     0.019 A 
ATOM      8  C   UNL     1     254.251 -26.987  51.850  1.00  0.00     0.094 A 
ATOM      9  C   UNL     1     253.316 -27.421  50.904  1.00  0.00     0.336 A 
ATOM     10  O   UNL     1     253.276 -28.635  50.571  1.00  0.00    -0.246 OA
ATOM     11  O   UNL     1     252.465 -26.559  50.353  1.00  0.00    -0.423 OA
ENDROOT
BRANCH   1  12
ATOM     12  O   UNL     1     252.386 -21.154  51.608  1.00  0.00    -0.493 OA
ATOM     13  C   UNL     1     253.242 -20.173  51.030  1.00  0.00     0.278 C 
ENDBRANCH   1  12
BRANCH   2  14
ATOM     14  O   UNL     1     250.614 -22.145  49.775  1.00  0.00    -0.493 OA
ATOM     15  C   UNL     1     250.584 -21.831  48.386  1.00  0.00     0.278 C 
ENDBRANCH   2  14
TORSDOF 2
ENDMDL
