MODEL 1
REMARK VINA RESULT:    -5.694      0.000      0.000
REMARK INTER + INTRA:         -12.387
REMARK INTER:                 -11.020
REMARK INTRA:                  -1.367
REMARK UNBOUND:                -1.367
REMARK SMILES CCCCCCCCCCCCCCCCCC(=O)[O-]
REMARK SMILES IDX 10 1 11 2 12 3 13 4 14 5 15 6 16 7 17 8 18 9 19 10 20 11
REMARK SMILES IDX 9 12 8 13 7 14 6 15 5 16 4 17 3 18 2 19 1 20
REMARK H PARENT
REMARK Flexibility Score: inf
ROOT
ATOM      1  C   UNL     1      10.608   0.885  22.537  1.00  0.00     0.000 C 
ENDROOT
BRANCH   1   2
ATOM      2  C   UNL     1      10.681   2.354  22.092  1.00  0.00     0.000 C 
BRANCH   2   3
ATOM      3  C   UNL     1      10.203   2.513  20.644  1.00  0.00     0.000 C 
BRANCH   3   4
ATOM      4  C   UNL     1      10.163   3.991  20.236  1.00  0.00     0.000 C 
BRANCH   4   5
ATOM      5  C   UNL     1      11.572   4.600  20.237  1.00  0.00     0.000 C 
BRANCH   5   6
ATOM      6  C   UNL     1      11.851   5.474  19.001  1.00  0.00     0.000 C 
BRANCH   6   7
ATOM      7  C   UNL     1      11.944   6.988  19.279  1.00  0.00     0.006 C 
BRANCH   7   8
ATOM      8  C   UNL     1      12.038   7.359  20.767  1.00  0.00     0.053 C 
BRANCH   8   9
ATOM      9  C   UNL     1      13.175   8.295  21.041  1.00  0.00     0.041 C 
ATOM     10  O   UNL     1      13.808   8.819  20.087  1.00  0.00    -0.550 OA
ATOM     11  O   UNL     1      13.557   8.563  22.350  1.00  0.00    -0.550 OA
ENDBRANCH   8   9
ENDBRANCH   7   8
ENDBRANCH   6   7
ENDBRANCH   5   6
ENDBRANCH   4   5
ENDBRANCH   3   4
ENDBRANCH   2   3
ENDBRANCH   1   2
BRANCH   1  12
ATOM     12  C   UNL     1      11.313   0.635  23.880  1.00  0.00     0.000 C 
BRANCH  12  13
ATOM     13  C   UNL     1      10.322   0.479  25.047  1.00  0.00    -0.000 C 
BRANCH  13  14
ATOM     14  C   UNL     1      10.991  -0.070  26.319  1.00  0.00    -0.000 C 
BRANCH  14  15
ATOM     15  C   UNL     1      12.336  -0.760  26.028  1.00  0.00    -0.000 C 
BRANCH  15  16
ATOM     16  C   UNL     1      13.368  -0.531  27.144  1.00  0.00    -0.000 C 
BRANCH  16  17
ATOM     17  C   UNL     1      14.622   0.211  26.650  1.00  0.00    -0.000 C 
BRANCH  17  18
ATOM     18  C   UNL     1      14.380   1.717  26.461  1.00  0.00    -0.000 C 
BRANCH  18  19
ATOM     19  C   UNL     1      14.356   2.130  24.982  1.00  0.00    -0.003 C 
ATOM     20  C   UNL     1      13.621   3.454  24.793  1.00  0.00     0.004 C 
ENDBRANCH  18  19
ENDBRANCH  17  18
ENDBRANCH  16  17
ENDBRANCH  15  16
ENDBRANCH  14  15
ENDBRANCH  13  14
ENDBRANCH  12  13
ENDBRANCH   1  12
TORSDOF 16
ENDMDL
MODEL 2
REMARK VINA RESULT:    -5.682      2.873      8.028
REMARK INTER + INTRA:         -12.364
REMARK INTER:                 -11.022
REMARK INTRA:                  -1.342
REMARK UNBOUND:                -1.367
REMARK SMILES CCCCCCCCCCCCCCCCCC(=O)[O-]
REMARK SMILES IDX 10 1 11 2 12 3 13 4 14 5 15 6 16 7 17 8 18 9 19 10 20 11
REMARK SMILES IDX 9 12 8 13 7 14 6 15 5 16 4 17 3 18 2 19 1 20
REMARK H PARENT
REMARK Flexibility Score: inf
ROOT
ATOM      1  C   UNL     1      10.729   2.260  22.418  1.00  0.00     0.000 C 
ENDROOT
BRANCH   1   2
ATOM      2  C   UNL     1      10.922   0.815  22.904  1.00  0.00     0.000 C 
BRANCH   2   3
ATOM      3  C   UNL     1      11.584   0.786  24.287  1.00  0.00     0.000 C 
BRANCH   3   4
ATOM      4  C   UNL     1      10.590   0.335  25.365  1.00  0.00     0.000 C 
BRANCH   4   5
ATOM      5  C   UNL     1      11.324  -0.219  26.594  1.00  0.00     0.000 C 
BRANCH   5   6
ATOM      6  C   UNL     1      12.513  -1.124  26.225  1.00  0.00     0.000 C 
BRANCH   6   7
ATOM      7  C   UNL     1      13.819  -0.834  26.993  1.00  0.00     0.006 C 
BRANCH   7   8
ATOM      8  C   UNL     1      14.955  -0.267  26.128  1.00  0.00     0.053 C 
BRANCH   8   9
ATOM      9  C   UNL     1      15.057   1.223  26.240  1.00  0.00     0.041 C 
ATOM     10  O   UNL     1      14.299   1.852  27.024  1.00  0.00    -0.550 OA
ATOM     11  O   UNL     1      15.964   1.920  25.452  1.00  0.00    -0.550 OA
ENDBRANCH   8   9
ENDBRANCH   7   8
ENDBRANCH   6   7
ENDBRANCH   5   6
ENDBRANCH   4   5
ENDBRANCH   3   4
ENDBRANCH   2   3
ENDBRANCH   1   2
BRANCH   1  12
ATOM     12  C   UNL     1      10.279   2.337  20.950  1.00  0.00     0.000 C 
BRANCH  12  13
ATOM     13  C   UNL     1      10.484   3.736  20.343  1.00  0.00    -0.000 C 
BRANCH  13  14
ATOM     14  C   UNL     1      10.932   3.681  18.872  1.00  0.00    -0.000 C 
BRANCH  14  15
ATOM     15  C   UNL     1      12.085   4.656  18.570  1.00  0.00    -0.000 C 
BRANCH  15  16
ATOM     16  C   UNL     1      11.586   6.020  18.067  1.00  0.00    -0.000 C 
BRANCH  16  17
ATOM     17  C   UNL     1      11.737   7.132  19.118  1.00  0.00    -0.000 C 
BRANCH  17  18
ATOM     18  C   UNL     1      10.431   7.405  19.882  1.00  0.00    -0.000 C 
BRANCH  18  19
ATOM     19  C   UNL     1      10.625   7.401  21.404  1.00  0.00    -0.003 C 
ATOM     20  C   UNL     1      11.914   6.681  21.792  1.00  0.00     0.004 C 
ENDBRANCH  18  19
ENDBRANCH  17  18
ENDBRANCH  16  17
ENDBRANCH  15  16
ENDBRANCH  14  15
ENDBRANCH  13  14
ENDBRANCH  12  13
ENDBRANCH   1  12
TORSDOF 16
ENDMDL
MODEL 3
REMARK VINA RESULT:    -5.677      1.792      2.420
REMARK INTER + INTRA:         -12.355
REMARK INTER:                 -11.061
REMARK INTRA:                  -1.294
REMARK UNBOUND:                -1.367
REMARK SMILES CCCCCCCCCCCCCCCCCC(=O)[O-]
REMARK SMILES IDX 10 1 11 2 12 3 13 4 14 5 15 6 16 7 17 8 18 9 19 10 20 11
REMARK SMILES IDX 9 12 8 13 7 14 6 15 5 16 4 17 3 18 2 19 1 20
REMARK H PARENT
REMARK Flexibility Score: inf
ROOT
ATOM      1  C   UNL     1      10.614   2.325  21.879  1.00  0.00     0.000 C 
ENDROOT
BRANCH   1   2
ATOM      2  C   UNL     1      10.227   2.401  20.394  1.00  0.00     0.000 C 
BRANCH   2   3
ATOM      3  C   UNL     1       9.672   3.787  20.042  1.00  0.00     0.000 C 
BRANCH   3   4
ATOM      4  C   UNL     1       9.545   4.664  21.294  1.00  0.00     0.000 C 
BRANCH   4   5
ATOM      5  C   UNL     1       9.293   6.130  20.915  1.00  0.00     0.000 C 
BRANCH   5   6
ATOM      6  C   UNL     1      10.395   7.079  21.422  1.00  0.00     0.000 C 
BRANCH   6   7
ATOM      7  C   UNL     1      11.813   6.770  20.901  1.00  0.00     0.006 C 
BRANCH   7   8
ATOM      8  C   UNL     1      12.134   7.376  19.526  1.00  0.00     0.053 C 
BRANCH   8   9
ATOM      9  C   UNL     1      11.840   6.423  18.409  1.00  0.00     0.041 C 
ATOM     10  O   UNL     1      10.972   6.710  17.544  1.00  0.00    -0.550 OA
ATOM     11  O   UNL     1      12.499   5.202  18.344  1.00  0.00    -0.550 OA
ENDBRANCH   8   9
ENDBRANCH   7   8
ENDBRANCH   6   7
ENDBRANCH   5   6
ENDBRANCH   4   5
ENDBRANCH   3   4
ENDBRANCH   2   3
ENDBRANCH   1   2
BRANCH   1  12
ATOM     12  C   UNL     1      10.634   0.883  22.415  1.00  0.00     0.000 C 
BRANCH  12  13
ATOM     13  C   UNL     1      11.187   0.794  23.848  1.00  0.00    -0.000 C 
BRANCH  13  14
ATOM     14  C   UNL     1      10.110   0.395  24.871  1.00  0.00    -0.000 C 
BRANCH  14  15
ATOM     15  C   UNL     1      10.710  -0.027  26.225  1.00  0.00    -0.000 C 
BRANCH  15  16
ATOM     16  C   UNL     1      12.217  -0.313  26.137  1.00  0.00    -0.000 C 
BRANCH  16  17
ATOM     17  C   UNL     1      12.997   0.235  27.345  1.00  0.00    -0.000 C 
BRANCH  17  18
ATOM     18  C   UNL     1      14.378   0.785  26.956  1.00  0.00    -0.000 C 
BRANCH  18  19
ATOM     19  C   UNL     1      14.296   1.889  25.892  1.00  0.00    -0.003 C 
ATOM     20  C   UNL     1      15.589   1.973  25.085  1.00  0.00     0.004 C 
ENDBRANCH  18  19
ENDBRANCH  17  18
ENDBRANCH  16  17
ENDBRANCH  15  16
ENDBRANCH  14  15
ENDBRANCH  13  14
ENDBRANCH  12  13
ENDBRANCH   1  12
TORSDOF 16
ENDMDL
MODEL 4
REMARK VINA RESULT:    -5.654      3.477      8.369
REMARK INTER + INTRA:         -12.309
REMARK INTER:                 -11.051
REMARK INTRA:                  -1.258
REMARK UNBOUND:                -1.367
REMARK SMILES CCCCCCCCCCCCCCCCCC(=O)[O-]
REMARK SMILES IDX 10 1 11 2 12 3 13 4 14 5 15 6 16 7 17 8 18 9 19 10 20 11
REMARK SMILES IDX 9 12 8 13 7 14 6 15 5 16 4 17 3 18 2 19 1 20
REMARK H PARENT
REMARK Flexibility Score: inf
ROOT
ATOM      1  C   UNL     1      10.220   2.291  20.606  1.00  0.00     0.000 C 
ENDROOT
BRANCH   1   2
ATOM      2  C   UNL     1      10.638   2.261  22.084  1.00  0.00     0.000 C 
BRANCH   2   3
ATOM      3  C   UNL     1      10.677   0.822  22.614  1.00  0.00     0.000 C 
BRANCH   3   4
ATOM      4  C   UNL     1      11.330   0.764  24.001  1.00  0.00     0.000 C 
BRANCH   4   5
ATOM      5  C   UNL     1      10.303   0.381  25.076  1.00  0.00     0.000 C 
BRANCH   5   6
ATOM      6  C   UNL     1      10.933  -0.349  26.276  1.00  0.00     0.000 C 
BRANCH   6   7
ATOM      7  C   UNL     1      12.442  -0.100  26.473  1.00  0.00     0.006 C 
BRANCH   7   8
ATOM      8  C   UNL     1      13.318  -1.355  26.338  1.00  0.00     0.053 C 
BRANCH   8   9
ATOM      9  C   UNL     1      14.779  -1.023  26.342  1.00  0.00     0.041 C 
ATOM     10  O   UNL     1      15.631  -1.921  26.573  1.00  0.00    -0.550 OA
ATOM     11  O   UNL     1      15.197   0.284  26.125  1.00  0.00    -0.550 OA
ENDBRANCH   8   9
ENDBRANCH   7   8
ENDBRANCH   6   7
ENDBRANCH   5   6
ENDBRANCH   4   5
ENDBRANCH   3   4
ENDBRANCH   2   3
ENDBRANCH   1   2
BRANCH   1  12
ATOM     12  C   UNL     1       9.525   3.605  20.211  1.00  0.00     0.000 C 
BRANCH  12  13
ATOM     13  C   UNL     1       9.824   4.017  18.759  1.00  0.00    -0.000 C 
BRANCH  13  14
ATOM     14  C   UNL     1      11.262   3.674  18.333  1.00  0.00    -0.000 C 
BRANCH  14  15
ATOM     15  C   UNL     1      12.207   4.887  18.417  1.00  0.00    -0.000 C 
BRANCH  15  16
ATOM     16  C   UNL     1      11.499   6.209  18.078  1.00  0.00    -0.000 C 
BRANCH  16  17
ATOM     17  C   UNL     1      11.790   7.317  19.104  1.00  0.00    -0.000 C 
BRANCH  17  18
ATOM     18  C   UNL     1      11.778   6.800  20.551  1.00  0.00    -0.000 C 
BRANCH  18  19
ATOM     19  C   UNL     1      10.376   6.828  21.177  1.00  0.00    -0.003 C 
ATOM     20  C   UNL     1      10.038   8.219  21.706  1.00  0.00     0.004 C 
ENDBRANCH  18  19
ENDBRANCH  17  18
ENDBRANCH  16  17
ENDBRANCH  15  16
ENDBRANCH  14  15
ENDBRANCH  13  14
ENDBRANCH  12  13
ENDBRANCH   1  12
TORSDOF 16
ENDMDL
MODEL 5
REMARK VINA RESULT:    -5.623      3.422      8.276
REMARK INTER + INTRA:         -12.249
REMARK INTER:                 -10.398
REMARK INTRA:                  -1.851
REMARK UNBOUND:                -1.367
REMARK SMILES CCCCCCCCCCCCCCCCCC(=O)[O-]
REMARK SMILES IDX 10 1 11 2 12 3 13 4 14 5 15 6 16 7 17 8 18 9 19 10 20 11
REMARK SMILES IDX 9 12 8 13 7 14 6 15 5 16 4 17 3 18 2 19 1 20
REMARK H PARENT
REMARK Flexibility Score: inf
ROOT
ATOM      1  C   UNL     1       9.889   2.774  18.982  1.00  0.00     0.000 C 
ENDROOT
BRANCH   1   2
ATOM      2  C   UNL     1      10.256   3.082  20.442  1.00  0.00     0.000 C 
BRANCH   2   3
ATOM      3  C   UNL     1      10.280   1.799  21.283  1.00  0.00     0.000 C 
BRANCH   3   4
ATOM      4  C   UNL     1      10.949   2.043  22.641  1.00  0.00     0.000 C 
BRANCH   4   5
ATOM      5  C   UNL     1      11.023   0.746  23.459  1.00  0.00     0.000 C 
BRANCH   5   6
ATOM      6  C   UNL     1      11.847   0.896  24.750  1.00  0.00     0.000 C 
BRANCH   6   7
ATOM      7  C   UNL     1      11.471  -0.081  25.882  1.00  0.00     0.006 C 
BRANCH   7   8
ATOM      8  C   UNL     1      12.670  -0.752  26.570  1.00  0.00     0.053 C 
BRANCH   8   9
ATOM      9  C   UNL     1      13.359   0.172  27.526  1.00  0.00     0.041 C 
ATOM     10  O   UNL     1      13.052   0.164  28.747  1.00  0.00    -0.550 OA
ATOM     11  O   UNL     1      14.316   1.066  27.063  1.00  0.00    -0.550 OA
ENDBRANCH   8   9
ENDBRANCH   7   8
ENDBRANCH   6   7
ENDBRANCH   5   6
ENDBRANCH   4   5
ENDBRANCH   3   4
ENDBRANCH   2   3
ENDBRANCH   1   2
BRANCH   1  12
ATOM     12  C   UNL     1      10.667   3.642  17.979  1.00  0.00     0.000 C 
BRANCH  12  13
ATOM     13  C   UNL     1      11.876   4.345  18.620  1.00  0.00    -0.000 C 
BRANCH  13  14
ATOM     14  C   UNL     1      12.008   5.813  18.178  1.00  0.00    -0.000 C 
BRANCH  14  15
ATOM     15  C   UNL     1      10.661   6.424  17.752  1.00  0.00    -0.000 C 
BRANCH  15  16
ATOM     16  C   UNL     1      10.027   7.282  18.859  1.00  0.00    -0.000 C 
BRANCH  16  17
ATOM     17  C   UNL     1       9.083   6.475  19.768  1.00  0.00    -0.000 C 
BRANCH  17  18
ATOM     18  C   UNL     1       9.463   6.580  21.254  1.00  0.00    -0.000 C 
BRANCH  18  19
ATOM     19  C   UNL     1      10.894   7.095  21.463  1.00  0.00    -0.003 C 
ATOM     20  C   UNL     1      11.823   5.970  21.910  1.00  0.00     0.004 C 
ENDBRANCH  18  19
ENDBRANCH  17  18
ENDBRANCH  16  17
ENDBRANCH  15  16
ENDBRANCH  14  15
ENDBRANCH  13  14
ENDBRANCH  12  13
ENDBRANCH   1  12
TORSDOF 16
ENDMDL
MODEL 6
REMARK VINA RESULT:    -5.558      2.984      8.337
REMARK INTER + INTRA:         -12.123
REMARK INTER:                 -10.728
REMARK INTRA:                  -1.395
REMARK UNBOUND:                -1.367
REMARK SMILES CCCCCCCCCCCCCCCCCC(=O)[O-]
REMARK SMILES IDX 10 1 11 2 12 3 13 4 14 5 15 6 16 7 17 8 18 9 19 10 20 11
REMARK SMILES IDX 9 12 8 13 7 14 6 15 5 16 4 17 3 18 2 19 1 20
REMARK H PARENT
REMARK Flexibility Score: inf
ROOT
ATOM      1  C   UNL     1      10.662   2.388  22.124  1.00  0.00     0.000 C 
ENDROOT
BRANCH   1   2
ATOM      2  C   UNL     1      10.626   0.896  22.491  1.00  0.00     0.000 C 
BRANCH   2   3
ATOM      3  C   UNL     1      11.194   0.663  23.896  1.00  0.00     0.000 C 
BRANCH   3   4
ATOM      4  C   UNL     1      10.069   0.444  24.916  1.00  0.00     0.000 C 
BRANCH   4   5
ATOM      5  C   UNL     1      10.634  -0.003  26.271  1.00  0.00     0.000 C 
BRANCH   5   6
ATOM      6  C   UNL     1      12.110  -0.434  26.194  1.00  0.00     0.000 C 
BRANCH   6   7
ATOM      7  C   UNL     1      12.918  -0.231  27.491  1.00  0.00     0.006 C 
BRANCH   7   8
ATOM      8  C   UNL     1      13.697   1.093  27.556  1.00  0.00     0.053 C 
BRANCH   8   9
ATOM      9  C   UNL     1      14.413   1.386  26.274  1.00  0.00     0.041 C 
ATOM     10  O   UNL     1      14.084   2.383  25.579  1.00  0.00    -0.550 OA
ATOM     11  O   UNL     1      15.422   0.540  25.830  1.00  0.00    -0.550 OA
ENDBRANCH   8   9
ENDBRANCH   7   8
ENDBRANCH   6   7
ENDBRANCH   5   6
ENDBRANCH   4   5
ENDBRANCH   3   4
ENDBRANCH   2   3
ENDBRANCH   1   2
BRANCH   1  12
ATOM     12  C   UNL     1      10.300   2.647  20.652  1.00  0.00     0.000 C 
BRANCH  12  13
ATOM     13  C   UNL     1      10.276   4.145  20.305  1.00  0.00    -0.000 C 
BRANCH  13  14
ATOM     14  C   UNL     1       9.303   4.941  21.192  1.00  0.00    -0.000 C 
BRANCH  14  15
ATOM     15  C   UNL     1       8.210   5.654  20.377  1.00  0.00    -0.000 C 
BRANCH  15  16
ATOM     16  C   UNL     1       8.014   5.033  18.985  1.00  0.00    -0.000 C 
BRANCH  16  17
ATOM     17  C   UNL     1       8.100   6.072  17.853  1.00  0.00    -0.000 C 
BRANCH  17  18
ATOM     18  C   UNL     1       9.071   7.219  18.178  1.00  0.00    -0.000 C 
BRANCH  18  19
ATOM     19  C   UNL     1      10.453   7.020  17.541  1.00  0.00    -0.003 C 
ATOM     20  C   UNL     1      11.559   7.110  18.590  1.00  0.00     0.004 C 
ENDBRANCH  18  19
ENDBRANCH  17  18
ENDBRANCH  16  17
ENDBRANCH  15  16
ENDBRANCH  14  15
ENDBRANCH  13  14
ENDBRANCH  12  13
ENDBRANCH   1  12
TORSDOF 16
ENDMDL
MODEL 7
REMARK VINA RESULT:    -5.545      1.400      1.758
REMARK INTER + INTRA:         -12.098
REMARK INTER:                 -10.556
REMARK INTRA:                  -1.542
REMARK UNBOUND:                -1.367
REMARK SMILES CCCCCCCCCCCCCCCCCC(=O)[O-]
REMARK SMILES IDX 10 1 11 2 12 3 13 4 14 5 15 6 16 7 17 8 18 9 19 10 20 11
REMARK SMILES IDX 9 12 8 13 7 14 6 15 5 16 4 17 3 18 2 19 1 20
REMARK H PARENT
REMARK Flexibility Score: inf
ROOT
ATOM      1  C   UNL     1      10.249   1.219  21.691  1.00  0.00     0.000 C 
ENDROOT
BRANCH   1   2
ATOM      2  C   UNL     1      10.660   2.694  21.809  1.00  0.00     0.000 C 
BRANCH   2   3
ATOM      3  C   UNL     1       9.957   3.546  20.745  1.00  0.00     0.000 C 
BRANCH   3   4
ATOM      4  C   UNL     1       9.862   2.795  19.411  1.00  0.00     0.000 C 
BRANCH   4   5
ATOM      5  C   UNL     1      10.919   3.301  18.419  1.00  0.00     0.000 C 
BRANCH   5   6
ATOM      6  C   UNL     1      10.889   4.829  18.237  1.00  0.00     0.000 C 
BRANCH   6   7
ATOM      7  C   UNL     1      12.238   5.541  18.467  1.00  0.00     0.006 C 
BRANCH   7   8
ATOM      8  C   UNL     1      12.118   6.967  19.027  1.00  0.00     0.053 C 
BRANCH   8   9
ATOM      9  C   UNL     1      11.377   7.000  20.328  1.00  0.00     0.041 C 
ATOM     10  O   UNL     1      10.270   7.593  20.411  1.00  0.00    -0.550 OA
ATOM     11  O   UNL     1      11.925   6.404  21.457  1.00  0.00    -0.550 OA
ENDBRANCH   8   9
ENDBRANCH   7   8
ENDBRANCH   6   7
ENDBRANCH   5   6
ENDBRANCH   4   5
ENDBRANCH   3   4
ENDBRANCH   2   3
ENDBRANCH   1   2
BRANCH   1  12
ATOM     12  C   UNL     1      10.984   0.315  22.695  1.00  0.00     0.000 C 
BRANCH  12  13
ATOM     13  C   UNL     1      11.332   1.047  24.002  1.00  0.00    -0.000 C 
BRANCH  13  14
ATOM     14  C   UNL     1      10.768   0.336  25.245  1.00  0.00    -0.000 C 
BRANCH  14  15
ATOM     15  C   UNL     1      11.815   0.181  26.362  1.00  0.00    -0.000 C 
BRANCH  15  16
ATOM     16  C   UNL     1      12.620  -1.122  26.238  1.00  0.00    -0.000 C 
BRANCH  16  17
ATOM     17  C   UNL     1      14.133  -0.904  26.411  1.00  0.00    -0.000 C 
BRANCH  17  18
ATOM     18  C   UNL     1      14.479   0.539  26.814  1.00  0.00    -0.000 C 
BRANCH  18  19
ATOM     19  C   UNL     1      15.382   1.238  25.788  1.00  0.00    -0.003 C 
ATOM     20  C   UNL     1      14.622   2.331  25.041  1.00  0.00     0.004 C 
ENDBRANCH  18  19
ENDBRANCH  17  18
ENDBRANCH  16  17
ENDBRANCH  15  16
ENDBRANCH  14  15
ENDBRANCH  13  14
ENDBRANCH  12  13
ENDBRANCH   1  12
TORSDOF 16
ENDMDL
MODEL 8
REMARK VINA RESULT:    -5.515      4.055      8.719
REMARK INTER + INTRA:         -12.040
REMARK INTER:                 -10.489
REMARK INTRA:                  -1.551
REMARK UNBOUND:                -1.367
REMARK SMILES CCCCCCCCCCCCCCCCCC(=O)[O-]
REMARK SMILES IDX 10 1 11 2 12 3 13 4 14 5 15 6 16 7 17 8 18 9 19 10 20 11
REMARK SMILES IDX 9 12 8 13 7 14 6 15 5 16 4 17 3 18 2 19 1 20
REMARK H PARENT
REMARK Flexibility Score: inf
ROOT
ATOM      1  C   UNL     1      10.250   2.359  20.433  1.00  0.00     0.000 C 
ENDROOT
BRANCH   1   2
ATOM      2  C   UNL     1      10.616   2.338  21.925  1.00  0.00     0.000 C 
BRANCH   2   3
ATOM      3  C   UNL     1      10.607   0.905  22.472  1.00  0.00     0.000 C 
BRANCH   3   4
ATOM      4  C   UNL     1      11.348   0.822  23.813  1.00  0.00     0.000 C 
BRANCH   4   5
ATOM      5  C   UNL     1      10.398   0.396  24.940  1.00  0.00     0.000 C 
BRANCH   5   6
ATOM      6  C   UNL     1      11.137  -0.002  26.230  1.00  0.00     0.000 C 
BRANCH   6   7
ATOM      7  C   UNL     1      12.674  -0.056  26.113  1.00  0.00     0.006 C 
BRANCH   7   8
ATOM      8  C   UNL     1      13.278  -1.457  26.295  1.00  0.00     0.053 C 
BRANCH   8   9
ATOM      9  C   UNL     1      14.431  -1.451  27.252  1.00  0.00     0.041 C 
ATOM     10  O   UNL     1      14.371  -0.774  28.311  1.00  0.00    -0.550 OA
ATOM     11  O   UNL     1      15.585  -2.165  26.956  1.00  0.00    -0.550 OA
ENDBRANCH   8   9
ENDBRANCH   7   8
ENDBRANCH   6   7
ENDBRANCH   5   6
ENDBRANCH   4   5
ENDBRANCH   3   4
ENDBRANCH   2   3
ENDBRANCH   1   2
BRANCH   1  12
ATOM     12  C   UNL     1      10.165   3.784  19.862  1.00  0.00     0.000 C 
BRANCH  12  13
ATOM     13  C   UNL     1       8.930   4.550  20.368  1.00  0.00    -0.000 C 
BRANCH  13  14
ATOM     14  C   UNL     1       9.304   5.785  21.205  1.00  0.00    -0.000 C 
BRANCH  14  15
ATOM     15  C   UNL     1      10.816   6.076  21.184  1.00  0.00    -0.000 C 
BRANCH  15  16
ATOM     16  C   UNL     1      11.154   7.377  20.440  1.00  0.00    -0.000 C 
BRANCH  16  17
ATOM     17  C   UNL     1      12.144   7.159  19.282  1.00  0.00    -0.000 C 
BRANCH  17  18
ATOM     18  C   UNL     1      11.452   6.675  17.998  1.00  0.00    -0.000 C 
BRANCH  18  19
ATOM     19  C   UNL     1      10.269   7.565  17.593  1.00  0.00    -0.003 C 
ATOM     20  C   UNL     1       9.001   6.739  17.395  1.00  0.00     0.004 C 
ENDBRANCH  18  19
ENDBRANCH  17  18
ENDBRANCH  16  17
ENDBRANCH  15  16
ENDBRANCH  14  15
ENDBRANCH  13  14
ENDBRANCH  12  13
ENDBRANCH   1  12
TORSDOF 16
ENDMDL
MODEL 9
REMARK VINA RESULT:    -5.494      2.644      3.644
REMARK INTER + INTRA:         -12.000
REMARK INTER:                 -10.448
REMARK INTRA:                  -1.552
REMARK UNBOUND:                -1.367
REMARK SMILES CCCCCCCCCCCCCCCCCC(=O)[O-]
REMARK SMILES IDX 10 1 11 2 12 3 13 4 14 5 15 6 16 7 17 8 18 9 19 10 20 11
REMARK SMILES IDX 9 12 8 13 7 14 6 15 5 16 4 17 3 18 2 19 1 20
REMARK H PARENT
REMARK Flexibility Score: inf
ROOT
ATOM      1  C   UNL     1      10.244   2.664  20.579  1.00  0.00     0.000 C 
ENDROOT
BRANCH   1   2
ATOM      2  C   UNL     1      11.013   3.802  19.890  1.00  0.00     0.000 C 
BRANCH   2   3
ATOM      3  C   UNL     1      11.505   4.831  20.915  1.00  0.00     0.000 C 
BRANCH   3   4
ATOM      4  C   UNL     1      11.611   6.227  20.289  1.00  0.00     0.000 C 
BRANCH   4   5
ATOM      5  C   UNL     1      11.820   6.134  18.771  1.00  0.00     0.000 C 
BRANCH   5   6
ATOM      6  C   UNL     1      10.823   6.993  17.973  1.00  0.00     0.000 C 
BRANCH   6   7
ATOM      7  C   UNL     1       9.605   6.231  17.414  1.00  0.00     0.006 C 
BRANCH   7   8
ATOM      8  C   UNL     1       8.276   6.549  18.117  1.00  0.00     0.053 C 
BRANCH   8   9
ATOM      9  C   UNL     1       7.964   5.562  19.200  1.00  0.00     0.041 C 
ATOM     10  O   UNL     1       7.524   4.419  18.908  1.00  0.00    -0.550 OA
ATOM     11  O   UNL     1       8.126   5.917  20.534  1.00  0.00    -0.550 OA
ENDBRANCH   8   9
ENDBRANCH   7   8
ENDBRANCH   6   7
ENDBRANCH   5   6
ENDBRANCH   4   5
ENDBRANCH   3   4
ENDBRANCH   2   3
ENDBRANCH   1   2
BRANCH   1  12
ATOM     12  C   UNL     1      10.635   2.492  22.056  1.00  0.00     0.000 C 
BRANCH  12  13
ATOM     13  C   UNL     1      10.623   1.019  22.501  1.00  0.00    -0.000 C 
BRANCH  13  14
ATOM     14  C   UNL     1      11.379   0.796  23.822  1.00  0.00    -0.000 C 
BRANCH  14  15
ATOM     15  C   UNL     1      10.439   0.437  24.987  1.00  0.00    -0.000 C 
BRANCH  15  16
ATOM     16  C   UNL     1      11.202   0.123  26.284  1.00  0.00    -0.000 C 
BRANCH  16  17
ATOM     17  C   UNL     1      12.426  -0.780  26.048  1.00  0.00    -0.000 C 
BRANCH  17  18
ATOM     18  C   UNL     1      13.551  -0.524  27.064  1.00  0.00    -0.000 C 
BRANCH  18  19
ATOM     19  C   UNL     1      14.017   0.939  27.073  1.00  0.00    -0.003 C 
ATOM     20  C   UNL     1      14.864   1.254  25.843  1.00  0.00     0.004 C 
ENDBRANCH  18  19
ENDBRANCH  17  18
ENDBRANCH  16  17
ENDBRANCH  15  16
ENDBRANCH  14  15
ENDBRANCH  13  14
ENDBRANCH  12  13
ENDBRANCH   1  12
TORSDOF 16
ENDMDL
