MODEL 1
REMARK VINA RESULT:    -3.058      0.000      0.000
REMARK INTER + INTRA:          -4.340
REMARK INTER:                  -4.131
REMARK INTRA:                  -0.210
REMARK UNBOUND:                -0.210
REMARK SMILES CCCCCCCC(=O)[O-]
REMARK SMILES IDX 5 1 6 2 7 3 8 4 9 5 10 6 4 7 3 8 2 9 1 10
REMARK H PARENT
REMARK Flexibility Score: inf
ROOT
ATOM      1  C   UNL     1      -5.909  35.792  22.223  1.00  0.00     0.000 C 
ENDROOT
BRANCH   1   2
ATOM      2  C   UNL     1      -6.084  35.306  20.773  1.00  0.00     0.006 C 
BRANCH   2   3
ATOM      3  C   UNL     1      -4.759  35.303  20.001  1.00  0.00     0.053 C 
BRANCH   3   4
ATOM      4  C   UNL     1      -4.926  34.773  18.609  1.00  0.00     0.041 C 
ATOM      5  O   UNL     1      -5.808  33.910  18.361  1.00  0.00    -0.550 OA
ATOM      6  O   UNL     1      -4.127  35.257  17.582  1.00  0.00    -0.550 OA
ENDBRANCH   3   4
ENDBRANCH   2   3
ENDBRANCH   1   2
BRANCH   1   7
ATOM      7  C   UNL     1      -6.125  34.671  23.253  1.00  0.00     0.000 C 
BRANCH   7   8
ATOM      8  C   UNL     1      -6.068  35.177  24.702  1.00  0.00    -0.000 C 
BRANCH   8   9
ATOM      9  C   UNL     1      -6.025  36.708  24.746  1.00  0.00    -0.003 C 
ATOM     10  C   UNL     1      -5.015  37.202  25.778  1.00  0.00     0.004 C 
ENDBRANCH   8   9
ENDBRANCH   7   8
ENDBRANCH   1   7
TORSDOF 6
ENDMDL
MODEL 2
REMARK VINA RESULT:    -2.647      3.494      5.847
REMARK INTER + INTRA:          -3.785
REMARK INTER:                  -3.862
REMARK INTRA:                   0.077
REMARK UNBOUND:                -0.210
REMARK SMILES CCCCCCCC(=O)[O-]
REMARK SMILES IDX 5 1 6 2 7 3 8 4 9 5 10 6 4 7 3 8 2 9 1 10
REMARK H PARENT
REMARK Flexibility Score: inf
ROOT
ATOM      1  C   UNL     1      -5.955  35.449  22.319  1.00  0.00     0.000 C 
ENDROOT
BRANCH   1   2
ATOM      2  C   UNL     1      -5.572  34.703  23.610  1.00  0.00     0.006 C 
BRANCH   2   3
ATOM      3  C   UNL     1      -6.125  35.395  24.862  1.00  0.00     0.053 C 
BRANCH   3   4
ATOM      4  C   UNL     1      -5.540  36.762  25.048  1.00  0.00     0.041 C 
ATOM      5  O   UNL     1      -4.653  36.960  25.919  1.00  0.00    -0.550 OA
ATOM      6  O   UNL     1      -5.956  37.811  24.238  1.00  0.00    -0.550 OA
ENDBRANCH   3   4
ENDBRANCH   2   3
ENDBRANCH   1   2
BRANCH   1   7
ATOM      7  C   UNL     1      -4.841  35.407  21.260  1.00  0.00     0.000 C 
BRANCH   7   8
ATOM      8  C   UNL     1      -5.330  35.837  19.868  1.00  0.00    -0.000 C 
BRANCH   8   9
ATOM      9  C   UNL     1      -4.570  35.091  18.766  1.00  0.00    -0.003 C 
ATOM     10  C   UNL     1      -5.444  34.019  18.122  1.00  0.00     0.004 C 
ENDBRANCH   8   9
ENDBRANCH   7   8
ENDBRANCH   1   7
TORSDOF 6
ENDMDL
MODEL 3
REMARK VINA RESULT:    -2.451      3.960      5.632
REMARK INTER + INTRA:          -3.520
REMARK INTER:                  -3.230
REMARK INTRA:                  -0.289
REMARK UNBOUND:                -0.210
REMARK SMILES CCCCCCCC(=O)[O-]
REMARK SMILES IDX 5 1 6 2 7 3 8 4 9 5 10 6 4 7 3 8 2 9 1 10
REMARK H PARENT
REMARK Flexibility Score: inf
ROOT
ATOM      1  C   UNL     1      -5.702  34.988  22.896  1.00  0.00     0.000 C 
ENDROOT
BRANCH   1   2
ATOM      2  C   UNL     1      -6.125  36.227  23.704  1.00  0.00     0.006 C 
BRANCH   2   3
ATOM      3  C   UNL     1      -5.586  36.193  25.139  1.00  0.00     0.053 C 
BRANCH   3   4
ATOM      4  C   UNL     1      -4.841  37.447  25.485  1.00  0.00     0.041 C 
ATOM      5  O   UNL     1      -3.881  37.410  26.299  1.00  0.00    -0.550 OA
ATOM      6  O   UNL     1      -5.189  38.649  24.884  1.00  0.00    -0.550 OA
ENDBRANCH   3   4
ENDBRANCH   2   3
ENDBRANCH   1   2
BRANCH   1   7
ATOM      7  C   UNL     1      -6.020  35.121  21.398  1.00  0.00     0.000 C 
BRANCH   7   8
ATOM      8  C   UNL     1      -4.777  35.439  20.553  1.00  0.00    -0.000 C 
BRANCH   8   9
ATOM      9  C   UNL     1      -5.040  36.623  19.616  1.00  0.00    -0.003 C 
ATOM     10  C   UNL     1      -5.385  37.884  20.403  1.00  0.00     0.004 C 
ENDBRANCH   8   9
ENDBRANCH   7   8
ENDBRANCH   1   7
TORSDOF 6
ENDMDL
MODEL 4
REMARK VINA RESULT:    -2.175      3.042      5.696
REMARK INTER + INTRA:          -3.148
REMARK INTER:                  -2.927
REMARK INTRA:                  -0.221
REMARK UNBOUND:                -0.210
REMARK SMILES CCCCCCCC(=O)[O-]
REMARK SMILES IDX 5 1 6 2 7 3 8 4 9 5 10 6 4 7 3 8 2 9 1 10
REMARK H PARENT
REMARK Flexibility Score: inf
ROOT
ATOM      1  C   UNL     1      -5.568  37.066  20.578  1.00  0.00     0.000 C 
ENDROOT
BRANCH   1   2
ATOM      2  C   UNL     1      -6.008  35.953  21.545  1.00  0.00     0.006 C 
BRANCH   2   3
ATOM      3  C   UNL     1      -6.124  36.455  22.989  1.00  0.00     0.053 C 
BRANCH   3   4
ATOM      4  C   UNL     1      -5.582  35.461  23.971  1.00  0.00     0.041 C 
ATOM      5  O   UNL     1      -5.343  34.279  23.609  1.00  0.00    -0.550 OA
ATOM      6  O   UNL     1      -5.314  35.850  25.276  1.00  0.00    -0.550 OA
ENDBRANCH   3   4
ENDBRANCH   2   3
ENDBRANCH   1   2
BRANCH   1   7
ATOM      7  C   UNL     1      -4.976  36.514  19.271  1.00  0.00     0.000 C 
BRANCH   7   8
ATOM      8  C   UNL     1      -4.630  35.020  19.360  1.00  0.00    -0.000 C 
BRANCH   8   9
ATOM      9  C   UNL     1      -4.882  34.318  18.021  1.00  0.00    -0.003 C 
ATOM     10  C   UNL     1      -3.787  34.648  17.011  1.00  0.00     0.004 C 
ENDBRANCH   8   9
ENDBRANCH   7   8
ENDBRANCH   1   7
TORSDOF 6
ENDMDL
MODEL 5
REMARK VINA RESULT:    -1.867      1.848      2.383
REMARK INTER + INTRA:          -2.731
REMARK INTER:                  -3.008
REMARK INTRA:                   0.276
REMARK UNBOUND:                -0.210
REMARK SMILES CCCCCCCC(=O)[O-]
REMARK SMILES IDX 5 1 6 2 7 3 8 4 9 5 10 6 4 7 3 8 2 9 1 10
REMARK H PARENT
REMARK Flexibility Score: inf
ROOT
ATOM      1  C   UNL     1      -6.072  35.642  21.714  1.00  0.00     0.000 C 
ENDROOT
BRANCH   1   2
ATOM      2  C   UNL     1      -4.800  35.355  20.896  1.00  0.00     0.006 C 
BRANCH   2   3
ATOM      3  C   UNL     1      -4.898  35.901  19.466  1.00  0.00     0.053 C 
BRANCH   3   4
ATOM      4  C   UNL     1      -5.036  34.801  18.458  1.00  0.00     0.041 C 
ATOM      5  O   UNL     1      -5.980  33.973  18.548  1.00  0.00    -0.550 OA
ATOM      6  O   UNL     1      -4.138  34.710  17.403  1.00  0.00    -0.550 OA
ENDBRANCH   3   4
ENDBRANCH   2   3
ENDBRANCH   1   2
BRANCH   1   7
ATOM      7  C   UNL     1      -6.081  37.056  22.317  1.00  0.00     0.000 C 
BRANCH   7   8
ATOM      8  C   UNL     1      -5.619  38.129  21.320  1.00  0.00    -0.000 C 
BRANCH   8   9
ATOM      9  C   UNL     1      -5.708  39.528  21.940  1.00  0.00    -0.003 C 
ATOM     10  C   UNL     1      -5.392  39.490  23.432  1.00  0.00     0.004 C 
ENDBRANCH   8   9
ENDBRANCH   7   8
ENDBRANCH   1   7
TORSDOF 6
ENDMDL
MODEL 6
REMARK VINA RESULT:    -1.652      2.290      2.888
REMARK INTER + INTRA:          -2.442
REMARK INTER:                  -2.230
REMARK INTRA:                  -0.211
REMARK UNBOUND:                -0.210
REMARK SMILES CCCCCCCC(=O)[O-]
REMARK SMILES IDX 5 1 6 2 7 3 8 4 9 5 10 6 4 7 3 8 2 9 1 10
REMARK H PARENT
REMARK Flexibility Score: inf
ROOT
ATOM      1  C   UNL     1      -4.990  39.064  21.735  1.00  0.00     0.000 C 
ENDROOT
BRANCH   1   2
ATOM      2  C   UNL     1      -5.747  38.264  20.660  1.00  0.00     0.006 C 
BRANCH   2   3
ATOM      3  C   UNL     1      -4.809  37.381  19.829  1.00  0.00     0.053 C 
BRANCH   3   4
ATOM      4  C   UNL     1      -5.144  35.927  19.968  1.00  0.00     0.041 C 
ATOM      5  O   UNL     1      -4.522  35.065  19.294  1.00  0.00    -0.550 OA
ATOM      6  O   UNL     1      -6.124  35.522  20.866  1.00  0.00    -0.550 OA
ENDBRANCH   3   4
ENDBRANCH   2   3
ENDBRANCH   1   2
BRANCH   1   7
ATOM      7  C   UNL     1      -5.854  39.361  22.971  1.00  0.00     0.000 C 
BRANCH   7   8
ATOM      8  C   UNL     1      -5.538  38.432  24.153  1.00  0.00    -0.000 C 
BRANCH   8   9
ATOM      9  C   UNL     1      -6.117  37.032  23.919  1.00  0.00    -0.003 C 
ATOM     10  C   UNL     1      -5.823  36.109  25.099  1.00  0.00     0.004 C 
ENDBRANCH   8   9
ENDBRANCH   7   8
ENDBRANCH   1   7
TORSDOF 6
ENDMDL
MODEL 7
REMARK VINA RESULT:    -1.573      3.753      5.174
REMARK INTER + INTRA:          -2.334
REMARK INTER:                  -1.965
REMARK INTRA:                  -0.369
REMARK UNBOUND:                -0.210
REMARK SMILES CCCCCCCC(=O)[O-]
REMARK SMILES IDX 5 1 6 2 7 3 8 4 9 5 10 6 4 7 3 8 2 9 1 10
REMARK H PARENT
REMARK Flexibility Score: inf
ROOT
ATOM      1  C   UNL     1      -4.380  35.359  21.313  1.00  0.00     0.000 C 
ENDROOT
BRANCH   1   2
ATOM      2  C   UNL     1      -5.073  34.895  22.606  1.00  0.00     0.006 C 
BRANCH   2   3
ATOM      3  C   UNL     1      -5.908  36.011  23.247  1.00  0.00     0.053 C 
BRANCH   3   4
ATOM      4  C   UNL     1      -6.046  35.823  24.727  1.00  0.00     0.041 C 
ATOM      5  O   UNL     1      -6.119  36.823  25.489  1.00  0.00    -0.550 OA
ATOM      6  O   UNL     1      -6.125  34.544  25.261  1.00  0.00    -0.550 OA
ENDBRANCH   3   4
ENDBRANCH   2   3
ENDBRANCH   1   2
BRANCH   1   7
ATOM      7  C   UNL     1      -5.369  35.935  20.286  1.00  0.00     0.000 C 
BRANCH   7   8
ATOM      8  C   UNL     1      -5.044  37.384  19.896  1.00  0.00    -0.000 C 
BRANCH   8   9
ATOM      9  C   UNL     1      -6.069  38.355  20.491  1.00  0.00    -0.003 C 
ATOM     10  C   UNL     1      -5.398  39.372  21.409  1.00  0.00     0.004 C 
ENDBRANCH   8   9
ENDBRANCH   7   8
ENDBRANCH   1   7
TORSDOF 6
ENDMDL
MODEL 8
REMARK VINA RESULT:    -1.475      4.118      5.878
REMARK INTER + INTRA:          -2.201
REMARK INTER:                  -2.067
REMARK INTRA:                  -0.134
REMARK UNBOUND:                -0.210
REMARK SMILES CCCCCCCC(=O)[O-]
REMARK SMILES IDX 5 1 6 2 7 3 8 4 9 5 10 6 4 7 3 8 2 9 1 10
REMARK H PARENT
REMARK Flexibility Score: inf
ROOT
ATOM      1  C   UNL     1      -5.322  37.026  19.511  1.00  0.00     0.000 C 
ENDROOT
BRANCH   1   2
ATOM      2  C   UNL     1      -5.371  38.387  20.227  1.00  0.00     0.006 C 
BRANCH   2   3
ATOM      3  C   UNL     1      -5.687  38.243  21.721  1.00  0.00     0.053 C 
BRANCH   3   4
ATOM      4  C   UNL     1      -5.621  39.559  22.434  1.00  0.00     0.041 C 
ATOM      5  O   UNL     1      -5.912  40.624  21.829  1.00  0.00    -0.550 OA
ATOM      6  O   UNL     1      -5.267  39.605  23.776  1.00  0.00    -0.550 OA
ENDBRANCH   3   4
ENDBRANCH   2   3
ENDBRANCH   1   2
BRANCH   1   7
ATOM      7  C   UNL     1      -5.207  35.846  20.491  1.00  0.00     0.000 C 
BRANCH   7   8
ATOM      8  C   UNL     1      -4.539  34.614  19.861  1.00  0.00    -0.000 C 
BRANCH   8   9
ATOM      9  C   UNL     1      -5.093  34.349  18.456  1.00  0.00    -0.003 C 
ATOM     10  C   UNL     1      -4.051  34.655  17.385  1.00  0.00     0.004 C 
ENDBRANCH   8   9
ENDBRANCH   7   8
ENDBRANCH   1   7
TORSDOF 6
ENDMDL
MODEL 9
REMARK VINA RESULT:    -1.068      1.238      1.724
REMARK INTER + INTRA:          -1.653
REMARK INTER:                  -1.423
REMARK INTRA:                  -0.229
REMARK UNBOUND:                -0.210
REMARK SMILES CCCCCCCC(=O)[O-]
REMARK SMILES IDX 5 1 6 2 7 3 8 4 9 5 10 6 4 7 3 8 2 9 1 10
REMARK H PARENT
REMARK Flexibility Score: inf
ROOT
ATOM      1  C   UNL     1      -5.608  34.594  22.938  1.00  0.00     0.000 C 
ENDROOT
BRANCH   1   2
ATOM      2  C   UNL     1      -6.103  35.727  22.023  1.00  0.00     0.006 C 
BRANCH   2   3
ATOM      3  C   UNL     1      -6.125  35.311  20.547  1.00  0.00     0.053 C 
BRANCH   3   4
ATOM      4  C   UNL     1      -5.075  36.025  19.751  1.00  0.00     0.041 C 
ATOM      5  O   UNL     1      -4.283  35.375  19.019  1.00  0.00    -0.550 OA
ATOM      6  O   UNL     1      -4.991  37.410  19.796  1.00  0.00    -0.550 OA
ENDBRANCH   3   4
ENDBRANCH   2   3
ENDBRANCH   1   2
BRANCH   1   7
ATOM      7  C   UNL     1      -6.046  34.779  24.400  1.00  0.00     0.000 C 
BRANCH   7   8
ATOM      8  C   UNL     1      -6.081  36.254  24.826  1.00  0.00    -0.000 C 
BRANCH   8   9
ATOM      9  C   UNL     1      -5.005  36.545  25.879  1.00  0.00    -0.003 C 
ATOM     10  C   UNL     1      -4.615  38.020  25.877  1.00  0.00     0.004 C 
ENDBRANCH   8   9
ENDBRANCH   7   8
ENDBRANCH   1   7
TORSDOF 6
ENDMDL
