MODEL 1
REMARK VINA RESULT:    -3.826      0.000      0.000
REMARK INTER + INTRA:          -4.544
REMARK INTER:                  -4.497
REMARK INTRA:                  -0.047
REMARK UNBOUND:                -0.047
REMARK SMILES O=C([O-])CCC(=O)[O-]
REMARK SMILES IDX 4 1 2 2 1 3 3 4 5 5 6 6 7 7 8 8
REMARK H PARENT
REMARK Flexibility Score: inf
ROOT
ATOM      1  C   UNL     1      -6.098  36.152  22.568  1.00  0.00     0.059 C 
ENDROOT
BRANCH   1   2
ATOM      2  C   UNL     1      -5.766  35.300  23.756  1.00  0.00     0.042 C 
ATOM      3  O   UNL     1      -5.679  34.050  23.633  1.00  0.00    -0.550 OA
ATOM      4  O   UNL     1      -5.513  35.891  24.988  1.00  0.00    -0.550 OA
ENDBRANCH   1   2
BRANCH   1   5
ATOM      5  C   UNL     1      -6.122  35.331  21.274  1.00  0.00     0.059 C 
BRANCH   5   6
ATOM      6  C   UNL     1      -5.356  36.008  20.178  1.00  0.00     0.042 C 
ATOM      7  O   UNL     1      -4.690  35.326  19.357  1.00  0.00    -0.550 OA
ATOM      8  O   UNL     1      -5.347  37.394  20.089  1.00  0.00    -0.550 OA
ENDBRANCH   5   6
ENDBRANCH   1   5
TORSDOF 3
ENDMDL
MODEL 2
REMARK VINA RESULT:    -3.805      0.112      4.099
REMARK INTER + INTRA:          -4.520
REMARK INTER:                  -4.478
REMARK INTRA:                  -0.042
REMARK UNBOUND:                -0.047
REMARK SMILES O=C([O-])CCC(=O)[O-]
REMARK SMILES IDX 4 1 2 2 1 3 3 4 5 5 6 6 7 7 8 8
REMARK H PARENT
REMARK Flexibility Score: inf
ROOT
ATOM      1  C   UNL     1      -6.125  35.335  21.282  1.00  0.00     0.059 C 
ENDROOT
BRANCH   1   2
ATOM      2  C   UNL     1      -5.346  36.034  20.208  1.00  0.00     0.042 C 
ATOM      3  O   UNL     1      -4.691  35.366  19.365  1.00  0.00    -0.550 OA
ATOM      4  O   UNL     1      -5.377  37.420  20.117  1.00  0.00    -0.550 OA
ENDBRANCH   1   2
BRANCH   1   5
ATOM      5  C   UNL     1      -6.114  36.129  22.593  1.00  0.00     0.059 C 
BRANCH   5   6
ATOM      6  C   UNL     1      -5.749  35.262  23.759  1.00  0.00     0.042 C 
ATOM      7  O   UNL     1      -5.376  35.782  24.843  1.00  0.00    -0.550 OA
ATOM      8  O   UNL     1      -5.783  33.879  23.635  1.00  0.00    -0.550 OA
ENDBRANCH   5   6
ENDBRANCH   1   5
TORSDOF 3
ENDMDL
MODEL 3
REMARK VINA RESULT:    -3.803      0.144      1.622
REMARK INTER + INTRA:          -4.517
REMARK INTER:                  -4.474
REMARK INTRA:                  -0.043
REMARK UNBOUND:                -0.047
REMARK SMILES O=C([O-])CCC(=O)[O-]
REMARK SMILES IDX 4 1 2 2 1 3 3 4 5 5 6 6 7 7 8 8
REMARK H PARENT
REMARK Flexibility Score: inf
ROOT
ATOM      1  C   UNL     1      -6.043  36.162  22.596  1.00  0.00     0.059 C 
ENDROOT
BRANCH   1   2
ATOM      2  C   UNL     1      -5.832  35.283  23.792  1.00  0.00     0.042 C 
ATOM      3  O   UNL     1      -5.799  35.783  24.947  1.00  0.00    -0.550 OA
ATOM      4  O   UNL     1      -5.713  33.908  23.633  1.00  0.00    -0.550 OA
ENDBRANCH   1   2
BRANCH   1   5
ATOM      5  C   UNL     1      -6.046  35.351  21.295  1.00  0.00     0.059 C 
BRANCH   5   6
ATOM      6  C   UNL     1      -5.318  36.067  20.198  1.00  0.00     0.042 C 
ATOM      7  O   UNL     1      -5.346  37.323  20.135  1.00  0.00    -0.550 OA
ATOM      8  O   UNL     1      -4.645  35.342  19.223  1.00  0.00    -0.550 OA
ENDBRANCH   5   6
ENDBRANCH   1   5
TORSDOF 3
ENDMDL
MODEL 4
REMARK VINA RESULT:    -3.227      1.606      4.398
REMARK INTER + INTRA:          -3.840
REMARK INTER:                  -3.804
REMARK INTRA:                  -0.036
REMARK UNBOUND:                -0.047
REMARK SMILES O=C([O-])CCC(=O)[O-]
REMARK SMILES IDX 4 1 2 2 1 3 3 4 5 5 6 6 7 7 8 8
REMARK H PARENT
REMARK Flexibility Score: inf
ROOT
ATOM      1  C   UNL     1      -4.855  35.402  20.154  1.00  0.00     0.059 C 
ENDROOT
BRANCH   1   2
ATOM      2  C   UNL     1      -5.051  34.793  18.799  1.00  0.00     0.042 C 
ATOM      3  O   UNL     1      -6.053  34.064  18.571  1.00  0.00    -0.550 OA
ATOM      4  O   UNL     1      -4.149  35.063  17.777  1.00  0.00    -0.550 OA
ENDBRANCH   1   2
BRANCH   1   5
ATOM      5  C   UNL     1      -6.123  35.297  21.008  1.00  0.00     0.059 C 
BRANCH   5   6
ATOM      6  C   UNL     1      -5.821  35.463  22.467  1.00  0.00     0.042 C 
ATOM      7  O   UNL     1      -6.024  36.568  23.034  1.00  0.00    -0.550 OA
ATOM      8  O   UNL     1      -5.277  34.409  23.188  1.00  0.00    -0.550 OA
ENDBRANCH   5   6
ENDBRANCH   1   5
TORSDOF 3
ENDMDL
MODEL 5
REMARK VINA RESULT:    -3.224     11.829     13.423
REMARK INTER + INTRA:          -3.836
REMARK INTER:                  -3.792
REMARK INTRA:                  -0.044
REMARK UNBOUND:                -0.047
REMARK SMILES O=C([O-])CCC(=O)[O-]
REMARK SMILES IDX 4 1 2 2 1 3 3 4 5 5 6 6 7 7 8 8
REMARK H PARENT
REMARK Flexibility Score: inf
ROOT
ATOM      1  C   UNL     1      -4.523  25.842  29.643  1.00  0.00     0.059 C 
ENDROOT
BRANCH   1   2
ATOM      2  C   UNL     1      -5.011  27.065  30.360  1.00  0.00     0.042 C 
ATOM      3  O   UNL     1      -4.412  27.480  31.386  1.00  0.00    -0.550 OA
ATOM      4  O   UNL     1      -6.105  27.768  29.869  1.00  0.00    -0.550 OA
ENDBRANCH   1   2
BRANCH   1   5
ATOM      5  C   UNL     1      -5.686  24.992  29.121  1.00  0.00     0.059 C 
BRANCH   5   6
ATOM      6  C   UNL     1      -5.512  23.545  29.470  1.00  0.00     0.042 C 
ATOM      7  O   UNL     1      -5.821  23.129  30.616  1.00  0.00    -0.550 OA
ATOM      8  O   UNL     1      -4.970  22.667  28.541  1.00  0.00    -0.550 OA
ENDBRANCH   5   6
ENDBRANCH   1   5
TORSDOF 3
ENDMDL
MODEL 6
REMARK VINA RESULT:    -3.195     11.886     13.521
REMARK INTER + INTRA:          -3.803
REMARK INTER:                  -3.753
REMARK INTRA:                  -0.050
REMARK UNBOUND:                -0.047
REMARK SMILES O=C([O-])CCC(=O)[O-]
REMARK SMILES IDX 4 1 2 2 1 3 3 4 5 5 6 6 7 7 8 8
REMARK H PARENT
REMARK Flexibility Score: inf
ROOT
ATOM      1  C   UNL     1      -5.373  24.831  29.075  1.00  0.00     0.059 C 
ENDROOT
BRANCH   1   2
ATOM      2  C   UNL     1      -5.419  23.380  29.447  1.00  0.00     0.042 C 
ATOM      3  O   UNL     1      -5.862  23.028  30.572  1.00  0.00    -0.550 OA
ATOM      4  O   UNL     1      -5.012  22.415  28.534  1.00  0.00    -0.550 OA
ENDBRANCH   1   2
BRANCH   1   5
ATOM      5  C   UNL     1      -4.431  25.618  29.993  1.00  0.00     0.059 C 
BRANCH   5   6
ATOM      6  C   UNL     1      -5.004  26.955  30.356  1.00  0.00     0.042 C 
ATOM      7  O   UNL     1      -5.895  27.478  29.637  1.00  0.00    -0.550 OA
ATOM      8  O   UNL     1      -4.523  27.639  31.465  1.00  0.00    -0.550 OA
ENDBRANCH   5   6
ENDBRANCH   1   5
TORSDOF 3
ENDMDL
MODEL 7
REMARK VINA RESULT:    -3.080      1.091      4.298
REMARK INTER + INTRA:          -3.667
REMARK INTER:                  -3.622
REMARK INTRA:                  -0.046
REMARK UNBOUND:                -0.047
REMARK SMILES O=C([O-])CCC(=O)[O-]
REMARK SMILES IDX 4 1 2 2 1 3 3 4 5 5 6 6 7 7 8 8
REMARK H PARENT
REMARK Flexibility Score: inf
ROOT
ATOM      1  C   UNL     1      -5.744  36.221  21.497  1.00  0.00     0.059 C 
ENDROOT
BRANCH   1   2
ATOM      2  C   UNL     1      -5.418  37.484  20.758  1.00  0.00     0.042 C 
ATOM      3  O   UNL     1      -5.420  38.589  21.362  1.00  0.00    -0.550 OA
ATOM      4  O   UNL     1      -5.073  37.434  19.413  1.00  0.00    -0.550 OA
ENDBRANCH   1   2
BRANCH   1   5
ATOM      5  C   UNL     1      -6.112  36.501  22.958  1.00  0.00     0.059 C 
BRANCH   5   6
ATOM      6  C   UNL     1      -5.769  35.343  23.845  1.00  0.00     0.042 C 
ATOM      7  O   UNL     1      -6.106  35.353  25.057  1.00  0.00    -0.550 OA
ATOM      8  O   UNL     1      -5.041  34.273  23.341  1.00  0.00    -0.550 OA
ENDBRANCH   5   6
ENDBRANCH   1   5
TORSDOF 3
ENDMDL
MODEL 8
REMARK VINA RESULT:    -2.845      2.320      4.218
REMARK INTER + INTRA:          -3.392
REMARK INTER:                  -3.357
REMARK INTRA:                  -0.035
REMARK UNBOUND:                -0.047
REMARK SMILES O=C([O-])CCC(=O)[O-]
REMARK SMILES IDX 4 1 2 2 1 3 3 4 5 5 6 6 7 7 8 8
REMARK H PARENT
REMARK Flexibility Score: inf
ROOT
ATOM      1  C   UNL     1      -5.122  35.469  20.116  1.00  0.00     0.059 C 
ENDROOT
BRANCH   1   2
ATOM      2  C   UNL     1      -5.108  34.822  18.764  1.00  0.00     0.042 C 
ATOM      3  O   UNL     1      -4.224  35.132  17.922  1.00  0.00    -0.550 OA
ATOM      4  O   UNL     1      -6.046  33.846  18.450  1.00  0.00    -0.550 OA
ENDBRANCH   1   2
BRANCH   1   5
ATOM      5  C   UNL     1      -5.216  36.995  20.009  1.00  0.00     0.059 C 
BRANCH   5   6
ATOM      6  C   UNL     1      -5.566  37.620  21.325  1.00  0.00     0.042 C 
ATOM      7  O   UNL     1      -5.870  36.896  22.309  1.00  0.00    -0.550 OA
ATOM      8  O   UNL     1      -5.597  39.002  21.453  1.00  0.00    -0.550 OA
ENDBRANCH   5   6
ENDBRANCH   1   5
TORSDOF 3
ENDMDL
