MODEL 1
REMARK VINA RESULT:    -4.455      0.000      0.000
REMARK INTER + INTRA:         -13.153
REMARK INTER:                 -10.185
REMARK INTRA:                  -2.968
REMARK UNBOUND:                -2.968
REMARK SMILES CCCCCCCCCCCCCCCCCCCCCCCC(=O)[O-]
REMARK SMILES IDX 13 1 14 2 15 3 16 4 17 5 18 6 19 7 20 8 21 9 22 10 23 11
REMARK SMILES IDX 24 12 25 13 26 14 12 15 11 16 10 17 9 18 8 19 7 20 6 21 5 22
REMARK SMILES IDX 4 23 3 24 2 25 1 26
REMARK H PARENT
REMARK Flexibility Score: inf
ROOT
ATOM      1  C   UNL     1      -0.911   3.487  -6.651  1.00  0.00     0.000 C 
ENDROOT
BRANCH   1   2
ATOM      2  C   UNL     1      -2.002   2.584  -6.037  1.00  0.00     0.000 C 
BRANCH   2   3
ATOM      3  C   UNL     1      -3.383   2.762  -6.689  1.00  0.00     0.000 C 
BRANCH   3   4
ATOM      4  C   UNL     1      -4.080   1.422  -6.975  1.00  0.00     0.000 C 
BRANCH   4   5
ATOM      5  C   UNL     1      -4.972   0.952  -5.813  1.00  0.00     0.000 C 
BRANCH   5   6
ATOM      6  C   UNL     1      -4.375  -0.167  -4.938  1.00  0.00     0.000 C 
BRANCH   6   7
ATOM      7  C   UNL     1      -4.239   0.209  -3.447  1.00  0.00     0.000 C 
BRANCH   7   8
ATOM      8  C   UNL     1      -2.915   0.936  -3.148  1.00  0.00     0.000 C 
BRANCH   8   9
ATOM      9  C   UNL     1      -3.127   2.393  -2.707  1.00  0.00     0.000 C 
BRANCH   9  10
ATOM     10  C   UNL     1      -4.616   2.756  -2.567  1.00  0.00     0.006 C 
BRANCH  10  11
ATOM     11  C   UNL     1      -5.038   3.865  -3.540  1.00  0.00     0.053 C 
BRANCH  11  12
ATOM     12  C   UNL     1      -6.481   4.231  -3.371  1.00  0.00     0.041 C 
ATOM     13  O   UNL     1      -7.272   4.159  -4.348  1.00  0.00    -0.550 OA
ATOM     14  O   UNL     1      -6.942   4.687  -2.143  1.00  0.00    -0.550 OA
ENDBRANCH  11  12
ENDBRANCH  10  11
ENDBRANCH   9  10
ENDBRANCH   8   9
ENDBRANCH   7   8
ENDBRANCH   6   7
ENDBRANCH   5   6
ENDBRANCH   4   5
ENDBRANCH   3   4
ENDBRANCH   2   3
ENDBRANCH   1   2
BRANCH   1  15
ATOM     15  C   UNL     1       0.257   3.736  -5.678  1.00  0.00     0.000 C 
BRANCH  15  16
ATOM     16  C   UNL     1      -0.205   4.350  -4.346  1.00  0.00     0.000 C 
BRANCH  16  17
ATOM     17  C   UNL     1       0.637   3.875  -3.152  1.00  0.00     0.000 C 
BRANCH  17  18
ATOM     18  C   UNL     1       1.181   2.448  -3.334  1.00  0.00    -0.000 C 
BRANCH  18  19
ATOM     19  C   UNL     1       2.700   2.325  -3.093  1.00  0.00    -0.000 C 
BRANCH  19  20
ATOM     20  C   UNL     1       3.441   1.804  -4.338  1.00  0.00    -0.000 C 
BRANCH  20  21
ATOM     21  C   UNL     1       4.000   2.934  -5.215  1.00  0.00    -0.000 C 
BRANCH  21  22
ATOM     22  C   UNL     1       3.598   2.787  -6.693  1.00  0.00    -0.000 C 
BRANCH  22  23
ATOM     23  C   UNL     1       4.723   3.207  -7.654  1.00  0.00    -0.000 C 
BRANCH  23  24
ATOM     24  C   UNL     1       5.403   1.998  -8.323  1.00  0.00    -0.000 C 
BRANCH  24  25
ATOM     25  C   UNL     1       4.512   0.747  -8.324  1.00  0.00    -0.003 C 
ATOM     26  C   UNL     1       4.242   0.214  -9.732  1.00  0.00     0.004 C 
ENDBRANCH  24  25
ENDBRANCH  23  24
ENDBRANCH  22  23
ENDBRANCH  21  22
ENDBRANCH  20  21
ENDBRANCH  19  20
ENDBRANCH  18  19
ENDBRANCH  17  18
ENDBRANCH  16  17
ENDBRANCH  15  16
ENDBRANCH   1  15
TORSDOF 22
ENDMDL
MODEL 2
REMARK VINA RESULT:    -4.403      4.049      8.593
REMARK INTER + INTRA:         -13.033
REMARK INTER:                  -9.018
REMARK INTRA:                  -4.016
REMARK UNBOUND:                -2.968
REMARK SMILES CCCCCCCCCCCCCCCCCCCCCCCC(=O)[O-]
REMARK SMILES IDX 13 1 14 2 15 3 16 4 17 5 18 6 19 7 20 8 21 9 22 10 23 11
REMARK SMILES IDX 24 12 25 13 26 14 12 15 11 16 10 17 9 18 8 19 7 20 6 21 5 22
REMARK SMILES IDX 4 23 3 24 2 25 1 26
REMARK H PARENT
REMARK Flexibility Score: inf
ROOT
ATOM      1  C   UNL     1       1.183   4.037  -3.063  1.00  0.00     0.000 C 
ENDROOT
BRANCH   1   2
ATOM      2  C   UNL     1       1.730   2.865  -3.905  1.00  0.00     0.000 C 
BRANCH   2   3
ATOM      3  C   UNL     1       2.575   1.870  -3.093  1.00  0.00     0.000 C 
BRANCH   3   4
ATOM      4  C   UNL     1       4.062   1.899  -3.484  1.00  0.00     0.000 C 
BRANCH   4   5
ATOM      5  C   UNL     1       4.805   3.123  -2.920  1.00  0.00     0.000 C 
BRANCH   5   6
ATOM      6  C   UNL     1       5.672   3.891  -3.936  1.00  0.00     0.000 C 
BRANCH   6   7
ATOM      7  C   UNL     1       4.954   5.091  -4.590  1.00  0.00     0.000 C 
BRANCH   7   8
ATOM      8  C   UNL     1       4.813   4.926  -6.115  1.00  0.00     0.000 C 
BRANCH   8   9
ATOM      9  C   UNL     1       3.419   4.433  -6.531  1.00  0.00     0.000 C 
BRANCH   9  10
ATOM     10  C   UNL     1       3.480   3.299  -7.570  1.00  0.00     0.006 C 
BRANCH  10  11
ATOM     11  C   UNL     1       4.151   2.036  -7.013  1.00  0.00     0.053 C 
BRANCH  11  12
ATOM     12  C   UNL     1       4.697   1.171  -8.107  1.00  0.00     0.041 C 
ATOM     13  O   UNL     1       4.273  -0.005  -8.258  1.00  0.00    -0.550 OA
ATOM     14  O   UNL     1       5.701   1.652  -8.938  1.00  0.00    -0.550 OA
ENDBRANCH  11  12
ENDBRANCH  10  11
ENDBRANCH   9  10
ENDBRANCH   8   9
ENDBRANCH   7   8
ENDBRANCH   6   7
ENDBRANCH   5   6
ENDBRANCH   4   5
ENDBRANCH   3   4
ENDBRANCH   2   3
ENDBRANCH   1   2
BRANCH   1  15
ATOM     15  C   UNL     1       1.549   5.407  -3.664  1.00  0.00     0.000 C 
BRANCH  15  16
ATOM     16  C   UNL     1       0.545   6.507  -3.280  1.00  0.00     0.000 C 
BRANCH  16  17
ATOM     17  C   UNL     1      -0.383   6.895  -4.442  1.00  0.00     0.000 C 
BRANCH  17  18
ATOM     18  C   UNL     1       0.175   6.482  -5.814  1.00  0.00    -0.000 C 
BRANCH  18  19
ATOM     19  C   UNL     1      -0.779   5.580  -6.628  1.00  0.00    -0.000 C 
BRANCH  19  20
ATOM     20  C   UNL     1      -0.215   4.160  -6.808  1.00  0.00    -0.000 C 
BRANCH  20  21
ATOM     21  C   UNL     1      -1.145   3.073  -6.248  1.00  0.00    -0.000 C 
BRANCH  21  22
ATOM     22  C   UNL     1      -1.828   3.500  -4.937  1.00  0.00    -0.000 C 
BRANCH  22  23
ATOM     23  C   UNL     1      -1.992   2.331  -3.951  1.00  0.00    -0.000 C 
BRANCH  23  24
ATOM     24  C   UNL     1      -3.048   2.622  -2.868  1.00  0.00    -0.000 C 
BRANCH  24  25
ATOM     25  C   UNL     1      -4.250   1.669  -2.948  1.00  0.00    -0.003 C 
ATOM     26  C   UNL     1      -3.859   0.257  -3.385  1.00  0.00     0.004 C 
ENDBRANCH  24  25
ENDBRANCH  23  24
ENDBRANCH  22  23
ENDBRANCH  21  22
ENDBRANCH  20  21
ENDBRANCH  19  20
ENDBRANCH  18  19
ENDBRANCH  17  18
ENDBRANCH  16  17
ENDBRANCH  15  16
ENDBRANCH   1  15
TORSDOF 22
ENDMDL
MODEL 3
REMARK VINA RESULT:    -4.389      4.633      8.588
REMARK INTER + INTRA:         -13.002
REMARK INTER:                 -10.627
REMARK INTRA:                  -2.375
REMARK UNBOUND:                -2.968
REMARK SMILES CCCCCCCCCCCCCCCCCCCCCCCC(=O)[O-]
REMARK SMILES IDX 13 1 14 2 15 3 16 4 17 5 18 6 19 7 20 8 21 9 22 10 23 11
REMARK SMILES IDX 24 12 25 13 26 14 12 15 11 16 10 17 9 18 8 19 7 20 6 21 5 22
REMARK SMILES IDX 4 23 3 24 2 25 1 26
REMARK H PARENT
REMARK Flexibility Score: inf
ROOT
ATOM      1  C   UNL     1      -3.668   2.645  -2.160  1.00  0.00     0.000 C 
ENDROOT
BRANCH   1   2
ATOM      2  C   UNL     1      -2.232   2.294  -2.604  1.00  0.00     0.000 C 
BRANCH   2   3
ATOM      3  C   UNL     1      -2.039   2.320  -4.130  1.00  0.00     0.000 C 
BRANCH   3   4
ATOM      4  C   UNL     1      -0.776   3.088  -4.553  1.00  0.00     0.000 C 
BRANCH   4   5
ATOM      5  C   UNL     1      -0.162   3.908  -3.406  1.00  0.00     0.000 C 
BRANCH   5   6
ATOM      6  C   UNL     1       1.372   3.822  -3.285  1.00  0.00     0.000 C 
BRANCH   6   7
ATOM      7  C   UNL     1       1.919   2.378  -3.262  1.00  0.00     0.000 C 
BRANCH   7   8
ATOM      8  C   UNL     1       3.187   2.221  -4.121  1.00  0.00     0.000 C 
BRANCH   8   9
ATOM      9  C   UNL     1       4.396   1.734  -3.307  1.00  0.00     0.000 C 
BRANCH   9  10
ATOM     10  C   UNL     1       5.314   2.888  -2.867  1.00  0.00     0.006 C 
BRANCH  10  11
ATOM     11  C   UNL     1       4.966   3.406  -1.465  1.00  0.00     0.053 C 
BRANCH  11  12
ATOM     12  C   UNL     1       6.159   3.395  -0.559  1.00  0.00     0.041 C 
ATOM     13  O   UNL     1       7.095   4.221  -0.731  1.00  0.00    -0.550 OA
ATOM     14  O   UNL     1       6.254   2.450   0.455  1.00  0.00    -0.550 OA
ENDBRANCH  11  12
ENDBRANCH  10  11
ENDBRANCH   9  10
ENDBRANCH   8   9
ENDBRANCH   7   8
ENDBRANCH   6   7
ENDBRANCH   5   6
ENDBRANCH   4   5
ENDBRANCH   3   4
ENDBRANCH   2   3
ENDBRANCH   1   2
BRANCH   1  15
ATOM     15  C   UNL     1      -4.452   3.389  -3.257  1.00  0.00     0.000 C 
BRANCH  15  16
ATOM     16  C   UNL     1      -5.830   2.761  -3.527  1.00  0.00     0.000 C 
BRANCH  16  17
ATOM     17  C   UNL     1      -5.825   1.233  -3.366  1.00  0.00     0.000 C 
BRANCH  17  18
ATOM     18  C   UNL     1      -5.713   0.491  -4.709  1.00  0.00    -0.000 C 
BRANCH  18  19
ATOM     19  C   UNL     1      -4.483  -0.436  -4.808  1.00  0.00    -0.000 C 
BRANCH  19  20
ATOM     20  C   UNL     1      -3.931  -0.811  -3.422  1.00  0.00    -0.000 C 
BRANCH  20  21
ATOM     21  C   UNL     1      -3.525  -2.289  -3.321  1.00  0.00    -0.000 C 
BRANCH  21  22
ATOM     22  C   UNL     1      -4.335  -3.189  -4.270  1.00  0.00    -0.000 C 
BRANCH  22  23
ATOM     23  C   UNL     1      -3.459  -3.841  -5.353  1.00  0.00    -0.000 C 
BRANCH  23  24
ATOM     24  C   UNL     1      -2.204  -4.513  -4.766  1.00  0.00    -0.000 C 
BRANCH  24  25
ATOM     25  C   UNL     1      -1.037  -4.556  -5.763  1.00  0.00    -0.003 C 
ATOM     26  C   UNL     1      -1.499  -4.479  -7.219  1.00  0.00     0.004 C 
ENDBRANCH  24  25
ENDBRANCH  23  24
ENDBRANCH  22  23
ENDBRANCH  21  22
ENDBRANCH  20  21
ENDBRANCH  19  20
ENDBRANCH  18  19
ENDBRANCH  17  18
ENDBRANCH  16  17
ENDBRANCH  15  16
ENDBRANCH   1  15
TORSDOF 22
ENDMDL
MODEL 4
REMARK VINA RESULT:    -4.385      3.835      8.284
REMARK INTER + INTRA:         -12.992
REMARK INTER:                  -9.574
REMARK INTRA:                  -3.418
REMARK UNBOUND:                -2.968
REMARK SMILES CCCCCCCCCCCCCCCCCCCCCCCC(=O)[O-]
REMARK SMILES IDX 13 1 14 2 15 3 16 4 17 5 18 6 19 7 20 8 21 9 22 10 23 11
REMARK SMILES IDX 24 12 25 13 26 14 12 15 11 16 10 17 9 18 8 19 7 20 6 21 5 22
REMARK SMILES IDX 4 23 3 24 2 25 1 26
REMARK H PARENT
REMARK Flexibility Score: inf
ROOT
ATOM      1  C   UNL     1      -0.464   6.203  -6.363  1.00  0.00     0.000 C 
ENDROOT
BRANCH   1   2
ATOM      2  C   UNL     1      -0.272   6.778  -4.943  1.00  0.00     0.000 C 
BRANCH   2   3
ATOM      3  C   UNL     1       1.093   6.434  -4.323  1.00  0.00     0.000 C 
BRANCH   3   4
ATOM      4  C   UNL     1       0.993   5.352  -3.235  1.00  0.00     0.000 C 
BRANCH   4   5
ATOM      5  C   UNL     1       2.138   4.327  -3.304  1.00  0.00     0.000 C 
BRANCH   5   6
ATOM      6  C   UNL     1       1.697   2.852  -3.369  1.00  0.00     0.000 C 
BRANCH   6   7
ATOM      7  C   UNL     1       2.869   1.851  -3.447  1.00  0.00     0.000 C 
BRANCH   7   8
ATOM      8  C   UNL     1       4.074   2.422  -4.217  1.00  0.00     0.000 C 
BRANCH   8   9
ATOM      9  C   UNL     1       3.994   2.148  -5.727  1.00  0.00     0.000 C 
BRANCH   9  10
ATOM     10  C   UNL     1       3.980   3.441  -6.561  1.00  0.00     0.006 C 
BRANCH  10  11
ATOM     11  C   UNL     1       4.909   3.359  -7.779  1.00  0.00     0.053 C 
BRANCH  11  12
ATOM     12  C   UNL     1       4.608   2.160  -8.626  1.00  0.00     0.041 C 
ATOM     13  O   UNL     1       5.443   1.222  -8.719  1.00  0.00    -0.550 OA
ATOM     14  O   UNL     1       3.419   2.096  -9.341  1.00  0.00    -0.550 OA
ENDBRANCH  11  12
ENDBRANCH  10  11
ENDBRANCH   9  10
ENDBRANCH   8   9
ENDBRANCH   7   8
ENDBRANCH   6   7
ENDBRANCH   5   6
ENDBRANCH   4   5
ENDBRANCH   3   4
ENDBRANCH   2   3
ENDBRANCH   1   2
BRANCH   1  15
ATOM     15  C   UNL     1       0.706   5.296  -6.788  1.00  0.00     0.000 C 
BRANCH  15  16
ATOM     16  C   UNL     1       0.347   3.802  -6.726  1.00  0.00     0.000 C 
BRANCH  16  17
ATOM     17  C   UNL     1      -1.164   3.562  -6.580  1.00  0.00     0.000 C 
BRANCH  17  18
ATOM     18  C   UNL     1      -1.518   2.710  -5.350  1.00  0.00    -0.000 C 
BRANCH  18  19
ATOM     19  C   UNL     1      -1.981   3.537  -4.132  1.00  0.00    -0.000 C 
BRANCH  19  20
ATOM     20  C   UNL     1      -1.793   2.771  -2.810  1.00  0.00    -0.000 C 
BRANCH  20  21
ATOM     21  C   UNL     1      -3.120   2.482  -2.093  1.00  0.00    -0.000 C 
BRANCH  21  22
ATOM     22  C   UNL     1      -4.335   2.600  -3.031  1.00  0.00    -0.000 C 
BRANCH  22  23
ATOM     23  C   UNL     1      -5.027   1.248  -3.270  1.00  0.00    -0.000 C 
BRANCH  23  24
ATOM     24  C   UNL     1      -4.120   0.247  -4.009  1.00  0.00    -0.000 C 
BRANCH  24  25
ATOM     25  C   UNL     1      -3.970  -1.082  -3.254  1.00  0.00    -0.003 C 
ATOM     26  C   UNL     1      -3.737  -2.271  -4.187  1.00  0.00     0.004 C 
ENDBRANCH  24  25
ENDBRANCH  23  24
ENDBRANCH  22  23
ENDBRANCH  21  22
ENDBRANCH  20  21
ENDBRANCH  19  20
ENDBRANCH  18  19
ENDBRANCH  17  18
ENDBRANCH  16  17
ENDBRANCH  15  16
ENDBRANCH   1  15
TORSDOF 22
ENDMDL
MODEL 5
REMARK VINA RESULT:    -4.343      4.075      8.182
REMARK INTER + INTRA:         -12.897
REMARK INTER:                  -8.747
REMARK INTRA:                  -4.150
REMARK UNBOUND:                -2.968
REMARK SMILES CCCCCCCCCCCCCCCCCCCCCCCC(=O)[O-]
REMARK SMILES IDX 13 1 14 2 15 3 16 4 17 5 18 6 19 7 20 8 21 9 22 10 23 11
REMARK SMILES IDX 24 12 25 13 26 14 12 15 11 16 10 17 9 18 8 19 7 20 6 21 5 22
REMARK SMILES IDX 4 23 3 24 2 25 1 26
REMARK H PARENT
REMARK Flexibility Score: inf
ROOT
ATOM      1  C   UNL     1       0.359   3.941  -2.962  1.00  0.00     0.000 C 
ENDROOT
BRANCH   1   2
ATOM      2  C   UNL     1       1.831   3.805  -3.407  1.00  0.00     0.000 C 
BRANCH   2   3
ATOM      3  C   UNL     1       2.319   2.348  -3.468  1.00  0.00     0.000 C 
BRANCH   3   4
ATOM      4  C   UNL     1       3.534   2.093  -2.561  1.00  0.00     0.000 C 
BRANCH   4   5
ATOM      5  C   UNL     1       4.875   2.338  -3.274  1.00  0.00     0.000 C 
BRANCH   5   6
ATOM      6  C   UNL     1       5.528   3.705  -2.994  1.00  0.00     0.000 C 
BRANCH   6   7
ATOM      7  C   UNL     1       5.322   4.741  -4.120  1.00  0.00     0.000 C 
BRANCH   7   8
ATOM      8  C   UNL     1       5.277   4.087  -5.513  1.00  0.00     0.000 C 
BRANCH   8   9
ATOM      9  C   UNL     1       4.037   4.501  -6.321  1.00  0.00     0.000 C 
BRANCH   9  10
ATOM     10  C   UNL     1       3.320   3.297  -6.959  1.00  0.00     0.006 C 
BRANCH  10  11
ATOM     11  C   UNL     1       4.091   1.986  -6.754  1.00  0.00     0.053 C 
BRANCH  11  12
ATOM     12  C   UNL     1       4.502   1.375  -8.059  1.00  0.00     0.041 C 
ATOM     13  O   UNL     1       4.379   0.136  -8.245  1.00  0.00    -0.550 OA
ATOM     14  O   UNL     1       5.054   2.171  -9.055  1.00  0.00    -0.550 OA
ENDBRANCH  11  12
ENDBRANCH  10  11
ENDBRANCH   9  10
ENDBRANCH   8   9
ENDBRANCH   7   8
ENDBRANCH   6   7
ENDBRANCH   5   6
ENDBRANCH   4   5
ENDBRANCH   3   4
ENDBRANCH   2   3
ENDBRANCH   1   2
BRANCH   1  15
ATOM     15  C   UNL     1      -0.360   2.581  -2.898  1.00  0.00     0.000 C 
BRANCH  15  16
ATOM     16  C   UNL     1      -1.891   2.721  -2.910  1.00  0.00     0.000 C 
BRANCH  16  17
ATOM     17  C   UNL     1      -2.591   1.514  -3.555  1.00  0.00     0.000 C 
BRANCH  17  18
ATOM     18  C   UNL     1      -3.245   1.853  -4.904  1.00  0.00    -0.000 C 
BRANCH  18  19
ATOM     19  C   UNL     1      -2.746   3.177  -5.523  1.00  0.00    -0.000 C 
BRANCH  19  20
ATOM     20  C   UNL     1      -1.797   2.937  -6.710  1.00  0.00    -0.000 C 
BRANCH  20  21
ATOM     21  C   UNL     1      -0.413   3.569  -6.504  1.00  0.00    -0.000 C 
BRANCH  21  22
ATOM     22  C   UNL     1      -0.478   5.100  -6.361  1.00  0.00    -0.000 C 
BRANCH  22  23
ATOM     23  C   UNL     1       0.510   5.821  -7.293  1.00  0.00    -0.000 C 
BRANCH  23  24
ATOM     24  C   UNL     1       1.141   7.060  -6.632  1.00  0.00    -0.000 C 
BRANCH  24  25
ATOM     25  C   UNL     1       1.400   6.859  -5.131  1.00  0.00    -0.003 C 
ATOM     26  C   UNL     1       0.577   7.805  -4.256  1.00  0.00     0.004 C 
ENDBRANCH  24  25
ENDBRANCH  23  24
ENDBRANCH  22  23
ENDBRANCH  21  22
ENDBRANCH  20  21
ENDBRANCH  19  20
ENDBRANCH  18  19
ENDBRANCH  17  18
ENDBRANCH  16  17
ENDBRANCH  15  16
ENDBRANCH   1  15
TORSDOF 22
ENDMDL
MODEL 6
REMARK VINA RESULT:    -4.341      4.144      9.495
REMARK INTER + INTRA:         -12.892
REMARK INTER:                 -10.023
REMARK INTRA:                  -2.870
REMARK UNBOUND:                -2.968
REMARK SMILES CCCCCCCCCCCCCCCCCCCCCCCC(=O)[O-]
REMARK SMILES IDX 13 1 14 2 15 3 16 4 17 5 18 6 19 7 20 8 21 9 22 10 23 11
REMARK SMILES IDX 24 12 25 13 26 14 12 15 11 16 10 17 9 18 8 19 7 20 6 21 5 22
REMARK SMILES IDX 4 23 3 24 2 25 1 26
REMARK H PARENT
REMARK Flexibility Score: inf
ROOT
ATOM      1  C   UNL     1       2.081   2.877  -4.340  1.00  0.00     0.000 C 
ENDROOT
BRANCH   1   2
ATOM      2  C   UNL     1       3.254   1.912  -4.061  1.00  0.00     0.000 C 
BRANCH   2   3
ATOM      3  C   UNL     1       3.929   2.147  -2.700  1.00  0.00     0.000 C 
BRANCH   3   4
ATOM      4  C   UNL     1       5.343   2.737  -2.834  1.00  0.00     0.000 C 
BRANCH   4   5
ATOM      5  C   UNL     1       5.346   4.274  -2.898  1.00  0.00     0.000 C 
BRANCH   5   6
ATOM      6  C   UNL     1       6.297   4.886  -3.944  1.00  0.00     0.000 C 
BRANCH   6   7
ATOM      7  C   UNL     1       5.591   5.782  -4.984  1.00  0.00     0.000 C 
BRANCH   7   8
ATOM      8  C   UNL     1       4.618   4.986  -5.874  1.00  0.00     0.000 C 
BRANCH   8   9
ATOM      9  C   UNL     1       5.296   3.800  -6.578  1.00  0.00     0.000 C 
BRANCH   9  10
ATOM     10  C   UNL     1       4.398   3.162  -7.654  1.00  0.00     0.006 C 
BRANCH  10  11
ATOM     11  C   UNL     1       4.511   1.632  -7.673  1.00  0.00     0.053 C 
BRANCH  11  12
ATOM     12  C   UNL     1       4.712   1.108  -9.063  1.00  0.00     0.041 C 
ATOM     13  O   UNL     1       4.666  -0.130  -9.287  1.00  0.00    -0.550 OA
ATOM     14  O   UNL     1       4.986   1.987 -10.103  1.00  0.00    -0.550 OA
ENDBRANCH  11  12
ENDBRANCH  10  11
ENDBRANCH   9  10
ENDBRANCH   8   9
ENDBRANCH   7   8
ENDBRANCH   6   7
ENDBRANCH   5   6
ENDBRANCH   4   5
ENDBRANCH   3   4
ENDBRANCH   2   3
ENDBRANCH   1   2
BRANCH   1  15
ATOM     15  C   UNL     1       1.297   3.226  -3.061  1.00  0.00     0.000 C 
BRANCH  15  16
ATOM     16  C   UNL     1      -0.112   3.764  -3.362  1.00  0.00     0.000 C 
BRANCH  16  17
ATOM     17  C   UNL     1      -0.768   3.065  -4.564  1.00  0.00     0.000 C 
BRANCH  17  18
ATOM     18  C   UNL     1      -2.014   2.253  -4.175  1.00  0.00    -0.000 C 
BRANCH  18  19
ATOM     19  C   UNL     1      -2.195   2.079  -2.651  1.00  0.00    -0.000 C 
BRANCH  19  20
ATOM     20  C   UNL     1      -3.509   2.705  -2.152  1.00  0.00    -0.000 C 
BRANCH  20  21
ATOM     21  C   UNL     1      -4.451   3.107  -3.297  1.00  0.00    -0.000 C 
BRANCH  21  22
ATOM     22  C   UNL     1      -5.916   2.729  -3.015  1.00  0.00    -0.000 C 
BRANCH  22  23
ATOM     23  C   UNL     1      -6.231   1.271  -3.390  1.00  0.00    -0.000 C 
BRANCH  23  24
ATOM     24  C   UNL     1      -5.271   0.722  -4.461  1.00  0.00    -0.000 C 
BRANCH  24  25
ATOM     25  C   UNL     1      -5.027  -0.788  -4.315  1.00  0.00    -0.003 C 
ATOM     26  C   UNL     1      -3.773  -1.110  -3.502  1.00  0.00     0.004 C 
ENDBRANCH  24  25
ENDBRANCH  23  24
ENDBRANCH  22  23
ENDBRANCH  21  22
ENDBRANCH  20  21
ENDBRANCH  19  20
ENDBRANCH  18  19
ENDBRANCH  17  18
ENDBRANCH  16  17
ENDBRANCH  15  16
ENDBRANCH   1  15
TORSDOF 22
ENDMDL
MODEL 7
REMARK VINA RESULT:    -4.319      2.509      3.789
REMARK INTER + INTRA:         -12.843
REMARK INTER:                  -9.774
REMARK INTRA:                  -3.069
REMARK UNBOUND:                -2.968
REMARK SMILES CCCCCCCCCCCCCCCCCCCCCCCC(=O)[O-]
REMARK SMILES IDX 13 1 14 2 15 3 16 4 17 5 18 6 19 7 20 8 21 9 22 10 23 11
REMARK SMILES IDX 24 12 25 13 26 14 12 15 11 16 10 17 9 18 8 19 7 20 6 21 5 22
REMARK SMILES IDX 4 23 3 24 2 25 1 26
REMARK H PARENT
REMARK Flexibility Score: inf
ROOT
ATOM      1  C   UNL     1      -2.977   2.195  -7.208  1.00  0.00     0.000 C 
ENDROOT
BRANCH   1   2
ATOM      2  C   UNL     1      -4.471   2.582  -7.195  1.00  0.00     0.000 C 
BRANCH   2   3
ATOM      3  C   UNL     1      -4.745   3.946  -6.538  1.00  0.00     0.000 C 
BRANCH   3   4
ATOM      4  C   UNL     1      -5.406   3.815  -5.156  1.00  0.00     0.000 C 
BRANCH   4   5
ATOM      5  C   UNL     1      -4.407   3.977  -3.998  1.00  0.00     0.000 C 
BRANCH   5   6
ATOM      6  C   UNL     1      -4.651   3.057  -2.786  1.00  0.00     0.000 C 
BRANCH   6   7
ATOM      7  C   UNL     1      -3.380   2.349  -2.270  1.00  0.00     0.000 C 
BRANCH   7   8
ATOM      8  C   UNL     1      -2.980   1.152  -3.152  1.00  0.00     0.000 C 
BRANCH   8   9
ATOM      9  C   UNL     1      -4.131   0.156  -3.355  1.00  0.00     0.000 C 
BRANCH   9  10
ATOM     10  C   UNL     1      -4.223  -0.350  -4.806  1.00  0.00     0.006 C 
BRANCH  10  11
ATOM     11  C   UNL     1      -4.579  -1.841  -4.881  1.00  0.00     0.053 C 
BRANCH  11  12
ATOM     12  C   UNL     1      -3.925  -2.623  -3.782  1.00  0.00     0.041 C 
ATOM     13  O   UNL     1      -4.623  -3.143  -2.872  1.00  0.00    -0.550 OA
ATOM     14  O   UNL     1      -2.542  -2.745  -3.746  1.00  0.00    -0.550 OA
ENDBRANCH  11  12
ENDBRANCH  10  11
ENDBRANCH   9  10
ENDBRANCH   8   9
ENDBRANCH   7   8
ENDBRANCH   6   7
ENDBRANCH   5   6
ENDBRANCH   4   5
ENDBRANCH   3   4
ENDBRANCH   2   3
ENDBRANCH   1   2
BRANCH   1  15
ATOM     15  C   UNL     1      -2.070   3.383  -7.579  1.00  0.00     0.000 C 
BRANCH  15  16
ATOM     16  C   UNL     1      -0.817   3.469  -6.691  1.00  0.00     0.000 C 
BRANCH  16  17
ATOM     17  C   UNL     1      -1.086   3.025  -5.244  1.00  0.00     0.000 C 
BRANCH  17  18
ATOM     18  C   UNL     1      -0.792   4.130  -4.216  1.00  0.00    -0.000 C 
BRANCH  18  19
ATOM     19  C   UNL     1       0.068   3.658  -3.023  1.00  0.00    -0.000 C 
BRANCH  19  20
ATOM     20  C   UNL     1       1.191   2.703  -3.464  1.00  0.00    -0.000 C 
BRANCH  20  21
ATOM     21  C   UNL     1       2.378   3.435  -4.108  1.00  0.00    -0.000 C 
BRANCH  21  22
ATOM     22  C   UNL     1       3.236   2.508  -4.987  1.00  0.00    -0.000 C 
BRANCH  22  23
ATOM     23  C   UNL     1       3.455   3.074  -6.400  1.00  0.00    -0.000 C 
BRANCH  23  24
ATOM     24  C   UNL     1       4.566   2.330  -7.163  1.00  0.00    -0.000 C 
BRANCH  24  25
ATOM     25  C   UNL     1       4.098   1.815  -8.532  1.00  0.00    -0.003 C 
ATOM     26  C   UNL     1       4.467   0.350  -8.773  1.00  0.00     0.004 C 
ENDBRANCH  24  25
ENDBRANCH  23  24
ENDBRANCH  22  23
ENDBRANCH  21  22
ENDBRANCH  20  21
ENDBRANCH  19  20
ENDBRANCH  18  19
ENDBRANCH  17  18
ENDBRANCH  16  17
ENDBRANCH  15  16
ENDBRANCH   1  15
TORSDOF 22
ENDMDL
MODEL 8
REMARK VINA RESULT:    -4.305      3.863      8.463
REMARK INTER + INTRA:         -12.810
REMARK INTER:                  -9.842
REMARK INTRA:                  -2.968
REMARK UNBOUND:                -2.968
REMARK SMILES CCCCCCCCCCCCCCCCCCCCCCCC(=O)[O-]
REMARK SMILES IDX 13 1 14 2 15 3 16 4 17 5 18 6 19 7 20 8 21 9 22 10 23 11
REMARK SMILES IDX 24 12 25 13 26 14 12 15 11 16 10 17 9 18 8 19 7 20 6 21 5 22
REMARK SMILES IDX 4 23 3 24 2 25 1 26
REMARK H PARENT
REMARK Flexibility Score: inf
ROOT
ATOM      1  C   UNL     1      -3.039   2.580  -2.396  1.00  0.00     0.000 C 
ENDROOT
BRANCH   1   2
ATOM      2  C   UNL     1      -1.638   2.241  -2.950  1.00  0.00     0.000 C 
BRANCH   2   3
ATOM      3  C   UNL     1      -1.483   2.547  -4.449  1.00  0.00     0.000 C 
BRANCH   3   4
ATOM      4  C   UNL     1      -0.194   3.325  -4.764  1.00  0.00     0.000 C 
BRANCH   4   5
ATOM      5  C   UNL     1       0.477   3.904  -3.506  1.00  0.00     0.000 C 
BRANCH   5   6
ATOM      6  C   UNL     1       1.983   3.610  -3.371  1.00  0.00     0.000 C 
BRANCH   6   7
ATOM      7  C   UNL     1       2.314   2.115  -3.175  1.00  0.00     0.000 C 
BRANCH   7   8
ATOM      8  C   UNL     1       3.604   1.703  -3.908  1.00  0.00     0.000 C 
BRANCH   8   9
ATOM      9  C   UNL     1       4.072   2.758  -4.922  1.00  0.00     0.000 C 
BRANCH   9  10
ATOM     10  C   UNL     1       4.043   2.238  -6.371  1.00  0.00     0.006 C 
BRANCH  10  11
ATOM     11  C   UNL     1       3.465   3.270  -7.348  1.00  0.00     0.053 C 
BRANCH  11  12
ATOM     12  C   UNL     1       3.474   2.764  -8.758  1.00  0.00     0.041 C 
ATOM     13  O   UNL     1       2.691   3.255  -9.614  1.00  0.00    -0.550 OA
ATOM     14  O   UNL     1       4.322   1.724  -9.118  1.00  0.00    -0.550 OA
ENDBRANCH  11  12
ENDBRANCH  10  11
ENDBRANCH   9  10
ENDBRANCH   8   9
ENDBRANCH   7   8
ENDBRANCH   6   7
ENDBRANCH   5   6
ENDBRANCH   4   5
ENDBRANCH   3   4
ENDBRANCH   2   3
ENDBRANCH   1   2
BRANCH   1  15
ATOM     15  C   UNL     1      -3.902   3.341  -3.418  1.00  0.00     0.000 C 
BRANCH  15  16
ATOM     16  C   UNL     1      -5.375   2.898  -3.393  1.00  0.00     0.000 C 
BRANCH  16  17
ATOM     17  C   UNL     1      -5.534   1.387  -3.165  1.00  0.00     0.000 C 
BRANCH  17  18
ATOM     18  C   UNL     1      -5.517   0.580  -4.475  1.00  0.00    -0.000 C 
BRANCH  18  19
ATOM     19  C   UNL     1      -4.219  -0.228  -4.691  1.00  0.00    -0.000 C 
BRANCH  19  20
ATOM     20  C   UNL     1      -3.678  -0.812  -3.374  1.00  0.00    -0.000 C 
BRANCH  20  21
ATOM     21  C   UNL     1      -3.370  -2.314  -3.470  1.00  0.00    -0.000 C 
BRANCH  21  22
ATOM     22  C   UNL     1      -4.643  -3.178  -3.486  1.00  0.00    -0.000 C 
BRANCH  22  23
ATOM     23  C   UNL     1      -4.788  -3.988  -4.785  1.00  0.00    -0.000 C 
BRANCH  23  24
ATOM     24  C   UNL     1      -3.570  -3.829  -5.714  1.00  0.00    -0.000 C 
BRANCH  24  25
ATOM     25  C   UNL     1      -3.943  -3.219  -7.074  1.00  0.00    -0.003 C 
ATOM     26  C   UNL     1      -5.403  -2.771  -7.142  1.00  0.00     0.004 C 
ENDBRANCH  24  25
ENDBRANCH  23  24
ENDBRANCH  22  23
ENDBRANCH  21  22
ENDBRANCH  20  21
ENDBRANCH  19  20
ENDBRANCH  18  19
ENDBRANCH  17  18
ENDBRANCH  16  17
ENDBRANCH  15  16
ENDBRANCH   1  15
TORSDOF 22
ENDMDL
MODEL 9
REMARK VINA RESULT:    -4.262      4.171      8.449
REMARK INTER + INTRA:         -12.712
REMARK INTER:                  -9.728
REMARK INTRA:                  -2.984
REMARK UNBOUND:                -2.968
REMARK SMILES CCCCCCCCCCCCCCCCCCCCCCCC(=O)[O-]
REMARK SMILES IDX 13 1 14 2 15 3 16 4 17 5 18 6 19 7 20 8 21 9 22 10 23 11
REMARK SMILES IDX 24 12 25 13 26 14 12 15 11 16 10 17 9 18 8 19 7 20 6 21 5 22
REMARK SMILES IDX 4 23 3 24 2 25 1 26
REMARK H PARENT
REMARK Flexibility Score: inf
ROOT
ATOM      1  C   UNL     1      -5.968   2.508  -4.173  1.00  0.00     0.000 C 
ENDROOT
BRANCH   1   2
ATOM      2  C   UNL     1      -4.786   3.346  -3.640  1.00  0.00     0.000 C 
BRANCH   2   3
ATOM      3  C   UNL     1      -4.108   2.730  -2.405  1.00  0.00     0.000 C 
BRANCH   3   4
ATOM      4  C   UNL     1      -2.617   2.432  -2.636  1.00  0.00     0.000 C 
BRANCH   4   5
ATOM      5  C   UNL     1      -2.217   2.498  -4.120  1.00  0.00     0.000 C 
BRANCH   5   6
ATOM      6  C   UNL     1      -0.778   2.979  -4.392  1.00  0.00     0.000 C 
BRANCH   6   7
ATOM      7  C   UNL     1       0.027   3.300  -3.115  1.00  0.00     0.000 C 
BRANCH   7   8
ATOM      8  C   UNL     1       1.513   2.921  -3.251  1.00  0.00     0.000 C 
BRANCH   8   9
ATOM      9  C   UNL     1       2.071   3.208  -4.653  1.00  0.00     0.000 C 
BRANCH   9  10
ATOM     10  C   UNL     1       3.493   2.651  -4.848  1.00  0.00     0.006 C 
BRANCH  10  11
ATOM     11  C   UNL     1       3.958   1.814  -3.648  1.00  0.00     0.053 C 
BRANCH  11  12
ATOM     12  C   UNL     1       5.140   2.432  -2.967  1.00  0.00     0.041 C 
ATOM     13  O   UNL     1       5.694   1.845  -1.999  1.00  0.00    -0.550 OA
ATOM     14  O   UNL     1       5.608   3.674  -3.377  1.00  0.00    -0.550 OA
ENDBRANCH  11  12
ENDBRANCH  10  11
ENDBRANCH   9  10
ENDBRANCH   8   9
ENDBRANCH   7   8
ENDBRANCH   6   7
ENDBRANCH   5   6
ENDBRANCH   4   5
ENDBRANCH   3   4
ENDBRANCH   2   3
ENDBRANCH   1   2
BRANCH   1  15
ATOM     15  C   UNL     1      -6.170   1.208  -3.374  1.00  0.00     0.000 C 
BRANCH  15  16
ATOM     16  C   UNL     1      -5.926  -0.051  -4.223  1.00  0.00     0.000 C 
BRANCH  16  17
ATOM     17  C   UNL     1      -4.441  -0.260  -4.558  1.00  0.00     0.000 C 
BRANCH  17  18
ATOM     18  C   UNL     1      -3.659  -0.930  -3.416  1.00  0.00    -0.000 C 
BRANCH  18  19
ATOM     19  C   UNL     1      -3.874  -2.456  -3.325  1.00  0.00    -0.000 C 
BRANCH  19  20
ATOM     20  C   UNL     1      -2.834  -3.234  -4.150  1.00  0.00    -0.000 C 
BRANCH  20  21
ATOM     21  C   UNL     1      -3.467  -4.068  -5.274  1.00  0.00    -0.000 C 
BRANCH  21  22
ATOM     22  C   UNL     1      -5.004  -3.998  -5.266  1.00  0.00    -0.000 C 
BRANCH  22  23
ATOM     23  C   UNL     1      -5.560  -3.144  -6.418  1.00  0.00    -0.000 C 
BRANCH  23  24
ATOM     24  C   UNL     1      -4.469  -2.738  -7.426  1.00  0.00    -0.000 C 
BRANCH  24  25
ATOM     25  C   UNL     1      -4.774  -1.400  -8.116  1.00  0.00    -0.003 C 
ATOM     26  C   UNL     1      -6.212  -0.931  -7.891  1.00  0.00     0.004 C 
ENDBRANCH  24  25
ENDBRANCH  23  24
ENDBRANCH  22  23
ENDBRANCH  21  22
ENDBRANCH  20  21
ENDBRANCH  19  20
ENDBRANCH  18  19
ENDBRANCH  17  18
ENDBRANCH  16  17
ENDBRANCH  15  16
ENDBRANCH   1  15
TORSDOF 22
ENDMDL
