MODEL 1
REMARK VINA RESULT:    -4.919      0.000      0.000
REMARK INTER + INTRA:          -6.831
REMARK INTER:                  -6.644
REMARK INTRA:                  -0.187
REMARK UNBOUND:                -0.187
REMARK SMILES CCCCCCCC(=O)[O-]
REMARK SMILES IDX 5 1 6 2 7 3 8 4 9 5 10 6 4 7 3 8 2 9 1 10
REMARK H PARENT
REMARK Flexibility Score: inf
ROOT
ATOM      1  C   UNL     1      -2.425   4.435   5.459  1.00  0.00     0.000 C 
ENDROOT
BRANCH   1   2
ATOM      2  C   UNL     1      -2.663   3.634   6.748  1.00  0.00     0.006 C 
BRANCH   2   3
ATOM      3  C   UNL     1      -1.556   2.595   6.960  1.00  0.00     0.053 C 
BRANCH   3   4
ATOM      4  C   UNL     1      -1.208   2.488   8.411  1.00  0.00     0.041 C 
ATOM      5  O   UNL     1      -0.031   2.707   8.798  1.00  0.00    -0.550 OA
ATOM      6  O   UNL     1      -2.196   2.194   9.341  1.00  0.00    -0.550 OA
ENDBRANCH   3   4
ENDBRANCH   2   3
ENDBRANCH   1   2
BRANCH   1   7
ATOM      7  C   UNL     1      -3.504   5.503   5.218  1.00  0.00     0.000 C 
BRANCH   7   8
ATOM      8  C   UNL     1      -3.110   6.506   4.123  1.00  0.00    -0.000 C 
BRANCH   8   9
ATOM      9  C   UNL     1      -3.287   7.948   4.613  1.00  0.00    -0.003 C 
ATOM     10  C   UNL     1      -4.194   8.007   5.837  1.00  0.00     0.004 C 
ENDBRANCH   8   9
ENDBRANCH   7   8
ENDBRANCH   1   7
TORSDOF 6
ENDMDL
MODEL 2
REMARK VINA RESULT:    -4.588      1.793      2.772
REMARK INTER + INTRA:          -6.383
REMARK INTER:                  -6.142
REMARK INTRA:                  -0.241
REMARK UNBOUND:                -0.187
REMARK SMILES CCCCCCCC(=O)[O-]
REMARK SMILES IDX 5 1 6 2 7 3 8 4 9 5 10 6 4 7 3 8 2 9 1 10
REMARK H PARENT
REMARK Flexibility Score: inf
ROOT
ATOM      1  C   UNL     1      -2.634   6.552   4.002  1.00  0.00     0.000 C 
ENDROOT
BRANCH   1   2
ATOM      2  C   UNL     1      -3.100   5.338   4.820  1.00  0.00     0.006 C 
BRANCH   2   3
ATOM      3  C   UNL     1      -1.903   4.504   5.292  1.00  0.00     0.053 C 
BRANCH   3   4
ATOM      4  C   UNL     1      -2.368   3.232   5.925  1.00  0.00     0.041 C 
ATOM      5  O   UNL     1      -2.453   3.141   7.178  1.00  0.00    -0.550 OA
ATOM      6  O   UNL     1      -2.756   2.161   5.130  1.00  0.00    -0.550 OA
ENDBRANCH   3   4
ENDBRANCH   2   3
ENDBRANCH   1   2
BRANCH   1   7
ATOM      7  C   UNL     1      -3.150   7.883   4.572  1.00  0.00     0.000 C 
BRANCH   7   8
ATOM      8  C   UNL     1      -4.549   7.758   5.194  1.00  0.00    -0.000 C 
BRANCH   8   9
ATOM      9  C   UNL     1      -4.486   7.912   6.719  1.00  0.00    -0.003 C 
ATOM     10  C   UNL     1      -5.443   6.945   7.410  1.00  0.00     0.004 C 
ENDBRANCH   8   9
ENDBRANCH   7   8
ENDBRANCH   1   7
TORSDOF 6
ENDMDL
MODEL 3
REMARK VINA RESULT:    -4.550      4.581      5.791
REMARK INTER + INTRA:          -6.332
REMARK INTER:                  -6.099
REMARK INTRA:                  -0.233
REMARK UNBOUND:                -0.187
REMARK SMILES CCCCCCCC(=O)[O-]
REMARK SMILES IDX 5 1 6 2 7 3 8 4 9 5 10 6 4 7 3 8 2 9 1 10
REMARK H PARENT
REMARK Flexibility Score: inf
ROOT
ATOM      1  C   UNL     1      -5.631   6.280   7.480  1.00  0.00     0.000 C 
ENDROOT
BRANCH   1   2
ATOM      2  C   UNL     1      -6.243   7.137   8.598  1.00  0.00     0.006 C 
BRANCH   2   3
ATOM      3  C   UNL     1      -7.340   6.366   9.341  1.00  0.00     0.053 C 
BRANCH   3   4
ATOM      4  C   UNL     1      -8.526   6.156   8.453  1.00  0.00     0.041 C 
ATOM      5  O   UNL     1      -9.125   7.143   7.952  1.00  0.00    -0.550 OA
ATOM      6  O   UNL     1      -8.938   4.868   8.139  1.00  0.00    -0.550 OA
ENDBRANCH   3   4
ENDBRANCH   2   3
ENDBRANCH   1   2
BRANCH   1   7
ATOM      7  C   UNL     1      -4.711   7.088   6.550  1.00  0.00     0.000 C 
BRANCH   7   8
ATOM      8  C   UNL     1      -4.032   6.214   5.485  1.00  0.00    -0.000 C 
BRANCH   8   9
ATOM      9  C   UNL     1      -3.389   7.081   4.395  1.00  0.00    -0.003 C 
ATOM     10  C   UNL     1      -3.885   8.521   4.472  1.00  0.00     0.004 C 
ENDBRANCH   8   9
ENDBRANCH   7   8
ENDBRANCH   1   7
TORSDOF 6
ENDMDL
MODEL 4
REMARK VINA RESULT:    -4.454      4.748      6.072
REMARK INTER + INTRA:          -6.203
REMARK INTER:                  -6.018
REMARK INTRA:                  -0.185
REMARK UNBOUND:                -0.187
REMARK SMILES CCCCCCCC(=O)[O-]
REMARK SMILES IDX 5 1 6 2 7 3 8 4 9 5 10 6 4 7 3 8 2 9 1 10
REMARK H PARENT
REMARK Flexibility Score: inf
ROOT
ATOM      1  C   UNL     1      -5.743   6.647   7.583  1.00  0.00     0.000 C 
ENDROOT
BRANCH   1   2
ATOM      2  C   UNL     1      -4.661   7.342   6.743  1.00  0.00     0.006 C 
BRANCH   2   3
ATOM      3  C   UNL     1      -4.222   6.455   5.573  1.00  0.00     0.053 C 
BRANCH   3   4
ATOM      4  C   UNL     1      -3.477   7.260   4.556  1.00  0.00     0.041 C 
ATOM      5  O   UNL     1      -2.473   6.772   3.974  1.00  0.00    -0.550 OA
ATOM      6  O   UNL     1      -3.920   8.531   4.216  1.00  0.00    -0.550 OA
ENDBRANCH   3   4
ENDBRANCH   2   3
ENDBRANCH   1   2
BRANCH   1   7
ATOM      7  C   UNL     1      -6.088   7.424   8.864  1.00  0.00     0.000 C 
BRANCH   7   8
ATOM      8  C   UNL     1      -7.515   7.144   9.360  1.00  0.00    -0.000 C 
BRANCH   8   9
ATOM      9  C   UNL     1      -8.400   6.627   8.219  1.00  0.00    -0.003 C 
ATOM     10  C   UNL     1      -8.881   5.206   8.494  1.00  0.00     0.004 C 
ENDBRANCH   8   9
ENDBRANCH   7   8
ENDBRANCH   1   7
TORSDOF 6
ENDMDL
MODEL 5
REMARK VINA RESULT:    -3.986     16.479     17.153
REMARK INTER + INTRA:          -5.570
REMARK INTER:                  -5.210
REMARK INTRA:                  -0.360
REMARK UNBOUND:                -0.187
REMARK SMILES CCCCCCCC(=O)[O-]
REMARK SMILES IDX 5 1 6 2 7 3 8 4 9 5 10 6 4 7 3 8 2 9 1 10
REMARK H PARENT
REMARK Flexibility Score: inf
ROOT
ATOM      1  C   UNL     1      -0.753  -5.225  -7.200  1.00  0.00     0.000 C 
ENDROOT
BRANCH   1   2
ATOM      2  C   UNL     1       0.502  -5.904  -6.632  1.00  0.00     0.006 C 
BRANCH   2   3
ATOM      3  C   UNL     1       1.732  -5.003  -6.791  1.00  0.00     0.053 C 
BRANCH   3   4
ATOM      4  C   UNL     1       2.202  -5.003  -8.211  1.00  0.00     0.041 C 
ATOM      5  O   UNL     1       2.803  -6.005  -8.680  1.00  0.00    -0.550 OA
ATOM      6  O   UNL     1       1.932  -3.916  -9.031  1.00  0.00    -0.550 OA
ENDBRANCH   3   4
ENDBRANCH   2   3
ENDBRANCH   1   2
BRANCH   1   7
ATOM      7  C   UNL     1      -0.877  -3.754  -6.768  1.00  0.00     0.000 C 
BRANCH   7   8
ATOM      8  C   UNL     1      -1.488  -2.866  -7.862  1.00  0.00    -0.000 C 
BRANCH   8   9
ATOM      9  C   UNL     1      -0.584  -1.663  -8.158  1.00  0.00    -0.003 C 
ATOM     10  C   UNL     1      -1.396  -0.471  -8.653  1.00  0.00     0.004 C 
ENDBRANCH   8   9
ENDBRANCH   7   8
ENDBRANCH   1   7
TORSDOF 6
ENDMDL
MODEL 6
REMARK VINA RESULT:    -3.969     11.878     12.578
REMARK INTER + INTRA:          -5.547
REMARK INTER:                  -5.306
REMARK INTRA:                  -0.241
REMARK UNBOUND:                -0.187
REMARK SMILES CCCCCCCC(=O)[O-]
REMARK SMILES IDX 5 1 6 2 7 3 8 4 9 5 10 6 4 7 3 8 2 9 1 10
REMARK H PARENT
REMARK Flexibility Score: inf
ROOT
ATOM      1  C   UNL     1       6.279   7.821  -1.999  1.00  0.00     0.000 C 
ENDROOT
BRANCH   1   2
ATOM      2  C   UNL     1       7.265   6.683  -2.303  1.00  0.00     0.006 C 
BRANCH   2   3
ATOM      3  C   UNL     1       7.935   6.181  -1.020  1.00  0.00     0.053 C 
BRANCH   3   4
ATOM      4  C   UNL     1       7.861   4.689  -0.939  1.00  0.00     0.041 C 
ATOM      5  O   UNL     1       8.901   3.994  -1.084  1.00  0.00    -0.550 OA
ATOM      6  O   UNL     1       6.652   4.068  -0.655  1.00  0.00    -0.550 OA
ENDBRANCH   3   4
ENDBRANCH   2   3
ENDBRANCH   1   2
BRANCH   1   7
ATOM      7  C   UNL     1       6.983   9.166  -1.757  1.00  0.00     0.000 C 
BRANCH   7   8
ATOM      8  C   UNL     1       5.998  10.341  -1.660  1.00  0.00    -0.000 C 
BRANCH   8   9
ATOM      9  C   UNL     1       4.548   9.840  -1.649  1.00  0.00    -0.003 C 
ATOM     10  C   UNL     1       3.675  10.659  -2.595  1.00  0.00     0.004 C 
ENDBRANCH   8   9
ENDBRANCH   7   8
ENDBRANCH   1   7
TORSDOF 6
ENDMDL
MODEL 7
REMARK VINA RESULT:    -3.967     14.401     15.409
REMARK INTER + INTRA:          -5.545
REMARK INTER:                  -5.425
REMARK INTRA:                  -0.121
REMARK UNBOUND:                -0.187
REMARK SMILES CCCCCCCC(=O)[O-]
REMARK SMILES IDX 5 1 6 2 7 3 8 4 9 5 10 6 4 7 3 8 2 9 1 10
REMARK H PARENT
REMARK Flexibility Score: inf
ROOT
ATOM      1  C   UNL     1       7.978   6.035  -4.557  1.00  0.00     0.000 C 
ENDROOT
BRANCH   1   2
ATOM      2  C   UNL     1       7.116   5.311  -3.512  1.00  0.00     0.006 C 
BRANCH   2   3
ATOM      3  C   UNL     1       7.547   5.687  -2.091  1.00  0.00     0.053 C 
BRANCH   3   4
ATOM      4  C   UNL     1       7.656   4.465  -1.235  1.00  0.00     0.041 C 
ATOM      5  O   UNL     1       6.640   4.010  -0.648  1.00  0.00    -0.550 OA
ATOM      6  O   UNL     1       8.870   3.800  -1.125  1.00  0.00    -0.550 OA
ENDBRANCH   3   4
ENDBRANCH   2   3
ENDBRANCH   1   2
BRANCH   1   7
ATOM      7  C   UNL     1       7.695   5.558  -5.991  1.00  0.00     0.000 C 
BRANCH   7   8
ATOM      8  C   UNL     1       8.869   4.774  -6.596  1.00  0.00    -0.000 C 
BRANCH   8   9
ATOM      9  C   UNL     1       8.609   4.450  -8.072  1.00  0.00    -0.003 C 
ATOM     10  C   UNL     1       9.359   3.193  -8.502  1.00  0.00     0.004 C 
ENDBRANCH   8   9
ENDBRANCH   7   8
ENDBRANCH   1   7
TORSDOF 6
ENDMDL
MODEL 8
REMARK VINA RESULT:    -3.862     16.591     17.560
REMARK INTER + INTRA:          -5.404
REMARK INTER:                  -4.957
REMARK INTRA:                  -0.446
REMARK UNBOUND:                -0.187
REMARK SMILES CCCCCCCC(=O)[O-]
REMARK SMILES IDX 5 1 6 2 7 3 8 4 9 5 10 6 4 7 3 8 2 9 1 10
REMARK H PARENT
REMARK Flexibility Score: inf
ROOT
ATOM      1  C   UNL     1      -1.677  -4.166  -7.132  1.00  0.00     0.000 C 
ENDROOT
BRANCH   1   2
ATOM      2  C   UNL     1      -1.555  -3.179  -8.302  1.00  0.00     0.006 C 
BRANCH   2   3
ATOM      3  C   UNL     1      -0.574  -2.051  -7.967  1.00  0.00     0.053 C 
BRANCH   3   4
ATOM      4  C   UNL     1       0.189  -1.640  -9.186  1.00  0.00     0.041 C 
ATOM      5  O   UNL     1      -0.259  -0.737  -9.940  1.00  0.00    -0.550 OA
ATOM      6  O   UNL     1       1.420  -2.220  -9.463  1.00  0.00    -0.550 OA
ENDBRANCH   3   4
ENDBRANCH   2   3
ENDBRANCH   1   2
BRANCH   1   7
ATOM      7  C   UNL     1      -0.585  -5.248  -7.154  1.00  0.00     0.000 C 
BRANCH   7   8
ATOM      8  C   UNL     1       0.417  -5.101  -5.998  1.00  0.00    -0.000 C 
BRANCH   8   9
ATOM      9  C   UNL     1       1.860  -5.139  -6.516  1.00  0.00    -0.003 C 
ATOM     10  C   UNL     1       1.897  -5.228  -8.038  1.00  0.00     0.004 C 
ENDBRANCH   8   9
ENDBRANCH   7   8
ENDBRANCH   1   7
TORSDOF 6
ENDMDL
MODEL 9
REMARK VINA RESULT:    -3.819     15.404     16.523
REMARK INTER + INTRA:          -5.345
REMARK INTER:                  -5.070
REMARK INTRA:                  -0.274
REMARK UNBOUND:                -0.187
REMARK SMILES CCCCCCCC(=O)[O-]
REMARK SMILES IDX 5 1 6 2 7 3 8 4 9 5 10 6 4 7 3 8 2 9 1 10
REMARK H PARENT
REMARK Flexibility Score: inf
ROOT
ATOM      1  C   UNL     1       7.805   6.072  -6.464  1.00  0.00     0.000 C 
ENDROOT
BRANCH   1   2
ATOM      2  C   UNL     1       8.270   5.478  -5.127  1.00  0.00     0.006 C 
BRANCH   2   3
ATOM      3  C   UNL     1       8.000   6.449  -3.972  1.00  0.00     0.053 C 
BRANCH   3   4
ATOM      4  C   UNL     1       7.034   5.852  -2.999  1.00  0.00     0.041 C 
ATOM      5  O   UNL     1       6.310   4.880  -3.340  1.00  0.00    -0.550 OA
ATOM      6  O   UNL     1       6.969   6.336  -1.700  1.00  0.00    -0.550 OA
ENDBRANCH   3   4
ENDBRANCH   2   3
ENDBRANCH   1   2
BRANCH   1   7
ATOM      7  C   UNL     1       7.716   5.020  -7.581  1.00  0.00     0.000 C 
BRANCH   7   8
ATOM      8  C   UNL     1       9.047   4.833  -8.325  1.00  0.00    -0.000 C 
BRANCH   8   9
ATOM      9  C   UNL     1       9.270   3.360  -8.688  1.00  0.00    -0.003 C 
ATOM     10  C   UNL     1      10.122   2.656  -7.637  1.00  0.00     0.004 C 
ENDBRANCH   8   9
ENDBRANCH   7   8
ENDBRANCH   1   7
TORSDOF 6
ENDMDL
