MODEL 1
REMARK VINA RESULT:    -5.270      0.000      0.000
REMARK INTER + INTRA:          -5.270
REMARK INTER:                  -5.270
REMARK INTRA:                   0.000
REMARK UNBOUND:                 0.000
REMARK SMILES O=c1ccc2ccc3occc3c2o1
REMARK SMILES IDX 6 1 7 2 8 3 12 4 11 5 10 6 9 7 13 8 5 9 4 10 3 11 2 12 1 13
REMARK SMILES IDX 14 14
REMARK H PARENT
REMARK Flexibility Score: inf
ROOT
ATOM      1  C   UNL     1      12.942  36.973  50.755  1.00  0.00     0.016 A 
ATOM      2  C   UNL     1      11.993  36.447  49.857  1.00  0.00     0.048 A 
ATOM      3  C   UNL     1      12.382  36.252  48.532  1.00  0.00     0.137 A 
ATOM      4  C   UNL     1      13.645  36.554  48.097  1.00  0.00     0.064 A 
ATOM      5  C   UNL     1      13.691  36.243  46.758  1.00  0.00     0.054 A 
ATOM      6  C   UNL     1      12.419  35.761  46.466  1.00  0.00     0.196 A 
ATOM      7  O   UNL     1      11.660  35.778  47.547  1.00  0.00    -0.464 OA
ATOM      8  C   UNL     1      14.611  37.075  48.954  1.00  0.00     0.149 A 
ATOM      9  C   UNL     1      14.249  37.287  50.309  1.00  0.00     0.018 A 
ATOM     10  C   UNL     1      15.214  37.810  51.174  1.00  0.00     0.019 A 
ATOM     11  C   UNL     1      16.488  38.102  50.684  1.00  0.00     0.094 A 
ATOM     12  C   UNL     1      16.769  37.865  49.332  1.00  0.00     0.336 A 
ATOM     13  O   UNL     1      17.913  38.123  48.875  1.00  0.00    -0.246 OA
ATOM     14  O   UNL     1      15.836  37.367  48.525  1.00  0.00    -0.422 OA
ENDROOT
TORSDOF 0
ENDMDL
MODEL 2
REMARK VINA RESULT:    -4.987      1.114      4.272
REMARK INTER + INTRA:          -4.987
REMARK INTER:                  -4.987
REMARK INTRA:                   0.000
REMARK UNBOUND:                 0.000
REMARK SMILES O=c1ccc2ccc3occc3c2o1
REMARK SMILES IDX 6 1 7 2 8 3 12 4 11 5 10 6 9 7 13 8 5 9 4 10 3 11 2 12 1 13
REMARK SMILES IDX 14 14
REMARK H PARENT
REMARK Flexibility Score: inf
ROOT
ATOM      1  C   UNL     1      13.994  37.389  51.116  1.00  0.00     0.016 A 
ATOM      2  C   UNL     1      15.331  37.814  51.240  1.00  0.00     0.048 A 
ATOM      3  C   UNL     1      16.139  37.777  50.105  1.00  0.00     0.137 A 
ATOM      4  C   UNL     1      15.667  37.345  48.894  1.00  0.00     0.064 A 
ATOM      5  C   UNL     1      16.710  37.437  48.002  1.00  0.00     0.054 A 
ATOM      6  C   UNL     1      17.771  37.932  48.753  1.00  0.00     0.196 A 
ATOM      7  O   UNL     1      17.398  38.125  50.006  1.00  0.00    -0.464 OA
ATOM      8  C   UNL     1      14.351  36.918  48.731  1.00  0.00     0.149 A 
ATOM      9  C   UNL     1      13.501  36.941  49.866  1.00  0.00     0.018 A 
ATOM     10  C   UNL     1      12.180  36.514  49.708  1.00  0.00     0.019 A 
ATOM     11  C   UNL     1      11.744  36.082  48.455  1.00  0.00     0.094 A 
ATOM     12  C   UNL     1      12.644  36.088  47.380  1.00  0.00     0.336 A 
ATOM     13  O   UNL     1      12.266  35.701  46.244  1.00  0.00    -0.246 OA
ATOM     14  O   UNL     1      13.898  36.499  47.552  1.00  0.00    -0.422 OA
ENDROOT
TORSDOF 0
ENDMDL
MODEL 3
REMARK VINA RESULT:    -4.952      1.404      2.584
REMARK INTER + INTRA:          -4.952
REMARK INTER:                  -4.952
REMARK INTRA:                   0.000
REMARK UNBOUND:                 0.000
REMARK SMILES O=c1ccc2ccc3occc3c2o1
REMARK SMILES IDX 6 1 7 2 8 3 12 4 11 5 10 6 9 7 13 8 5 9 4 10 3 11 2 12 1 13
REMARK SMILES IDX 14 14
REMARK H PARENT
REMARK Flexibility Score: inf
ROOT
ATOM      1  C   UNL     1      14.305  36.804  46.886  1.00  0.00     0.016 A 
ATOM      2  C   UNL     1      12.959  36.411  46.751  1.00  0.00     0.048 A 
ATOM      3  C   UNL     1      12.182  36.327  47.905  1.00  0.00     0.137 A 
ATOM      4  C   UNL     1      12.691  36.616  49.143  1.00  0.00     0.064 A 
ATOM      5  C   UNL     1      11.670  36.435  50.047  1.00  0.00     0.054 A 
ATOM      6  C   UNL     1      10.583  36.039  49.275  1.00  0.00     0.196 A 
ATOM      7  O   UNL     1      10.920  35.984  47.998  1.00  0.00    -0.464 OA
ATOM      8  C   UNL     1      14.016  37.008  49.318  1.00  0.00     0.149 A 
ATOM      9  C   UNL     1      14.836  37.103  48.164  1.00  0.00     0.018 A 
ATOM     10  C   UNL     1      16.166  37.496  48.333  1.00  0.00     0.019 A 
ATOM     11  C   UNL     1      16.640  37.779  49.615  1.00  0.00     0.094 A 
ATOM     12  C   UNL     1      15.768  37.662  50.706  1.00  0.00     0.336 A 
ATOM     13  O   UNL     1      16.181  37.914  51.868  1.00  0.00    -0.246 OA
ATOM     14  O   UNL     1      14.505  37.286  50.523  1.00  0.00    -0.422 OA
ENDROOT
TORSDOF 0
ENDMDL
MODEL 4
REMARK VINA RESULT:    -4.870      1.582      4.011
REMARK INTER + INTRA:          -4.870
REMARK INTER:                  -4.870
REMARK INTRA:                   0.000
REMARK UNBOUND:                 0.000
REMARK SMILES O=c1ccc2ccc3occc3c2o1
REMARK SMILES IDX 6 1 7 2 8 3 12 4 11 5 10 6 9 7 13 8 5 9 4 10 3 11 2 12 1 13
REMARK SMILES IDX 14 14
REMARK H PARENT
REMARK Flexibility Score: inf
ROOT
ATOM      1  C   UNL     1      12.616  36.461  49.134  1.00  0.00     0.016 A 
ATOM      2  C   UNL     1      13.126  36.898  50.372  1.00  0.00     0.048 A 
ATOM      3  C   UNL     1      14.443  37.353  50.414  1.00  0.00     0.137 A 
ATOM      4  C   UNL     1      15.235  37.384  49.297  1.00  0.00     0.064 A 
ATOM      5  C   UNL     1      16.457  37.881  49.687  1.00  0.00     0.054 A 
ATOM      6  C   UNL     1      16.318  38.125  51.049  1.00  0.00     0.196 A 
ATOM      7  O   UNL     1      15.104  37.800  51.455  1.00  0.00    -0.464 OA
ATOM      8  C   UNL     1      14.767  36.961  48.056  1.00  0.00     0.149 A 
ATOM      9  C   UNL     1      13.431  36.491  47.976  1.00  0.00     0.018 A 
ATOM     10  C   UNL     1      12.956  36.065  46.733  1.00  0.00     0.019 A 
ATOM     11  C   UNL     1      13.800  36.114  45.623  1.00  0.00     0.094 A 
ATOM     12  C   UNL     1      15.108  36.592  45.781  1.00  0.00     0.336 A 
ATOM     13  O   UNL     1      15.881  36.642  44.789  1.00  0.00    -0.246 OA
ATOM     14  O   UNL     1      15.540  36.993  46.974  1.00  0.00    -0.422 OA
ENDROOT
TORSDOF 0
ENDMDL
MODEL 5
REMARK VINA RESULT:    -4.841      1.362      4.984
REMARK INTER + INTRA:          -4.841
REMARK INTER:                  -4.841
REMARK INTRA:                   0.000
REMARK UNBOUND:                 0.000
REMARK SMILES O=c1ccc2ccc3occc3c2o1
REMARK SMILES IDX 6 1 7 2 8 3 12 4 11 5 10 6 9 7 13 8 5 9 4 10 3 11 2 12 1 13
REMARK SMILES IDX 14 14
REMARK H PARENT
REMARK Flexibility Score: inf
ROOT
ATOM      1  C   UNL     1      14.949  36.955  47.025  1.00  0.00     0.016 A 
ATOM      2  C   UNL     1      15.993  37.364  47.876  1.00  0.00     0.048 A 
ATOM      3  C   UNL     1      15.718  37.486  49.238  1.00  0.00     0.137 A 
ATOM      4  C   UNL     1      14.478  37.218  49.753  1.00  0.00     0.064 A 
ATOM      5  C   UNL     1      14.553  37.434  51.109  1.00  0.00     0.054 A 
ATOM      6  C   UNL     1      15.869  37.828  51.329  1.00  0.00     0.196 A 
ATOM      7  O   UNL     1      16.540  37.849  50.192  1.00  0.00    -0.464 OA
ATOM      8  C   UNL     1      13.420  36.810  48.944  1.00  0.00     0.149 A 
ATOM      9  C   UNL     1      13.664  36.677  47.552  1.00  0.00     0.018 A 
ATOM     10  C   UNL     1      12.607  36.268  46.735  1.00  0.00     0.019 A 
ATOM     11  C   UNL     1      11.361  36.007  47.306  1.00  0.00     0.094 A 
ATOM     12  C   UNL     1      11.198  36.162  48.689  1.00  0.00     0.336 A 
ATOM     13  O   UNL     1      10.080  35.930  49.218  1.00  0.00    -0.246 OA
ATOM     14  O   UNL     1      12.218  36.552  49.449  1.00  0.00    -0.422 OA
ENDROOT
TORSDOF 0
ENDMDL
MODEL 6
REMARK VINA RESULT:    -4.633      1.820      2.339
REMARK INTER + INTRA:          -4.633
REMARK INTER:                  -4.633
REMARK INTRA:                   0.000
REMARK UNBOUND:                 0.000
REMARK SMILES O=c1ccc2ccc3occc3c2o1
REMARK SMILES IDX 6 1 7 2 8 3 12 4 11 5 10 6 9 7 13 8 5 9 4 10 3 11 2 12 1 13
REMARK SMILES IDX 14 14
REMARK H PARENT
REMARK Flexibility Score: inf
ROOT
ATOM      1  C   UNL     1      13.379  37.026  50.517  1.00  0.00     0.016 A 
ATOM      2  C   UNL     1      12.013  36.695  50.597  1.00  0.00     0.048 A 
ATOM      3  C   UNL     1      11.360  36.321  49.423  1.00  0.00     0.137 A 
ATOM      4  C   UNL     1      12.008  36.268  48.218  1.00  0.00     0.064 A 
ATOM      5  C   UNL     1      11.083  35.867  47.283  1.00  0.00     0.054 A 
ATOM      6  C   UNL     1       9.906  35.699  48.004  1.00  0.00     0.196 A 
ATOM      7  O   UNL     1      10.103  35.978  49.281  1.00  0.00    -0.464 OA
ATOM      8  C   UNL     1      13.359  36.587  48.099  1.00  0.00     0.149 A 
ATOM      9  C   UNL     1      14.055  36.973  49.273  1.00  0.00     0.018 A 
ATOM     10  C   UNL     1      15.410  37.295  49.160  1.00  0.00     0.019 A 
ATOM     11  C   UNL     1      16.028  37.226  47.910  1.00  0.00     0.094 A 
ATOM     12  C   UNL     1      15.273  36.836  46.796  1.00  0.00     0.336 A 
ATOM     13  O   UNL     1      15.817  36.770  45.663  1.00  0.00    -0.246 OA
ATOM     14  O   UNL     1      13.984  36.535  46.926  1.00  0.00    -0.422 OA
ENDROOT
TORSDOF 0
ENDMDL
MODEL 7
REMARK VINA RESULT:    -4.616      1.240      1.754
REMARK INTER + INTRA:          -4.616
REMARK INTER:                  -4.616
REMARK INTRA:                   0.000
REMARK UNBOUND:                 0.000
REMARK SMILES O=c1ccc2ccc3occc3c2o1
REMARK SMILES IDX 6 1 7 2 8 3 12 4 11 5 10 6 9 7 13 8 5 9 4 10 3 11 2 12 1 13
REMARK SMILES IDX 14 14
REMARK H PARENT
REMARK Flexibility Score: inf
ROOT
ATOM      1  C   UNL     1      12.011  36.244  48.865  1.00  0.00     0.016 A 
ATOM      2  C   UNL     1      11.673  36.021  47.516  1.00  0.00     0.048 A 
ATOM      3  C   UNL     1      12.635  36.296  46.545  1.00  0.00     0.137 A 
ATOM      4  C   UNL     1      13.878  36.769  46.871  1.00  0.00     0.064 A 
ATOM      5  C   UNL     1      14.566  36.929  45.691  1.00  0.00     0.054 A 
ATOM      6  C   UNL     1      13.670  36.532  44.704  1.00  0.00     0.196 A 
ATOM      7  O   UNL     1      12.524  36.158  45.246  1.00  0.00    -0.464 OA
ATOM      8  C   UNL     1      14.250  37.002  48.192  1.00  0.00     0.149 A 
ATOM      9  C   UNL     1      13.296  36.733  49.207  1.00  0.00     0.018 A 
ATOM     10  C   UNL     1      13.663  36.965  50.535  1.00  0.00     0.019 A 
ATOM     11  C   UNL     1      14.942  37.448  50.818  1.00  0.00     0.094 A 
ATOM     12  C   UNL     1      15.829  37.690  49.760  1.00  0.00     0.336 A 
ATOM     13  O   UNL     1      16.986  38.125  50.000  1.00  0.00    -0.246 OA
ATOM     14  O   UNL     1      15.459  37.462  48.503  1.00  0.00    -0.422 OA
ENDROOT
TORSDOF 0
ENDMDL
MODEL 8
REMARK VINA RESULT:    -4.553      1.662      3.948
REMARK INTER + INTRA:          -4.553
REMARK INTER:                  -4.553
REMARK INTRA:                   0.000
REMARK UNBOUND:                 0.000
REMARK SMILES O=c1ccc2ccc3occc3c2o1
REMARK SMILES IDX 6 1 7 2 8 3 12 4 11 5 10 6 9 7 13 8 5 9 4 10 3 11 2 12 1 13
REMARK SMILES IDX 14 14
REMARK H PARENT
REMARK Flexibility Score: inf
ROOT
ATOM      1  C   UNL     1      15.372  37.373  49.396  1.00  0.00     0.016 A 
ATOM      2  C   UNL     1      16.094  37.363  48.187  1.00  0.00     0.048 A 
ATOM      3  C   UNL     1      15.423  36.976  47.027  1.00  0.00     0.137 A 
ATOM      4  C   UNL     1      14.102  36.616  47.040  1.00  0.00     0.064 A 
ATOM      5  C   UNL     1      13.761  36.298  45.746  1.00  0.00     0.054 A 
ATOM      6  C   UNL     1      14.930  36.493  45.018  1.00  0.00     0.196 A 
ATOM      7  O   UNL     1      15.906  36.899  45.811  1.00  0.00    -0.464 OA
ATOM      8  C   UNL     1      13.355  36.614  48.216  1.00  0.00     0.149 A 
ATOM      9  C   UNL     1      14.006  37.001  49.415  1.00  0.00     0.018 A 
ATOM     10  C   UNL     1      13.261  37.001  50.598  1.00  0.00     0.019 A 
ATOM     11  C   UNL     1      11.918  36.625  50.562  1.00  0.00     0.094 A 
ATOM     12  C   UNL     1      11.345  36.255  49.337  1.00  0.00     0.336 A 
ATOM     13  O   UNL     1      10.135  35.913  49.289  1.00  0.00    -0.246 OA
ATOM     14  O   UNL     1      12.072  36.262  48.223  1.00  0.00    -0.422 OA
ENDROOT
TORSDOF 0
ENDMDL
MODEL 9
REMARK VINA RESULT:    -4.394      2.485      3.485
REMARK INTER + INTRA:          -4.394
REMARK INTER:                  -4.394
REMARK INTRA:                   0.000
REMARK UNBOUND:                 0.000
REMARK SMILES O=c1ccc2ccc3occc3c2o1
REMARK SMILES IDX 6 1 7 2 8 3 12 4 11 5 10 6 9 7 13 8 5 9 4 10 3 11 2 12 1 13
REMARK SMILES IDX 14 14
REMARK H PARENT
REMARK Flexibility Score: inf
ROOT
ATOM      1  C   UNL     1      13.567  36.985  49.645  1.00  0.00     0.016 A 
ATOM      2  C   UNL     1      12.952  36.206  50.643  1.00  0.00     0.048 A 
ATOM      3  C   UNL     1      13.757  35.353  51.398  1.00  0.00     0.137 A 
ATOM      4  C   UNL     1      15.108  35.262  51.192  1.00  0.00     0.064 A 
ATOM      5  C   UNL     1      15.589  34.343  52.095  1.00  0.00     0.054 A 
ATOM      6  C   UNL     1      14.467  33.929  52.805  1.00  0.00     0.196 A 
ATOM      7  O   UNL     1      13.388  34.551  52.366  1.00  0.00    -0.464 OA
ATOM      8  C   UNL     1      15.753  36.017  50.215  1.00  0.00     0.149 A 
ATOM      9  C   UNL     1      14.964  36.895  49.427  1.00  0.00     0.018 A 
ATOM     10  C   UNL     1      15.605  37.655  48.445  1.00  0.00     0.019 A 
ATOM     11  C   UNL     1      16.984  37.527  48.272  1.00  0.00     0.094 A 
ATOM     12  C   UNL     1      17.695  36.638  49.089  1.00  0.00     0.336 A 
ATOM     13  O   UNL     1      18.939  36.513  48.945  1.00  0.00    -0.246 OA
ATOM     14  O   UNL     1      17.065  35.924  50.018  1.00  0.00    -0.422 OA
ENDROOT
TORSDOF 0
ENDMDL
