MODEL 1
REMARK VINA RESULT:    -5.782      0.000      0.000
REMARK INTER + INTRA:          -8.753
REMARK INTER:                  -8.148
REMARK INTRA:                  -0.605
REMARK UNBOUND:                -0.605
REMARK SMILES COc1ccc(-c2cc(=O)c3c(OC)c(OC)c(OC)c(OC)c3o2)cc1OC
REMARK SMILES IDX 7 1 8 2 9 3 10 4 11 5 24 6 25 7 21 8 18 9 15 10 12 11 6 12
REMARK SMILES IDX 3 13 27 14 4 15 26 16 5 17 2 18 1 19 28 20 29 21 22 22 23 23
REMARK SMILES IDX 13 24 14 25 19 26 20 27 16 28 17 29
REMARK H PARENT
REMARK Flexibility Score: inf
ROOT
ATOM      1  C   UNL     1     -49.709  26.719 -15.972  1.00  0.00     0.138 A 
ATOM      2  C   UNL     1     -50.390  27.938 -15.954  1.00  0.00     0.100 A 
ATOM      3  C   UNL     1     -51.634  28.013 -15.332  1.00  0.00     0.197 A 
ATOM      4  O   UNL     1     -52.228  29.125 -15.316  1.00  0.00    -0.289 OA
ATOM      5  C   UNL     1     -52.197  26.858 -14.736  1.00  0.00     0.115 A 
ATOM      6  C   UNL     1     -51.450  25.657 -14.806  1.00  0.00     0.188 A 
ATOM      7  O   UNL     1     -50.258  25.653 -15.399  1.00  0.00    -0.452 OA
ATOM      8  C   UNL     1     -51.965  24.466 -14.251  1.00  0.00     0.209 A 
ATOM      9  C   UNL     1     -53.235  24.473 -13.641  1.00  0.00     0.211 A 
ATOM     10  C   UNL     1     -53.972  25.679 -13.521  1.00  0.00     0.208 A 
ATOM     11  C   UNL     1     -53.457  26.875 -14.087  1.00  0.00     0.179 A 
ENDROOT
BRANCH   1  12
ATOM     12  C   UNL     1     -48.380  26.591 -16.612  1.00  0.00     0.021 A 
ATOM     13  C   UNL     1     -45.873  26.339 -17.878  1.00  0.00     0.160 A 
ATOM     14  C   UNL     1     -46.102  27.396 -16.983  1.00  0.00     0.161 A 
ATOM     15  C   UNL     1     -46.901  25.414 -18.137  1.00  0.00     0.051 A 
ATOM     16  C   UNL     1     -47.356  27.516 -16.352  1.00  0.00     0.062 A 
ATOM     17  C   UNL     1     -48.142  25.546 -17.514  1.00  0.00     0.016 A 
BRANCH  13  18
ATOM     18  O   UNL     1     -44.612  26.245 -18.491  1.00  0.00    -0.493 OA
ATOM     19  C   UNL     1     -44.322  26.694 -19.810  1.00  0.00     0.278 C 
ENDBRANCH  13  18
BRANCH  14  20
ATOM     20  O   UNL     1     -45.059  28.307 -16.749  1.00  0.00    -0.493 OA
ATOM     21  C   UNL     1     -44.406  28.483 -15.496  1.00  0.00     0.278 C 
ENDBRANCH  14  20
ENDBRANCH   1  12
BRANCH   8  22
ATOM     22  O   UNL     1     -51.258  23.248 -14.251  1.00  0.00    -0.490 OA
ATOM     23  C   UNL     1     -51.358  22.196 -15.207  1.00  0.00     0.278 C 
ENDBRANCH   8  22
BRANCH  11  24
ATOM     24  O   UNL     1     -54.154  28.103 -14.038  1.00  0.00    -0.492 OA
ATOM     25  C   UNL     1     -54.250  29.007 -12.940  1.00  0.00     0.278 C 
ENDBRANCH  11  24
BRANCH   9  26
ATOM     26  O   UNL     1     -53.766  23.283 -13.123  1.00  0.00    -0.490 OA
ATOM     27  C   UNL     1     -53.581  22.851 -11.776  1.00  0.00     0.279 C 
ENDBRANCH   9  26
BRANCH  10  28
ATOM     28  O   UNL     1     -55.215  25.737 -12.862  1.00  0.00    -0.490 OA
ATOM     29  C   UNL     1     -55.460  25.971 -11.478  1.00  0.00     0.278 C 
ENDBRANCH  10  28
TORSDOF 7
ENDMDL
MODEL 2
REMARK VINA RESULT:    -5.406     14.736     17.810
REMARK INTER + INTRA:          -8.223
REMARK INTER:                  -7.640
REMARK INTRA:                  -0.582
REMARK UNBOUND:                -0.605
REMARK SMILES COc1ccc(-c2cc(=O)c3c(OC)c(OC)c(OC)c(OC)c3o2)cc1OC
REMARK SMILES IDX 7 1 8 2 9 3 10 4 11 5 24 6 25 7 21 8 18 9 15 10 12 11 6 12
REMARK SMILES IDX 3 13 27 14 4 15 26 16 5 17 2 18 1 19 28 20 29 21 22 22 23 23
REMARK SMILES IDX 13 24 14 25 19 26 20 27 16 28 17 29
REMARK H PARENT
REMARK Flexibility Score: inf
ROOT
ATOM      1  C   UNL     1     -47.983  10.185 -18.620  1.00  0.00     0.138 A 
ATOM      2  C   UNL     1     -46.903   9.497 -19.176  1.00  0.00     0.100 A 
ATOM      3  C   UNL     1     -46.737   9.493 -20.559  1.00  0.00     0.197 A 
ATOM      4  O   UNL     1     -45.749   8.875 -21.040  1.00  0.00    -0.289 OA
ATOM      5  C   UNL     1     -47.665  10.175 -21.383  1.00  0.00     0.115 A 
ATOM      6  C   UNL     1     -48.740  10.841 -20.745  1.00  0.00     0.188 A 
ATOM      7  O   UNL     1     -48.834  10.823 -19.417  1.00  0.00    -0.452 OA
ATOM      8  C   UNL     1     -49.710  11.521 -21.512  1.00  0.00     0.209 A 
ATOM      9  C   UNL     1     -49.615  11.521 -22.917  1.00  0.00     0.211 A 
ATOM     10  C   UNL     1     -48.518  10.899 -23.567  1.00  0.00     0.208 A 
ATOM     11  C   UNL     1     -47.546  10.209 -22.795  1.00  0.00     0.179 A 
ENDROOT
BRANCH   1  12
ATOM     12  C   UNL     1     -48.196  10.226 -17.156  1.00  0.00     0.021 A 
ATOM     13  C   UNL     1     -48.616  10.253 -14.367  1.00  0.00     0.160 A 
ATOM     14  C   UNL     1     -47.452  10.823 -14.905  1.00  0.00     0.161 A 
ATOM     15  C   UNL     1     -49.564   9.670 -15.227  1.00  0.00     0.051 A 
ATOM     16  C   UNL     1     -47.247  10.808 -16.299  1.00  0.00     0.062 A 
ATOM     17  C   UNL     1     -49.349   9.652 -16.606  1.00  0.00     0.016 A 
BRANCH  13  18
ATOM     18  O   UNL     1     -48.792  10.284 -12.974  1.00  0.00    -0.493 OA
ATOM     19  C   UNL     1     -48.756   9.137 -12.131  1.00  0.00     0.278 C 
ENDBRANCH  13  18
BRANCH  14  20
ATOM     20  O   UNL     1     -46.521  11.393 -14.021  1.00  0.00    -0.493 OA
ATOM     21  C   UNL     1     -45.428  12.215 -14.418  1.00  0.00     0.278 C 
ENDBRANCH  14  20
ENDBRANCH   1  12
BRANCH   8  22
ATOM     22  O   UNL     1     -50.781  12.235 -20.939  1.00  0.00    -0.490 OA
ATOM     23  C   UNL     1     -50.698  13.379 -20.094  1.00  0.00     0.278 C 
ENDBRANCH   8  22
BRANCH  11  24
ATOM     24  O   UNL     1     -46.448   9.537 -23.378  1.00  0.00    -0.492 OA
ATOM     25  C   UNL     1     -45.291  10.114 -23.977  1.00  0.00     0.278 C 
ENDBRANCH  11  24
BRANCH   9  26
ATOM     26  O   UNL     1     -50.599  12.162 -23.682  1.00  0.00    -0.490 OA
ATOM     27  C   UNL     1     -51.679  11.481 -24.319  1.00  0.00     0.279 C 
ENDBRANCH   9  26
BRANCH  10  28
ATOM     28  O   UNL     1     -48.354  10.934 -24.965  1.00  0.00    -0.490 OA
ATOM     29  C   UNL     1     -47.884  12.016 -25.763  1.00  0.00     0.278 C 
ENDBRANCH  10  28
TORSDOF 7
ENDMDL
MODEL 3
REMARK VINA RESULT:    -5.309     15.062     17.668
REMARK INTER + INTRA:          -8.086
REMARK INTER:                  -7.374
REMARK INTRA:                  -0.711
REMARK UNBOUND:                -0.605
REMARK SMILES COc1ccc(-c2cc(=O)c3c(OC)c(OC)c(OC)c(OC)c3o2)cc1OC
REMARK SMILES IDX 7 1 8 2 9 3 10 4 11 5 24 6 25 7 21 8 18 9 15 10 12 11 6 12
REMARK SMILES IDX 3 13 27 14 4 15 26 16 5 17 2 18 1 19 28 20 29 21 22 22 23 23
REMARK SMILES IDX 13 24 14 25 19 26 20 27 16 28 17 29
REMARK H PARENT
REMARK Flexibility Score: inf
ROOT
ATOM      1  C   UNL     1     -48.746  11.358 -20.024  1.00  0.00     0.138 A 
ATOM      2  C   UNL     1     -49.961  12.037 -20.141  1.00  0.00     0.100 A 
ATOM      3  C   UNL     1     -50.658  11.981 -21.345  1.00  0.00     0.197 A 
ATOM      4  O   UNL     1     -51.759  12.591 -21.426  1.00  0.00    -0.289 OA
ATOM      5  C   UNL     1     -50.128  11.251 -22.436  1.00  0.00     0.115 A 
ATOM      6  C   UNL     1     -48.885  10.599 -22.243  1.00  0.00     0.188 A 
ATOM      7  O   UNL     1     -48.275  10.675 -21.062  1.00  0.00    -0.452 OA
ATOM      8  C   UNL     1     -48.292   9.873 -23.298  1.00  0.00     0.209 A 
ATOM      9  C   UNL     1     -48.934   9.811 -24.550  1.00  0.00     0.211 A 
ATOM     10  C   UNL     1     -50.201  10.419 -24.743  1.00  0.00     0.208 A 
ATOM     11  C   UNL     1     -50.793  11.156 -23.684  1.00  0.00     0.179 A 
ENDROOT
BRANCH   1  12
ATOM     12  C   UNL     1     -47.973  11.380 -18.762  1.00  0.00     0.021 A 
ATOM     13  C   UNL     1     -46.515  11.470 -16.349  1.00  0.00     0.160 A 
ATOM     14  C   UNL     1     -47.306  10.349 -16.648  1.00  0.00     0.161 A 
ATOM     15  C   UNL     1     -46.460  12.542 -17.258  1.00  0.00     0.051 A 
ATOM     16  C   UNL     1     -48.031  10.309 -17.856  1.00  0.00     0.062 A 
ATOM     17  C   UNL     1     -47.187  12.496 -18.448  1.00  0.00     0.016 A 
BRANCH  13  18
ATOM     18  O   UNL     1     -45.804  11.481 -15.138  1.00  0.00    -0.493 OA
ATOM     19  C   UNL     1     -45.704  12.606 -14.272  1.00  0.00     0.278 C 
ENDBRANCH  13  18
BRANCH  14  20
ATOM     20  O   UNL     1     -47.347   9.297 -15.718  1.00  0.00    -0.493 OA
ATOM     21  C   UNL     1     -48.401   9.084 -14.785  1.00  0.00     0.278 C 
ENDBRANCH  14  20
ENDBRANCH   1  12
BRANCH   8  22
ATOM     22  O   UNL     1     -47.078   9.170 -23.161  1.00  0.00    -0.490 OA
ATOM     23  C   UNL     1     -45.761   9.695 -23.295  1.00  0.00     0.278 C 
ENDBRANCH   8  22
BRANCH  11  24
ATOM     24  O   UNL     1     -52.035  11.817 -23.817  1.00  0.00    -0.492 OA
ATOM     25  C   UNL     1     -52.418  12.759 -24.815  1.00  0.00     0.278 C 
ENDBRANCH  11  24
BRANCH   9  26
ATOM     26  O   UNL     1     -48.328   9.123 -25.610  1.00  0.00    -0.490 OA
ATOM     27  C   UNL     1     -47.561   9.757 -26.633  1.00  0.00     0.279 C 
ENDBRANCH   9  26
BRANCH  10  28
ATOM     28  O   UNL     1     -50.902  10.324 -25.960  1.00  0.00    -0.490 OA
ATOM     29  C   UNL     1     -51.841   9.328 -26.353  1.00  0.00     0.278 C 
ENDBRANCH  10  28
TORSDOF 7
ENDMDL
MODEL 4
REMARK VINA RESULT:    -5.172      1.668      8.585
REMARK INTER + INTRA:          -7.893
REMARK INTER:                  -7.491
REMARK INTRA:                  -0.402
REMARK UNBOUND:                -0.605
REMARK SMILES COc1ccc(-c2cc(=O)c3c(OC)c(OC)c(OC)c(OC)c3o2)cc1OC
REMARK SMILES IDX 7 1 8 2 9 3 10 4 11 5 24 6 25 7 21 8 18 9 15 10 12 11 6 12
REMARK SMILES IDX 3 13 27 14 4 15 26 16 5 17 2 18 1 19 28 20 29 21 22 22 23 23
REMARK SMILES IDX 13 24 14 25 19 26 20 27 16 28 17 29
REMARK H PARENT
REMARK Flexibility Score: inf
ROOT
ATOM      1  C   UNL     1     -49.112  25.455 -15.784  1.00  0.00     0.138 A 
ATOM      2  C   UNL     1     -48.701  24.826 -16.961  1.00  0.00     0.100 A 
ATOM      3  C   UNL     1     -47.465  25.155 -17.512  1.00  0.00     0.197 A 
ATOM      4  O   UNL     1     -47.107  24.569 -18.569  1.00  0.00    -0.289 OA
ATOM      5  C   UNL     1     -46.646  26.124 -16.883  1.00  0.00     0.115 A 
ATOM      6  C   UNL     1     -47.138  26.725 -15.698  1.00  0.00     0.188 A 
ATOM      7  O   UNL     1     -48.320  26.356 -15.211  1.00  0.00    -0.452 OA
ATOM      8  C   UNL     1     -46.380  27.714 -15.035  1.00  0.00     0.209 A 
ATOM      9  C   UNL     1     -45.138  28.113 -15.565  1.00  0.00     0.211 A 
ATOM     10  C   UNL     1     -44.611  27.486 -16.724  1.00  0.00     0.208 A 
ATOM     11  C   UNL     1     -45.378  26.497 -17.395  1.00  0.00     0.179 A 
ENDROOT
BRANCH   1  12
ATOM     12  C   UNL     1     -50.413  25.132 -15.155  1.00  0.00     0.021 A 
ATOM     13  C   UNL     1     -52.865  24.488 -13.921  1.00  0.00     0.160 A 
ATOM     14  C   UNL     1     -52.598  25.814 -14.296  1.00  0.00     0.161 A 
ATOM     15  C   UNL     1     -51.903  23.491 -14.163  1.00  0.00     0.051 A 
ATOM     16  C   UNL     1     -51.371  26.130 -14.913  1.00  0.00     0.062 A 
ATOM     17  C   UNL     1     -50.688  23.814 -14.768  1.00  0.00     0.016 A 
BRANCH  13  18
ATOM     18  O   UNL     1     -54.097  24.204 -13.308  1.00  0.00    -0.493 OA
ATOM     19  C   UNL     1     -54.241  23.533 -12.060  1.00  0.00     0.278 C 
ENDBRANCH  13  18
BRANCH  14  20
ATOM     20  O   UNL     1     -53.574  26.789 -14.036  1.00  0.00    -0.493 OA
ATOM     21  C   UNL     1     -53.484  28.151 -14.441  1.00  0.00     0.278 C 
ENDBRANCH  14  20
ENDBRANCH   1  12
BRANCH   8  22
ATOM     22  O   UNL     1     -46.792  28.322 -13.833  1.00  0.00    -0.490 OA
ATOM     23  C   UNL     1     -47.985  29.070 -13.613  1.00  0.00     0.278 C 
ENDBRANCH   8  22
BRANCH  11  24
ATOM     24  O   UNL     1     -44.933  25.858 -18.573  1.00  0.00    -0.492 OA
ATOM     25  C   UNL     1     -44.910  26.387 -19.896  1.00  0.00     0.278 C 
ENDBRANCH  11  24
BRANCH   9  26
ATOM     26  O   UNL     1     -44.401  29.123 -14.930  1.00  0.00    -0.490 OA
ATOM     27  C   UNL     1     -43.266  28.875 -14.101  1.00  0.00     0.279 C 
ENDBRANCH   9  26
BRANCH  10  28
ATOM     28  O   UNL     1     -43.345  27.814 -17.246  1.00  0.00    -0.490 OA
ATOM     29  C   UNL     1     -43.035  28.786 -18.239  1.00  0.00     0.278 C 
ENDBRANCH  10  28
TORSDOF 7
ENDMDL
MODEL 5
REMARK VINA RESULT:    -4.782      1.660      2.351
REMARK INTER + INTRA:          -7.343
REMARK INTER:                  -7.165
REMARK INTRA:                  -0.178
REMARK UNBOUND:                -0.605
REMARK SMILES COc1ccc(-c2cc(=O)c3c(OC)c(OC)c(OC)c(OC)c3o2)cc1OC
REMARK SMILES IDX 7 1 8 2 9 3 10 4 11 5 24 6 25 7 21 8 18 9 15 10 12 11 6 12
REMARK SMILES IDX 3 13 27 14 4 15 26 16 5 17 2 18 1 19 28 20 29 21 22 22 23 23
REMARK SMILES IDX 13 24 14 25 19 26 20 27 16 28 17 29
REMARK H PARENT
REMARK Flexibility Score: inf
ROOT
ATOM      1  C   UNL     1     -51.843  27.161 -15.166  1.00  0.00     0.138 A 
ATOM      2  C   UNL     1     -52.719  28.245 -15.094  1.00  0.00     0.100 A 
ATOM      3  C   UNL     1     -53.881  28.131 -14.334  1.00  0.00     0.197 A 
ATOM      4  O   UNL     1     -54.654  29.125 -14.271  1.00  0.00    -0.289 OA
ATOM      5  C   UNL     1     -54.165  26.921 -13.655  1.00  0.00     0.115 A 
ATOM      6  C   UNL     1     -53.232  25.863 -13.787  1.00  0.00     0.188 A 
ATOM      7  O   UNL     1     -52.131  26.040 -14.513  1.00  0.00    -0.452 OA
ATOM      8  C   UNL     1     -53.468  24.625 -13.153  1.00  0.00     0.209 A 
ATOM      9  C   UNL     1     -54.644  24.439 -12.400  1.00  0.00     0.211 A 
ATOM     10  C   UNL     1     -55.563  25.504 -12.220  1.00  0.00     0.208 A 
ATOM     11  C   UNL     1     -55.329  26.748 -12.865  1.00  0.00     0.179 A 
ENDROOT
BRANCH   1  12
ATOM     12  C   UNL     1     -50.591  27.237 -15.953  1.00  0.00     0.021 A 
ATOM     13  C   UNL     1     -48.229  27.417 -17.484  1.00  0.00     0.160 A 
ATOM     14  C   UNL     1     -48.159  27.455 -16.083  1.00  0.00     0.161 A 
ATOM     15  C   UNL     1     -49.481  27.292 -18.113  1.00  0.00     0.051 A 
ATOM     16  C   UNL     1     -49.342  27.364 -15.323  1.00  0.00     0.062 A 
ATOM     17  C   UNL     1     -50.648  27.210 -17.353  1.00  0.00     0.016 A 
BRANCH  13  18
ATOM     18  O   UNL     1     -47.033  27.510 -18.215  1.00  0.00    -0.493 OA
ATOM     19  C   UNL     1     -46.177  26.410 -18.503  1.00  0.00     0.278 C 
ENDBRANCH  13  18
BRANCH  14  20
ATOM     20  O   UNL     1     -46.896  27.588 -15.483  1.00  0.00    -0.493 OA
ATOM     21  C   UNL     1     -46.314  26.630 -14.604  1.00  0.00     0.278 C 
ENDBRANCH  14  20
ENDBRANCH   1  12
BRANCH   8  22
ATOM     22  O   UNL     1     -52.563  23.546 -13.211  1.00  0.00    -0.490 OA
ATOM     23  C   UNL     1     -51.794  23.129 -14.335  1.00  0.00     0.278 C 
ENDBRANCH   8  22
BRANCH  11  24
ATOM     24  O   UNL     1     -56.220  27.839 -12.760  1.00  0.00    -0.492 OA
ATOM     25  C   UNL     1     -56.778  28.397 -11.573  1.00  0.00     0.278 C 
ENDBRANCH  11  24
BRANCH   9  26
ATOM     26  O   UNL     1     -54.899  23.197 -11.802  1.00  0.00    -0.490 OA
ATOM     27  C   UNL     1     -54.639  22.909 -10.428  1.00  0.00     0.279 C 
ENDBRANCH   9  26
BRANCH  10  28
ATOM     28  O   UNL     1     -56.716  25.376 -11.423  1.00  0.00    -0.490 OA
ATOM     29  C   UNL     1     -57.939  24.725 -11.754  1.00  0.00     0.278 C 
ENDBRANCH  10  28
TORSDOF 7
ENDMDL
MODEL 6
REMARK VINA RESULT:    -4.781      1.493      3.595
REMARK INTER + INTRA:          -7.342
REMARK INTER:                  -6.931
REMARK INTRA:                  -0.411
REMARK UNBOUND:                -0.605
REMARK SMILES COc1ccc(-c2cc(=O)c3c(OC)c(OC)c(OC)c(OC)c3o2)cc1OC
REMARK SMILES IDX 7 1 8 2 9 3 10 4 11 5 24 6 25 7 21 8 18 9 15 10 12 11 6 12
REMARK SMILES IDX 3 13 27 14 4 15 26 16 5 17 2 18 1 19 28 20 29 21 22 22 23 23
REMARK SMILES IDX 13 24 14 25 19 26 20 27 16 28 17 29
REMARK H PARENT
REMARK Flexibility Score: inf
ROOT
ATOM      1  C   UNL     1     -50.620  25.841 -15.158  1.00  0.00     0.138 A 
ATOM      2  C   UNL     1     -50.701  24.489 -14.819  1.00  0.00     0.100 A 
ATOM      3  C   UNL     1     -51.825  24.023 -14.140  1.00  0.00     0.197 A 
ATOM      4  O   UNL     1     -51.884  22.798 -13.854  1.00  0.00    -0.289 OA
ATOM      5  C   UNL     1     -52.863  24.922 -13.794  1.00  0.00     0.115 A 
ATOM      6  C   UNL     1     -52.702  26.280 -14.163  1.00  0.00     0.188 A 
ATOM      7  O   UNL     1     -51.613  26.661 -14.826  1.00  0.00    -0.452 OA
ATOM      8  C   UNL     1     -53.691  27.230 -13.827  1.00  0.00     0.209 A 
ATOM      9  C   UNL     1     -54.833  26.824 -13.110  1.00  0.00     0.211 A 
ATOM     10  C   UNL     1     -55.030  25.460 -12.776  1.00  0.00     0.208 A 
ATOM     11  C   UNL     1     -54.031  24.506 -13.106  1.00  0.00     0.179 A 
ENDROOT
BRANCH   1  12
ATOM     12  C   UNL     1     -49.451  26.381 -15.887  1.00  0.00     0.021 A 
ATOM     13  C   UNL     1     -47.251  27.452 -17.291  1.00  0.00     0.160 A 
ATOM     14  C   UNL     1     -47.072  26.937 -15.998  1.00  0.00     0.161 A 
ATOM     15  C   UNL     1     -48.531  27.430 -17.876  1.00  0.00     0.051 A 
ATOM     16  C   UNL     1     -48.175  26.402 -15.301  1.00  0.00     0.062 A 
ATOM     17  C   UNL     1     -49.618  26.906 -17.175  1.00  0.00     0.016 A 
BRANCH  13  18
ATOM     18  O   UNL     1     -46.134  27.978 -17.961  1.00  0.00    -0.493 OA
ATOM     19  C   UNL     1     -45.254  27.216 -18.781  1.00  0.00     0.278 C 
ENDBRANCH  13  18
BRANCH  14  20
ATOM     20  O   UNL     1     -45.785  26.978 -15.438  1.00  0.00    -0.493 OA
ATOM     21  C   UNL     1     -45.513  27.143 -14.050  1.00  0.00     0.278 C 
ENDBRANCH  14  20
ENDBRANCH   1  12
BRANCH   8  22
ATOM     22  O   UNL     1     -53.611  28.587 -14.198  1.00  0.00    -0.490 OA
ATOM     23  C   UNL     1     -53.683  29.125 -15.515  1.00  0.00     0.278 C 
ENDBRANCH   8  22
BRANCH  11  24
ATOM     24  O   UNL     1     -54.144  23.138 -12.773  1.00  0.00    -0.492 OA
ATOM     25  C   UNL     1     -53.874  22.522 -11.517  1.00  0.00     0.278 C 
ENDBRANCH  11  24
BRANCH   9  26
ATOM     26  O   UNL     1     -55.798  27.772 -12.742  1.00  0.00    -0.490 OA
ATOM     27  C   UNL     1     -55.885  28.353 -11.441  1.00  0.00     0.279 C 
ENDBRANCH   9  26
BRANCH  10  28
ATOM     28  O   UNL     1     -56.189  25.007 -12.116  1.00  0.00    -0.490 OA
ATOM     29  C   UNL     1     -56.382  24.828 -10.716  1.00  0.00     0.278 C 
ENDBRANCH  10  28
TORSDOF 7
ENDMDL
MODEL 7
REMARK VINA RESULT:    -4.635     14.958     18.729
REMARK INTER + INTRA:          -7.136
REMARK INTER:                  -6.482
REMARK INTRA:                  -0.655
REMARK UNBOUND:                -0.605
REMARK SMILES COc1ccc(-c2cc(=O)c3c(OC)c(OC)c(OC)c(OC)c3o2)cc1OC
REMARK SMILES IDX 7 1 8 2 9 3 10 4 11 5 24 6 25 7 21 8 18 9 15 10 12 11 6 12
REMARK SMILES IDX 3 13 27 14 4 15 26 16 5 17 2 18 1 19 28 20 29 21 22 22 23 23
REMARK SMILES IDX 13 24 14 25 19 26 20 27 16 28 17 29
REMARK H PARENT
REMARK Flexibility Score: inf
ROOT
ATOM      1  C   UNL     1     -47.498  11.709 -22.463  1.00  0.00     0.138 A 
ATOM      2  C   UNL     1     -47.992  12.866 -23.068  1.00  0.00     0.100 A 
ATOM      3  C   UNL     1     -47.543  13.214 -24.339  1.00  0.00     0.197 A 
ATOM      4  O   UNL     1     -48.011  14.256 -24.874  1.00  0.00    -0.289 OA
ATOM      5  C   UNL     1     -46.588  12.403 -24.998  1.00  0.00     0.115 A 
ATOM      6  C   UNL     1     -46.126  11.251 -24.314  1.00  0.00     0.188 A 
ATOM      7  O   UNL     1     -46.607  10.962 -23.106  1.00  0.00    -0.452 OA
ATOM      8  C   UNL     1     -45.157  10.413 -24.906  1.00  0.00     0.209 A 
ATOM      9  C   UNL     1     -44.640  10.734 -26.176  1.00  0.00     0.211 A 
ATOM     10  C   UNL     1     -45.128  11.857 -26.893  1.00  0.00     0.208 A 
ATOM     11  C   UNL     1     -46.096  12.704 -26.293  1.00  0.00     0.179 A 
ENDROOT
BRANCH   1  12
ATOM     12  C   UNL     1     -47.952  11.293 -21.117  1.00  0.00     0.021 A 
ATOM     13  C   UNL     1     -48.825  10.450 -18.570  1.00  0.00     0.160 A 
ATOM     14  C   UNL     1     -47.668  11.236 -18.689  1.00  0.00     0.161 A 
ATOM     15  C   UNL     1     -49.538  10.087 -19.727  1.00  0.00     0.051 A 
ATOM     16  C   UNL     1     -47.237  11.656 -19.964  1.00  0.00     0.062 A 
ATOM     17  C   UNL     1     -49.099  10.500 -20.986  1.00  0.00     0.016 A 
BRANCH  13  18
ATOM     18  O   UNL     1     -49.230  10.048 -17.287  1.00  0.00    -0.493 OA
ATOM     19  C   UNL     1     -48.767   8.875 -16.626  1.00  0.00     0.278 C 
ENDBRANCH  13  18
BRANCH  14  20
ATOM     20  O   UNL     1     -46.973  11.578 -17.517  1.00  0.00    -0.493 OA
ATOM     21  C   UNL     1     -46.470  12.878 -17.226  1.00  0.00     0.278 C 
ENDBRANCH  14  20
ENDBRANCH   1  12
BRANCH   8  22
ATOM     22  O   UNL     1     -44.685   9.234 -24.298  1.00  0.00    -0.490 OA
ATOM     23  C   UNL     1     -43.669   9.126 -23.304  1.00  0.00     0.278 C 
ENDBRANCH   8  22
BRANCH  11  24
ATOM     24  O   UNL     1     -46.600  13.859 -26.933  1.00  0.00    -0.492 OA
ATOM     25  C   UNL     1     -45.857  14.929 -27.511  1.00  0.00     0.278 C 
ENDBRANCH  11  24
BRANCH   9  26
ATOM     26  O   UNL     1     -43.649   9.925 -26.750  1.00  0.00    -0.490 OA
ATOM     27  C   UNL     1     -42.249  10.153 -26.597  1.00  0.00     0.279 C 
ENDBRANCH   9  26
BRANCH  10  28
ATOM     28  O   UNL     1     -44.681  12.173 -28.190  1.00  0.00    -0.490 OA
ATOM     29  C   UNL     1     -45.180  11.681 -29.430  1.00  0.00     0.278 C 
ENDBRANCH  10  28
TORSDOF 7
ENDMDL
MODEL 8
REMARK VINA RESULT:    -4.479     15.011     17.881
REMARK INTER + INTRA:          -6.917
REMARK INTER:                  -6.283
REMARK INTRA:                  -0.634
REMARK UNBOUND:                -0.605
REMARK SMILES COc1ccc(-c2cc(=O)c3c(OC)c(OC)c(OC)c(OC)c3o2)cc1OC
REMARK SMILES IDX 7 1 8 2 9 3 10 4 11 5 24 6 25 7 21 8 18 9 15 10 12 11 6 12
REMARK SMILES IDX 3 13 27 14 4 15 26 16 5 17 2 18 1 19 28 20 29 21 22 22 23 23
REMARK SMILES IDX 13 24 14 25 19 26 20 27 16 28 17 29
REMARK H PARENT
REMARK Flexibility Score: inf
ROOT
ATOM      1  C   UNL     1     -48.799  10.742 -19.474  1.00  0.00     0.138 A 
ATOM      2  C   UNL     1     -49.863  11.595 -19.773  1.00  0.00     0.100 A 
ATOM      3  C   UNL     1     -50.189  11.835 -21.105  1.00  0.00     0.197 A 
ATOM      4  O   UNL     1     -51.160  12.599 -21.355  1.00  0.00    -0.289 OA
ATOM      5  C   UNL     1     -49.438  11.222 -22.138  1.00  0.00     0.115 A 
ATOM      6  C   UNL     1     -48.367  10.378 -21.754  1.00  0.00     0.188 A 
ATOM      7  O   UNL     1     -48.115  10.175 -20.462  1.00  0.00    -0.452 OA
ATOM      8  C   UNL     1     -47.565   9.756 -22.735  1.00  0.00     0.209 A 
ATOM      9  C   UNL     1     -47.825   9.990 -24.099  1.00  0.00     0.211 A 
ATOM     10  C   UNL     1     -48.924  10.793 -24.498  1.00  0.00     0.208 A 
ATOM     11  C   UNL     1     -49.725  11.426 -23.511  1.00  0.00     0.179 A 
ENDROOT
BRANCH   1  12
ATOM     12  C   UNL     1     -48.420  10.449 -18.073  1.00  0.00     0.021 A 
ATOM     13  C   UNL     1     -47.702   9.839 -15.414  1.00  0.00     0.160 A 
ATOM     14  C   UNL     1     -46.980  10.807 -16.130  1.00  0.00     0.161 A 
ATOM     15  C   UNL     1     -48.779   9.178 -16.034  1.00  0.00     0.051 A 
ATOM     16  C   UNL     1     -47.344  11.108 -17.457  1.00  0.00     0.062 A 
ATOM     17  C   UNL     1     -49.127   9.478 -17.351  1.00  0.00     0.016 A 
BRANCH  13  18
ATOM     18  O   UNL     1     -47.317   9.560 -14.093  1.00  0.00    -0.493 OA
ATOM     19  C   UNL     1     -47.955  10.093 -12.937  1.00  0.00     0.278 C 
ENDBRANCH  13  18
BRANCH  14  20
ATOM     20  O   UNL     1     -45.907  11.444 -15.488  1.00  0.00    -0.493 OA
ATOM     21  C   UNL     1     -45.981  12.724 -14.867  1.00  0.00     0.278 C 
ENDBRANCH  14  20
ENDBRANCH   1  12
BRANCH   8  22
ATOM     22  O   UNL     1     -46.511   8.875 -22.422  1.00  0.00    -0.490 OA
ATOM     23  C   UNL     1     -45.121   9.182 -22.373  1.00  0.00     0.278 C 
ENDBRANCH   8  22
BRANCH  11  24
ATOM     24  O   UNL     1     -50.811  12.269 -23.836  1.00  0.00    -0.492 OA
ATOM     25  C   UNL     1     -52.063  11.896 -24.406  1.00  0.00     0.278 C 
ENDBRANCH  11  24
BRANCH   9  26
ATOM     26  O   UNL     1     -47.007   9.403 -25.075  1.00  0.00    -0.490 OA
ATOM     27  C   UNL     1     -46.003  10.112 -25.799  1.00  0.00     0.279 C 
ENDBRANCH   9  26
BRANCH  10  28
ATOM     28  O   UNL     1     -49.253  10.998 -25.852  1.00  0.00    -0.490 OA
ATOM     29  C   UNL     1     -49.816  10.060 -26.765  1.00  0.00     0.278 C 
ENDBRANCH  10  28
TORSDOF 7
ENDMDL
