MODEL 1
REMARK VINA RESULT:    -2.100      0.000      0.000
REMARK INTER + INTRA:          -6.364
REMARK INTER:                  -3.819
REMARK INTRA:                  -2.545
REMARK UNBOUND:                -2.545
REMARK SMILES CCCCCCCCCCCCCC[C@@H](C)C(=O)[O-]
REMARK SMILES IDX 9 1 10 2 11 3 12 4 13 5 14 6 15 7 16 8 17 9 18 10 19 11 8 12
REMARK SMILES IDX 7 13 6 14 5 15 4 16 3 17 2 18 1 19
REMARK H PARENT
REMARK Flexibility Score: inf
ROOT
ATOM      1  C   UNL     1     178.712 207.138 197.467  1.00  0.00     0.000 C 
ENDROOT
BRANCH   1   2
ATOM      2  C   UNL     1     179.867 206.209 197.874  1.00  0.00     0.000 C 
BRANCH   2   3
ATOM      3  C   UNL     1     180.971 206.995 198.599  1.00  0.00     0.000 C 
BRANCH   3   4
ATOM      4  C   UNL     1     180.775 207.028 200.124  1.00  0.00     0.000 C 
BRANCH   4   5
ATOM      5  C   UNL     1     180.592 205.623 200.725  1.00  0.00     0.001 C 
BRANCH   5   6
ATOM      6  C   UNL     1     179.415 205.543 201.717  1.00  0.00     0.009 C 
BRANCH   6   7
ATOM      7  C   UNL     1     178.577 204.245 201.639  1.00  0.00     0.032 C 
ATOM      8  C   UNL     1     178.003 204.001 200.236  1.00  0.00     0.014 C 
BRANCH   7   9
ATOM      9  C   UNL     1     179.429 203.075 202.046  1.00  0.00     0.044 C 
ATOM     10  O   UNL     1     180.088 203.114 203.119  1.00  0.00    -0.550 OA
ATOM     11  O   UNL     1     179.506 201.946 201.237  1.00  0.00    -0.550 OA
ENDBRANCH   7   9
ENDBRANCH   6   7
ENDBRANCH   5   6
ENDBRANCH   4   5
ENDBRANCH   3   4
ENDBRANCH   2   3
ENDBRANCH   1   2
BRANCH   1  12
ATOM     12  C   UNL     1     177.353 206.672 198.013  1.00  0.00     0.000 C 
BRANCH  12  13
ATOM     13  C   UNL     1     176.637 207.763 198.827  1.00  0.00    -0.000 C 
BRANCH  13  14
ATOM     14  C   UNL     1     177.368 208.097 200.138  1.00  0.00    -0.000 C 
BRANCH  14  15
ATOM     15  C   UNL     1     176.472 207.913 201.376  1.00  0.00    -0.000 C 
BRANCH  15  16
ATOM     16  C   UNL     1     174.975 207.899 201.025  1.00  0.00    -0.000 C 
BRANCH  16  17
ATOM     17  C   UNL     1     174.315 206.537 201.293  1.00  0.00    -0.000 C 
BRANCH  17  18
ATOM     18  C   UNL     1     175.196 205.669 202.198  1.00  0.00    -0.003 C 
ATOM     19  C   UNL     1     174.777 204.203 202.135  1.00  0.00     0.004 C 
ENDBRANCH  17  18
ENDBRANCH  16  17
ENDBRANCH  15  16
ENDBRANCH  14  15
ENDBRANCH  13  14
ENDBRANCH  12  13
ENDBRANCH   1  12
TORSDOF 14
ENDMDL
MODEL 2
REMARK VINA RESULT:    -2.083      3.027      4.980
REMARK INTER + INTRA:          -6.334
REMARK INTER:                  -3.409
REMARK INTRA:                  -2.925
REMARK UNBOUND:                -2.545
REMARK SMILES CCCCCCCCCCCCCC[C@@H](C)C(=O)[O-]
REMARK SMILES IDX 9 1 10 2 11 3 12 4 13 5 14 6 15 7 16 8 17 9 18 10 19 11 8 12
REMARK SMILES IDX 7 13 6 14 5 15 4 16 3 17 2 18 1 19
REMARK H PARENT
REMARK Flexibility Score: inf
ROOT
ATOM      1  C   UNL     1     174.590 204.046 200.815  1.00  0.00     0.000 C 
ENDROOT
BRANCH   1   2
ATOM      2  C   UNL     1     175.282 205.198 201.562  1.00  0.00     0.000 C 
BRANCH   2   3
ATOM      3  C   UNL     1     174.330 206.393 201.726  1.00  0.00     0.000 C 
BRANCH   3   4
ATOM      4  C   UNL     1     174.923 207.704 201.184  1.00  0.00     0.000 C 
BRANCH   4   5
ATOM      5  C   UNL     1     176.437 207.815 201.435  1.00  0.00     0.001 C 
BRANCH   5   6
ATOM      6  C   UNL     1     177.239 208.121 200.155  1.00  0.00     0.009 C 
BRANCH   6   7
ATOM      7  C   UNL     1     178.666 207.528 200.115  1.00  0.00     0.032 C 
ATOM      8  C   UNL     1     178.772 206.200 200.877  1.00  0.00     0.014 C 
BRANCH   7   9
ATOM      9  C   UNL     1     179.082 207.324 198.684  1.00  0.00     0.044 C 
ATOM     10  O   UNL     1     178.227 207.384 197.761  1.00  0.00    -0.550 OA
ATOM     11  O   UNL     1     180.411 207.056 198.370  1.00  0.00    -0.550 OA
ENDBRANCH   7   9
ENDBRANCH   6   7
ENDBRANCH   5   6
ENDBRANCH   4   5
ENDBRANCH   3   4
ENDBRANCH   2   3
ENDBRANCH   1   2
BRANCH   1  12
ATOM     12  C   UNL     1     175.275 203.704 199.482  1.00  0.00     0.000 C 
BRANCH  12  13
ATOM     13  C   UNL     1     175.963 204.922 198.842  1.00  0.00    -0.000 C 
BRANCH  13  14
ATOM     14  C   UNL     1     175.287 205.362 197.533  1.00  0.00    -0.000 C 
BRANCH  14  15
ATOM     15  C   UNL     1     174.779 206.814 197.591  1.00  0.00    -0.000 C 
BRANCH  15  16
ATOM     16  C   UNL     1     173.256 206.914 197.413  1.00  0.00    -0.000 C 
BRANCH  16  17
ATOM     17  C   UNL     1     172.478 206.274 198.574  1.00  0.00    -0.000 C 
BRANCH  17  18
ATOM     18  C   UNL     1     171.780 204.987 198.122  1.00  0.00    -0.003 C 
ATOM     19  C   UNL     1     171.304 204.168 199.318  1.00  0.00     0.004 C 
ENDBRANCH  17  18
ENDBRANCH  16  17
ENDBRANCH  15  16
ENDBRANCH  14  15
ENDBRANCH  13  14
ENDBRANCH  12  13
ENDBRANCH   1  12
TORSDOF 14
ENDMDL
MODEL 3
REMARK VINA RESULT:    -2.063      3.047      6.053
REMARK INTER + INTRA:          -6.296
REMARK INTER:                  -3.646
REMARK INTRA:                  -2.649
REMARK UNBOUND:                -2.545
REMARK SMILES CCCCCCCCCCCCCC[C@@H](C)C(=O)[O-]
REMARK SMILES IDX 9 1 10 2 11 3 12 4 13 5 14 6 15 7 16 8 17 9 18 10 19 11 8 12
REMARK SMILES IDX 7 13 6 14 5 15 4 16 3 17 2 18 1 19
REMARK H PARENT
REMARK Flexibility Score: inf
ROOT
ATOM      1  C   UNL     1     176.518 204.364 199.871  1.00  0.00     0.000 C 
ENDROOT
BRANCH   1   2
ATOM      2  C   UNL     1     176.123 204.265 201.353  1.00  0.00     0.000 C 
BRANCH   2   3
ATOM      3  C   UNL     1     175.541 205.597 201.854  1.00  0.00     0.000 C 
BRANCH   3   4
ATOM      4  C   UNL     1     176.610 206.690 202.014  1.00  0.00     0.000 C 
BRANCH   4   5
ATOM      5  C   UNL     1     176.241 207.989 201.277  1.00  0.00     0.001 C 
BRANCH   5   6
ATOM      6  C   UNL     1     174.766 208.030 200.834  1.00  0.00     0.009 C 
BRANCH   6   7
ATOM      7  C   UNL     1     174.539 208.125 199.307  1.00  0.00     0.032 C 
ATOM      8  C   UNL     1     175.806 207.799 198.505  1.00  0.00     0.014 C 
BRANCH   7   9
ATOM      9  C   UNL     1     173.433 207.187 198.908  1.00  0.00     0.044 C 
ATOM     10  O   UNL     1     173.701 206.018 198.523  1.00  0.00    -0.550 OA
ATOM     11  O   UNL     1     172.107 207.606 198.950  1.00  0.00    -0.550 OA
ENDBRANCH   7   9
ENDBRANCH   6   7
ENDBRANCH   5   6
ENDBRANCH   4   5
ENDBRANCH   3   4
ENDBRANCH   2   3
ENDBRANCH   1   2
BRANCH   1  12
ATOM     12  C   UNL     1     177.938 203.841 199.597  1.00  0.00     0.000 C 
BRANCH  12  13
ATOM     13  C   UNL     1     178.482 202.977 200.748  1.00  0.00    -0.000 C 
BRANCH  13  14
ATOM     14  C   UNL     1     179.821 203.500 201.295  1.00  0.00    -0.000 C 
BRANCH  14  15
ATOM     15  C   UNL     1     179.635 204.527 202.427  1.00  0.00    -0.000 C 
BRANCH  15  16
ATOM     16  C   UNL     1     180.421 205.825 202.180  1.00  0.00    -0.000 C 
BRANCH  16  17
ATOM     17  C   UNL     1     181.005 205.905 200.761  1.00  0.00    -0.000 C 
BRANCH  17  18
ATOM     18  C   UNL     1     180.712 207.269 200.124  1.00  0.00    -0.003 C 
ATOM     19  C   UNL     1     179.337 207.285 199.463  1.00  0.00     0.004 C 
ENDBRANCH  17  18
ENDBRANCH  16  17
ENDBRANCH  15  16
ENDBRANCH  14  15
ENDBRANCH  13  14
ENDBRANCH  12  13
ENDBRANCH   1  12
TORSDOF 14
ENDMDL
MODEL 4
REMARK VINA RESULT:    -2.052      4.032      6.513
REMARK INTER + INTRA:          -6.276
REMARK INTER:                  -3.670
REMARK INTRA:                  -2.606
REMARK UNBOUND:                -2.545
REMARK SMILES CCCCCCCCCCCCCC[C@@H](C)C(=O)[O-]
REMARK SMILES IDX 9 1 10 2 11 3 12 4 13 5 14 6 15 7 16 8 17 9 18 10 19 11 8 12
REMARK SMILES IDX 7 13 6 14 5 15 4 16 3 17 2 18 1 19
REMARK H PARENT
REMARK Flexibility Score: inf
ROOT
ATOM      1  C   UNL     1     173.968 205.777 199.606  1.00  0.00     0.000 C 
ENDROOT
BRANCH   1   2
ATOM      2  C   UNL     1     174.985 204.915 198.841  1.00  0.00     0.000 C 
BRANCH   2   3
ATOM      3  C   UNL     1     175.836 205.779 197.898  1.00  0.00     0.000 C 
BRANCH   3   4
ATOM      4  C   UNL     1     175.344 207.234 197.819  1.00  0.00     0.000 C 
BRANCH   4   5
ATOM      5  C   UNL     1     176.269 208.125 196.973  1.00  0.00     0.001 C 
BRANCH   5   6
ATOM      6  C   UNL     1     176.299 207.721 195.486  1.00  0.00     0.009 C 
BRANCH   6   7
ATOM      7  C   UNL     1     177.672 207.870 194.791  1.00  0.00     0.032 C 
ATOM      8  C   UNL     1     178.627 206.716 195.124  1.00  0.00     0.014 C 
BRANCH   7   9
ATOM      9  C   UNL     1     177.471 207.946 193.302  1.00  0.00     0.044 C 
ATOM     10  O   UNL     1     178.466 207.968 192.529  1.00  0.00    -0.550 OA
ATOM     11  O   UNL     1     176.188 208.004 192.768  1.00  0.00    -0.550 OA
ENDBRANCH   7   9
ENDBRANCH   6   7
ENDBRANCH   5   6
ENDBRANCH   4   5
ENDBRANCH   3   4
ENDBRANCH   2   3
ENDBRANCH   1   2
BRANCH   1  12
ATOM     12  C   UNL     1     174.320 205.934 201.094  1.00  0.00     0.000 C 
BRANCH  12  13
ATOM     13  C   UNL     1     174.676 207.383 201.468  1.00  0.00    -0.000 C 
BRANCH  13  14
ATOM     14  C   UNL     1     176.193 207.618 201.542  1.00  0.00    -0.000 C 
BRANCH  14  15
ATOM     15  C   UNL     1     176.985 206.310 201.725  1.00  0.00    -0.000 C 
BRANCH  15  16
ATOM     16  C   UNL     1     178.283 206.286 200.903  1.00  0.00    -0.000 C 
BRANCH  16  17
ATOM     17  C   UNL     1     178.489 207.568 200.081  1.00  0.00    -0.000 C 
BRANCH  17  18
ATOM     18  C   UNL     1     179.331 207.288 198.831  1.00  0.00    -0.003 C 
ATOM     19  C   UNL     1     179.484 205.789 198.593  1.00  0.00     0.004 C 
ENDBRANCH  17  18
ENDBRANCH  16  17
ENDBRANCH  15  16
ENDBRANCH  14  15
ENDBRANCH  13  14
ENDBRANCH  12  13
ENDBRANCH   1  12
TORSDOF 14
ENDMDL
MODEL 5
REMARK VINA RESULT:    -2.027      2.808      4.664
REMARK INTER + INTRA:          -6.231
REMARK INTER:                  -4.020
REMARK INTRA:                  -2.211
REMARK UNBOUND:                -2.545
REMARK SMILES CCCCCCCCCCCCCC[C@@H](C)C(=O)[O-]
REMARK SMILES IDX 9 1 10 2 11 3 12 4 13 5 14 6 15 7 16 8 17 9 18 10 19 11 8 12
REMARK SMILES IDX 7 13 6 14 5 15 4 16 3 17 2 18 1 19
REMARK H PARENT
REMARK Flexibility Score: inf
ROOT
ATOM      1  C   UNL     1     175.700 204.142 201.558  1.00  0.00     0.000 C 
ENDROOT
BRANCH   1   2
ATOM      2  C   UNL     1     176.194 205.130 202.627  1.00  0.00     0.000 C 
BRANCH   2   3
ATOM      3  C   UNL     1     177.121 206.188 202.008  1.00  0.00     0.000 C 
BRANCH   3   4
ATOM      4  C   UNL     1     176.377 207.476 201.621  1.00  0.00     0.000 C 
BRANCH   4   5
ATOM      5  C   UNL     1     176.944 208.125 200.346  1.00  0.00     0.001 C 
BRANCH   5   6
ATOM      6  C   UNL     1     178.409 207.731 200.072  1.00  0.00     0.009 C 
BRANCH   6   7
ATOM      7  C   UNL     1     178.638 206.911 198.781  1.00  0.00     0.032 C 
ATOM      8  C   UNL     1     177.732 207.365 197.628  1.00  0.00     0.014 C 
BRANCH   7   9
ATOM      9  C   UNL     1     180.079 207.027 198.367  1.00  0.00     0.044 C 
ATOM     10  O   UNL     1     180.979 207.173 199.236  1.00  0.00    -0.550 OA
ATOM     11  O   UNL     1     180.429 206.984 197.021  1.00  0.00    -0.550 OA
ENDBRANCH   7   9
ENDBRANCH   6   7
ENDBRANCH   5   6
ENDBRANCH   4   5
ENDBRANCH   3   4
ENDBRANCH   2   3
ENDBRANCH   1   2
BRANCH   1  12
ATOM     12  C   UNL     1     176.560 204.165 200.284  1.00  0.00     0.000 C 
BRANCH  12  13
ATOM     13  C   UNL     1     175.745 204.506 199.025  1.00  0.00    -0.000 C 
BRANCH  13  14
ATOM     14  C   UNL     1     174.398 205.169 199.357  1.00  0.00    -0.000 C 
BRANCH  14  15
ATOM     15  C   UNL     1     174.234 206.544 198.683  1.00  0.00    -0.000 C 
BRANCH  15  16
ATOM     16  C   UNL     1     172.772 206.855 198.327  1.00  0.00    -0.000 C 
BRANCH  16  17
ATOM     17  C   UNL     1     171.816 206.660 199.514  1.00  0.00    -0.000 C 
BRANCH  17  18
ATOM     18  C   UNL     1     171.481 208.002 200.175  1.00  0.00    -0.003 C 
ATOM     19  C   UNL     1     171.838 207.991 201.658  1.00  0.00     0.004 C 
ENDBRANCH  17  18
ENDBRANCH  16  17
ENDBRANCH  15  16
ENDBRANCH  14  15
ENDBRANCH  13  14
ENDBRANCH  12  13
ENDBRANCH   1  12
TORSDOF 14
ENDMDL
MODEL 6
REMARK VINA RESULT:    -1.989      2.932      5.095
REMARK INTER + INTRA:          -6.162
REMARK INTER:                  -3.336
REMARK INTRA:                  -2.827
REMARK UNBOUND:                -2.545
REMARK SMILES CCCCCCCCCCCCCC[C@@H](C)C(=O)[O-]
REMARK SMILES IDX 9 1 10 2 11 3 12 4 13 5 14 6 15 7 16 8 17 9 18 10 19 11 8 12
REMARK SMILES IDX 7 13 6 14 5 15 4 16 3 17 2 18 1 19
REMARK H PARENT
REMARK Flexibility Score: inf
ROOT
ATOM      1  C   UNL     1     176.840 208.125 200.016  1.00  0.00     0.000 C 
ENDROOT
BRANCH   1   2
ATOM      2  C   UNL     1     178.327 207.748 200.118  1.00  0.00     0.000 C 
BRANCH   2   3
ATOM      3  C   UNL     1     178.874 207.306 198.752  1.00  0.00     0.000 C 
BRANCH   3   4
ATOM      4  C   UNL     1     177.764 206.876 197.778  1.00  0.00     0.000 C 
BRANCH   4   5
ATOM      5  C   UNL     1     177.353 205.405 197.966  1.00  0.00     0.001 C 
BRANCH   5   6
ATOM      6  C   UNL     1     175.990 205.076 197.328  1.00  0.00     0.009 C 
BRANCH   6   7
ATOM      7  C   UNL     1     174.808 204.972 198.320  1.00  0.00     0.032 C 
ATOM      8  C   UNL     1     174.085 206.313 198.515  1.00  0.00     0.014 C 
BRANCH   7   9
ATOM      9  C   UNL     1     173.831 203.940 197.827  1.00  0.00     0.044 C 
ATOM     10  O   UNL     1     173.290 204.068 196.697  1.00  0.00    -0.550 OA
ATOM     11  O   UNL     1     173.511 202.842 198.618  1.00  0.00    -0.550 OA
ENDBRANCH   7   9
ENDBRANCH   6   7
ENDBRANCH   5   6
ENDBRANCH   4   5
ENDBRANCH   3   4
ENDBRANCH   2   3
ENDBRANCH   1   2
BRANCH   1  12
ATOM     12  C   UNL     1     176.066 207.851 201.316  1.00  0.00     0.000 C 
BRANCH  12  13
ATOM     13  C   UNL     1     176.625 206.649 202.095  1.00  0.00    -0.000 C 
BRANCH  13  14
ATOM     14  C   UNL     1     175.848 205.352 201.815  1.00  0.00    -0.000 C 
BRANCH  14  15
ATOM     15  C   UNL     1     176.769 204.192 201.394  1.00  0.00    -0.000 C 
BRANCH  15  16
ATOM     16  C   UNL     1     178.191 204.332 201.960  1.00  0.00    -0.000 C 
BRANCH  16  17
ATOM     17  C   UNL     1     179.279 204.029 200.917  1.00  0.00    -0.000 C 
BRANCH  17  18
ATOM     18  C   UNL     1     180.487 204.955 201.100  1.00  0.00    -0.003 C 
ATOM     19  C   UNL     1     180.598 205.440 202.542  1.00  0.00     0.004 C 
ENDBRANCH  17  18
ENDBRANCH  16  17
ENDBRANCH  15  16
ENDBRANCH  14  15
ENDBRANCH  13  14
ENDBRANCH  12  13
ENDBRANCH   1  12
TORSDOF 14
ENDMDL
MODEL 7
REMARK VINA RESULT:    -1.962      2.769      5.134
REMARK INTER + INTRA:          -6.113
REMARK INTER:                  -3.331
REMARK INTRA:                  -2.783
REMARK UNBOUND:                -2.545
REMARK SMILES CCCCCCCCCCCCCC[C@@H](C)C(=O)[O-]
REMARK SMILES IDX 9 1 10 2 11 3 12 4 13 5 14 6 15 7 16 8 17 9 18 10 19 11 8 12
REMARK SMILES IDX 7 13 6 14 5 15 4 16 3 17 2 18 1 19
REMARK H PARENT
REMARK Flexibility Score: inf
ROOT
ATOM      1  C   UNL     1     174.739 205.369 199.641  1.00  0.00     0.000 C 
ENDROOT
BRANCH   1   2
ATOM      2  C   UNL     1     174.345 205.795 198.218  1.00  0.00     0.000 C 
BRANCH   2   3
ATOM      3  C   UNL     1     174.019 207.296 198.167  1.00  0.00     0.000 C 
BRANCH   3   4
ATOM      4  C   UNL     1     175.134 208.125 197.506  1.00  0.00     0.000 C 
BRANCH   4   5
ATOM      5  C   UNL     1     175.726 207.434 196.266  1.00  0.00     0.001 C 
BRANCH   5   6
ATOM      6  C   UNL     1     177.257 207.581 196.169  1.00  0.00     0.009 C 
BRANCH   6   7
ATOM      7  C   UNL     1     178.064 206.729 197.176  1.00  0.00     0.032 C 
ATOM      8  C   UNL     1     177.852 205.223 196.973  1.00  0.00     0.014 C 
BRANCH   7   9
ATOM      9  C   UNL     1     179.527 207.055 197.045  1.00  0.00     0.044 C 
ATOM     10  O   UNL     1     180.303 206.891 198.023  1.00  0.00    -0.550 OA
ATOM     11  O   UNL     1     180.032 207.549 195.847  1.00  0.00    -0.550 OA
ENDBRANCH   7   9
ENDBRANCH   6   7
ENDBRANCH   5   6
ENDBRANCH   4   5
ENDBRANCH   3   4
ENDBRANCH   2   3
ENDBRANCH   1   2
BRANCH   1  12
ATOM     12  C   UNL     1     174.369 206.420 200.701  1.00  0.00     0.000 C 
BRANCH  12  13
ATOM     13  C   UNL     1     175.558 206.793 201.603  1.00  0.00    -0.000 C 
BRANCH  13  14
ATOM     14  C   UNL     1     176.440 207.893 200.991  1.00  0.00    -0.000 C 
BRANCH  14  15
ATOM     15  C   UNL     1     177.821 207.368 200.555  1.00  0.00    -0.000 C 
BRANCH  15  16
ATOM     16  C   UNL     1     178.292 206.174 201.400  1.00  0.00    -0.000 C 
BRANCH  16  17
ATOM     17  C   UNL     1     178.575 204.922 200.555  1.00  0.00    -0.000 C 
BRANCH  17  18
ATOM     18  C   UNL     1     177.714 203.742 201.020  1.00  0.00    -0.003 C 
ATOM     19  C   UNL     1     177.376 202.814 199.857  1.00  0.00     0.004 C 
ENDBRANCH  17  18
ENDBRANCH  16  17
ENDBRANCH  15  16
ENDBRANCH  14  15
ENDBRANCH  13  14
ENDBRANCH  12  13
ENDBRANCH   1  12
TORSDOF 14
ENDMDL
