MODEL 1
REMARK VINA RESULT:    -3.063      0.000      0.000
REMARK INTER + INTRA:          -3.153
REMARK INTER:                  -3.153
REMARK INTRA:                   0.000
REMARK UNBOUND:                 0.000
REMARK SMILES CC1(C)[C@@H]2CC[C@@]1(C)[C@H](O)C2
REMARK SMILES IDX 1 1 2 2 4 3 5 4 6 5 7 6 9 7 11 8 8 9 3 10 10 11
REMARK H PARENT 10 12
REMARK Flexibility Score: inf
ROOT
ATOM      1  C   UNL     1     118.871 117.036 114.356  1.00  0.00     0.012 C 
ATOM      2  C   UNL     1     118.728 116.076 113.137  1.00  0.00    -0.025 C 
ATOM      3  C   UNL     1     119.612 114.823 113.228  1.00  0.00    -0.002 C 
ATOM      4  C   UNL     1     119.195 114.002 111.984  1.00  0.00     0.005 C 
ATOM      5  C   UNL     1     117.683 114.289 111.875  1.00  0.00     0.010 C 
ATOM      6  C   UNL     1     117.431 115.232 113.083  1.00  0.00    -0.001 C 
ATOM      7  C   UNL     1     117.522 114.320 114.348  1.00  0.00     0.121 C 
ATOM      8  C   UNL     1     119.043 114.066 114.456  1.00  0.00     0.036 C 
ATOM      9  C   UNL     1     116.120 116.023 112.955  1.00  0.00     0.015 C 
ATOM     10  C   UNL     1     119.005 116.953 111.876  1.00  0.00     0.012 C 
ENDROOT
BRANCH   7  11
ATOM     11  O   UNL     1     117.035 114.949 115.506  1.00  0.00    -0.393 OA
ATOM     12  H   UNL     1     116.045 114.882 115.474  1.00  0.00     0.210 HD
ENDBRANCH   7  11
TORSDOF 1
ENDMDL
MODEL 2
REMARK VINA RESULT:    -2.996      3.452      5.360
REMARK INTER + INTRA:          -3.084
REMARK INTER:                  -3.084
REMARK INTRA:                   0.000
REMARK UNBOUND:                 0.000
REMARK SMILES CC1(C)[C@@H]2CC[C@@]1(C)[C@H](O)C2
REMARK SMILES IDX 1 1 2 2 4 3 5 4 6 5 7 6 9 7 11 8 8 9 3 10 10 11
REMARK H PARENT 10 12
REMARK Flexibility Score: inf
ROOT
ATOM      1  C   UNL     1     114.090 116.424 112.337  1.00  0.00     0.012 C 
ATOM      2  C   UNL     1     115.166 117.277 113.073  1.00  0.00    -0.025 C 
ATOM      3  C   UNL     1     115.787 118.379 112.200  1.00  0.00    -0.002 C 
ATOM      4  C   UNL     1     116.711 119.135 113.185  1.00  0.00     0.005 C 
ATOM      5  C   UNL     1     115.919 119.081 114.508  1.00  0.00     0.010 C 
ATOM      6  C   UNL     1     114.635 118.306 114.101  1.00  0.00    -0.001 C 
ATOM      7  C   UNL     1     113.802 119.306 113.238  1.00  0.00     0.121 C 
ATOM      8  C   UNL     1     114.595 119.327 111.911  1.00  0.00     0.036 C 
ATOM      9  C   UNL     1     113.886 117.723 115.309  1.00  0.00     0.015 C 
ATOM     10  C   UNL     1     116.205 116.254 113.631  1.00  0.00     0.012 C 
ENDROOT
BRANCH   7  11
ATOM     11  O   UNL     1     112.483 118.873 113.027  1.00  0.00    -0.393 OA
ATOM     12  H   UNL     1     112.469 118.412 112.149  1.00  0.00     0.210 HD
ENDBRANCH   7  11
TORSDOF 1
ENDMDL
MODEL 3
REMARK VINA RESULT:    -2.934      9.731     11.343
REMARK INTER + INTRA:          -3.020
REMARK INTER:                  -3.020
REMARK INTRA:                   0.000
REMARK UNBOUND:                 0.000
REMARK SMILES CC1(C)[C@@H]2CC[C@@]1(C)[C@H](O)C2
REMARK SMILES IDX 1 1 2 2 4 3 5 4 6 5 7 6 9 7 11 8 8 9 3 10 10 11
REMARK H PARENT 10 12
REMARK Flexibility Score: inf
ROOT
ATOM      1  C   UNL     1     110.831 110.732 117.086  1.00  0.00     0.012 C 
ATOM      2  C   UNL     1     109.450 110.799 117.805  1.00  0.00    -0.025 C 
ATOM      3  C   UNL     1     109.261 112.058 118.666  1.00  0.00    -0.002 C 
ATOM      4  C   UNL     1     107.797 111.937 119.156  1.00  0.00     0.005 C 
ATOM      5  C   UNL     1     107.082 111.303 117.946  1.00  0.00     0.010 C 
ATOM      6  C   UNL     1     108.234 111.152 116.913  1.00  0.00    -0.001 C 
ATOM      7  C   UNL     1     108.538 112.602 116.417  1.00  0.00     0.121 C 
ATOM      8  C   UNL     1     109.276 113.212 117.630  1.00  0.00     0.036 C 
ATOM      9  C   UNL     1     107.904 110.148 115.798  1.00  0.00     0.015 C 
ATOM     10  C   UNL     1     109.326 109.464 118.603  1.00  0.00     0.012 C 
ENDROOT
BRANCH   7  11
ATOM     11  O   UNL     1     109.352 112.623 115.272  1.00  0.00    -0.393 OA
ATOM     12  H   UNL     1     108.752 112.493 114.492  1.00  0.00     0.210 HD
ENDBRANCH   7  11
TORSDOF 1
ENDMDL
MODEL 4
REMARK VINA RESULT:    -2.924     11.173     12.639
REMARK INTER + INTRA:          -3.010
REMARK INTER:                  -3.010
REMARK INTRA:                   0.000
REMARK UNBOUND:                 0.000
REMARK SMILES CC1(C)[C@@H]2CC[C@@]1(C)[C@H](O)C2
REMARK SMILES IDX 1 1 2 2 4 3 5 4 6 5 7 6 9 7 11 8 8 9 3 10 10 11
REMARK H PARENT 10 12
REMARK Flexibility Score: inf
ROOT
ATOM      1  C   UNL     1     110.809 122.563 117.123  1.00  0.00     0.012 C 
ATOM      2  C   UNL     1     110.745 124.017 117.679  1.00  0.00    -0.025 C 
ATOM      3  C   UNL     1     111.956 124.403 118.543  1.00  0.00    -0.002 C 
ATOM      4  C   UNL     1     111.706 125.898 118.858  1.00  0.00     0.005 C 
ATOM      5  C   UNL     1     111.059 126.418 117.558  1.00  0.00     0.010 C 
ATOM      6  C   UNL     1     111.032 125.149 116.662  1.00  0.00    -0.001 C 
ATOM      7  C   UNL     1     112.517 124.908 116.239  1.00  0.00     0.121 C 
ATOM      8  C   UNL     1     113.141 124.364 117.544  1.00  0.00     0.036 C 
ATOM      9  C   UNL     1     110.044 125.268 115.492  1.00  0.00     0.015 C 
ATOM     10  C   UNL     1     109.378 124.123 118.425  1.00  0.00     0.012 C 
ENDROOT
BRANCH   7  11
ATOM     11  O   UNL     1     112.639 123.975 115.197  1.00  0.00    -0.393 OA
ATOM     12  H   UNL     1     111.800 124.022 114.669  1.00  0.00     0.210 HD
ENDBRANCH   7  11
TORSDOF 1
ENDMDL
MODEL 5
REMARK VINA RESULT:    -2.892      8.852     10.288
REMARK INTER + INTRA:          -2.976
REMARK INTER:                  -2.976
REMARK INTRA:                   0.000
REMARK UNBOUND:                 0.000
REMARK SMILES CC1(C)[C@@H]2CC[C@@]1(C)[C@H](O)C2
REMARK SMILES IDX 1 1 2 2 4 3 5 4 6 5 7 6 9 7 11 8 8 9 3 10 10 11
REMARK H PARENT 10 12
REMARK Flexibility Score: inf
ROOT
ATOM      1  C   UNL     1     122.312 122.476 117.327  1.00  0.00     0.012 C 
ATOM      2  C   UNL     1     123.685 122.404 118.061  1.00  0.00    -0.025 C 
ATOM      3  C   UNL     1     123.854 121.153 118.938  1.00  0.00    -0.002 C 
ATOM      4  C   UNL     1     125.313 121.266 119.441  1.00  0.00     0.005 C 
ATOM      5  C   UNL     1     126.046 121.881 118.231  1.00  0.00     0.010 C 
ATOM      6  C   UNL     1     124.906 122.031 117.186  1.00  0.00    -0.001 C 
ATOM      7  C   UNL     1     124.594 120.579 116.702  1.00  0.00     0.121 C 
ATOM      8  C   UNL     1     123.839 119.988 117.914  1.00  0.00     0.036 C 
ATOM      9  C   UNL     1     125.256 123.020 116.064  1.00  0.00     0.015 C 
ATOM     10  C   UNL     1     123.813 123.747 118.847  1.00  0.00     0.012 C 
ENDROOT
BRANCH   7  11
ATOM     11  O   UNL     1     123.792 120.552 115.549  1.00  0.00    -0.393 OA
ATOM     12  H   UNL     1     123.325 119.677 115.545  1.00  0.00     0.210 HD
ENDBRANCH   7  11
TORSDOF 1
ENDMDL
MODEL 6
REMARK VINA RESULT:    -2.882      7.286      8.753
REMARK INTER + INTRA:          -2.966
REMARK INTER:                  -2.966
REMARK INTRA:                   0.000
REMARK UNBOUND:                 0.000
REMARK SMILES CC1(C)[C@@H]2CC[C@@]1(C)[C@H](O)C2
REMARK SMILES IDX 1 1 2 2 4 3 5 4 6 5 7 6 9 7 11 8 8 9 3 10 10 11
REMARK H PARENT 10 12
REMARK Flexibility Score: inf
ROOT
ATOM      1  C   UNL     1     122.136 111.039 117.493  1.00  0.00     0.012 C 
ATOM      2  C   UNL     1     122.021 109.668 118.224  1.00  0.00    -0.025 C 
ATOM      3  C   UNL     1     120.708 109.489 119.003  1.00  0.00    -0.002 C 
ATOM      4  C   UNL     1     120.796 108.032 119.519  1.00  0.00     0.005 C 
ATOM      5  C   UNL     1     121.510 107.302 118.363  1.00  0.00     0.010 C 
ATOM      6  C   UNL     1     121.728 108.440 117.327  1.00  0.00    -0.001 C 
ATOM      7  C   UNL     1     120.314 108.736 116.732  1.00  0.00     0.121 C 
ATOM      8  C   UNL     1     119.625 109.490 117.893  1.00  0.00     0.036 C 
ATOM      9  C   UNL     1     122.804 108.096 116.286  1.00  0.00     0.015 C 
ATOM     10  C   UNL     1     123.301 109.555 119.111  1.00  0.00     0.012 C 
ENDROOT
BRANCH   7  11
ATOM     11  O   UNL     1     120.369 109.534 115.578  1.00  0.00    -0.393 OA
ATOM     12  H   UNL     1     119.932 109.018 114.851  1.00  0.00     0.210 HD
ENDBRANCH   7  11
TORSDOF 1
ENDMDL
MODEL 7
REMARK VINA RESULT:    -2.837      2.244      4.151
REMARK INTER + INTRA:          -2.920
REMARK INTER:                  -2.920
REMARK INTRA:                   0.000
REMARK UNBOUND:                 0.000
REMARK SMILES CC1(C)[C@@H]2CC[C@@]1(C)[C@H](O)C2
REMARK SMILES IDX 1 1 2 2 4 3 5 4 6 5 7 6 9 7 11 8 8 9 3 10 10 11
REMARK H PARENT 10 12
REMARK Flexibility Score: inf
ROOT
ATOM      1  C   UNL     1     116.957 116.373 112.597  1.00  0.00     0.012 C 
ATOM      2  C   UNL     1     117.982 117.546 112.620  1.00  0.00    -0.025 C 
ATOM      3  C   UNL     1     117.431 118.862 112.047  1.00  0.00    -0.002 C 
ATOM      4  C   UNL     1     118.582 119.867 112.296  1.00  0.00     0.005 C 
ATOM      5  C   UNL     1     119.158 119.400 113.649  1.00  0.00     0.010 C 
ATOM      6  C   UNL     1     118.251 118.189 114.003  1.00  0.00    -0.001 C 
ATOM      7  C   UNL     1     116.874 118.806 114.405  1.00  0.00     0.121 C 
ATOM      8  C   UNL     1     116.302 119.243 113.038  1.00  0.00     0.036 C 
ATOM      9  C   UNL     1     118.876 117.269 115.062  1.00  0.00     0.015 C 
ATOM     10  C   UNL     1     119.247 117.014 111.875  1.00  0.00     0.012 C 
ENDROOT
BRANCH   7  11
ATOM     11  O   UNL     1     116.026 117.877 115.031  1.00  0.00    -0.393 OA
ATOM     12  H   UNL     1     116.443 116.984 114.913  1.00  0.00     0.210 HD
ENDBRANCH   7  11
TORSDOF 1
ENDMDL
MODEL 8
REMARK VINA RESULT:    -2.828      9.948     11.528
REMARK INTER + INTRA:          -2.911
REMARK INTER:                  -2.911
REMARK INTRA:                   0.000
REMARK UNBOUND:                 0.000
REMARK SMILES CC1(C)[C@@H]2CC[C@@]1(C)[C@H](O)C2
REMARK SMILES IDX 1 1 2 2 4 3 5 4 6 5 7 6 9 7 11 8 8 9 3 10 10 11
REMARK H PARENT 10 12
REMARK Flexibility Score: inf
ROOT
ATOM      1  C   UNL     1     108.359 112.491 115.739  1.00  0.00     0.012 C 
ATOM      2  C   UNL     1     108.603 112.153 117.241  1.00  0.00    -0.025 C 
ATOM      3  C   UNL     1     107.371 111.574 117.954  1.00  0.00    -0.002 C 
ATOM      4  C   UNL     1     107.909 111.222 119.362  1.00  0.00     0.005 C 
ATOM      5  C   UNL     1     109.348 110.748 119.071  1.00  0.00     0.010 C 
ATOM      6  C   UNL     1     109.442 110.883 117.526  1.00  0.00    -0.001 C 
ATOM      7  C   UNL     1     108.570 109.720 116.954  1.00  0.00     0.121 C 
ATOM      8  C   UNL     1     107.135 110.223 117.230  1.00  0.00     0.036 C 
ATOM      9  C   UNL     1     110.892 110.907 117.019  1.00  0.00     0.015 C 
ATOM     10  C   UNL     1     109.145 113.468 117.885  1.00  0.00     0.012 C 
ENDROOT
BRANCH   7  11
ATOM     11  O   UNL     1     108.774 109.515 115.579  1.00  0.00    -0.393 OA
ATOM     12  H   UNL     1     108.191 110.162 115.103  1.00  0.00     0.210 HD
ENDBRANCH   7  11
TORSDOF 1
ENDMDL
