MODEL 1
REMARK VINA RESULT:    -4.874      0.000      0.000
REMARK INTER + INTRA:          -6.634
REMARK INTER:                  -6.298
REMARK INTRA:                  -0.335
REMARK UNBOUND:                -0.335
REMARK SMILES CO[C@@]1(CO)O[C@H](CO)[C@@H](O)[C@H]1O
REMARK SMILES IDX 3 1 12 2 10 3 7 4 6 5 2 6 1 7 4 8 5 9 13 11 11 13 8 15 9 16
REMARK H PARENT 5 10 13 12 11 14 9 17
REMARK Flexibility Score: inf
ROOT
ATOM      1  C   UNL     1      36.140   5.898  44.048  1.00  0.00     0.221 C 
ATOM      2  C   UNL     1      36.778   7.237  44.455  1.00  0.00     0.207 C 
ATOM      3  C   UNL     1      38.066   7.268  43.657  1.00  0.00     0.180 C 
ATOM      4  C   UNL     1      38.330   5.773  43.381  1.00  0.00     0.179 C 
ATOM      5  O   UNL     1      37.221   5.013  43.824  1.00  0.00    -0.337 OA
ENDROOT
BRANCH   1   6
ATOM      6  O   UNL     1      35.389   6.092  42.849  1.00  0.00    -0.349 OA
ATOM      7  C   UNL     1      35.169   4.899  42.123  1.00  0.00     0.198 C 
ENDBRANCH   1   6
BRANCH   1   8
ATOM      8  C   UNL     1      35.245   5.377  45.206  1.00  0.00     0.224 C 
BRANCH   8   9
ATOM      9  O   UNL     1      35.151   6.311  46.250  1.00  0.00    -0.391 OA
ATOM     10  H   UNL     1      35.939   6.168  46.836  1.00  0.00     0.210 HD
ENDBRANCH   8   9
ENDBRANCH   1   8
BRANCH   2  11
ATOM     11  O   UNL     1      35.948   8.363  44.268  1.00  0.00    -0.385 OA
ATOM     12  H   UNL     1      35.001   8.073  44.251  1.00  0.00     0.211 HD
ENDBRANCH   2  11
BRANCH   3  13
ATOM     13  O   UNL     1      37.958   8.008  42.462  1.00  0.00    -0.387 OA
ATOM     14  H   UNL     1      37.283   8.723  42.593  1.00  0.00     0.211 HD
ENDBRANCH   3  13
BRANCH   4  15
ATOM     15  C   UNL     1      39.591   5.270  44.098  1.00  0.00     0.191 C 
BRANCH  15  16
ATOM     16  O   UNL     1      39.344   4.047  44.740  1.00  0.00    -0.394 OA
ATOM     17  H   UNL     1      38.381   3.846  44.609  1.00  0.00     0.210 HD
ENDBRANCH  15  16
ENDBRANCH   4  15
TORSDOF 7
ENDMDL
MODEL 2
REMARK VINA RESULT:    -4.647      1.526      3.914
REMARK INTER + INTRA:          -6.341
REMARK INTER:                  -5.986
REMARK INTRA:                  -0.355
REMARK UNBOUND:                -0.335
REMARK SMILES CO[C@@]1(CO)O[C@H](CO)[C@@H](O)[C@H]1O
REMARK SMILES IDX 3 1 12 2 10 3 7 4 6 5 2 6 1 7 4 8 5 9 13 11 11 13 8 15 9 16
REMARK H PARENT 5 10 13 12 11 14 9 17
REMARK Flexibility Score: inf
ROOT
ATOM      1  C   UNL     1      38.315   4.992  43.410  1.00  0.00     0.221 C 
ATOM      2  C   UNL     1      36.960   4.275  43.532  1.00  0.00     0.207 C 
ATOM      3  C   UNL     1      35.956   5.406  43.447  1.00  0.00     0.180 C 
ATOM      4  C   UNL     1      36.784   6.630  43.892  1.00  0.00     0.179 C 
ATOM      5  O   UNL     1      38.140   6.249  44.037  1.00  0.00    -0.337 OA
ENDROOT
BRANCH   1   6
ATOM      6  O   UNL     1      38.624   5.157  42.026  1.00  0.00    -0.349 OA
ATOM      7  C   UNL     1      39.762   5.964  41.794  1.00  0.00     0.198 C 
ENDBRANCH   1   6
BRANCH   1   8
ATOM      8  C   UNL     1      39.407   4.167  44.145  1.00  0.00     0.224 C 
BRANCH   8   9
ATOM      9  O   UNL     1      38.873   3.015  44.742  1.00  0.00    -0.391 OA
ATOM     10  H   UNL     1      39.609   2.589  45.254  1.00  0.00     0.210 HD
ENDBRANCH   8   9
ENDBRANCH   1   8
BRANCH   2  11
ATOM     11  O   UNL     1      36.757   3.241  42.593  1.00  0.00    -0.385 OA
ATOM     12  H   UNL     1      35.936   3.428  42.072  1.00  0.00     0.211 HD
ENDBRANCH   2  11
BRANCH   3  13
ATOM     13  O   UNL     1      35.426   5.578  42.151  1.00  0.00    -0.387 OA
ATOM     14  H   UNL     1      34.934   4.755  41.900  1.00  0.00     0.211 HD
ENDBRANCH   3  13
BRANCH   4  15
ATOM     15  C   UNL     1      36.288   7.206  45.225  1.00  0.00     0.191 C 
BRANCH  15  16
ATOM     16  O   UNL     1      36.273   8.609  45.186  1.00  0.00    -0.394 OA
ATOM     17  H   UNL     1      35.327   8.880  45.061  1.00  0.00     0.210 HD
ENDBRANCH  15  16
ENDBRANCH   4  15
TORSDOF 7
ENDMDL
MODEL 3
REMARK VINA RESULT:    -4.620      2.129      3.625
REMARK INTER + INTRA:          -6.306
REMARK INTER:                  -5.884
REMARK INTRA:                  -0.422
REMARK UNBOUND:                -0.335
REMARK SMILES CO[C@@]1(CO)O[C@H](CO)[C@@H](O)[C@H]1O
REMARK SMILES IDX 3 1 12 2 10 3 7 4 6 5 2 6 1 7 4 8 5 9 13 11 11 13 8 15 9 16
REMARK H PARENT 5 10 13 12 11 14 9 17
REMARK Flexibility Score: inf
ROOT
ATOM      1  C   UNL     1      37.321   3.860  43.441  1.00  0.00     0.221 C 
ATOM      2  C   UNL     1      35.822   4.096  43.694  1.00  0.00     0.207 C 
ATOM      3  C   UNL     1      35.635   5.560  43.348  1.00  0.00     0.180 C 
ATOM      4  C   UNL     1      37.055   6.136  43.530  1.00  0.00     0.179 C 
ATOM      5  O   UNL     1      37.961   5.076  43.777  1.00  0.00    -0.337 OA
ENDROOT
BRANCH   1   6
ATOM      6  O   UNL     1      37.511   3.554  42.059  1.00  0.00    -0.349 OA
ATOM      7  C   UNL     1      38.351   2.438  41.839  1.00  0.00     0.198 C 
ENDBRANCH   1   6
BRANCH   1   8
ATOM      8  C   UNL     1      37.826   2.711  44.356  1.00  0.00     0.224 C 
BRANCH   8   9
ATOM      9  O   UNL     1      36.790   2.173  45.134  1.00  0.00    -0.391 OA
ATOM     10  H   UNL     1      36.016   2.789  45.048  1.00  0.00     0.210 HD
ENDBRANCH   8   9
ENDBRANCH   1   8
BRANCH   2  11
ATOM     11  O   UNL     1      34.965   3.217  42.998  1.00  0.00    -0.385 OA
ATOM     12  H   UNL     1      34.819   2.402  43.542  1.00  0.00     0.211 HD
ENDBRANCH   2  11
BRANCH   3  13
ATOM     13  O   UNL     1      35.155   5.761  42.038  1.00  0.00    -0.387 OA
ATOM     14  H   UNL     1      35.327   6.703  41.779  1.00  0.00     0.211 HD
ENDBRANCH   3  13
BRANCH   4  15
ATOM     15  C   UNL     1      37.128   7.129  44.698  1.00  0.00     0.191 C 
BRANCH  15  16
ATOM     16  O   UNL     1      36.201   8.169  44.526  1.00  0.00    -0.394 OA
ATOM     17  H   UNL     1      35.449   7.794  43.997  1.00  0.00     0.210 HD
ENDBRANCH  15  16
ENDBRANCH   4  15
TORSDOF 7
ENDMDL
MODEL 4
REMARK VINA RESULT:    -4.577      1.684      2.414
REMARK INTER + INTRA:          -6.250
REMARK INTER:                  -5.810
REMARK INTRA:                  -0.440
REMARK UNBOUND:                -0.335
REMARK SMILES CO[C@@]1(CO)O[C@H](CO)[C@@H](O)[C@H]1O
REMARK SMILES IDX 3 1 12 2 10 3 7 4 6 5 2 6 1 7 4 8 5 9 13 11 11 13 8 15 9 16
REMARK H PARENT 5 10 13 12 11 14 9 17
REMARK Flexibility Score: inf
ROOT
ATOM      1  C   UNL     1      36.564   4.598  43.243  1.00  0.00     0.221 C 
ATOM      2  C   UNL     1      36.211   5.319  44.555  1.00  0.00     0.207 C 
ATOM      3  C   UNL     1      36.725   6.727  44.331  1.00  0.00     0.180 C 
ATOM      4  C   UNL     1      37.807   6.525  43.250  1.00  0.00     0.179 C 
ATOM      5  O   UNL     1      37.774   5.184  42.800  1.00  0.00    -0.337 OA
ENDROOT
BRANCH   1   6
ATOM      6  O   UNL     1      35.518   4.826  42.299  1.00  0.00    -0.349 OA
ATOM      7  C   UNL     1      34.986   3.636  41.749  1.00  0.00     0.198 C 
ENDBRANCH   1   6
BRANCH   1   8
ATOM      8  C   UNL     1      36.765   3.083  43.521  1.00  0.00     0.224 C 
BRANCH   8   9
ATOM      9  O   UNL     1      36.428   2.749  44.842  1.00  0.00    -0.391 OA
ATOM     10  H   UNL     1      36.741   1.818  44.991  1.00  0.00     0.210 HD
ENDBRANCH   8   9
ENDBRANCH   1   8
BRANCH   2  11
ATOM     11  O   UNL     1      34.850   5.244  44.917  1.00  0.00    -0.385 OA
ATOM     12  H   UNL     1      34.646   5.952  45.580  1.00  0.00     0.211 HD
ENDBRANCH   2  11
BRANCH   3  13
ATOM     13  O   UNL     1      35.720   7.619  43.903  1.00  0.00    -0.387 OA
ATOM     14  H   UNL     1      36.055   8.547  44.010  1.00  0.00     0.211 HD
ENDBRANCH   3  13
BRANCH   4  15
ATOM     15  C   UNL     1      39.214   6.833  43.780  1.00  0.00     0.191 C 
BRANCH  15  16
ATOM     16  O   UNL     1      39.148   7.611  44.946  1.00  0.00    -0.394 OA
ATOM     17  H   UNL     1      38.217   7.540  45.283  1.00  0.00     0.210 HD
ENDBRANCH  15  16
ENDBRANCH   4  15
TORSDOF 7
ENDMDL
MODEL 5
REMARK VINA RESULT:    -4.556     14.023     15.674
REMARK INTER + INTRA:          -6.223
REMARK INTER:                  -5.977
REMARK INTRA:                  -0.246
REMARK UNBOUND:                -0.335
REMARK SMILES CO[C@@]1(CO)O[C@H](CO)[C@@H](O)[C@H]1O
REMARK SMILES IDX 3 1 12 2 10 3 7 4 6 5 2 6 1 7 4 8 5 9 13 11 11 13 8 15 9 16
REMARK H PARENT 5 10 13 12 11 14 9 17
REMARK Flexibility Score: inf
ROOT
ATOM      1  C   UNL     1      21.918   4.802  43.314  1.00  0.00     0.221 C 
ATOM      2  C   UNL     1      22.617   4.883  41.947  1.00  0.00     0.207 C 
ATOM      3  C   UNL     1      21.720   4.059  41.045  1.00  0.00     0.180 C 
ATOM      4  C   UNL     1      20.996   3.131  42.043  1.00  0.00     0.179 C 
ATOM      5  O   UNL     1      21.325   3.517  43.364  1.00  0.00    -0.337 OA
ENDROOT
BRANCH   1   6
ATOM      6  O   UNL     1      20.920   5.821  43.381  1.00  0.00    -0.349 OA
ATOM      7  C   UNL     1      20.083   5.716  44.516  1.00  0.00     0.198 C 
ENDBRANCH   1   6
BRANCH   1   8
ATOM      8  C   UNL     1      22.971   4.956  44.445  1.00  0.00     0.224 C 
BRANCH   8   9
ATOM      9  O   UNL     1      23.333   6.298  44.638  1.00  0.00    -0.391 OA
ATOM     10  H   UNL     1      22.744   6.656  45.352  1.00  0.00     0.210 HD
ENDBRANCH   8   9
ENDBRANCH   1   8
BRANCH   2  11
ATOM     11  O   UNL     1      22.859   6.195  41.489  1.00  0.00    -0.385 OA
ATOM     12  H   UNL     1      22.850   6.819  42.259  1.00  0.00     0.211 HD
ENDBRANCH   2  11
BRANCH   3  13
ATOM     13  O   UNL     1      20.809   4.843  40.307  1.00  0.00    -0.387 OA
ATOM     14  H   UNL     1      20.015   4.288  40.094  1.00  0.00     0.211 HD
ENDBRANCH   3  13
BRANCH   4  15
ATOM     15  C   UNL     1      21.387   1.659  41.847  1.00  0.00     0.191 C 
BRANCH  15  16
ATOM     16  O   UNL     1      21.011   0.892  42.960  1.00  0.00    -0.394 OA
ATOM     17  H   UNL     1      20.114   1.214  43.238  1.00  0.00     0.210 HD
ENDBRANCH  15  16
ENDBRANCH   4  15
TORSDOF 7
ENDMDL
MODEL 6
REMARK VINA RESULT:    -4.396      1.840      4.094
REMARK INTER + INTRA:          -6.016
REMARK INTER:                  -5.591
REMARK INTRA:                  -0.426
REMARK UNBOUND:                -0.335
REMARK SMILES CO[C@@]1(CO)O[C@H](CO)[C@@H](O)[C@H]1O
REMARK SMILES IDX 3 1 12 2 10 3 7 4 6 5 2 6 1 7 4 8 5 9 13 11 11 13 8 15 9 16
REMARK H PARENT 5 10 13 12 11 14 9 17
REMARK Flexibility Score: inf
ROOT
ATOM      1  C   UNL     1      38.282   4.643  43.144  1.00  0.00     0.221 C 
ATOM      2  C   UNL     1      38.731   5.993  42.562  1.00  0.00     0.207 C 
ATOM      3  C   UNL     1      38.133   7.004  43.519  1.00  0.00     0.180 C 
ATOM      4  C   UNL     1      36.958   6.225  44.145  1.00  0.00     0.179 C 
ATOM      5  O   UNL     1      37.007   4.878  43.713  1.00  0.00    -0.337 OA
ENDROOT
BRANCH   1   6
ATOM      6  O   UNL     1      39.216   4.241  44.146  1.00  0.00    -0.349 OA
ATOM      7  C   UNL     1      39.509   2.857  44.121  1.00  0.00     0.198 C 
ENDBRANCH   1   6
BRANCH   1   8
ATOM      8  C   UNL     1      38.180   3.594  42.002  1.00  0.00     0.224 C 
BRANCH   8   9
ATOM      9  O   UNL     1      38.827   4.031  40.836  1.00  0.00    -0.391 OA
ATOM     10  H   UNL     1      39.207   3.224  40.399  1.00  0.00     0.210 HD
ENDBRANCH   8   9
ENDBRANCH   1   8
BRANCH   2  11
ATOM     11  O   UNL     1      40.125   6.117  42.376  1.00  0.00    -0.385 OA
ATOM     12  H   UNL     1      40.301   6.656  41.564  1.00  0.00     0.211 HD
ENDBRANCH   2  11
BRANCH   3  13
ATOM     13  O   UNL     1      39.048   7.445  44.498  1.00  0.00    -0.387 OA
ATOM     14  H   UNL     1      39.893   7.701  44.048  1.00  0.00     0.211 HD
ENDBRANCH   3  13
BRANCH   4  15
ATOM     15  C   UNL     1      35.599   6.820  43.752  1.00  0.00     0.191 C 
BRANCH  15  16
ATOM     16  O   UNL     1      35.627   8.221  43.831  1.00  0.00    -0.394 OA
ATOM     17  H   UNL     1      34.682   8.523  43.856  1.00  0.00     0.210 HD
ENDBRANCH  15  16
ENDBRANCH   4  15
TORSDOF 7
ENDMDL
MODEL 7
REMARK VINA RESULT:    -4.357      1.796      4.018
REMARK INTER + INTRA:          -5.966
REMARK INTER:                  -5.542
REMARK INTRA:                  -0.424
REMARK UNBOUND:                -0.335
REMARK SMILES CO[C@@]1(CO)O[C@H](CO)[C@@H](O)[C@H]1O
REMARK SMILES IDX 3 1 12 2 10 3 7 4 6 5 2 6 1 7 4 8 5 9 13 11 11 13 8 15 9 16
REMARK H PARENT 5 10 13 12 11 14 9 17
REMARK Flexibility Score: inf
ROOT
ATOM      1  C   UNL     1      38.054   5.485  43.046  1.00  0.00     0.221 C 
ATOM      2  C   UNL     1      36.613   5.479  43.582  1.00  0.00     0.207 C 
ATOM      3  C   UNL     1      36.187   4.033  43.428  1.00  0.00     0.180 C 
ATOM      4  C   UNL     1      37.125   3.520  42.315  1.00  0.00     0.179 C 
ATOM      5  O   UNL     1      38.080   4.519  42.011  1.00  0.00    -0.337 OA
ENDROOT
BRANCH   1   6
ATOM      6  O   UNL     1      38.939   5.115  44.104  1.00  0.00    -0.349 OA
ATOM      7  C   UNL     1      40.125   5.885  44.141  1.00  0.00     0.198 C 
ENDBRANCH   1   6
BRANCH   1   8
ATOM      8  C   UNL     1      38.392   6.892  42.482  1.00  0.00     0.224 C 
BRANCH   8   9
ATOM      9  O   UNL     1      37.530   7.876  42.989  1.00  0.00    -0.391 OA
ATOM     10  H   UNL     1      38.095   8.654  43.237  1.00  0.00     0.210 HD
ENDBRANCH   8   9
ENDBRANCH   1   8
BRANCH   2  11
ATOM     11  O   UNL     1      36.471   5.994  44.888  1.00  0.00    -0.385 OA
ATOM     12  H   UNL     1      35.652   6.549  44.935  1.00  0.00     0.211 HD
ENDBRANCH   2  11
BRANCH   3  13
ATOM     13  O   UNL     1      36.329   3.286  44.616  1.00  0.00    -0.387 OA
ATOM     14  H   UNL     1      36.619   3.898  45.340  1.00  0.00     0.211 HD
ENDBRANCH   3  13
BRANCH   4  15
ATOM     15  C   UNL     1      36.357   3.165  41.034  1.00  0.00     0.191 C 
BRANCH  15  16
ATOM     16  O   UNL     1      34.977   3.345  41.214  1.00  0.00    -0.394 OA
ATOM     17  H   UNL     1      34.536   2.527  40.868  1.00  0.00     0.210 HD
ENDBRANCH  15  16
ENDBRANCH   4  15
TORSDOF 7
ENDMDL
MODEL 8
REMARK VINA RESULT:    -4.312     14.252     15.871
REMARK INTER + INTRA:          -5.908
REMARK INTER:                  -5.539
REMARK INTRA:                  -0.369
REMARK UNBOUND:                -0.335
REMARK SMILES CO[C@@]1(CO)O[C@H](CO)[C@@H](O)[C@H]1O
REMARK SMILES IDX 3 1 12 2 10 3 7 4 6 5 2 6 1 7 4 8 5 9 13 11 11 13 8 15 9 16
REMARK H PARENT 5 10 13 12 11 14 9 17
REMARK Flexibility Score: inf
ROOT
ATOM      1  C   UNL     1      21.347   4.065  42.258  1.00  0.00     0.221 C 
ATOM      2  C   UNL     1      22.151   5.364  42.435  1.00  0.00     0.207 C 
ATOM      3  C   UNL     1      22.349   5.452  43.935  1.00  0.00     0.180 C 
ATOM      4  C   UNL     1      21.185   4.601  44.482  1.00  0.00     0.179 C 
ATOM      5  O   UNL     1      20.521   3.969  43.403  1.00  0.00    -0.337 OA
ENDROOT
BRANCH   1   6
ATOM      6  O   UNL     1      22.257   2.967  42.198  1.00  0.00    -0.349 OA
ATOM      7  C   UNL     1      21.695   1.800  41.630  1.00  0.00     0.198 C 
ENDBRANCH   1   6
BRANCH   1   8
ATOM      8  C   UNL     1      20.481   4.162  40.972  1.00  0.00     0.224 C 
BRANCH   8   9
ATOM      9  O   UNL     1      21.143   4.865  39.953  1.00  0.00    -0.391 OA
ATOM     10  H   UNL     1      20.515   5.565  39.632  1.00  0.00     0.210 HD
ENDBRANCH   8   9
ENDBRANCH   1   8
BRANCH   2  11
ATOM     11  O   UNL     1      23.344   5.423  41.683  1.00  0.00    -0.385 OA
ATOM     12  H   UNL     1      23.630   6.367  41.594  1.00  0.00     0.211 HD
ENDBRANCH   2  11
BRANCH   3  13
ATOM     13  O   UNL     1      23.601   4.956  44.356  1.00  0.00    -0.387 OA
ATOM     14  H   UNL     1      24.314   5.490  43.922  1.00  0.00     0.211 HD
ENDBRANCH   3  13
BRANCH   4  15
ATOM     15  C   UNL     1      20.168   5.449  45.258  1.00  0.00     0.191 C 
BRANCH  15  16
ATOM     16  O   UNL     1      19.979   4.939  46.552  1.00  0.00    -0.394 OA
ATOM     17  H   UNL     1      19.830   5.720  47.146  1.00  0.00     0.210 HD
ENDBRANCH  15  16
ENDBRANCH   4  15
TORSDOF 7
ENDMDL
MODEL 9
REMARK VINA RESULT:    -4.297      2.309      3.539
REMARK INTER + INTRA:          -5.888
REMARK INTER:                  -5.518
REMARK INTRA:                  -0.370
REMARK UNBOUND:                -0.335
REMARK SMILES CO[C@@]1(CO)O[C@H](CO)[C@@H](O)[C@H]1O
REMARK SMILES IDX 3 1 12 2 10 3 7 4 6 5 2 6 1 7 4 8 5 9 13 11 11 13 8 15 9 16
REMARK H PARENT 5 10 13 12 11 14 9 17
REMARK Flexibility Score: inf
ROOT
ATOM      1  C   UNL     1      37.124   4.814  43.038  1.00  0.00     0.221 C 
ATOM      2  C   UNL     1      38.498   4.138  43.188  1.00  0.00     0.207 C 
ATOM      3  C   UNL     1      39.364   4.880  42.190  1.00  0.00     0.180 C 
ATOM      4  C   UNL     1      38.330   5.436  41.189  1.00  0.00     0.179 C 
ATOM      5  O   UNL     1      37.025   5.179  41.674  1.00  0.00    -0.337 OA
ENDROOT
BRANCH   1   6
ATOM      6  O   UNL     1      37.089   5.971  43.874  1.00  0.00    -0.349 OA
ATOM      7  C   UNL     1      35.780   6.448  44.121  1.00  0.00     0.198 C 
ENDBRANCH   1   6
BRANCH   1   8
ATOM      8  C   UNL     1      36.005   3.804  43.412  1.00  0.00     0.224 C 
BRANCH   8   9
ATOM      9  O   UNL     1      36.373   3.002  44.503  1.00  0.00    -0.391 OA
ATOM     10  H   UNL     1      36.572   2.098  44.142  1.00  0.00     0.210 HD
ENDBRANCH   8   9
ENDBRANCH   1   8
BRANCH   2  11
ATOM     11  O   UNL     1      39.004   4.124  44.505  1.00  0.00    -0.385 OA
ATOM     12  H   UNL     1      39.231   3.194  44.759  1.00  0.00     0.211 HD
ENDBRANCH   2  11
BRANCH   3  13
ATOM     13  O   UNL     1      40.125   5.911  42.780  1.00  0.00    -0.387 OA
ATOM     14  H   UNL     1      40.114   6.697  42.175  1.00  0.00     0.211 HD
ENDBRANCH   3  13
BRANCH   4  15
ATOM     15  C   UNL     1      38.474   4.799  39.800  1.00  0.00     0.191 C 
BRANCH  15  16
ATOM     16  O   UNL     1      38.978   5.727  38.876  1.00  0.00    -0.394 OA
ATOM     17  H   UNL     1      39.478   6.406  39.399  1.00  0.00     0.210 HD
ENDBRANCH  15  16
ENDBRANCH   4  15
TORSDOF 7
ENDMDL
