MODEL 1
REMARK VINA RESULT:    -1.900      0.000      0.000
REMARK INTER + INTRA:          -1.900
REMARK INTER:                  -1.900
REMARK INTRA:                   0.000
REMARK UNBOUND:                 0.000
REMARK SMILES CC(=O)[O-]
REMARK SMILES IDX 1 1 2 2 3 3 4 4
REMARK H PARENT
REMARK Flexibility Score: inf
ROOT
ATOM      1  C   UNL     1     116.560 140.160 115.043  1.00  0.00     0.063 C 
ATOM      2  C   UNL     1     117.239 140.275 113.721  1.00  0.00     0.038 C 
ATOM      3  O   UNL     1     117.588 139.238 113.097  1.00  0.00    -0.550 OA
ATOM      4  O   UNL     1     117.442 141.524 113.149  1.00  0.00    -0.550 OA
ENDROOT
TORSDOF 0
ENDMDL
MODEL 2
REMARK VINA RESULT:    -1.880      1.459      1.953
REMARK INTER + INTRA:          -1.880
REMARK INTER:                  -1.880
REMARK INTRA:                   0.000
REMARK UNBOUND:                 0.000
REMARK SMILES CC(=O)[O-]
REMARK SMILES IDX 1 1 2 2 3 3 4 4
REMARK H PARENT
REMARK Flexibility Score: inf
ROOT
ATOM      1  C   UNL     1     117.769 141.686 112.403  1.00  0.00     0.063 C 
ATOM      2  C   UNL     1     117.384 140.950 113.641  1.00  0.00     0.038 C 
ATOM      3  O   UNL     1     116.910 139.786 113.562  1.00  0.00    -0.550 OA
ATOM      4  O   UNL     1     117.597 141.525 114.887  1.00  0.00    -0.550 OA
ENDROOT
TORSDOF 0
ENDMDL
MODEL 3
REMARK VINA RESULT:    -1.879      2.740      3.305
REMARK INTER + INTRA:          -1.879
REMARK INTER:                  -1.879
REMARK INTRA:                   0.000
REMARK UNBOUND:                 0.000
REMARK SMILES CC(=O)[O-]
REMARK SMILES IDX 1 1 2 2 3 3 4 4
REMARK H PARENT
REMARK Flexibility Score: inf
ROOT
ATOM      1  C   UNL     1     117.191 142.755 110.875  1.00  0.00     0.063 C 
ATOM      2  C   UNL     1     118.108 141.964 111.745  1.00  0.00     0.038 C 
ATOM      3  O   UNL     1     119.240 141.615 111.317  1.00  0.00    -0.550 OA
ATOM      4  O   UNL     1     117.738 141.657 113.048  1.00  0.00    -0.550 OA
ENDROOT
TORSDOF 0
ENDMDL
MODEL 4
REMARK VINA RESULT:    -1.878     18.033     18.631
REMARK INTER + INTRA:          -1.878
REMARK INTER:                  -1.878
REMARK INTRA:                   0.000
REMARK UNBOUND:                 0.000
REMARK SMILES CC(=O)[O-]
REMARK SMILES IDX 1 1 2 2 3 3 4 4
REMARK H PARENT
REMARK Flexibility Score: inf
ROOT
ATOM      1  C   UNL     1     116.623 149.940 128.230  1.00  0.00     0.063 C 
ATOM      2  C   UNL     1     117.164 149.879 129.618  1.00  0.00     0.038 C 
ATOM      3  O   UNL     1     117.377 150.941 130.260  1.00  0.00    -0.550 OA
ATOM      4  O   UNL     1     117.384 148.650 130.226  1.00  0.00    -0.550 OA
ENDROOT
TORSDOF 0
ENDMDL
MODEL 5
REMARK VINA RESULT:    -1.877     18.029     18.558
REMARK INTER + INTRA:          -1.877
REMARK INTER:                  -1.877
REMARK INTRA:                   0.000
REMARK UNBOUND:                 0.000
REMARK SMILES CC(=O)[O-]
REMARK SMILES IDX 1 1 2 2 3 3 4 4
REMARK H PARENT
REMARK Flexibility Score: inf
ROOT
ATOM      1  C   UNL     1     116.570 149.998 128.247  1.00  0.00     0.063 C 
ATOM      2  C   UNL     1     117.137 149.827 129.616  1.00  0.00     0.038 C 
ATOM      3  O   UNL     1     117.417 148.676 130.044  1.00  0.00    -0.550 OA
ATOM      4  O   UNL     1     117.408 150.940 130.400  1.00  0.00    -0.550 OA
ENDROOT
TORSDOF 0
ENDMDL
MODEL 6
REMARK VINA RESULT:    -1.781      1.950      2.708
REMARK INTER + INTRA:          -1.781
REMARK INTER:                  -1.781
REMARK INTRA:                   0.000
REMARK UNBOUND:                 0.000
REMARK SMILES CC(=O)[O-]
REMARK SMILES IDX 1 1 2 2 3 3 4 4
REMARK H PARENT
REMARK Flexibility Score: inf
ROOT
ATOM      1  C   UNL     1     117.064 140.178 113.441  1.00  0.00     0.063 C 
ATOM      2  C   UNL     1     116.519 139.663 114.730  1.00  0.00     0.038 C 
ATOM      3  O   UNL     1     116.285 140.457 115.679  1.00  0.00    -0.550 OA
ATOM      4  O   UNL     1     116.218 138.314 114.869  1.00  0.00    -0.550 OA
ENDROOT
TORSDOF 0
ENDMDL
MODEL 7
REMARK VINA RESULT:    -1.775     10.070     10.324
REMARK INTER + INTRA:          -1.775
REMARK INTER:                  -1.775
REMARK INTRA:                   0.000
REMARK UNBOUND:                 0.000
REMARK SMILES CC(=O)[O-]
REMARK SMILES IDX 1 1 2 2 3 3 4 4
REMARK H PARENT
REMARK Flexibility Score: inf
ROOT
ATOM      1  C   UNL     1     107.789 137.415 112.319  1.00  0.00     0.063 C 
ATOM      2  C   UNL     1     108.013 136.019 112.794  1.00  0.00     0.038 C 
ATOM      3  O   UNL     1     108.681 135.214 112.093  1.00  0.00    -0.550 OA
ATOM      4  O   UNL     1     107.532 135.620 114.034  1.00  0.00    -0.550 OA
ENDROOT
TORSDOF 0
ENDMDL
MODEL 8
REMARK VINA RESULT:    -1.773      1.452      2.137
REMARK INTER + INTRA:          -1.773
REMARK INTER:                  -1.773
REMARK INTRA:                   0.000
REMARK UNBOUND:                 0.000
REMARK SMILES CC(=O)[O-]
REMARK SMILES IDX 1 1 2 2 3 3 4 4
REMARK H PARENT
REMARK Flexibility Score: inf
ROOT
ATOM      1  C   UNL     1     116.629 140.768 116.099  1.00  0.00     0.063 C 
ATOM      2  C   UNL     1     116.623 139.973 114.837  1.00  0.00     0.038 C 
ATOM      3  O   UNL     1     117.000 140.500 113.757  1.00  0.00    -0.550 OA
ATOM      4  O   UNL     1     116.252 138.635 114.860  1.00  0.00    -0.550 OA
ENDROOT
TORSDOF 0
ENDMDL
MODEL 9
REMARK VINA RESULT:    -1.735      9.208      9.662
REMARK INTER + INTRA:          -1.735
REMARK INTER:                  -1.735
REMARK INTRA:                   0.000
REMARK UNBOUND:                 0.000
REMARK SMILES CC(=O)[O-]
REMARK SMILES IDX 1 1 2 2 3 3 4 4
REMARK H PARENT
REMARK Flexibility Score: inf
ROOT
ATOM      1  C   UNL     1     118.513 146.235 122.588  1.00  0.00     0.063 C 
ATOM      2  C   UNL     1     119.078 145.140 121.750  1.00  0.00     0.038 C 
ATOM      3  O   UNL     1     118.312 144.390 121.090  1.00  0.00    -0.550 OA
ATOM      4  O   UNL     1     120.454 144.979 121.651  1.00  0.00    -0.550 OA
ENDROOT
TORSDOF 0
ENDMDL
