MODEL 1
REMARK VINA RESULT:    -4.517      0.000      0.000
REMARK INTER + INTRA:          -8.727
REMARK INTER:                  -7.158
REMARK INTRA:                  -1.569
REMARK UNBOUND:                -1.569
REMARK SMILES CCCCCCCCCCCC(=O)[O-]
REMARK SMILES IDX 7 1 8 2 9 3 10 4 11 5 12 6 13 7 14 8 6 9 5 10 4 11 3 12 2 13
REMARK SMILES IDX 1 14
REMARK H PARENT
REMARK Flexibility Score: inf
ROOT
ATOM      1  C   UNL     1     -18.826  56.552  -3.423  1.00  0.00     0.000 C 
ENDROOT
BRANCH   1   2
ATOM      2  C   UNL     1     -18.277  55.135  -3.641  1.00  0.00     0.000 C 
BRANCH   2   3
ATOM      3  C   UNL     1     -17.395  54.701  -2.464  1.00  0.00     0.000 C 
BRANCH   3   4
ATOM      4  C   UNL     1     -17.289  55.813  -1.414  1.00  0.00     0.006 C 
BRANCH   4   5
ATOM      5  C   UNL     1     -18.025  55.426  -0.128  1.00  0.00     0.053 C 
BRANCH   5   6
ATOM      6  C   UNL     1     -18.792  56.593   0.408  1.00  0.00     0.041 C 
ATOM      7  O   UNL     1     -20.048  56.546   0.484  1.00  0.00    -0.550 OA
ATOM      8  O   UNL     1     -18.116  57.715   0.871  1.00  0.00    -0.550 OA
ENDBRANCH   5   6
ENDBRANCH   4   5
ENDBRANCH   3   4
ENDBRANCH   2   3
ENDBRANCH   1   2
BRANCH   1   9
ATOM      9  C   UNL     1     -20.351  56.574  -3.232  1.00  0.00     0.000 C 
BRANCH   9  10
ATOM     10  C   UNL     1     -20.963  55.163  -3.176  1.00  0.00    -0.000 C 
BRANCH  10  11
ATOM     11  C   UNL     1     -21.933  54.996  -1.987  1.00  0.00    -0.000 C 
BRANCH  11  12
ATOM     12  C   UNL     1     -21.643  53.755  -1.126  1.00  0.00    -0.000 C 
BRANCH  12  13
ATOM     13  C   UNL     1     -20.616  52.811  -1.766  1.00  0.00    -0.003 C 
ATOM     14  C   UNL     1     -19.713  52.182  -0.707  1.00  0.00     0.004 C 
ENDBRANCH  12  13
ENDBRANCH  11  12
ENDBRANCH  10  11
ENDBRANCH   9  10
ENDBRANCH   1   9
TORSDOF 10
ENDMDL
MODEL 2
REMARK VINA RESULT:    -4.513      2.607      5.231
REMARK INTER + INTRA:          -8.721
REMARK INTER:                  -7.819
REMARK INTRA:                  -0.901
REMARK UNBOUND:                -1.569
REMARK SMILES CCCCCCCCCCCC(=O)[O-]
REMARK SMILES IDX 7 1 8 2 9 3 10 4 11 5 12 6 13 7 14 8 6 9 5 10 4 11 3 12 2 13
REMARK SMILES IDX 1 14
REMARK H PARENT
REMARK Flexibility Score: inf
ROOT
ATOM      1  C   UNL     1     -17.002  56.510  -2.708  1.00  0.00     0.000 C 
ENDROOT
BRANCH   1   2
ATOM      2  C   UNL     1     -18.186  56.658  -3.674  1.00  0.00     0.000 C 
BRANCH   2   3
ATOM      3  C   UNL     1     -19.282  55.633  -3.360  1.00  0.00     0.000 C 
BRANCH   3   4
ATOM      4  C   UNL     1     -20.628  56.324  -3.109  1.00  0.00     0.006 C 
BRANCH   4   5
ATOM      5  C   UNL     1     -21.227  55.889  -1.769  1.00  0.00     0.053 C 
BRANCH   5   6
ATOM      6  C   UNL     1     -22.280  54.848  -1.981  1.00  0.00     0.041 C 
ATOM      7  O   UNL     1     -22.160  53.708  -1.459  1.00  0.00    -0.550 OA
ATOM      8  O   UNL     1     -23.421  55.152  -2.713  1.00  0.00    -0.550 OA
ENDBRANCH   5   6
ENDBRANCH   4   5
ENDBRANCH   3   4
ENDBRANCH   2   3
ENDBRANCH   1   2
BRANCH   1   9
ATOM      9  C   UNL     1     -17.184  55.346  -1.721  1.00  0.00     0.000 C 
BRANCH   9  10
ATOM     10  C   UNL     1     -16.839  55.737  -0.273  1.00  0.00    -0.000 C 
BRANCH  10  11
ATOM     11  C   UNL     1     -17.501  57.068   0.144  1.00  0.00    -0.000 C 
BRANCH  11  12
ATOM     12  C   UNL     1     -16.570  57.993   0.946  1.00  0.00    -0.000 C 
BRANCH  12  13
ATOM     13  C   UNL     1     -15.339  58.441   0.146  1.00  0.00    -0.003 C 
ATOM     14  C   UNL     1     -14.302  59.098   1.054  1.00  0.00     0.004 C 
ENDBRANCH  12  13
ENDBRANCH  11  12
ENDBRANCH  10  11
ENDBRANCH   9  10
ENDBRANCH   1   9
TORSDOF 10
ENDMDL
MODEL 3
REMARK VINA RESULT:    -4.497      1.264      1.525
REMARK INTER + INTRA:          -8.695
REMARK INTER:                  -7.429
REMARK INTRA:                  -1.266
REMARK UNBOUND:                -1.569
REMARK SMILES CCCCCCCCCCCC(=O)[O-]
REMARK SMILES IDX 7 1 8 2 9 3 10 4 11 5 12 6 13 7 14 8 6 9 5 10 4 11 3 12 2 13
REMARK SMILES IDX 1 14
REMARK H PARENT
REMARK Flexibility Score: inf
ROOT
ATOM      1  C   UNL     1     -19.725  56.239  -2.705  1.00  0.00     0.000 C 
ENDROOT
BRANCH   1   2
ATOM      2  C   UNL     1     -18.588  56.663  -3.645  1.00  0.00     0.000 C 
BRANCH   2   3
ATOM      3  C   UNL     1     -17.338  55.803  -3.419  1.00  0.00     0.000 C 
BRANCH   3   4
ATOM      4  C   UNL     1     -17.668  54.560  -2.585  1.00  0.00     0.006 C 
BRANCH   4   5
ATOM      5  C   UNL     1     -16.714  54.427  -1.395  1.00  0.00     0.053 C 
BRANCH   5   6
ATOM      6  C   UNL     1     -17.181  55.274  -0.253  1.00  0.00     0.041 C 
ATOM      7  O   UNL     1     -18.258  55.002   0.340  1.00  0.00    -0.550 OA
ATOM      8  O   UNL     1     -16.401  56.336   0.188  1.00  0.00    -0.550 OA
ENDBRANCH   5   6
ENDBRANCH   4   5
ENDBRANCH   3   4
ENDBRANCH   2   3
ENDBRANCH   1   2
BRANCH   1   9
ATOM      9  C   UNL     1     -21.090  56.189  -3.410  1.00  0.00     0.000 C 
BRANCH   9  10
ATOM     10  C   UNL     1     -22.147  55.413  -2.605  1.00  0.00    -0.000 C 
BRANCH  10  11
ATOM     11  C   UNL     1     -21.646  55.047  -1.190  1.00  0.00    -0.000 C 
BRANCH  11  12
ATOM     12  C   UNL     1     -21.736  53.545  -0.875  1.00  0.00    -0.000 C 
BRANCH  12  13
ATOM     13  C   UNL     1     -20.706  52.710  -1.648  1.00  0.00    -0.003 C 
ATOM     14  C   UNL     1     -19.814  51.919  -0.695  1.00  0.00     0.004 C 
ENDBRANCH  12  13
ENDBRANCH  11  12
ENDBRANCH  10  11
ENDBRANCH   9  10
ENDBRANCH   1   9
TORSDOF 10
ENDMDL
MODEL 4
REMARK VINA RESULT:    -4.481      2.701      5.204
REMARK INTER + INTRA:          -8.670
REMARK INTER:                  -7.851
REMARK INTRA:                  -0.819
REMARK UNBOUND:                -1.569
REMARK SMILES CCCCCCCCCCCC(=O)[O-]
REMARK SMILES IDX 7 1 8 2 9 3 10 4 11 5 12 6 13 7 14 8 6 9 5 10 4 11 3 12 2 13
REMARK SMILES IDX 1 14
REMARK H PARENT
REMARK Flexibility Score: inf
ROOT
ATOM      1  C   UNL     1     -20.439  54.939  -0.370  1.00  0.00     0.000 C 
ENDROOT
BRANCH   1   2
ATOM      2  C   UNL     1     -19.445  53.772  -0.460  1.00  0.00     0.000 C 
BRANCH   2   3
ATOM      3  C   UNL     1     -19.540  53.072  -1.821  1.00  0.00     0.000 C 
BRANCH   3   4
ATOM      4  C   UNL     1     -19.760  54.087  -2.949  1.00  0.00     0.006 C 
BRANCH   4   5
ATOM      5  C   UNL     1     -18.467  54.841  -3.270  1.00  0.00     0.053 C 
BRANCH   5   6
ATOM      6  C   UNL     1     -18.747  56.295  -3.479  1.00  0.00     0.041 C 
ATOM      7  O   UNL     1     -17.811  57.087  -3.765  1.00  0.00    -0.550 OA
ATOM      8  O   UNL     1     -20.051  56.769  -3.408  1.00  0.00    -0.550 OA
ENDBRANCH   5   6
ENDBRANCH   4   5
ENDBRANCH   3   4
ENDBRANCH   2   3
ENDBRANCH   1   2
BRANCH   1   9
ATOM      9  C   UNL     1     -19.795  56.227   0.165  1.00  0.00     0.000 C 
BRANCH   9  10
ATOM     10  C   UNL     1     -18.260  56.139   0.235  1.00  0.00    -0.000 C 
BRANCH  10  11
ATOM     11  C   UNL     1     -17.619  57.479   0.658  1.00  0.00    -0.000 C 
BRANCH  11  12
ATOM     12  C   UNL     1     -16.090  57.509   0.493  1.00  0.00    -0.000 C 
BRANCH  12  13
ATOM     13  C   UNL     1     -15.526  58.933   0.414  1.00  0.00    -0.003 C 
ATOM     14  C   UNL     1     -14.203  59.044   1.167  1.00  0.00     0.004 C 
ENDBRANCH  12  13
ENDBRANCH  11  12
ENDBRANCH  10  11
ENDBRANCH   9  10
ENDBRANCH   1   9
TORSDOF 10
ENDMDL
MODEL 5
REMARK VINA RESULT:    -4.431      2.590      4.665
REMARK INTER + INTRA:          -8.591
REMARK INTER:                  -7.665
REMARK INTRA:                  -0.927
REMARK UNBOUND:                -1.569
REMARK SMILES CCCCCCCCCCCC(=O)[O-]
REMARK SMILES IDX 7 1 8 2 9 3 10 4 11 5 12 6 13 7 14 8 6 9 5 10 4 11 3 12 2 13
REMARK SMILES IDX 1 14
REMARK H PARENT
REMARK Flexibility Score: inf
ROOT
ATOM      1  C   UNL     1     -23.145  55.855  -2.386  1.00  0.00     0.000 C 
ENDROOT
BRANCH   1   2
ATOM      2  C   UNL     1     -23.573  54.678  -1.498  1.00  0.00     0.000 C 
BRANCH   2   3
ATOM      3  C   UNL     1     -22.810  54.687  -0.168  1.00  0.00     0.000 C 
BRANCH   3   4
ATOM      4  C   UNL     1     -21.965  53.417  -0.008  1.00  0.00     0.006 C 
BRANCH   4   5
ATOM      5  C   UNL     1     -20.530  53.649  -0.486  1.00  0.00     0.053 C 
BRANCH   5   6
ATOM      6  C   UNL     1     -20.057  52.490  -1.306  1.00  0.00     0.041 C 
ATOM      7  O   UNL     1     -19.796  52.642  -2.528  1.00  0.00    -0.550 OA
ATOM      8  O   UNL     1     -19.856  51.252  -0.708  1.00  0.00    -0.550 OA
ENDBRANCH   5   6
ENDBRANCH   4   5
ENDBRANCH   3   4
ENDBRANCH   2   3
ENDBRANCH   1   2
BRANCH   1   9
ATOM      9  C   UNL     1     -21.940  55.518  -3.278  1.00  0.00     0.000 C 
BRANCH   9  10
ATOM     10  C   UNL     1     -20.858  56.612  -3.252  1.00  0.00    -0.000 C 
BRANCH  10  11
ATOM     11  C   UNL     1     -19.460  56.041  -2.928  1.00  0.00    -0.000 C 
BRANCH  11  12
ATOM     12  C   UNL     1     -18.322  56.721  -3.707  1.00  0.00    -0.000 C 
BRANCH  12  13
ATOM     13  C   UNL     1     -16.999  55.948  -3.627  1.00  0.00    -0.003 C 
ATOM     14  C   UNL     1     -17.016  54.946  -2.475  1.00  0.00     0.004 C 
ENDBRANCH  12  13
ENDBRANCH  11  12
ENDBRANCH  10  11
ENDBRANCH   9  10
ENDBRANCH   1   9
TORSDOF 10
ENDMDL
MODEL 6
REMARK VINA RESULT:    -4.422      2.122      4.237
REMARK INTER + INTRA:          -8.576
REMARK INTER:                  -7.250
REMARK INTRA:                  -1.326
REMARK UNBOUND:                -1.569
REMARK SMILES CCCCCCCCCCCC(=O)[O-]
REMARK SMILES IDX 7 1 8 2 9 3 10 4 11 5 12 6 13 7 14 8 6 9 5 10 4 11 3 12 2 13
REMARK SMILES IDX 1 14
REMARK H PARENT
REMARK Flexibility Score: inf
ROOT
ATOM      1  C   UNL     1     -19.524  55.794  -3.231  1.00  0.00     0.000 C 
ENDROOT
BRANCH   1   2
ATOM      2  C   UNL     1     -20.846  56.555  -3.406  1.00  0.00     0.000 C 
BRANCH   2   3
ATOM      3  C   UNL     1     -21.947  55.952  -2.525  1.00  0.00     0.000 C 
BRANCH   3   4
ATOM      4  C   UNL     1     -21.348  55.176  -1.346  1.00  0.00     0.006 C 
BRANCH   4   5
ATOM      5  C   UNL     1     -21.845  53.728  -1.332  1.00  0.00     0.053 C 
BRANCH   5   6
ATOM      6  C   UNL     1     -20.705  52.786  -1.105  1.00  0.00     0.041 C 
ATOM      7  O   UNL     1     -19.962  52.446  -2.063  1.00  0.00    -0.550 OA
ATOM      8  O   UNL     1     -20.432  52.321   0.176  1.00  0.00    -0.550 OA
ENDBRANCH   5   6
ENDBRANCH   4   5
ENDBRANCH   3   4
ENDBRANCH   2   3
ENDBRANCH   1   2
BRANCH   1   9
ATOM      9  C   UNL     1     -18.302  56.622  -3.659  1.00  0.00     0.000 C 
BRANCH   9  10
ATOM     10  C   UNL     1     -16.981  56.063  -3.101  1.00  0.00    -0.000 C 
BRANCH  10  11
ATOM     11  C   UNL     1     -17.185  54.727  -2.354  1.00  0.00    -0.000 C 
BRANCH  11  12
ATOM     12  C   UNL     1     -16.737  54.770  -0.883  1.00  0.00    -0.000 C 
BRANCH  12  13
ATOM     13  C   UNL     1     -17.913  54.898   0.095  1.00  0.00    -0.003 C 
ATOM     14  C   UNL     1     -18.265  56.363   0.343  1.00  0.00     0.004 C 
ENDBRANCH  12  13
ENDBRANCH  11  12
ENDBRANCH  10  11
ENDBRANCH   9  10
ENDBRANCH   1   9
TORSDOF 10
ENDMDL
MODEL 7
REMARK VINA RESULT:    -4.392      2.271      4.201
REMARK INTER + INTRA:          -8.529
REMARK INTER:                  -7.010
REMARK INTRA:                  -1.519
REMARK UNBOUND:                -1.569
REMARK SMILES CCCCCCCCCCCC(=O)[O-]
REMARK SMILES IDX 7 1 8 2 9 3 10 4 11 5 12 6 13 7 14 8 6 9 5 10 4 11 3 12 2 13
REMARK SMILES IDX 1 14
REMARK H PARENT
REMARK Flexibility Score: inf
ROOT
ATOM      1  C   UNL     1     -19.900  56.471  -3.311  1.00  0.00     0.000 C 
ENDROOT
BRANCH   1   2
ATOM      2  C   UNL     1     -20.982  55.451  -2.929  1.00  0.00     0.000 C 
BRANCH   2   3
ATOM      3  C   UNL     1     -20.356  54.104  -2.546  1.00  0.00     0.000 C 
BRANCH   3   4
ATOM      4  C   UNL     1     -21.312  53.279  -1.676  1.00  0.00     0.006 C 
BRANCH   4   5
ATOM      5  C   UNL     1     -21.412  53.863  -0.265  1.00  0.00     0.053 C 
BRANCH   5   6
ATOM      6  C   UNL     1     -22.845  54.063   0.119  1.00  0.00     0.041 C 
ATOM      7  O   UNL     1     -23.278  53.611   1.211  1.00  0.00    -0.550 OA
ATOM      8  O   UNL     1     -23.690  54.793  -0.708  1.00  0.00    -0.550 OA
ENDBRANCH   5   6
ENDBRANCH   4   5
ENDBRANCH   3   4
ENDBRANCH   2   3
ENDBRANCH   1   2
BRANCH   1   9
ATOM      9  C   UNL     1     -18.555  55.810  -3.649  1.00  0.00     0.000 C 
BRANCH   9  10
ATOM     10  C   UNL     1     -17.350  56.706  -3.308  1.00  0.00    -0.000 C 
BRANCH  10  11
ATOM     11  C   UNL     1     -17.056  56.730  -1.792  1.00  0.00    -0.000 C 
BRANCH  11  12
ATOM     12  C   UNL     1     -17.085  55.339  -1.137  1.00  0.00    -0.000 C 
BRANCH  12  13
ATOM     13  C   UNL     1     -17.939  55.297   0.137  1.00  0.00    -0.003 C 
ATOM     14  C   UNL     1     -18.768  56.570   0.285  1.00  0.00     0.004 C 
ENDBRANCH  12  13
ENDBRANCH  11  12
ENDBRANCH  10  11
ENDBRANCH   9  10
ENDBRANCH   1   9
TORSDOF 10
ENDMDL
MODEL 8
REMARK VINA RESULT:    -4.330      2.383      4.078
REMARK INTER + INTRA:          -8.430
REMARK INTER:                  -6.894
REMARK INTRA:                  -1.536
REMARK UNBOUND:                -1.569
REMARK SMILES CCCCCCCCCCCC(=O)[O-]
REMARK SMILES IDX 7 1 8 2 9 3 10 4 11 5 12 6 13 7 14 8 6 9 5 10 4 11 3 12 2 13
REMARK SMILES IDX 1 14
REMARK H PARENT
REMARK Flexibility Score: inf
ROOT
ATOM      1  C   UNL     1     -18.501  53.848  -3.195  1.00  0.00     0.000 C 
ENDROOT
BRANCH   1   2
ATOM      2  C   UNL     1     -19.855  53.382  -2.642  1.00  0.00     0.000 C 
BRANCH   2   3
ATOM      3  C   UNL     1     -19.667  52.459  -1.432  1.00  0.00     0.000 C 
BRANCH   3   4
ATOM      4  C   UNL     1     -20.648  52.815  -0.309  1.00  0.00     0.006 C 
BRANCH   4   5
ATOM      5  C   UNL     1     -21.301  54.176  -0.561  1.00  0.00     0.053 C 
BRANCH   5   6
ATOM      6  C   UNL     1     -22.730  54.162  -0.119  1.00  0.00     0.041 C 
ATOM      7  O   UNL     1     -23.060  53.570   0.943  1.00  0.00    -0.550 OA
ATOM      8  O   UNL     1     -23.692  54.845  -0.853  1.00  0.00    -0.550 OA
ENDBRANCH   5   6
ENDBRANCH   4   5
ENDBRANCH   3   4
ENDBRANCH   2   3
ENDBRANCH   1   2
BRANCH   1   9
ATOM      9  C   UNL     1     -18.493  55.339  -3.567  1.00  0.00     0.000 C 
BRANCH   9  10
ATOM     10  C   UNL     1     -18.776  56.254  -2.362  1.00  0.00    -0.000 C 
BRANCH  10  11
ATOM     11  C   UNL     1     -17.493  56.580  -1.567  1.00  0.00    -0.000 C 
BRANCH  11  12
ATOM     12  C   UNL     1     -17.688  56.542  -0.042  1.00  0.00    -0.000 C 
BRANCH  12  13
ATOM     13  C   UNL     1     -17.811  55.115   0.509  1.00  0.00    -0.003 C 
ATOM     14  C   UNL     1     -16.635  54.251   0.062  1.00  0.00     0.004 C 
ENDBRANCH  12  13
ENDBRANCH  11  12
ENDBRANCH  10  11
ENDBRANCH   9  10
ENDBRANCH   1   9
TORSDOF 10
ENDMDL
MODEL 9
REMARK VINA RESULT:    -4.319      1.127      3.279
REMARK INTER + INTRA:          -8.413
REMARK INTER:                  -7.063
REMARK INTRA:                  -1.351
REMARK UNBOUND:                -1.569
REMARK SMILES CCCCCCCCCCCC(=O)[O-]
REMARK SMILES IDX 7 1 8 2 9 3 10 4 11 5 12 6 13 7 14 8 6 9 5 10 4 11 3 12 2 13
REMARK SMILES IDX 1 14
REMARK H PARENT
REMARK Flexibility Score: inf
ROOT
ATOM      1  C   UNL     1     -21.801  53.637  -0.896  1.00  0.00     0.000 C 
ENDROOT
BRANCH   1   2
ATOM      2  C   UNL     1     -20.483  53.021  -1.387  1.00  0.00     0.000 C 
BRANCH   2   3
ATOM      3  C   UNL     1     -19.482  52.876  -0.234  1.00  0.00     0.000 C 
BRANCH   3   4
ATOM      4  C   UNL     1     -18.320  53.865  -0.385  1.00  0.00     0.006 C 
BRANCH   4   5
ATOM      5  C   UNL     1     -18.731  55.268   0.068  1.00  0.00     0.053 C 
BRANCH   5   6
ATOM      6  C   UNL     1     -17.523  56.124   0.282  1.00  0.00     0.041 C 
ATOM      7  O   UNL     1     -17.647  57.299   0.716  1.00  0.00    -0.550 OA
ATOM      8  O   UNL     1     -16.255  55.606   0.051  1.00  0.00    -0.550 OA
ENDBRANCH   5   6
ENDBRANCH   4   5
ENDBRANCH   3   4
ENDBRANCH   2   3
ENDBRANCH   1   2
BRANCH   1   9
ATOM      9  C   UNL     1     -22.365  54.684  -1.869  1.00  0.00     0.000 C 
BRANCH   9  10
ATOM     10  C   UNL     1     -21.382  55.034  -3.000  1.00  0.00    -0.000 C 
BRANCH  10  11
ATOM     11  C   UNL     1     -20.654  56.371  -2.745  1.00  0.00    -0.000 C 
BRANCH  11  12
ATOM     12  C   UNL     1     -19.438  56.594  -3.659  1.00  0.00    -0.000 C 
BRANCH  12  13
ATOM     13  C   UNL     1     -18.452  55.418  -3.639  1.00  0.00    -0.003 C 
ATOM     14  C   UNL     1     -17.026  55.901  -3.389  1.00  0.00     0.004 C 
ENDBRANCH  12  13
ENDBRANCH  11  12
ENDBRANCH  10  11
ENDBRANCH   9  10
ENDBRANCH   1   9
TORSDOF 10
ENDMDL
