MODEL 1
REMARK VINA RESULT:    -4.236      0.000      0.000
REMARK INTER + INTRA:          -4.634
REMARK INTER:                  -4.607
REMARK INTRA:                  -0.027
REMARK UNBOUND:                -0.027
REMARK SMILES O=C([O-])c1ccc(O)cc1
REMARK SMILES IDX 4 1 5 2 10 3 6 4 9 5 7 6 2 7 1 8 3 9 8 10
REMARK H PARENT 8 11
REMARK Flexibility Score: inf
ROOT
ATOM      1  C   UNL     1      15.887 -45.060  31.236  1.00  0.00    -0.003 A 
ATOM      2  C   UNL     1      15.092 -45.202  30.084  1.00  0.00     0.014 A 
ATOM      3  C   UNL     1      17.284 -44.991  31.096  1.00  0.00     0.014 A 
ATOM      4  C   UNL     1      15.684 -45.273  28.819  1.00  0.00     0.047 A 
ATOM      5  C   UNL     1      17.873 -45.062  29.830  1.00  0.00     0.047 A 
ATOM      6  C   UNL     1      17.074 -45.204  28.687  1.00  0.00     0.115 A 
ENDROOT
BRANCH   1   7
ATOM      7  C   UNL     1      15.257 -44.985  32.573  1.00  0.00     0.071 C 
ATOM      8  O   UNL     1      15.193 -46.005  33.309  1.00  0.00    -0.545 OA
ATOM      9  O   UNL     1      14.728 -43.786  33.037  1.00  0.00    -0.545 OA
ENDBRANCH   1   7
BRANCH   6  10
ATOM     10  O   UNL     1      17.650 -45.276  27.422  1.00  0.00    -0.508 OA
ATOM     11  H   UNL     1      17.208 -44.853  26.613  1.00  0.00     0.293 HD
ENDBRANCH   6  10
TORSDOF 2
ENDMDL
MODEL 2
REMARK VINA RESULT:    -4.235      0.048      1.532
REMARK INTER + INTRA:          -4.634
REMARK INTER:                  -4.607
REMARK INTRA:                  -0.027
REMARK UNBOUND:                -0.027
REMARK SMILES O=C([O-])c1ccc(O)cc1
REMARK SMILES IDX 4 1 5 2 10 3 6 4 9 5 7 6 2 7 1 8 3 9 8 10
REMARK H PARENT 8 11
REMARK Flexibility Score: inf
ROOT
ATOM      1  C   UNL     1      15.886 -45.104  31.225  1.00  0.00    -0.003 A 
ATOM      2  C   UNL     1      17.285 -45.036  31.090  1.00  0.00     0.014 A 
ATOM      3  C   UNL     1      15.095 -45.226  30.068  1.00  0.00     0.014 A 
ATOM      4  C   UNL     1      17.878 -45.089  29.824  1.00  0.00     0.047 A 
ATOM      5  C   UNL     1      15.691 -45.279  28.805  1.00  0.00     0.047 A 
ATOM      6  C   UNL     1      17.085 -45.211  28.679  1.00  0.00     0.115 A 
ENDROOT
BRANCH   1   7
ATOM      7  C   UNL     1      15.262 -45.048  32.565  1.00  0.00     0.071 C 
ATOM      8  O   UNL     1      15.194 -46.080  33.284  1.00  0.00    -0.545 OA
ATOM      9  O   UNL     1      14.742 -43.854  33.051  1.00  0.00    -0.545 OA
ENDBRANCH   1   7
BRANCH   6  10
ATOM     10  O   UNL     1      17.689 -45.262  27.425  1.00  0.00    -0.508 OA
ATOM     11  H   UNL     1      17.310 -45.833  26.678  1.00  0.00     0.293 HD
ENDBRANCH   6  10
TORSDOF 2
ENDMDL
MODEL 3
REMARK VINA RESULT:    -4.227      1.979      2.968
REMARK INTER + INTRA:          -4.625
REMARK INTER:                  -4.597
REMARK INTRA:                  -0.028
REMARK UNBOUND:                -0.027
REMARK SMILES O=C([O-])c1ccc(O)cc1
REMARK SMILES IDX 4 1 5 2 10 3 6 4 9 5 7 6 2 7 1 8 3 9 8 10
REMARK H PARENT 8 11
REMARK Flexibility Score: inf
ROOT
ATOM      1  C   UNL     1      16.958 -44.776  32.194  1.00  0.00    -0.003 A 
ATOM      2  C   UNL     1      18.153 -44.976  32.909  1.00  0.00     0.014 A 
ATOM      3  C   UNL     1      17.028 -44.387  30.845  1.00  0.00     0.014 A 
ATOM      4  C   UNL     1      19.391 -44.790  32.286  1.00  0.00     0.047 A 
ATOM      5  C   UNL     1      18.267 -44.203  30.224  1.00  0.00     0.047 A 
ATOM      6  C   UNL     1      19.453 -44.403  30.944  1.00  0.00     0.115 A 
ENDROOT
BRANCH   1   7
ATOM      7  C   UNL     1      15.650 -44.973  32.857  1.00  0.00     0.071 C 
ATOM      8  O   UNL     1      14.900 -43.990  33.099  1.00  0.00    -0.545 OA
ATOM      9  O   UNL     1      15.229 -46.247  33.222  1.00  0.00    -0.545 OA
ENDBRANCH   1   7
BRANCH   6  10
ATOM     10  O   UNL     1      20.692 -44.222  30.336  1.00  0.00    -0.508 OA
ATOM     11  H   UNL     1      20.845 -44.460  29.362  1.00  0.00     0.293 HD
ENDBRANCH   6  10
TORSDOF 2
ENDMDL
MODEL 4
REMARK VINA RESULT:    -4.223      1.984      2.666
REMARK INTER + INTRA:          -4.620
REMARK INTER:                  -4.592
REMARK INTRA:                  -0.028
REMARK UNBOUND:                -0.027
REMARK SMILES O=C([O-])c1ccc(O)cc1
REMARK SMILES IDX 4 1 5 2 10 3 6 4 9 5 7 6 2 7 1 8 3 9 8 10
REMARK H PARENT 8 11
REMARK Flexibility Score: inf
ROOT
ATOM      1  C   UNL     1      16.971 -44.783  32.206  1.00  0.00    -0.003 A 
ATOM      2  C   UNL     1      17.045 -44.403  30.853  1.00  0.00     0.014 A 
ATOM      3  C   UNL     1      18.163 -44.969  32.928  1.00  0.00     0.014 A 
ATOM      4  C   UNL     1      18.287 -44.215  30.238  1.00  0.00     0.047 A 
ATOM      5  C   UNL     1      19.403 -44.779  32.310  1.00  0.00     0.047 A 
ATOM      6  C   UNL     1      19.468 -44.401  30.962  1.00  0.00     0.115 A 
ENDROOT
BRANCH   1   7
ATOM      7  C   UNL     1      15.655 -44.982  32.854  1.00  0.00     0.071 C 
ATOM      8  O   UNL     1      14.899 -44.001  33.081  1.00  0.00    -0.545 OA
ATOM      9  O   UNL     1      15.236 -46.255  33.221  1.00  0.00    -0.545 OA
ENDBRANCH   1   7
BRANCH   6  10
ATOM     10  O   UNL     1      20.697 -44.210  30.336  1.00  0.00    -0.508 OA
ATOM     11  H   UNL     1      20.766 -43.758  29.431  1.00  0.00     0.293 HD
ENDBRANCH   6  10
TORSDOF 2
ENDMDL
MODEL 5
REMARK VINA RESULT:    -4.215      3.089      4.577
REMARK INTER + INTRA:          -4.612
REMARK INTER:                  -4.580
REMARK INTRA:                  -0.032
REMARK UNBOUND:                -0.027
REMARK SMILES O=C([O-])c1ccc(O)cc1
REMARK SMILES IDX 4 1 5 2 10 3 6 4 9 5 7 6 2 7 1 8 3 9 8 10
REMARK H PARENT 8 11
REMARK Flexibility Score: inf
ROOT
ATOM      1  C   UNL     1      17.654 -44.633  32.839  1.00  0.00    -0.003 A 
ATOM      2  C   UNL     1      16.608 -45.573  32.818  1.00  0.00     0.014 A 
ATOM      3  C   UNL     1      17.346 -43.273  33.023  1.00  0.00     0.014 A 
ATOM      4  C   UNL     1      15.281 -45.159  32.977  1.00  0.00     0.047 A 
ATOM      5  C   UNL     1      16.019 -42.863  33.183  1.00  0.00     0.047 A 
ATOM      6  C   UNL     1      14.982 -43.806  33.160  1.00  0.00     0.115 A 
ENDROOT
BRANCH   1   7
ATOM      7  C   UNL     1      19.057 -45.073  32.669  1.00  0.00     0.071 C 
ATOM      8  O   UNL     1      19.853 -44.412  31.951  1.00  0.00    -0.545 OA
ATOM      9  O   UNL     1      19.516 -46.223  33.301  1.00  0.00    -0.545 OA
ENDBRANCH   1   7
BRANCH   6  10
ATOM     10  O   UNL     1      13.657 -43.409  33.318  1.00  0.00    -0.508 OA
ATOM     11  H   UNL     1      13.094 -43.736  34.095  1.00  0.00     0.293 HD
ENDBRANCH   6  10
TORSDOF 2
ENDMDL
MODEL 6
REMARK VINA RESULT:    -4.005      3.855      6.270
REMARK INTER + INTRA:          -4.383
REMARK INTER:                  -4.348
REMARK INTRA:                  -0.035
REMARK UNBOUND:                -0.027
REMARK SMILES O=C([O-])c1ccc(O)cc1
REMARK SMILES IDX 4 1 5 2 10 3 6 4 9 5 7 6 2 7 1 8 3 9 8 10
REMARK H PARENT 8 11
REMARK Flexibility Score: inf
ROOT
ATOM      1  C   UNL     1      17.978 -42.306  26.068  1.00  0.00    -0.003 A 
ATOM      2  C   UNL     1      17.995 -43.495  25.316  1.00  0.00     0.014 A 
ATOM      3  C   UNL     1      17.578 -42.358  27.415  1.00  0.00     0.014 A 
ATOM      4  C   UNL     1      17.619 -44.708  25.900  1.00  0.00     0.047 A 
ATOM      5  C   UNL     1      17.203 -43.573  27.997  1.00  0.00     0.047 A 
ATOM      6  C   UNL     1      17.223 -44.752  27.240  1.00  0.00     0.115 A 
ENDROOT
BRANCH   1   7
ATOM      7  C   UNL     1      18.376 -41.024  25.446  1.00  0.00     0.071 C 
ATOM      8  O   UNL     1      18.698 -40.039  26.161  1.00  0.00    -0.545 OA
ATOM      9  O   UNL     1      18.399 -40.888  24.063  1.00  0.00    -0.545 OA
ENDBRANCH   1   7
BRANCH   6  10
ATOM     10  O   UNL     1      16.851 -45.967  27.809  1.00  0.00    -0.508 OA
ATOM     11  H   UNL     1      17.541 -46.664  28.068  1.00  0.00     0.293 HD
ENDBRANCH   6  10
TORSDOF 2
ENDMDL
MODEL 7
REMARK VINA RESULT:    -4.001      3.464      4.180
REMARK INTER + INTRA:          -4.379
REMARK INTER:                  -4.343
REMARK INTRA:                  -0.036
REMARK UNBOUND:                -0.027
REMARK SMILES O=C([O-])c1ccc(O)cc1
REMARK SMILES IDX 4 1 5 2 10 3 6 4 9 5 7 6 2 7 1 8 3 9 8 10
REMARK H PARENT 8 11
REMARK Flexibility Score: inf
ROOT
ATOM      1  C   UNL     1      17.486 -43.276  32.987  1.00  0.00    -0.003 A 
ATOM      2  C   UNL     1      17.191 -44.627  32.729  1.00  0.00     0.014 A 
ATOM      3  C   UNL     1      18.813 -42.912  33.279  1.00  0.00     0.014 A 
ATOM      4  C   UNL     1      18.202 -45.592  32.764  1.00  0.00     0.047 A 
ATOM      5  C   UNL     1      19.822 -43.879  33.313  1.00  0.00     0.047 A 
ATOM      6  C   UNL     1      19.519 -45.223  33.055  1.00  0.00     0.115 A 
ENDROOT
BRANCH   1   7
ATOM      7  C   UNL     1      16.413 -42.257  32.950  1.00  0.00     0.071 C 
ATOM      8  O   UNL     1      16.651 -41.065  33.280  1.00  0.00    -0.545 OA
ATOM      9  O   UNL     1      15.128 -42.601  32.549  1.00  0.00    -0.545 OA
ENDBRANCH   1   7
BRANCH   6  10
ATOM     10  O   UNL     1      20.516 -46.194  33.086  1.00  0.00    -0.508 OA
ATOM     11  H   UNL     1      21.149 -46.330  32.306  1.00  0.00     0.293 HD
ENDBRANCH   6  10
TORSDOF 2
ENDMDL
MODEL 8
REMARK VINA RESULT:    -3.948      3.148      4.417
REMARK INTER + INTRA:          -4.321
REMARK INTER:                  -4.294
REMARK INTRA:                  -0.027
REMARK UNBOUND:                -0.027
REMARK SMILES O=C([O-])c1ccc(O)cc1
REMARK SMILES IDX 4 1 5 2 10 3 6 4 9 5 7 6 2 7 1 8 3 9 8 10
REMARK H PARENT 8 11
REMARK Flexibility Score: inf
ROOT
ATOM      1  C   UNL     1      17.521 -44.166  32.719  1.00  0.00    -0.003 A 
ATOM      2  C   UNL     1      18.548 -43.232  32.947  1.00  0.00     0.014 A 
ATOM      3  C   UNL     1      17.775 -45.529  32.952  1.00  0.00     0.014 A 
ATOM      4  C   UNL     1      19.802 -43.655  33.399  1.00  0.00     0.047 A 
ATOM      5  C   UNL     1      19.029 -45.949  33.405  1.00  0.00     0.047 A 
ATOM      6  C   UNL     1      20.047 -45.012  33.629  1.00  0.00     0.115 A 
ENDROOT
BRANCH   1   7
ATOM      7  C   UNL     1      16.195 -43.715  32.240  1.00  0.00     0.071 C 
ATOM      8  O   UNL     1      15.994 -43.507  31.014  1.00  0.00    -0.545 OA
ATOM      9  O   UNL     1      15.152 -43.516  33.137  1.00  0.00    -0.545 OA
ENDBRANCH   1   7
BRANCH   6  10
ATOM     10  O   UNL     1      21.300 -45.418  34.079  1.00  0.00    -0.508 OA
ATOM     11  H   UNL     1      21.928 -44.777  34.551  1.00  0.00     0.293 HD
ENDBRANCH   6  10
TORSDOF 2
ENDMDL
MODEL 9
REMARK VINA RESULT:    -3.882      5.577      7.400
REMARK INTER + INTRA:          -4.249
REMARK INTER:                  -4.213
REMARK INTRA:                  -0.036
REMARK UNBOUND:                -0.027
REMARK SMILES O=C([O-])c1ccc(O)cc1
REMARK SMILES IDX 4 1 5 2 10 3 6 4 9 5 7 6 2 7 1 8 3 9 8 10
REMARK H PARENT 8 11
REMARK Flexibility Score: inf
ROOT
ATOM      1  C   UNL     1      17.339 -40.936  25.075  1.00  0.00    -0.003 A 
ATOM      2  C   UNL     1      18.619 -41.520  25.080  1.00  0.00     0.014 A 
ATOM      3  C   UNL     1      16.226 -41.732  25.397  1.00  0.00     0.014 A 
ATOM      4  C   UNL     1      18.780 -42.871  25.401  1.00  0.00     0.047 A 
ATOM      5  C   UNL     1      16.390 -43.083  25.718  1.00  0.00     0.047 A 
ATOM      6  C   UNL     1      17.668 -43.657  25.721  1.00  0.00     0.115 A 
ENDROOT
BRANCH   1   7
ATOM      7  C   UNL     1      17.173 -39.505  24.734  1.00  0.00     0.071 C 
ATOM      8  O   UNL     1      16.041 -38.958  24.807  1.00  0.00    -0.545 OA
ATOM      9  O   UNL     1      18.264 -38.746  24.329  1.00  0.00    -0.545 OA
ENDBRANCH   1   7
BRANCH   6  10
ATOM     10  O   UNL     1      17.843 -45.001  26.039  1.00  0.00    -0.508 OA
ATOM     11  H   UNL     1      18.750 -45.449  25.968  1.00  0.00     0.293 HD
ENDBRANCH   6  10
TORSDOF 2
ENDMDL
