MODEL 1
REMARK VINA RESULT:    -4.728      0.000      0.000
REMARK INTER + INTRA:         -10.844
REMARK INTER:                  -8.597
REMARK INTRA:                  -2.247
REMARK UNBOUND:                -2.247
REMARK SMILES CCCCCC=CCC=CCCCCCCCC(=O)[O-]
REMARK SMILES IDX 11 1 12 2 13 3 14 4 15 5 16 6 17 7 18 8 19 9 20 10 10 11
REMARK SMILES IDX 9 12 8 13 7 14 6 15 5 16 4 17 3 18 2 19 1 20
REMARK H PARENT
REMARK Flexibility Score: inf
ROOT
ATOM      1  C   UNL     1      12.688  30.703  29.091  1.00  0.00     0.027 C 
ENDROOT
BRANCH   1   2
ATOM      2  C   UNL     1      13.071  31.275  27.716  1.00  0.00     0.004 C 
BRANCH   2   3
ATOM      3  C   UNL     1      12.105  30.883  26.581  1.00  0.00     0.000 C 
BRANCH   3   4
ATOM      4  C   UNL     1      10.826  30.173  27.073  1.00  0.00     0.000 C 
BRANCH   4   5
ATOM      5  C   UNL     1       9.549  30.801  26.489  1.00  0.00     0.000 C 
BRANCH   5   6
ATOM      6  C   UNL     1       9.734  31.323  25.053  1.00  0.00     0.006 C 
BRANCH   6   7
ATOM      7  C   UNL     1       9.532  32.843  24.911  1.00  0.00     0.053 C 
BRANCH   7   8
ATOM      8  C   UNL     1      10.733  33.532  24.336  1.00  0.00     0.041 C 
ATOM      9  O   UNL     1      11.316  33.053  23.328  1.00  0.00    -0.550 OA
ATOM     10  O   UNL     1      11.197  34.714  24.900  1.00  0.00    -0.550 OA
ENDBRANCH   7   8
ENDBRANCH   6   7
ENDBRANCH   5   6
ENDBRANCH   4   5
ENDBRANCH   3   4
ENDBRANCH   2   3
ENDBRANCH   1   2
BRANCH   1  11
ATOM     11  C   UNL     1      12.662  31.767  30.164  1.00  0.00    -0.031 C 
ATOM     12  C   UNL     1      11.588  32.514  30.471  1.00  0.00    -0.027 C 
BRANCH  12  13
ATOM     13  C   UNL     1      10.244  32.363  29.801  1.00  0.00     0.054 C 
BRANCH  13  14
ATOM     14  C   UNL     1       9.328  31.495  30.618  1.00  0.00    -0.027 C 
ATOM     15  C   UNL     1       8.264  30.888  30.069  1.00  0.00    -0.031 C 
BRANCH  15  16
ATOM     16  C   UNL     1       7.361  29.996  30.875  1.00  0.00     0.027 C 
BRANCH  16  17
ATOM     17  C   UNL     1       6.745  28.890  30.004  1.00  0.00     0.004 C 
BRANCH  17  18
ATOM     18  C   UNL     1       7.462  28.739  28.653  1.00  0.00     0.000 C 
BRANCH  18  19
ATOM     19  C   UNL     1       6.493  28.789  27.463  1.00  0.00    -0.003 C 
ATOM     20  C   UNL     1       6.014  30.215  27.202  1.00  0.00     0.004 C 
ENDBRANCH  18  19
ENDBRANCH  17  18
ENDBRANCH  16  17
ENDBRANCH  15  16
ENDBRANCH  13  14
ENDBRANCH  12  13
ENDBRANCH   1  11
TORSDOF 14
ENDMDL
MODEL 2
REMARK VINA RESULT:    -4.551      2.761      5.537
REMARK INTER + INTRA:         -10.522
REMARK INTER:                  -7.616
REMARK INTRA:                  -2.906
REMARK UNBOUND:                -2.247
REMARK SMILES CCCCCC=CCC=CCCCCCCCC(=O)[O-]
REMARK SMILES IDX 11 1 12 2 13 3 14 4 15 5 16 6 17 7 18 8 19 9 20 10 10 11
REMARK SMILES IDX 9 12 8 13 7 14 6 15 5 16 4 17 3 18 2 19 1 20
REMARK H PARENT
REMARK Flexibility Score: inf
ROOT
ATOM      1  C   UNL     1       4.749  30.381  26.582  1.00  0.00     0.027 C 
ENDROOT
BRANCH   1   2
ATOM      2  C   UNL     1       5.433  29.184  25.900  1.00  0.00     0.004 C 
BRANCH   2   3
ATOM      3  C   UNL     1       6.972  29.224  25.954  1.00  0.00     0.000 C 
BRANCH   3   4
ATOM      4  C   UNL     1       7.529  30.170  27.041  1.00  0.00     0.000 C 
BRANCH   4   5
ATOM      5  C   UNL     1       8.557  29.473  27.948  1.00  0.00     0.000 C 
BRANCH   5   6
ATOM      6  C   UNL     1       8.998  30.341  29.141  1.00  0.00     0.006 C 
BRANCH   6   7
ATOM      7  C   UNL     1      10.215  31.236  28.843  1.00  0.00     0.053 C 
BRANCH   7   8
ATOM      8  C   UNL     1      11.369  30.468  28.273  1.00  0.00     0.041 C 
ATOM      9  O   UNL     1      11.641  30.550  27.046  1.00  0.00    -0.550 OA
ATOM     10  O   UNL     1      12.158  29.677  29.100  1.00  0.00    -0.550 OA
ENDBRANCH   7   8
ENDBRANCH   6   7
ENDBRANCH   5   6
ENDBRANCH   4   5
ENDBRANCH   3   4
ENDBRANCH   2   3
ENDBRANCH   1   2
BRANCH   1  11
ATOM     11  C   UNL     1       3.580  29.957  27.441  1.00  0.00    -0.031 C 
ATOM     12  C   UNL     1       3.593  29.926  28.784  1.00  0.00    -0.027 C 
BRANCH  12  13
ATOM     13  C   UNL     1       4.777  30.349  29.620  1.00  0.00     0.054 C 
BRANCH  13  14
ATOM     14  C   UNL     1       5.456  29.158  30.236  1.00  0.00    -0.027 C 
ATOM     15  C   UNL     1       5.598  28.006  29.562  1.00  0.00    -0.031 C 
BRANCH  15  16
ATOM     16  C   UNL     1       6.301  26.820  30.163  1.00  0.00     0.027 C 
BRANCH  16  17
ATOM     17  C   UNL     1       7.135  26.072  29.111  1.00  0.00     0.004 C 
BRANCH  17  18
ATOM     18  C   UNL     1       6.337  25.778  27.830  1.00  0.00     0.000 C 
BRANCH  18  19
ATOM     19  C   UNL     1       7.237  25.649  26.592  1.00  0.00    -0.003 C 
ATOM     20  C   UNL     1       8.711  25.773  26.967  1.00  0.00     0.004 C 
ENDBRANCH  18  19
ENDBRANCH  17  18
ENDBRANCH  16  17
ENDBRANCH  15  16
ENDBRANCH  13  14
ENDBRANCH  12  13
ENDBRANCH   1  11
TORSDOF 14
ENDMDL
MODEL 3
REMARK VINA RESULT:    -4.541      3.042      5.601
REMARK INTER + INTRA:         -10.505
REMARK INTER:                  -7.560
REMARK INTRA:                  -2.945
REMARK UNBOUND:                -2.247
REMARK SMILES CCCCCC=CCC=CCCCCCCCC(=O)[O-]
REMARK SMILES IDX 11 1 12 2 13 3 14 4 15 5 16 6 17 7 18 8 19 9 20 10 10 11
REMARK SMILES IDX 9 12 8 13 7 14 6 15 5 16 4 17 3 18 2 19 1 20
REMARK H PARENT
REMARK Flexibility Score: inf
ROOT
ATOM      1  C   UNL     1       8.346  25.710  27.024  1.00  0.00     0.027 C 
ENDROOT
BRANCH   1   2
ATOM      2  C   UNL     1       8.090  26.996  27.827  1.00  0.00     0.004 C 
BRANCH   2   3
ATOM      3  C   UNL     1       8.867  28.224  27.314  1.00  0.00     0.000 C 
BRANCH   3   4
ATOM      4  C   UNL     1       8.164  29.568  27.606  1.00  0.00     0.000 C 
BRANCH   4   5
ATOM      5  C   UNL     1       8.048  30.450  26.351  1.00  0.00     0.000 C 
BRANCH   5   6
ATOM      6  C   UNL     1       9.042  30.058  25.243  1.00  0.00     0.006 C 
BRANCH   6   7
ATOM      7  C   UNL     1      10.335  30.895  25.241  1.00  0.00     0.053 C 
BRANCH   7   8
ATOM      8  C   UNL     1      10.082  32.344  25.528  1.00  0.00     0.041 C 
ATOM      9  O   UNL     1      10.450  32.846  26.624  1.00  0.00    -0.550 OA
ATOM     10  O   UNL     1       9.460  33.146  24.580  1.00  0.00    -0.550 OA
ENDBRANCH   7   8
ENDBRANCH   6   7
ENDBRANCH   5   6
ENDBRANCH   4   5
ENDBRANCH   3   4
ENDBRANCH   2   3
ENDBRANCH   1   2
BRANCH   1  11
ATOM     11  C   UNL     1       7.061  25.043  26.590  1.00  0.00    -0.031 C 
ATOM     12  C   UNL     1       6.466  25.236  25.401  1.00  0.00    -0.027 C 
BRANCH  12  13
ATOM     13  C   UNL     1       7.027  26.127  24.319  1.00  0.00     0.054 C 
BRANCH  13  14
ATOM     14  C   UNL     1       6.494  27.527  24.441  1.00  0.00    -0.027 C 
ATOM     15  C   UNL     1       5.329  27.782  25.059  1.00  0.00    -0.031 C 
BRANCH  15  16
ATOM     16  C   UNL     1       4.805  29.183  25.210  1.00  0.00     0.027 C 
BRANCH  16  17
ATOM     17  C   UNL     1       4.095  29.372  26.560  1.00  0.00     0.004 C 
BRANCH  17  18
ATOM     18  C   UNL     1       4.603  28.395  27.632  1.00  0.00     0.000 C 
BRANCH  18  19
ATOM     19  C   UNL     1       3.480  27.524  28.214  1.00  0.00    -0.003 C 
ATOM     20  C   UNL     1       3.746  26.042  27.962  1.00  0.00     0.004 C 
ENDBRANCH  18  19
ENDBRANCH  17  18
ENDBRANCH  16  17
ENDBRANCH  15  16
ENDBRANCH  13  14
ENDBRANCH  12  13
ENDBRANCH   1  11
TORSDOF 14
ENDMDL
MODEL 4
REMARK VINA RESULT:    -4.531      2.543      5.915
REMARK INTER + INTRA:         -10.486
REMARK INTER:                  -7.628
REMARK INTRA:                  -2.859
REMARK UNBOUND:                -2.247
REMARK SMILES CCCCCC=CCC=CCCCCCCCC(=O)[O-]
REMARK SMILES IDX 11 1 12 2 13 3 14 4 15 5 16 6 17 7 18 8 19 9 20 10 10 11
REMARK SMILES IDX 9 12 8 13 7 14 6 15 5 16 4 17 3 18 2 19 1 20
REMARK H PARENT
REMARK Flexibility Score: inf
ROOT
ATOM      1  C   UNL     1       4.680  30.596  26.855  1.00  0.00     0.027 C 
ENDROOT
BRANCH   1   2
ATOM      2  C   UNL     1       6.119  30.631  27.398  1.00  0.00     0.004 C 
BRANCH   2   3
ATOM      3  C   UNL     1       6.419  29.549  28.453  1.00  0.00     0.000 C 
BRANCH   3   4
ATOM      4  C   UNL     1       7.927  29.348  28.721  1.00  0.00     0.000 C 
BRANCH   4   5
ATOM      5  C   UNL     1       8.799  30.298  27.882  1.00  0.00     0.000 C 
BRANCH   5   6
ATOM      6  C   UNL     1      10.105  29.646  27.392  1.00  0.00     0.006 C 
BRANCH   6   7
ATOM      7  C   UNL     1      11.142  30.652  26.861  1.00  0.00     0.053 C 
BRANCH   7   8
ATOM      8  C   UNL     1      11.024  30.873  25.383  1.00  0.00     0.041 C 
ATOM      9  O   UNL     1      10.133  31.637  24.926  1.00  0.00    -0.550 OA
ATOM     10  O   UNL     1      11.911  30.253  24.511  1.00  0.00    -0.550 OA
ENDBRANCH   7   8
ENDBRANCH   6   7
ENDBRANCH   5   6
ENDBRANCH   4   5
ENDBRANCH   3   4
ENDBRANCH   2   3
ENDBRANCH   1   2
BRANCH   1  11
ATOM     11  C   UNL     1       4.115  29.195  26.824  1.00  0.00    -0.031 C 
ATOM     12  C   UNL     1       4.153  28.382  25.756  1.00  0.00    -0.027 C 
BRANCH  12  13
ATOM     13  C   UNL     1       4.802  28.752  24.444  1.00  0.00     0.054 C 
BRANCH  13  14
ATOM     14  C   UNL     1       6.108  28.031  24.266  1.00  0.00    -0.027 C 
ATOM     15  C   UNL     1       7.230  28.452  24.872  1.00  0.00    -0.031 C 
BRANCH  15  16
ATOM     16  C   UNL     1       8.534  27.719  24.720  1.00  0.00     0.027 C 
BRANCH  16  17
ATOM     17  C   UNL     1       8.430  26.279  25.247  1.00  0.00     0.004 C 
BRANCH  17  18
ATOM     18  C   UNL     1       8.861  26.160  26.718  1.00  0.00     0.000 C 
BRANCH  18  19
ATOM     19  C   UNL     1       7.669  25.972  27.668  1.00  0.00    -0.003 C 
ATOM     20  C   UNL     1       6.454  25.422  26.925  1.00  0.00     0.004 C 
ENDBRANCH  18  19
ENDBRANCH  17  18
ENDBRANCH  16  17
ENDBRANCH  15  16
ENDBRANCH  13  14
ENDBRANCH  12  13
ENDBRANCH   1  11
TORSDOF 14
ENDMDL
MODEL 5
REMARK VINA RESULT:    -4.513      2.439      5.501
REMARK INTER + INTRA:         -10.453
REMARK INTER:                  -7.537
REMARK INTRA:                  -2.916
REMARK UNBOUND:                -2.247
REMARK SMILES CCCCCC=CCC=CCCCCCCCC(=O)[O-]
REMARK SMILES IDX 11 1 12 2 13 3 14 4 15 5 16 6 17 7 18 8 19 9 20 10 10 11
REMARK SMILES IDX 9 12 8 13 7 14 6 15 5 16 4 17 3 18 2 19 1 20
REMARK H PARENT
REMARK Flexibility Score: inf
ROOT
ATOM      1  C   UNL     1       6.805  26.955  30.189  1.00  0.00     0.027 C 
ENDROOT
BRANCH   1   2
ATOM      2  C   UNL     1       5.605  27.876  30.470  1.00  0.00     0.004 C 
BRANCH   2   3
ATOM      3  C   UNL     1       5.945  29.378  30.446  1.00  0.00     0.000 C 
BRANCH   3   4
ATOM      4  C   UNL     1       7.424  29.683  30.769  1.00  0.00     0.000 C 
BRANCH   4   5
ATOM      5  C   UNL     1       7.967  30.866  29.948  1.00  0.00     0.000 C 
BRANCH   5   6
ATOM      6  C   UNL     1       9.378  30.614  29.386  1.00  0.00     0.006 C 
BRANCH   6   7
ATOM      7  C   UNL     1       9.634  31.286  28.024  1.00  0.00     0.053 C 
BRANCH   7   8
ATOM      8  C   UNL     1      10.590  32.437  28.121  1.00  0.00     0.041 C 
ATOM      9  O   UNL     1      10.364  33.381  28.924  1.00  0.00    -0.550 OA
ATOM     10  O   UNL     1      11.739  32.458  27.342  1.00  0.00    -0.550 OA
ENDBRANCH   7   8
ENDBRANCH   6   7
ENDBRANCH   5   6
ENDBRANCH   4   5
ENDBRANCH   3   4
ENDBRANCH   2   3
ENDBRANCH   1   2
BRANCH   1  11
ATOM     11  C   UNL     1       6.547  26.018  29.032  1.00  0.00    -0.031 C 
ATOM     12  C   UNL     1       7.278  25.981  27.905  1.00  0.00    -0.027 C 
BRANCH  12  13
ATOM     13  C   UNL     1       8.483  26.856  27.658  1.00  0.00     0.054 C 
BRANCH  13  14
ATOM     14  C   UNL     1       8.120  28.054  26.826  1.00  0.00    -0.027 C 
ATOM     15  C   UNL     1       7.002  28.758  27.061  1.00  0.00    -0.031 C 
BRANCH  15  16
ATOM     16  C   UNL     1       6.648  29.973  26.250  1.00  0.00     0.027 C 
BRANCH  16  17
ATOM     17  C   UNL     1       5.584  30.827  26.957  1.00  0.00     0.004 C 
BRANCH  17  18
ATOM     18  C   UNL     1       4.153  30.379  26.619  1.00  0.00     0.000 C 
BRANCH  18  19
ATOM     19  C   UNL     1       3.507  29.566  27.751  1.00  0.00    -0.003 C 
ATOM     20  C   UNL     1       3.580  28.069  27.465  1.00  0.00     0.004 C 
ENDBRANCH  18  19
ENDBRANCH  17  18
ENDBRANCH  16  17
ENDBRANCH  15  16
ENDBRANCH  13  14
ENDBRANCH  12  13
ENDBRANCH   1  11
TORSDOF 14
ENDMDL
MODEL 6
REMARK VINA RESULT:    -4.456      2.555      5.010
REMARK INTER + INTRA:         -10.350
REMARK INTER:                  -7.649
REMARK INTRA:                  -2.701
REMARK UNBOUND:                -2.247
REMARK SMILES CCCCCC=CCC=CCCCCCCCC(=O)[O-]
REMARK SMILES IDX 11 1 12 2 13 3 14 4 15 5 16 6 17 7 18 8 19 9 20 10 10 11
REMARK SMILES IDX 9 12 8 13 7 14 6 15 5 16 4 17 3 18 2 19 1 20
REMARK H PARENT
REMARK Flexibility Score: inf
ROOT
ATOM      1  C   UNL     1       8.290  27.173  25.636  1.00  0.00     0.027 C 
ENDROOT
BRANCH   1   2
ATOM      2  C   UNL     1       8.045  28.596  25.109  1.00  0.00     0.004 C 
BRANCH   2   3
ATOM      3  C   UNL     1       9.251  29.542  25.264  1.00  0.00     0.000 C 
BRANCH   3   4
ATOM      4  C   UNL     1       8.898  30.894  25.921  1.00  0.00     0.000 C 
BRANCH   4   5
ATOM      5  C   UNL     1       9.774  31.191  27.151  1.00  0.00     0.000 C 
BRANCH   5   6
ATOM      6  C   UNL     1      11.099  30.407  27.152  1.00  0.00     0.006 C 
BRANCH   6   7
ATOM      7  C   UNL     1      11.644  30.108  28.562  1.00  0.00     0.053 C 
BRANCH   7   8
ATOM      8  C   UNL     1      12.713  31.072  28.981  1.00  0.00     0.041 C 
ATOM      9  O   UNL     1      12.447  31.998  29.792  1.00  0.00    -0.550 OA
ATOM     10  O   UNL     1      14.007  30.934  28.495  1.00  0.00    -0.550 OA
ENDBRANCH   7   8
ENDBRANCH   6   7
ENDBRANCH   5   6
ENDBRANCH   4   5
ENDBRANCH   3   4
ENDBRANCH   2   3
ENDBRANCH   1   2
BRANCH   1  11
ATOM     11  C   UNL     1       7.002  26.456  25.967  1.00  0.00    -0.031 C 
ATOM     12  C   UNL     1       6.613  26.125  27.210  1.00  0.00    -0.027 C 
BRANCH  12  13
ATOM     13  C   UNL     1       7.403  26.459  28.452  1.00  0.00     0.054 C 
BRANCH  13  14
ATOM     14  C   UNL     1       6.900  27.725  29.088  1.00  0.00    -0.027 C 
ATOM     15  C   UNL     1       7.409  28.923  28.760  1.00  0.00    -0.031 C 
BRANCH  15  16
ATOM     16  C   UNL     1       6.891  30.195  29.372  1.00  0.00     0.027 C 
BRANCH  16  17
ATOM     17  C   UNL     1       5.536  30.595  28.768  1.00  0.00     0.004 C 
BRANCH  17  18
ATOM     18  C   UNL     1       5.499  30.419  27.241  1.00  0.00     0.000 C 
BRANCH  18  19
ATOM     19  C   UNL     1       4.247  29.667  26.765  1.00  0.00    -0.003 C 
ATOM     20  C   UNL     1       4.456  29.076  25.373  1.00  0.00     0.004 C 
ENDBRANCH  18  19
ENDBRANCH  17  18
ENDBRANCH  16  17
ENDBRANCH  15  16
ENDBRANCH  13  14
ENDBRANCH  12  13
ENDBRANCH   1  11
TORSDOF 14
ENDMDL
MODEL 7
REMARK VINA RESULT:    -4.443      1.621      4.750
REMARK INTER + INTRA:         -10.327
REMARK INTER:                  -8.046
REMARK INTRA:                  -2.281
REMARK UNBOUND:                -2.247
REMARK SMILES CCCCCC=CCC=CCCCCCCCC(=O)[O-]
REMARK SMILES IDX 11 1 12 2 13 3 14 4 15 5 16 6 17 7 18 8 19 9 20 10 10 11
REMARK SMILES IDX 9 12 8 13 7 14 6 15 5 16 4 17 3 18 2 19 1 20
REMARK H PARENT
REMARK Flexibility Score: inf
ROOT
ATOM      1  C   UNL     1       6.465  27.283  28.049  1.00  0.00     0.027 C 
ENDROOT
BRANCH   1   2
ATOM      2  C   UNL     1       7.963  27.162  27.723  1.00  0.00     0.004 C 
BRANCH   2   3
ATOM      3  C   UNL     1       8.456  28.154  26.653  1.00  0.00     0.000 C 
BRANCH   3   4
ATOM      4  C   UNL     1       9.316  29.303  27.223  1.00  0.00     0.000 C 
BRANCH   4   5
ATOM      5  C   UNL     1       8.776  30.688  26.825  1.00  0.00     0.000 C 
BRANCH   5   6
ATOM      6  C   UNL     1       9.888  31.705  26.516  1.00  0.00     0.006 C 
BRANCH   6   7
ATOM      7  C   UNL     1      10.107  31.951  25.011  1.00  0.00     0.053 C 
BRANCH   7   8
ATOM      8  C   UNL     1      11.254  31.158  24.460  1.00  0.00     0.041 C 
ATOM      9  O   UNL     1      11.985  30.482  25.231  1.00  0.00    -0.550 OA
ATOM     10  O   UNL     1      11.503  31.149  23.093  1.00  0.00    -0.550 OA
ENDBRANCH   7   8
ENDBRANCH   6   7
ENDBRANCH   5   6
ENDBRANCH   4   5
ENDBRANCH   3   4
ENDBRANCH   2   3
ENDBRANCH   1   2
BRANCH   1  11
ATOM     11  C   UNL     1       6.195  27.202  29.534  1.00  0.00    -0.031 C 
ATOM     12  C   UNL     1       6.293  28.237  30.384  1.00  0.00    -0.027 C 
BRANCH  12  13
ATOM     13  C   UNL     1       6.657  29.640  29.958  1.00  0.00     0.054 C 
BRANCH  13  14
ATOM     14  C   UNL     1       7.797  30.175  30.779  1.00  0.00    -0.027 C 
ATOM     15  C   UNL     1       8.584  31.162  30.324  1.00  0.00    -0.031 C 
BRANCH  15  16
ATOM     16  C   UNL     1       9.709  31.720  31.152  1.00  0.00     0.027 C 
BRANCH  16  17
ATOM     17  C   UNL     1      10.945  32.017  30.289  1.00  0.00     0.004 C 
BRANCH  17  18
ATOM     18  C   UNL     1      12.003  30.906  30.377  1.00  0.00     0.000 C 
BRANCH  18  19
ATOM     19  C   UNL     1      12.390  30.351  28.998  1.00  0.00    -0.003 C 
ATOM     20  C   UNL     1      13.479  31.200  28.348  1.00  0.00     0.004 C 
ENDBRANCH  18  19
ENDBRANCH  17  18
ENDBRANCH  16  17
ENDBRANCH  15  16
ENDBRANCH  13  14
ENDBRANCH  12  13
ENDBRANCH   1  11
TORSDOF 14
ENDMDL
MODEL 8
REMARK VINA RESULT:    -4.418      2.911      5.441
REMARK INTER + INTRA:         -10.281
REMARK INTER:                  -7.397
REMARK INTRA:                  -2.884
REMARK UNBOUND:                -2.247
REMARK SMILES CCCCCC=CCC=CCCCCCCCC(=O)[O-]
REMARK SMILES IDX 11 1 12 2 13 3 14 4 15 5 16 6 17 7 18 8 19 9 20 10 10 11
REMARK SMILES IDX 9 12 8 13 7 14 6 15 5 16 4 17 3 18 2 19 1 20
REMARK H PARENT
REMARK Flexibility Score: inf
ROOT
ATOM      1  C   UNL     1       8.092  25.696  26.984  1.00  0.00     0.027 C 
ENDROOT
BRANCH   1   2
ATOM      2  C   UNL     1       8.288  26.565  25.730  1.00  0.00     0.004 C 
BRANCH   2   3
ATOM      3  C   UNL     1       8.586  28.046  26.031  1.00  0.00     0.000 C 
BRANCH   3   4
ATOM      4  C   UNL     1       9.315  28.271  27.373  1.00  0.00     0.000 C 
BRANCH   4   5
ATOM      5  C   UNL     1       9.925  29.680  27.476  1.00  0.00     0.000 C 
BRANCH   5   6
ATOM      6  C   UNL     1       8.931  30.732  28.001  1.00  0.00     0.006 C 
BRANCH   6   7
ATOM      7  C   UNL     1       8.881  30.829  29.537  1.00  0.00     0.053 C 
BRANCH   7   8
ATOM      8  C   UNL     1       9.837  31.847  30.081  1.00  0.00     0.041 C 
ATOM      9  O   UNL     1      10.256  31.754  31.265  1.00  0.00    -0.550 OA
ATOM     10  O   UNL     1      10.282  32.887  29.275  1.00  0.00    -0.550 OA
ENDBRANCH   7   8
ENDBRANCH   6   7
ENDBRANCH   5   6
ENDBRANCH   4   5
ENDBRANCH   3   4
ENDBRANCH   2   3
ENDBRANCH   1   2
BRANCH   1  11
ATOM     11  C   UNL     1       6.632  25.465  27.296  1.00  0.00    -0.031 C 
ATOM     12  C   UNL     1       6.025  25.855  28.430  1.00  0.00    -0.027 C 
BRANCH  12  13
ATOM     13  C   UNL     1       6.720  26.613  29.535  1.00  0.00     0.054 C 
BRANCH  13  14
ATOM     14  C   UNL     1       6.465  28.090  29.420  1.00  0.00    -0.027 C 
ATOM     15  C   UNL     1       5.395  28.567  28.764  1.00  0.00    -0.031 C 
BRANCH  15  16
ATOM     16  C   UNL     1       5.120  30.043  28.671  1.00  0.00     0.027 C 
BRANCH  16  17
ATOM     17  C   UNL     1       5.174  30.530  27.214  1.00  0.00     0.004 C 
BRANCH  17  18
ATOM     18  C   UNL     1       5.546  29.407  26.233  1.00  0.00     0.000 C 
BRANCH  18  19
ATOM     19  C   UNL     1       4.373  29.006  25.326  1.00  0.00    -0.003 C 
ATOM     20  C   UNL     1       4.114  27.503  25.392  1.00  0.00     0.004 C 
ENDBRANCH  18  19
ENDBRANCH  17  18
ENDBRANCH  16  17
ENDBRANCH  15  16
ENDBRANCH  13  14
ENDBRANCH  12  13
ENDBRANCH   1  11
TORSDOF 14
ENDMDL
MODEL 9
REMARK VINA RESULT:    -4.359      2.856      5.707
REMARK INTER + INTRA:         -10.173
REMARK INTER:                  -7.178
REMARK INTRA:                  -2.996
REMARK UNBOUND:                -2.247
REMARK SMILES CCCCCC=CCC=CCCCCCCCC(=O)[O-]
REMARK SMILES IDX 11 1 12 2 13 3 14 4 15 5 16 6 17 7 18 8 19 9 20 10 10 11
REMARK SMILES IDX 9 12 8 13 7 14 6 15 5 16 4 17 3 18 2 19 1 20
REMARK H PARENT
REMARK Flexibility Score: inf
ROOT
ATOM      1  C   UNL     1       6.513  25.978  25.802  1.00  0.00     0.027 C 
ENDROOT
BRANCH   1   2
ATOM      2  C   UNL     1       7.451  26.625  26.835  1.00  0.00     0.004 C 
BRANCH   2   3
ATOM      3  C   UNL     1       8.002  27.999  26.411  1.00  0.00     0.000 C 
BRANCH   3   4
ATOM      4  C   UNL     1       9.084  28.553  27.363  1.00  0.00     0.000 C 
BRANCH   4   5
ATOM      5  C   UNL     1       9.094  30.091  27.402  1.00  0.00     0.000 C 
BRANCH   5   6
ATOM      6  C   UNL     1       8.543  30.732  26.116  1.00  0.00     0.006 C 
BRANCH   6   7
ATOM      7  C   UNL     1       9.606  31.477  25.286  1.00  0.00     0.053 C 
BRANCH   7   8
ATOM      8  C   UNL     1      10.649  30.556  24.728  1.00  0.00     0.041 C 
ATOM      9  O   UNL     1      11.836  30.618  25.143  1.00  0.00    -0.550 OA
ATOM     10  O   UNL     1      10.306  29.615  23.766  1.00  0.00    -0.550 OA
ENDBRANCH   7   8
ENDBRANCH   6   7
ENDBRANCH   5   6
ENDBRANCH   4   5
ENDBRANCH   3   4
ENDBRANCH   2   3
ENDBRANCH   1   2
BRANCH   1  11
ATOM     11  C   UNL     1       5.074  25.969  26.263  1.00  0.00    -0.031 C 
ATOM     12  C   UNL     1       4.114  26.775  25.779  1.00  0.00    -0.027 C 
BRANCH  12  13
ATOM     13  C   UNL     1       4.341  27.780  24.676  1.00  0.00     0.054 C 
BRANCH  13  14
ATOM     14  C   UNL     1       4.791  29.101  25.233  1.00  0.00    -0.027 C 
ATOM     15  C   UNL     1       4.417  29.510  26.456  1.00  0.00    -0.031 C 
BRANCH  15  16
ATOM     16  C   UNL     1       4.887  30.818  27.030  1.00  0.00     0.027 C 
BRANCH  16  17
ATOM     17  C   UNL     1       5.510  30.626  28.421  1.00  0.00     0.004 C 
BRANCH  17  18
ATOM     18  C   UNL     1       5.465  29.162  28.888  1.00  0.00     0.000 C 
BRANCH  18  19
ATOM     19  C   UNL     1       6.588  28.825  29.881  1.00  0.00    -0.003 C 
ATOM     20  C   UNL     1       6.267  27.556  30.665  1.00  0.00     0.004 C 
ENDBRANCH  18  19
ENDBRANCH  17  18
ENDBRANCH  16  17
ENDBRANCH  15  16
ENDBRANCH  13  14
ENDBRANCH  12  13
ENDBRANCH   1  11
TORSDOF 14
ENDMDL
