MODEL 1
REMARK VINA RESULT:    -5.008      0.000      0.000
REMARK INTER + INTRA:          -6.360
REMARK INTER:                  -6.178
REMARK INTRA:                  -0.182
REMARK UNBOUND:                -0.182
REMARK SMILES CCCCC=CC(C)=O
REMARK SMILES IDX 4 1 3 2 2 3 1 4 5 5 6 6 7 7 9 8 8 9
REMARK H PARENT
REMARK Flexibility Score: inf
ROOT
ATOM      1  C   UNL     1     -13.510 -13.864  28.658  1.00  0.00     0.027 C 
ENDROOT
BRANCH   1   2
ATOM      2  C   UNL     1     -14.165 -13.876  30.045  1.00  0.00     0.004 C 
BRANCH   2   3
ATOM      3  C   UNL     1     -13.580 -14.992  30.918  1.00  0.00    -0.003 C 
ATOM      4  C   UNL     1     -14.259 -15.038  32.284  1.00  0.00     0.004 C 
ENDBRANCH   2   3
ENDBRANCH   1   2
BRANCH   1   5
ATOM      5  C   UNL     1     -12.490 -14.958  28.528  1.00  0.00    -0.023 C 
ATOM      6  C   UNL     1     -12.453 -15.753  27.453  1.00  0.00     0.042 C 
BRANCH   6   7
ATOM      7  C   UNL     1     -11.461 -16.834  27.276  1.00  0.00     0.152 C 
ATOM      8  O   UNL     1     -11.146 -17.532  28.276  1.00  0.00    -0.295 OA
ATOM      9  C   UNL     1     -10.817 -17.127  25.955  1.00  0.00     0.093 C 
ENDBRANCH   6   7
ENDBRANCH   1   5
TORSDOF 4
ENDMDL
MODEL 2
REMARK VINA RESULT:    -4.887      1.373      1.880
REMARK INTER + INTRA:          -6.212
REMARK INTER:                  -6.078
REMARK INTRA:                  -0.134
REMARK UNBOUND:                -0.182
REMARK SMILES CCCCC=CC(C)=O
REMARK SMILES IDX 4 1 3 2 2 3 1 4 5 5 6 6 7 7 9 8 8 9
REMARK H PARENT
REMARK Flexibility Score: inf
ROOT
ATOM      1  C   UNL     1     -13.031 -14.650  29.530  1.00  0.00     0.027 C 
ENDROOT
BRANCH   1   2
ATOM      2  C   UNL     1     -13.685 -13.800  28.434  1.00  0.00     0.004 C 
BRANCH   2   3
ATOM      3  C   UNL     1     -14.549 -12.689  29.042  1.00  0.00    -0.003 C 
ATOM      4  C   UNL     1     -15.938 -13.206  29.403  1.00  0.00     0.004 C 
ENDBRANCH   2   3
ENDBRANCH   1   2
BRANCH   1   5
ATOM      5  C   UNL     1     -11.865 -15.428  28.992  1.00  0.00    -0.023 C 
ATOM      6  C   UNL     1     -11.973 -16.170  27.883  1.00  0.00     0.042 C 
BRANCH   6   7
ATOM      7  C   UNL     1     -10.852 -16.942  27.311  1.00  0.00     0.152 C 
ATOM      8  O   UNL     1     -10.017 -17.466  28.095  1.00  0.00    -0.295 OA
ATOM      9  C   UNL     1     -10.671 -17.123  25.833  1.00  0.00     0.093 C 
ENDBRANCH   6   7
ENDBRANCH   1   5
TORSDOF 4
ENDMDL
MODEL 3
REMARK VINA RESULT:    -4.850      2.656      3.573
REMARK INTER + INTRA:          -6.167
REMARK INTER:                  -6.000
REMARK INTRA:                  -0.166
REMARK UNBOUND:                -0.182
REMARK SMILES CCCCC=CC(C)=O
REMARK SMILES IDX 4 1 3 2 2 3 1 4 5 5 6 6 7 7 9 8 8 9
REMARK H PARENT
REMARK Flexibility Score: inf
ROOT
ATOM      1  C   UNL     1     -12.083 -14.973  28.678  1.00  0.00     0.027 C 
ENDROOT
BRANCH   1   2
ATOM      2  C   UNL     1     -13.350 -14.239  28.224  1.00  0.00     0.004 C 
BRANCH   2   3
ATOM      3  C   UNL     1     -14.027 -13.532  29.405  1.00  0.00    -0.003 C 
ATOM      4  C   UNL     1     -14.650 -12.208  28.971  1.00  0.00     0.004 C 
ENDBRANCH   2   3
ENDBRANCH   1   2
BRANCH   1   5
ATOM      5  C   UNL     1     -12.314 -15.714  29.964  1.00  0.00    -0.023 C 
ATOM      6  C   UNL     1     -12.247 -17.049  30.023  1.00  0.00     0.042 C 
BRANCH   6   7
ATOM      7  C   UNL     1     -12.456 -17.818  31.267  1.00  0.00     0.152 C 
ATOM      8  O   UNL     1     -12.794 -17.198  32.310  1.00  0.00    -0.295 OA
ATOM      9  C   UNL     1     -12.279 -19.305  31.332  1.00  0.00     0.093 C 
ENDBRANCH   6   7
ENDBRANCH   1   5
TORSDOF 4
ENDMDL
MODEL 4
REMARK VINA RESULT:    -4.805      2.372      3.138
REMARK INTER + INTRA:          -6.110
REMARK INTER:                  -5.982
REMARK INTRA:                  -0.129
REMARK UNBOUND:                -0.182
REMARK SMILES CCCCC=CC(C)=O
REMARK SMILES IDX 4 1 3 2 2 3 1 4 5 5 6 6 7 7 9 8 8 9
REMARK H PARENT
REMARK Flexibility Score: inf
ROOT
ATOM      1  C   UNL     1     -11.979 -15.036  28.919  1.00  0.00     0.027 C 
ENDROOT
BRANCH   1   2
ATOM      2  C   UNL     1     -13.172 -14.282  28.319  1.00  0.00     0.004 C 
BRANCH   2   3
ATOM      3  C   UNL     1     -14.039 -13.661  29.420  1.00  0.00    -0.003 C 
ATOM      4  C   UNL     1     -14.638 -12.332  28.969  1.00  0.00     0.004 C 
ENDBRANCH   2   3
ENDBRANCH   1   2
BRANCH   1   5
ATOM      5  C   UNL     1     -12.120 -16.518  28.724  1.00  0.00    -0.023 C 
ATOM      6  C   UNL     1     -12.120 -17.361  29.763  1.00  0.00     0.042 C 
BRANCH   6   7
ATOM      7  C   UNL     1     -12.267 -18.824  29.621  1.00  0.00     0.152 C 
ATOM      8  O   UNL     1     -12.368 -19.311  28.464  1.00  0.00    -0.295 OA
ATOM      9  C   UNL     1     -12.302 -19.748  30.802  1.00  0.00     0.093 C 
ENDBRANCH   6   7
ENDBRANCH   1   5
TORSDOF 4
ENDMDL
MODEL 5
REMARK VINA RESULT:    -4.797      2.370      5.004
REMARK INTER + INTRA:          -6.100
REMARK INTER:                  -5.937
REMARK INTRA:                  -0.163
REMARK UNBOUND:                -0.182
REMARK SMILES CCCCC=CC(C)=O
REMARK SMILES IDX 4 1 3 2 2 3 1 4 5 5 6 6 7 7 9 8 8 9
REMARK H PARENT
REMARK Flexibility Score: inf
ROOT
ATOM      1  C   UNL     1     -11.283 -15.706  28.600  1.00  0.00     0.027 C 
ENDROOT
BRANCH   1   2
ATOM      2  C   UNL     1     -11.820 -16.986  27.948  1.00  0.00     0.004 C 
BRANCH   2   3
ATOM      3  C   UNL     1     -11.936 -16.820  26.428  1.00  0.00    -0.003 C 
ATOM      4  C   UNL     1     -10.633 -17.201  25.730  1.00  0.00     0.004 C 
ENDBRANCH   2   3
ENDBRANCH   1   2
BRANCH   1   5
ATOM      5  C   UNL     1     -12.371 -14.969  29.328  1.00  0.00    -0.023 C 
ATOM      6  C   UNL     1     -13.208 -14.148  28.684  1.00  0.00     0.042 C 
BRANCH   6   7
ATOM      7  C   UNL     1     -14.299 -13.412  29.356  1.00  0.00     0.152 C 
ATOM      8  O   UNL     1     -14.916 -13.976  30.298  1.00  0.00    -0.295 OA
ATOM      9  C   UNL     1     -14.698 -12.023  28.956  1.00  0.00     0.093 C 
ENDBRANCH   6   7
ENDBRANCH   1   5
TORSDOF 4
ENDMDL
MODEL 6
REMARK VINA RESULT:    -4.669      2.316      4.484
REMARK INTER + INTRA:          -5.943
REMARK INTER:                  -5.760
REMARK INTRA:                  -0.183
REMARK UNBOUND:                -0.182
REMARK SMILES CCCCC=CC(C)=O
REMARK SMILES IDX 4 1 3 2 2 3 1 4 5 5 6 6 7 7 9 8 8 9
REMARK H PARENT
REMARK Flexibility Score: inf
ROOT
ATOM      1  C   UNL     1     -11.226 -15.970  27.796  1.00  0.00     0.027 C 
ENDROOT
BRANCH   1   2
ATOM      2  C   UNL     1     -11.961 -17.281  27.493  1.00  0.00     0.004 C 
BRANCH   2   3
ATOM      3  C   UNL     1     -11.908 -18.230  28.696  1.00  0.00    -0.003 C 
ATOM      4  C   UNL     1     -12.863 -19.407  28.513  1.00  0.00     0.004 C 
ENDBRANCH   2   3
ENDBRANCH   1   2
BRANCH   1   5
ATOM      5  C   UNL     1     -12.005 -15.119  28.757  1.00  0.00    -0.023 C 
ATOM      6  C   UNL     1     -13.150 -14.529  28.397  1.00  0.00     0.042 C 
BRANCH   6   7
ATOM      7  C   UNL     1     -13.956 -13.694  29.311  1.00  0.00     0.152 C 
ATOM      8  O   UNL     1     -14.186 -14.121  30.473  1.00  0.00    -0.295 OA
ATOM      9  C   UNL     1     -14.509 -12.361  28.905  1.00  0.00     0.093 C 
ENDBRANCH   6   7
ENDBRANCH   1   5
TORSDOF 4
ENDMDL
MODEL 7
REMARK VINA RESULT:    -4.637      1.792      4.867
REMARK INTER + INTRA:          -5.904
REMARK INTER:                  -5.731
REMARK INTRA:                  -0.173
REMARK UNBOUND:                -0.182
REMARK SMILES CCCCC=CC(C)=O
REMARK SMILES IDX 4 1 3 2 2 3 1 4 5 5 6 6 7 7 9 8 8 9
REMARK H PARENT
REMARK Flexibility Score: inf
ROOT
ATOM      1  C   UNL     1     -12.613 -14.609  28.452  1.00  0.00     0.027 C 
ENDROOT
BRANCH   1   2
ATOM      2  C   UNL     1     -11.642 -15.739  28.086  1.00  0.00     0.004 C 
BRANCH   2   3
ATOM      3  C   UNL     1     -12.073 -16.433  26.789  1.00  0.00    -0.003 C 
ATOM      4  C   UNL     1     -10.887 -17.107  26.104  1.00  0.00     0.004 C 
ENDBRANCH   2   3
ENDBRANCH   1   2
BRANCH   1   5
ATOM      5  C   UNL     1     -13.269 -14.864  29.779  1.00  0.00    -0.023 C 
ATOM      6  C   UNL     1     -12.740 -15.714  30.666  1.00  0.00     0.042 C 
BRANCH   6   7
ATOM      7  C   UNL     1     -13.343 -15.987  31.987  1.00  0.00     0.152 C 
ATOM      8  O   UNL     1     -13.162 -17.118  32.511  1.00  0.00    -0.295 OA
ATOM      9  C   UNL     1     -14.160 -14.969  32.724  1.00  0.00     0.093 C 
ENDBRANCH   6   7
ENDBRANCH   1   5
TORSDOF 4
ENDMDL
MODEL 8
REMARK VINA RESULT:    -4.622      2.661      3.510
REMARK INTER + INTRA:          -5.885
REMARK INTER:                  -5.682
REMARK INTRA:                  -0.203
REMARK UNBOUND:                -0.182
REMARK SMILES CCCCC=CC(C)=O
REMARK SMILES IDX 4 1 3 2 2 3 1 4 5 5 6 6 7 7 9 8 8 9
REMARK H PARENT
REMARK Flexibility Score: inf
ROOT
ATOM      1  C   UNL     1     -12.988 -15.384  30.453  1.00  0.00     0.027 C 
ENDROOT
BRANCH   1   2
ATOM      2  C   UNL     1     -12.444 -15.048  29.060  1.00  0.00     0.004 C 
BRANCH   2   3
ATOM      3  C   UNL     1     -13.378 -14.079  28.325  1.00  0.00    -0.003 C 
ATOM      4  C   UNL     1     -14.236 -13.287  29.307  1.00  0.00     0.004 C 
ENDBRANCH   2   3
ENDBRANCH   1   2
BRANCH   1   5
ATOM      5  C   UNL     1     -12.447 -16.696  30.946  1.00  0.00    -0.023 C 
ATOM      6  C   UNL     1     -11.946 -17.605  30.102  1.00  0.00     0.042 C 
BRANCH   6   7
ATOM      7  C   UNL     1     -11.392 -18.902  30.542  1.00  0.00     0.152 C 
ATOM      8  O   UNL     1     -10.187 -19.163  30.283  1.00  0.00    -0.295 OA
ATOM      9  C   UNL     1     -12.211 -19.917  31.282  1.00  0.00     0.093 C 
ENDBRANCH   6   7
ENDBRANCH   1   5
TORSDOF 4
ENDMDL
MODEL 9
REMARK VINA RESULT:    -4.559      2.944      4.407
REMARK INTER + INTRA:          -5.807
REMARK INTER:                  -5.648
REMARK INTRA:                  -0.159
REMARK UNBOUND:                -0.182
REMARK SMILES CCCCC=CC(C)=O
REMARK SMILES IDX 4 1 3 2 2 3 1 4 5 5 6 6 7 7 9 8 8 9
REMARK H PARENT
REMARK Flexibility Score: inf
ROOT
ATOM      1  C   UNL     1     -13.157 -16.016  32.071  1.00  0.00     0.027 C 
ENDROOT
BRANCH   1   2
ATOM      2  C   UNL     1     -12.084 -17.109  32.141  1.00  0.00     0.004 C 
BRANCH   2   3
ATOM      3  C   UNL     1     -12.204 -18.073  30.955  1.00  0.00    -0.003 C 
ATOM      4  C   UNL     1     -12.341 -19.517  31.428  1.00  0.00     0.004 C 
ENDBRANCH   2   3
ENDBRANCH   1   2
BRANCH   1   5
ATOM      5  C   UNL     1     -13.167 -15.349  30.726  1.00  0.00    -0.023 C 
ATOM      6  C   UNL     1     -13.980 -14.320  30.463  1.00  0.00     0.042 C 
BRANCH   6   7
ATOM      7  C   UNL     1     -14.016 -13.626  29.160  1.00  0.00     0.152 C 
ATOM      8  O   UNL     1     -13.482 -14.183  28.164  1.00  0.00    -0.295 OA
ATOM      9  C   UNL     1     -14.662 -12.285  28.980  1.00  0.00     0.093 C 
ENDBRANCH   6   7
ENDBRANCH   1   5
TORSDOF 4
ENDMDL
