MODEL 1
REMARK VINA RESULT:    -3.095      0.000      0.000
REMARK INTER + INTRA:          -8.295
REMARK INTER:                  -5.628
REMARK INTRA:                  -2.667
REMARK UNBOUND:                -2.667
REMARK SMILES CCCCCCCCCCCCCC[C@H](C)C(=O)[O-]
REMARK SMILES IDX 9 1 10 2 11 3 12 4 13 5 14 6 15 7 16 8 17 9 18 10 19 11 8 12
REMARK SMILES IDX 7 13 6 14 5 15 4 16 3 17 2 18 1 19
REMARK H PARENT
REMARK Flexibility Score: inf
ROOT
ATOM      1  C   UNL     1      40.842  35.140  47.139  1.00  0.00     0.000 C 
ENDROOT
BRANCH   1   2
ATOM      2  C   UNL     1      41.597  34.098  46.288  1.00  0.00     0.000 C 
BRANCH   2   3
ATOM      3  C   UNL     1      42.562  34.683  45.240  1.00  0.00     0.000 C 
BRANCH   3   4
ATOM      4  C   UNL     1      44.027  34.291  45.491  1.00  0.00     0.000 C 
BRANCH   4   5
ATOM      5  C   UNL     1      44.179  32.868  46.060  1.00  0.00     0.001 C 
BRANCH   5   6
ATOM      6  C   UNL     1      45.318  32.682  47.084  1.00  0.00     0.009 C 
BRANCH   6   7
ATOM      7  C   UNL     1      45.039  31.618  48.169  1.00  0.00     0.032 C 
ATOM      8  C   UNL     1      45.565  32.090  49.530  1.00  0.00     0.014 C 
BRANCH   7   9
ATOM      9  C   UNL     1      45.651  30.290  47.815  1.00  0.00     0.044 C 
ATOM     10  O   UNL     1      46.783  29.965  48.265  1.00  0.00    -0.550 OA
ATOM     11  O   UNL     1      44.966  29.411  46.986  1.00  0.00    -0.550 OA
ENDBRANCH   7   9
ENDBRANCH   6   7
ENDBRANCH   5   6
ENDBRANCH   4   5
ENDBRANCH   3   4
ENDBRANCH   2   3
ENDBRANCH   1   2
BRANCH   1  12
ATOM     12  C   UNL     1      41.223  35.162  48.632  1.00  0.00     0.000 C 
BRANCH  12  13
ATOM     13  C   UNL     1      42.457  34.316  49.003  1.00  0.00    -0.000 C 
BRANCH  13  14
ATOM     14  C   UNL     1      43.185  34.760  50.284  1.00  0.00    -0.000 C 
BRANCH  14  15
ATOM     15  C   UNL     1      44.050  36.014  50.072  1.00  0.00    -0.000 C 
BRANCH  15  16
ATOM     16  C   UNL     1      45.031  35.867  48.898  1.00  0.00    -0.000 C 
BRANCH  16  17
ATOM     17  C   UNL     1      44.848  36.966  47.837  1.00  0.00    -0.000 C 
BRANCH  17  18
ATOM     18  C   UNL     1      43.555  37.772  48.041  1.00  0.00    -0.003 C 
ATOM     19  C   UNL     1      43.819  39.251  48.329  1.00  0.00     0.004 C 
ENDBRANCH  17  18
ENDBRANCH  16  17
ENDBRANCH  15  16
ENDBRANCH  14  15
ENDBRANCH  13  14
ENDBRANCH  12  13
ENDBRANCH   1  12
TORSDOF 14
ENDMDL
MODEL 2
REMARK VINA RESULT:    -3.083      2.998      4.833
REMARK INTER + INTRA:          -8.274
REMARK INTER:                  -5.507
REMARK INTRA:                  -2.767
REMARK UNBOUND:                -2.667
REMARK SMILES CCCCCCCCCCCCCC[C@H](C)C(=O)[O-]
REMARK SMILES IDX 9 1 10 2 11 3 12 4 13 5 14 6 15 7 16 8 17 9 18 10 19 11 8 12
REMARK SMILES IDX 7 13 6 14 5 15 4 16 3 17 2 18 1 19
REMARK H PARENT
REMARK Flexibility Score: inf
ROOT
ATOM      1  C   UNL     1      40.637  35.324  46.598  1.00  0.00     0.000 C 
ENDROOT
BRANCH   1   2
ATOM      2  C   UNL     1      41.268  34.063  45.971  1.00  0.00     0.000 C 
BRANCH   2   3
ATOM      3  C   UNL     1      42.495  34.320  45.076  1.00  0.00     0.000 C 
BRANCH   3   4
ATOM      4  C   UNL     1      43.761  33.607  45.578  1.00  0.00     0.000 C 
BRANCH   4   5
ATOM      5  C   UNL     1      44.732  34.552  46.309  1.00  0.00     0.001 C 
BRANCH   5   6
ATOM      6  C   UNL     1      44.335  36.044  46.303  1.00  0.00     0.009 C 
BRANCH   6   7
ATOM      7  C   UNL     1      45.112  36.919  47.312  1.00  0.00     0.032 C 
ATOM      8  C   UNL     1      45.932  36.040  48.264  1.00  0.00     0.014 C 
BRANCH   7   9
ATOM      9  C   UNL     1      44.189  37.807  48.102  1.00  0.00     0.044 C 
ATOM     10  O   UNL     1      44.417  38.049  49.318  1.00  0.00    -0.550 OA
ATOM     11  O   UNL     1      43.075  38.368  47.490  1.00  0.00    -0.550 OA
ENDBRANCH   7   9
ENDBRANCH   6   7
ENDBRANCH   5   6
ENDBRANCH   4   5
ENDBRANCH   3   4
ENDBRANCH   2   3
ENDBRANCH   1   2
BRANCH   1  12
ATOM     12  C   UNL     1      41.013  35.578  48.070  1.00  0.00     0.000 C 
BRANCH  12  13
ATOM     13  C   UNL     1      41.848  34.464  48.732  1.00  0.00    -0.000 C 
BRANCH  13  14
ATOM     14  C   UNL     1      42.806  34.943  49.837  1.00  0.00    -0.000 C 
BRANCH  14  15
ATOM     15  C   UNL     1      43.660  33.803  50.419  1.00  0.00    -0.000 C 
BRANCH  15  16
ATOM     16  C   UNL     1      44.081  32.775  49.357  1.00  0.00    -0.000 C 
BRANCH  16  17
ATOM     17  C   UNL     1      45.595  32.500  49.369  1.00  0.00    -0.000 C 
BRANCH  17  18
ATOM     18  C   UNL     1      46.040  31.603  48.203  1.00  0.00    -0.003 C 
ATOM     19  C   UNL     1      45.176  30.351  48.056  1.00  0.00     0.004 C 
ENDBRANCH  17  18
ENDBRANCH  16  17
ENDBRANCH  15  16
ENDBRANCH  14  15
ENDBRANCH  13  14
ENDBRANCH  12  13
ENDBRANCH   1  12
TORSDOF 14
ENDMDL
MODEL 3
REMARK VINA RESULT:    -3.057      1.969      3.837
REMARK INTER + INTRA:          -8.227
REMARK INTER:                  -6.029
REMARK INTRA:                  -2.198
REMARK UNBOUND:                -2.667
REMARK SMILES CCCCCCCCCCCCCC[C@H](C)C(=O)[O-]
REMARK SMILES IDX 9 1 10 2 11 3 12 4 13 5 14 6 15 7 16 8 17 9 18 10 19 11 8 12
REMARK SMILES IDX 7 13 6 14 5 15 4 16 3 17 2 18 1 19
REMARK H PARENT
REMARK Flexibility Score: inf
ROOT
ATOM      1  C   UNL     1      43.831  34.428  49.960  1.00  0.00     0.000 C 
ENDROOT
BRANCH   1   2
ATOM      2  C   UNL     1      43.897  32.979  49.434  1.00  0.00     0.000 C 
BRANCH   2   3
ATOM      3  C   UNL     1      45.289  32.515  48.965  1.00  0.00     0.000 C 
BRANCH   3   4
ATOM      4  C   UNL     1      45.223  31.393  47.916  1.00  0.00     0.000 C 
BRANCH   4   5
ATOM      5  C   UNL     1      45.853  30.076  48.405  1.00  0.00     0.001 C 
BRANCH   5   6
ATOM      6  C   UNL     1      45.333  29.556  49.761  1.00  0.00     0.009 C 
BRANCH   6   7
ATOM      7  C   UNL     1      46.424  28.976  50.688  1.00  0.00     0.032 C 
ATOM      8  C   UNL     1      47.481  30.041  51.004  1.00  0.00     0.014 C 
BRANCH   7   9
ATOM      9  C   UNL     1      47.082  27.764  50.082  1.00  0.00     0.044 C 
ATOM     10  O   UNL     1      46.422  26.710  49.882  1.00  0.00    -0.550 OA
ATOM     11  O   UNL     1      48.427  27.806  49.740  1.00  0.00    -0.550 OA
ENDBRANCH   7   9
ENDBRANCH   6   7
ENDBRANCH   5   6
ENDBRANCH   4   5
ENDBRANCH   3   4
ENDBRANCH   2   3
ENDBRANCH   1   2
BRANCH   1  12
ATOM     12  C   UNL     1      42.550  35.199  49.587  1.00  0.00     0.000 C 
BRANCH  12  13
ATOM     13  C   UNL     1      41.579  34.441  48.660  1.00  0.00    -0.000 C 
BRANCH  13  14
ATOM     14  C   UNL     1      41.053  35.259  47.467  1.00  0.00    -0.000 C 
BRANCH  14  15
ATOM     15  C   UNL     1      41.211  34.523  46.125  1.00  0.00    -0.000 C 
BRANCH  15  16
ATOM     16  C   UNL     1      42.548  33.774  46.013  1.00  0.00    -0.000 C 
BRANCH  16  17
ATOM     17  C   UNL     1      43.637  34.612  45.322  1.00  0.00    -0.000 C 
BRANCH  17  18
ATOM     18  C   UNL     1      44.743  35.055  46.293  1.00  0.00    -0.003 C 
ATOM     19  C   UNL     1      44.551  36.487  46.795  1.00  0.00     0.004 C 
ENDBRANCH  17  18
ENDBRANCH  16  17
ENDBRANCH  15  16
ENDBRANCH  14  15
ENDBRANCH  13  14
ENDBRANCH  12  13
ENDBRANCH   1  12
TORSDOF 14
ENDMDL
MODEL 4
REMARK VINA RESULT:    -3.047      1.236      2.965
REMARK INTER + INTRA:          -8.207
REMARK INTER:                  -5.840
REMARK INTRA:                  -2.367
REMARK UNBOUND:                -2.667
REMARK SMILES CCCCCCCCCCCCCC[C@H](C)C(=O)[O-]
REMARK SMILES IDX 9 1 10 2 11 3 12 4 13 5 14 6 15 7 16 8 17 9 18 10 19 11 8 12
REMARK SMILES IDX 7 13 6 14 5 15 4 16 3 17 2 18 1 19
REMARK H PARENT
REMARK Flexibility Score: inf
ROOT
ATOM      1  C   UNL     1      40.835  35.236  48.330  1.00  0.00     0.000 C 
ENDROOT
BRANCH   1   2
ATOM      2  C   UNL     1      41.935  34.199  48.636  1.00  0.00     0.000 C 
BRANCH   2   3
ATOM      3  C   UNL     1      42.956  34.624  49.708  1.00  0.00     0.000 C 
BRANCH   3   4
ATOM      4  C   UNL     1      43.918  33.490  50.100  1.00  0.00     0.000 C 
BRANCH   4   5
ATOM      5  C   UNL     1      44.574  32.811  48.884  1.00  0.00     0.001 C 
BRANCH   5   6
ATOM      6  C   UNL     1      45.041  31.358  49.109  1.00  0.00     0.009 C 
BRANCH   6   7
ATOM      7  C   UNL     1      45.516  30.631  47.831  1.00  0.00     0.032 C 
ATOM      8  C   UNL     1      45.051  31.387  46.580  1.00  0.00     0.014 C 
BRANCH   7   9
ATOM      9  C   UNL     1      45.022  29.210  47.783  1.00  0.00     0.044 C 
ATOM     10  O   UNL     1      44.930  28.600  46.685  1.00  0.00    -0.550 OA
ATOM     11  O   UNL     1      44.663  28.562  48.958  1.00  0.00    -0.550 OA
ENDBRANCH   7   9
ENDBRANCH   6   7
ENDBRANCH   5   6
ENDBRANCH   4   5
ENDBRANCH   3   4
ENDBRANCH   2   3
ENDBRANCH   1   2
BRANCH   1  12
ATOM     12  C   UNL     1      40.559  35.473  46.832  1.00  0.00     0.000 C 
BRANCH  12  13
ATOM     13  C   UNL     1      41.285  34.506  45.875  1.00  0.00    -0.000 C 
BRANCH  13  14
ATOM     14  C   UNL     1      42.402  35.146  45.033  1.00  0.00    -0.000 C 
BRANCH  14  15
ATOM     15  C   UNL     1      43.806  34.676  45.451  1.00  0.00    -0.000 C 
BRANCH  15  16
ATOM     16  C   UNL     1      44.483  35.638  46.440  1.00  0.00    -0.000 C 
BRANCH  16  17
ATOM     17  C   UNL     1      44.007  37.091  46.268  1.00  0.00    -0.000 C 
BRANCH  17  18
ATOM     18  C   UNL     1      43.462  37.691  47.574  1.00  0.00    -0.003 C 
ATOM     19  C   UNL     1      44.528  37.804  48.664  1.00  0.00     0.004 C 
ENDBRANCH  17  18
ENDBRANCH  16  17
ENDBRANCH  15  16
ENDBRANCH  14  15
ENDBRANCH  13  14
ENDBRANCH  12  13
ENDBRANCH   1  12
TORSDOF 14
ENDMDL
MODEL 5
REMARK VINA RESULT:    -2.997      1.022      2.463
REMARK INTER + INTRA:          -8.116
REMARK INTER:                  -5.660
REMARK INTRA:                  -2.456
REMARK UNBOUND:                -2.667
REMARK SMILES CCCCCCCCCCCCCC[C@H](C)C(=O)[O-]
REMARK SMILES IDX 9 1 10 2 11 3 12 4 13 5 14 6 15 7 16 8 17 9 18 10 19 11 8 12
REMARK SMILES IDX 7 13 6 14 5 15 4 16 3 17 2 18 1 19
REMARK H PARENT
REMARK Flexibility Score: inf
ROOT
ATOM      1  C   UNL     1      43.011  34.697  45.454  1.00  0.00     0.000 C 
ENDROOT
BRANCH   1   2
ATOM      2  C   UNL     1      44.441  34.148  45.636  1.00  0.00     0.000 C 
BRANCH   2   3
ATOM      3  C   UNL     1      44.596  33.073  46.729  1.00  0.00     0.000 C 
BRANCH   3   4
ATOM      4  C   UNL     1      45.951  33.145  47.450  1.00  0.00     0.000 C 
BRANCH   4   5
ATOM      5  C   UNL     1      45.843  32.867  48.960  1.00  0.00     0.001 C 
BRANCH   5   6
ATOM      6  C   UNL     1      44.949  31.672  49.351  1.00  0.00     0.009 C 
BRANCH   6   7
ATOM      7  C   UNL     1      45.720  30.434  49.863  1.00  0.00     0.032 C 
ATOM      8  C   UNL     1      47.158  30.813  50.234  1.00  0.00     0.014 C 
BRANCH   7   9
ATOM      9  C   UNL     1      45.729  29.325  48.845  1.00  0.00     0.044 C 
ATOM     10  O   UNL     1      44.695  29.063  48.173  1.00  0.00    -0.550 OA
ATOM     11  O   UNL     1      46.884  28.582  48.641  1.00  0.00    -0.550 OA
ENDBRANCH   7   9
ENDBRANCH   6   7
ENDBRANCH   5   6
ENDBRANCH   4   5
ENDBRANCH   3   4
ENDBRANCH   2   3
ENDBRANCH   1   2
BRANCH   1  12
ATOM     12  C   UNL     1      41.928  33.991  46.293  1.00  0.00     0.000 C 
BRANCH  12  13
ATOM     13  C   UNL     1      40.850  34.922  46.883  1.00  0.00    -0.000 C 
BRANCH  13  14
ATOM     14  C   UNL     1      41.089  35.345  48.344  1.00  0.00    -0.000 C 
BRANCH  14  15
ATOM     15  C   UNL     1      42.211  34.537  49.020  1.00  0.00    -0.000 C 
BRANCH  15  16
ATOM     16  C   UNL     1      43.202  35.427  49.788  1.00  0.00    -0.000 C 
BRANCH  16  17
ATOM     17  C   UNL     1      44.202  36.133  48.857  1.00  0.00    -0.000 C 
BRANCH  17  18
ATOM     18  C   UNL     1      43.856  37.614  48.637  1.00  0.00    -0.003 C 
ATOM     19  C   UNL     1      43.553  37.941  47.174  1.00  0.00     0.004 C 
ENDBRANCH  17  18
ENDBRANCH  16  17
ENDBRANCH  15  16
ENDBRANCH  14  15
ENDBRANCH  13  14
ENDBRANCH  12  13
ENDBRANCH   1  12
TORSDOF 14
ENDMDL
MODEL 6
REMARK VINA RESULT:    -2.952      3.185      6.066
REMARK INTER + INTRA:          -8.035
REMARK INTER:                  -5.658
REMARK INTRA:                  -2.377
REMARK UNBOUND:                -2.667
REMARK SMILES CCCCCCCCCCCCCC[C@H](C)C(=O)[O-]
REMARK SMILES IDX 9 1 10 2 11 3 12 4 13 5 14 6 15 7 16 8 17 9 18 10 19 11 8 12
REMARK SMILES IDX 7 13 6 14 5 15 4 16 3 17 2 18 1 19
REMARK H PARENT
REMARK Flexibility Score: inf
ROOT
ATOM      1  C   UNL     1      45.526  33.810  46.993  1.00  0.00     0.000 C 
ENDROOT
BRANCH   1   2
ATOM      2  C   UNL     1      44.832  34.935  47.790  1.00  0.00     0.000 C 
BRANCH   2   3
ATOM      3  C   UNL     1      44.851  34.761  49.320  1.00  0.00     0.000 C 
BRANCH   3   4
ATOM      4  C   UNL     1      43.442  34.684  49.931  1.00  0.00     0.000 C 
BRANCH   4   5
ATOM      5  C   UNL     1      42.375  34.224  48.921  1.00  0.00     0.001 C 
BRANCH   5   6
ATOM      6  C   UNL     1      41.223  35.221  48.676  1.00  0.00     0.009 C 
BRANCH   6   7
ATOM      7  C   UNL     1      40.756  35.313  47.205  1.00  0.00     0.032 C 
ATOM      8  C   UNL     1      41.269  34.111  46.404  1.00  0.00     0.014 C 
BRANCH   7   9
ATOM      9  C   UNL     1      41.213  36.593  46.557  1.00  0.00     0.044 C 
ATOM     10  O   UNL     1      42.268  37.165  46.940  1.00  0.00    -0.550 OA
ATOM     11  O   UNL     1      40.466  37.151  45.527  1.00  0.00    -0.550 OA
ENDBRANCH   7   9
ENDBRANCH   6   7
ENDBRANCH   5   6
ENDBRANCH   4   5
ENDBRANCH   3   4
ENDBRANCH   2   3
ENDBRANCH   1   2
BRANCH   1  12
ATOM     12  C   UNL     1      44.681  32.538  46.790  1.00  0.00     0.000 C 
BRANCH  12  13
ATOM     13  C   UNL     1      45.472  31.215  46.837  1.00  0.00    -0.000 C 
BRANCH  13  14
ATOM     14  C   UNL     1      45.196  30.340  48.072  1.00  0.00    -0.000 C 
BRANCH  14  15
ATOM     15  C   UNL     1      45.350  31.112  49.395  1.00  0.00    -0.000 C 
BRANCH  15  16
ATOM     16  C   UNL     1      46.765  31.004  49.983  1.00  0.00    -0.000 C 
BRANCH  16  17
ATOM     17  C   UNL     1      47.587  32.288  49.781  1.00  0.00    -0.000 C 
BRANCH  17  18
ATOM     18  C   UNL     1      48.927  32.025  49.075  1.00  0.00    -0.003 C 
ATOM     19  C   UNL     1      48.876  32.322  47.576  1.00  0.00     0.004 C 
ENDBRANCH  17  18
ENDBRANCH  16  17
ENDBRANCH  15  16
ENDBRANCH  14  15
ENDBRANCH  13  14
ENDBRANCH  12  13
ENDBRANCH   1  12
TORSDOF 14
ENDMDL
MODEL 7
REMARK VINA RESULT:    -2.932      2.086      4.342
REMARK INTER + INTRA:          -7.999
REMARK INTER:                  -6.021
REMARK INTRA:                  -1.979
REMARK UNBOUND:                -2.667
REMARK SMILES CCCCCCCCCCCCCC[C@H](C)C(=O)[O-]
REMARK SMILES IDX 9 1 10 2 11 3 12 4 13 5 14 6 15 7 16 8 17 9 18 10 19 11 8 12
REMARK SMILES IDX 7 13 6 14 5 15 4 16 3 17 2 18 1 19
REMARK H PARENT
REMARK Flexibility Score: inf
ROOT
ATOM      1  C   UNL     1      44.595  32.214  46.488  1.00  0.00     0.000 C 
ENDROOT
BRANCH   1   2
ATOM      2  C   UNL     1      45.189  30.872  46.013  1.00  0.00     0.000 C 
BRANCH   2   3
ATOM      3  C   UNL     1      45.940  30.068  47.091  1.00  0.00     0.000 C 
BRANCH   3   4
ATOM      4  C   UNL     1      45.026  29.613  48.241  1.00  0.00     0.000 C 
BRANCH   4   5
ATOM      5  C   UNL     1      45.350  30.307  49.576  1.00  0.00     0.001 C 
BRANCH   5   6
ATOM      6  C   UNL     1      46.292  29.526  50.517  1.00  0.00     0.009 C 
BRANCH   6   7
ATOM      7  C   UNL     1      47.679  30.177  50.721  1.00  0.00     0.032 C 
ATOM      8  C   UNL     1      47.693  31.600  50.150  1.00  0.00     0.014 C 
BRANCH   7   9
ATOM      9  C   UNL     1      48.774  29.361  50.088  1.00  0.00     0.044 C 
ATOM     10  O   UNL     1      48.612  28.841  48.952  1.00  0.00    -0.550 OA
ATOM     11  O   UNL     1      49.976  29.177  50.760  1.00  0.00    -0.550 OA
ENDBRANCH   7   9
ENDBRANCH   6   7
ENDBRANCH   5   6
ENDBRANCH   4   5
ENDBRANCH   3   4
ENDBRANCH   2   3
ENDBRANCH   1   2
BRANCH   1  12
ATOM     12  C   UNL     1      45.630  33.303  46.829  1.00  0.00     0.000 C 
BRANCH  12  13
ATOM     13  C   UNL     1      45.136  34.391  47.803  1.00  0.00    -0.000 C 
BRANCH  13  14
ATOM     14  C   UNL     1      44.776  33.884  49.210  1.00  0.00    -0.000 C 
BRANCH  14  15
ATOM     15  C   UNL     1      43.261  33.896  49.477  1.00  0.00    -0.000 C 
BRANCH  15  16
ATOM     16  C   UNL     1      42.592  35.210  49.043  1.00  0.00    -0.000 C 
BRANCH  16  17
ATOM     17  C   UNL     1      41.118  35.017  48.647  1.00  0.00    -0.000 C 
BRANCH  17  18
ATOM     18  C   UNL     1      40.877  35.247  47.146  1.00  0.00    -0.003 C 
ATOM     19  C   UNL     1      41.316  34.060  46.288  1.00  0.00     0.004 C 
ENDBRANCH  17  18
ENDBRANCH  16  17
ENDBRANCH  15  16
ENDBRANCH  14  15
ENDBRANCH  13  14
ENDBRANCH  12  13
ENDBRANCH   1  12
TORSDOF 14
ENDMDL
MODEL 8
REMARK VINA RESULT:    -2.868      1.538      3.394
REMARK INTER + INTRA:          -7.882
REMARK INTER:                  -5.649
REMARK INTRA:                  -2.232
REMARK UNBOUND:                -2.667
REMARK SMILES CCCCCCCCCCCCCC[C@H](C)C(=O)[O-]
REMARK SMILES IDX 9 1 10 2 11 3 12 4 13 5 14 6 15 7 16 8 17 9 18 10 19 11 8 12
REMARK SMILES IDX 7 13 6 14 5 15 4 16 3 17 2 18 1 19
REMARK H PARENT
REMARK Flexibility Score: inf
ROOT
ATOM      1  C   UNL     1      42.083  34.129  48.639  1.00  0.00     0.000 C 
ENDROOT
BRANCH   1   2
ATOM      2  C   UNL     1      43.113  34.379  49.760  1.00  0.00     0.000 C 
BRANCH   2   3
ATOM      3  C   UNL     1      44.190  33.289  49.916  1.00  0.00     0.000 C 
BRANCH   3   4
ATOM      4  C   UNL     1      44.560  32.619  48.583  1.00  0.00     0.000 C 
BRANCH   4   5
ATOM      5  C   UNL     1      46.072  32.366  48.436  1.00  0.00     0.001 C 
BRANCH   5   6
ATOM      6  C   UNL     1      46.767  31.773  49.679  1.00  0.00     0.009 C 
BRANCH   6   7
ATOM      7  C   UNL     1      47.208  30.300  49.526  1.00  0.00     0.032 C 
ATOM      8  C   UNL     1      47.487  29.973  48.055  1.00  0.00     0.014 C 
BRANCH   7   9
ATOM      9  C   UNL     1      46.175  29.352  50.075  1.00  0.00     0.044 C 
ATOM     10  O   UNL     1      46.349  28.789  51.189  1.00  0.00    -0.550 OA
ATOM     11  O   UNL     1      45.020  29.092  49.350  1.00  0.00    -0.550 OA
ENDBRANCH   7   9
ENDBRANCH   6   7
ENDBRANCH   5   6
ENDBRANCH   4   5
ENDBRANCH   3   4
ENDBRANCH   2   3
ENDBRANCH   1   2
BRANCH   1  12
ATOM     12  C   UNL     1      41.254  35.361  48.228  1.00  0.00     0.000 C 
BRANCH  12  13
ATOM     13  C   UNL     1      40.778  35.367  46.761  1.00  0.00    -0.000 C 
BRANCH  13  14
ATOM     14  C   UNL     1      41.259  34.171  45.920  1.00  0.00    -0.000 C 
BRANCH  14  15
ATOM     15  C   UNL     1      42.317  34.566  44.875  1.00  0.00    -0.000 C 
BRANCH  15  16
ATOM     16  C   UNL     1      43.750  34.498  45.427  1.00  0.00    -0.000 C 
BRANCH  16  17
ATOM     17  C   UNL     1      44.282  35.876  45.856  1.00  0.00    -0.000 C 
BRANCH  17  18
ATOM     18  C   UNL     1      45.297  35.783  47.006  1.00  0.00    -0.003 C 
ATOM     19  C   UNL     1      45.148  36.917  48.020  1.00  0.00     0.004 C 
ENDBRANCH  17  18
ENDBRANCH  16  17
ENDBRANCH  15  16
ENDBRANCH  14  15
ENDBRANCH  13  14
ENDBRANCH  12  13
ENDBRANCH   1  12
TORSDOF 14
ENDMDL
MODEL 9
REMARK VINA RESULT:    -2.866      1.924      3.727
REMARK INTER + INTRA:          -7.879
REMARK INTER:                  -5.765
REMARK INTRA:                  -2.114
REMARK UNBOUND:                -2.667
REMARK SMILES CCCCCCCCCCCCCC[C@H](C)C(=O)[O-]
REMARK SMILES IDX 9 1 10 2 11 3 12 4 13 5 14 6 15 7 16 8 17 9 18 10 19 11 8 12
REMARK SMILES IDX 7 13 6 14 5 15 4 16 3 17 2 18 1 19
REMARK H PARENT
REMARK Flexibility Score: inf
ROOT
ATOM      1  C   UNL     1      45.796  33.218  47.345  1.00  0.00     0.000 C 
ENDROOT
BRANCH   1   2
ATOM      2  C   UNL     1      44.691  32.386  46.662  1.00  0.00     0.000 C 
BRANCH   2   3
ATOM      3  C   UNL     1      45.115  30.975  46.213  1.00  0.00     0.000 C 
BRANCH   3   4
ATOM      4  C   UNL     1      46.638  30.770  46.245  1.00  0.00     0.000 C 
BRANCH   4   5
ATOM      5  C   UNL     1      47.055  29.473  46.962  1.00  0.00     0.001 C 
BRANCH   5   6
ATOM      6  C   UNL     1      47.409  29.626  48.456  1.00  0.00     0.009 C 
BRANCH   6   7
ATOM      7  C   UNL     1      46.234  29.364  49.424  1.00  0.00     0.032 C 
ATOM      8  C   UNL     1      46.719  29.398  50.878  1.00  0.00     0.014 C 
BRANCH   7   9
ATOM      9  C   UNL     1      45.562  28.047  49.139  1.00  0.00     0.044 C 
ATOM     10  O   UNL     1      46.118  26.962  49.458  1.00  0.00    -0.550 OA
ATOM     11  O   UNL     1      44.320  28.023  48.518  1.00  0.00    -0.550 OA
ENDBRANCH   7   9
ENDBRANCH   6   7
ENDBRANCH   5   6
ENDBRANCH   4   5
ENDBRANCH   3   4
ENDBRANCH   2   3
ENDBRANCH   1   2
BRANCH   1  12
ATOM     12  C   UNL     1      45.809  33.149  48.884  1.00  0.00     0.000 C 
BRANCH  12  13
ATOM     13  C   UNL     1      44.541  32.545  49.521  1.00  0.00    -0.000 C 
BRANCH  13  14
ATOM     14  C   UNL     1      43.603  33.567  50.187  1.00  0.00    -0.000 C 
BRANCH  14  15
ATOM     15  C   UNL     1      43.849  35.006  49.701  1.00  0.00    -0.000 C 
BRANCH  15  16
ATOM     16  C   UNL     1      42.678  35.562  48.876  1.00  0.00    -0.000 C 
BRANCH  16  17
ATOM     17  C   UNL     1      41.646  34.480  48.514  1.00  0.00    -0.000 C 
BRANCH  17  18
ATOM     18  C   UNL     1      41.499  34.291  46.996  1.00  0.00    -0.003 C 
ATOM     19  C   UNL     1      40.616  35.359  46.349  1.00  0.00     0.004 C 
ENDBRANCH  17  18
ENDBRANCH  16  17
ENDBRANCH  15  16
ENDBRANCH  14  15
ENDBRANCH  13  14
ENDBRANCH  12  13
ENDBRANCH   1  12
TORSDOF 14
ENDMDL
