MODEL 1
REMARK VINA RESULT:    -6.401      0.000      0.000
REMARK INTER + INTRA:         -15.973
REMARK INTER:                 -14.632
REMARK INTRA:                  -1.341
REMARK UNBOUND:                -1.341
REMARK SMILES CCCCCCCCCCCCCCCCCCCCCCCC(=O)[O-]
REMARK SMILES IDX 13 1 14 2 15 3 16 4 17 5 18 6 19 7 20 8 21 9 22 10 23 11
REMARK SMILES IDX 24 12 25 13 26 14 12 15 11 16 10 17 9 18 8 19 7 20 6 21 5 22
REMARK SMILES IDX 4 23 3 24 2 25 1 26
REMARK H PARENT
REMARK Flexibility Score: inf
ROOT
ATOM      1  C   UNL     1      88.988 325.477 199.396  1.00  0.00     0.000 C 
ENDROOT
BRANCH   1   2
ATOM      2  C   UNL     1      89.233 326.030 200.809  1.00  0.00     0.000 C 
BRANCH   2   3
ATOM      3  C   UNL     1      90.663 326.556 201.004  1.00  0.00     0.000 C 
BRANCH   3   4
ATOM      4  C   UNL     1      90.940 326.992 202.454  1.00  0.00     0.000 C 
BRANCH   4   5
ATOM      5  C   UNL     1      90.022 326.293 203.472  1.00  0.00     0.000 C 
BRANCH   5   6
ATOM      6  C   UNL     1      89.174 327.232 204.357  1.00  0.00     0.000 C 
BRANCH   6   7
ATOM      7  C   UNL     1      89.545 327.255 205.855  1.00  0.00     0.000 C 
BRANCH   7   8
ATOM      8  C   UNL     1      89.020 326.047 206.665  1.00  0.00     0.000 C 
BRANCH   8   9
ATOM      9  C   UNL     1      87.656 325.519 206.182  1.00  0.00     0.000 C 
BRANCH   9  10
ATOM     10  C   UNL     1      87.625 324.017 205.842  1.00  0.00     0.006 C 
BRANCH  10  11
ATOM     11  C   UNL     1      86.473 323.600 204.914  1.00  0.00     0.053 C 
BRANCH  11  12
ATOM     12  C   UNL     1      86.922 323.457 203.493  1.00  0.00     0.041 C 
ATOM     13  O   UNL     1      86.091 323.548 202.552  1.00  0.00    -0.550 OA
ATOM     14  O   UNL     1      88.267 323.254 203.206  1.00  0.00    -0.550 OA
ENDBRANCH  11  12
ENDBRANCH  10  11
ENDBRANCH   9  10
ENDBRANCH   8   9
ENDBRANCH   7   8
ENDBRANCH   6   7
ENDBRANCH   5   6
ENDBRANCH   4   5
ENDBRANCH   3   4
ENDBRANCH   2   3
ENDBRANCH   1   2
BRANCH   1  15
ATOM     15  C   UNL     1      88.861 326.619 198.376  1.00  0.00     0.000 C 
BRANCH  15  16
ATOM     16  C   UNL     1      88.012 326.236 197.152  1.00  0.00     0.000 C 
BRANCH  16  17
ATOM     17  C   UNL     1      88.819 325.848 195.896  1.00  0.00     0.000 C 
BRANCH  17  18
ATOM     18  C   UNL     1      88.366 326.530 194.590  1.00  0.00    -0.000 C 
BRANCH  18  19
ATOM     19  C   UNL     1      86.853 326.811 194.493  1.00  0.00    -0.000 C 
BRANCH  19  20
ATOM     20  C   UNL     1      85.995 325.605 194.061  1.00  0.00    -0.000 C 
BRANCH  20  21
ATOM     21  C   UNL     1      86.795 324.353 193.649  1.00  0.00    -0.000 C 
BRANCH  21  22
ATOM     22  C   UNL     1      86.795 324.046 192.139  1.00  0.00    -0.000 C 
BRANCH  22  23
ATOM     23  C   UNL     1      88.142 324.269 191.426  1.00  0.00    -0.000 C 
BRANCH  23  24
ATOM     24  C   UNL     1      88.378 323.282 190.271  1.00  0.00    -0.000 C 
BRANCH  24  25
ATOM     25  C   UNL     1      89.321 323.848 189.197  1.00  0.00    -0.003 C 
ATOM     26  C   UNL     1      90.236 322.784 188.593  1.00  0.00     0.004 C 
ENDBRANCH  24  25
ENDBRANCH  23  24
ENDBRANCH  22  23
ENDBRANCH  21  22
ENDBRANCH  20  21
ENDBRANCH  19  20
ENDBRANCH  18  19
ENDBRANCH  17  18
ENDBRANCH  16  17
ENDBRANCH  15  16
ENDBRANCH   1  15
TORSDOF 22
ENDMDL
MODEL 2
REMARK VINA RESULT:    -6.386      3.963     11.303
REMARK INTER + INTRA:         -15.940
REMARK INTER:                 -13.689
REMARK INTRA:                  -2.251
REMARK UNBOUND:                -1.341
REMARK SMILES CCCCCCCCCCCCCCCCCCCCCCCC(=O)[O-]
REMARK SMILES IDX 13 1 14 2 15 3 16 4 17 5 18 6 19 7 20 8 21 9 22 10 23 11
REMARK SMILES IDX 24 12 25 13 26 14 12 15 11 16 10 17 9 18 8 19 7 20 6 21 5 22
REMARK SMILES IDX 4 23 3 24 2 25 1 26
REMARK H PARENT
REMARK Flexibility Score: inf
ROOT
ATOM      1  C   UNL     1      88.937 325.821 199.311  1.00  0.00     0.000 C 
ENDROOT
BRANCH   1   2
ATOM      2  C   UNL     1      88.873 326.781 198.113  1.00  0.00     0.000 C 
BRANCH   2   3
ATOM      3  C   UNL     1      88.164 326.169 196.895  1.00  0.00     0.000 C 
BRANCH   3   4
ATOM      4  C   UNL     1      88.877 326.494 195.571  1.00  0.00     0.000 C 
BRANCH   4   5
ATOM      5  C   UNL     1      87.901 326.892 194.449  1.00  0.00     0.000 C 
BRANCH   5   6
ATOM      6  C   UNL     1      86.474 326.316 194.574  1.00  0.00     0.000 C 
BRANCH   6   7
ATOM      7  C   UNL     1      86.186 325.057 193.729  1.00  0.00     0.000 C 
BRANCH   7   8
ATOM      8  C   UNL     1      86.999 323.808 194.140  1.00  0.00     0.000 C 
BRANCH   8   9
ATOM      9  C   UNL     1      88.123 323.443 193.152  1.00  0.00     0.000 C 
BRANCH   9  10
ATOM     10  C   UNL     1      87.947 324.012 191.731  1.00  0.00     0.006 C 
BRANCH  10  11
ATOM     11  C   UNL     1      87.264 323.052 190.743  1.00  0.00     0.053 C 
BRANCH  11  12
ATOM     12  C   UNL     1      87.962 323.024 189.419  1.00  0.00     0.041 C 
ATOM     13  O   UNL     1      87.507 322.323 188.476  1.00  0.00    -0.550 OA
ATOM     14  O   UNL     1      89.099 323.796 189.215  1.00  0.00    -0.550 OA
ENDBRANCH  11  12
ENDBRANCH  10  11
ENDBRANCH   9  10
ENDBRANCH   8   9
ENDBRANCH   7   8
ENDBRANCH   6   7
ENDBRANCH   5   6
ENDBRANCH   4   5
ENDBRANCH   3   4
ENDBRANCH   2   3
ENDBRANCH   1   2
BRANCH   1  15
ATOM     15  C   UNL     1      89.692 326.460 200.486  1.00  0.00     0.000 C 
BRANCH  15  16
ATOM     16  C   UNL     1      88.898 326.415 201.803  1.00  0.00     0.000 C 
BRANCH  16  17
ATOM     17  C   UNL     1      89.733 326.674 203.074  1.00  0.00     0.000 C 
BRANCH  17  18
ATOM     18  C   UNL     1      89.018 327.488 204.171  1.00  0.00    -0.000 C 
BRANCH  18  19
ATOM     19  C   UNL     1      89.521 327.230 205.606  1.00  0.00    -0.000 C 
BRANCH  19  20
ATOM     20  C   UNL     1      89.117 325.866 206.200  1.00  0.00    -0.000 C 
BRANCH  20  21
ATOM     21  C   UNL     1      87.614 325.534 206.101  1.00  0.00    -0.000 C 
BRANCH  21  22
ATOM     22  C   UNL     1      87.291 324.070 205.740  1.00  0.00    -0.000 C 
BRANCH  22  23
ATOM     23  C   UNL     1      88.481 323.250 205.207  1.00  0.00    -0.000 C 
BRANCH  23  24
ATOM     24  C   UNL     1      88.558 323.237 203.671  1.00  0.00    -0.000 C 
BRANCH  24  25
ATOM     25  C   UNL     1      87.174 323.352 203.012  1.00  0.00    -0.003 C 
ATOM     26  C   UNL     1      87.218 323.127 201.502  1.00  0.00     0.004 C 
ENDBRANCH  24  25
ENDBRANCH  23  24
ENDBRANCH  22  23
ENDBRANCH  21  22
ENDBRANCH  20  21
ENDBRANCH  19  20
ENDBRANCH  18  19
ENDBRANCH  17  18
ENDBRANCH  16  17
ENDBRANCH  15  16
ENDBRANCH   1  15
TORSDOF 22
ENDMDL
MODEL 3
REMARK VINA RESULT:    -6.156      2.854     10.488
REMARK INTER + INTRA:         -15.415
REMARK INTER:                 -12.965
REMARK INTRA:                  -2.450
REMARK UNBOUND:                -1.341
REMARK SMILES CCCCCCCCCCCCCCCCCCCCCCCC(=O)[O-]
REMARK SMILES IDX 13 1 14 2 15 3 16 4 17 5 18 6 19 7 20 8 21 9 22 10 23 11
REMARK SMILES IDX 24 12 25 13 26 14 12 15 11 16 10 17 9 18 8 19 7 20 6 21 5 22
REMARK SMILES IDX 4 23 3 24 2 25 1 26
REMARK H PARENT
REMARK Flexibility Score: inf
ROOT
ATOM      1  C   UNL     1      89.252 326.205 199.300  1.00  0.00     0.000 C 
ENDROOT
BRANCH   1   2
ATOM      2  C   UNL     1      89.001 324.762 198.833  1.00  0.00     0.000 C 
BRANCH   2   3
ATOM      3  C   UNL     1      88.520 324.681 197.376  1.00  0.00     0.000 C 
BRANCH   3   4
ATOM      4  C   UNL     1      88.017 326.035 196.843  1.00  0.00     0.000 C 
BRANCH   4   5
ATOM      5  C   UNL     1      88.798 326.517 195.608  1.00  0.00     0.000 C 
BRANCH   5   6
ATOM      6  C   UNL     1      87.943 326.829 194.361  1.00  0.00     0.000 C 
BRANCH   6   7
ATOM      7  C   UNL     1      86.529 326.211 194.347  1.00  0.00     0.000 C 
BRANCH   7   8
ATOM      8  C   UNL     1      86.370 324.994 193.406  1.00  0.00     0.000 C 
BRANCH   8   9
ATOM      9  C   UNL     1      87.643 324.651 192.611  1.00  0.00     0.000 C 
BRANCH   9  10
ATOM     10  C   UNL     1      88.123 323.194 192.750  1.00  0.00     0.006 C 
BRANCH  10  11
ATOM     11  C   UNL     1      88.656 322.831 194.145  1.00  0.00     0.053 C 
BRANCH  11  12
ATOM     12  C   UNL     1      89.031 321.385 194.241  1.00  0.00     0.041 C 
ATOM     13  O   UNL     1      90.021 321.031 194.936  1.00  0.00    -0.550 OA
ATOM     14  O   UNL     1      88.269 320.423 193.589  1.00  0.00    -0.550 OA
ENDBRANCH  11  12
ENDBRANCH  10  11
ENDBRANCH   9  10
ENDBRANCH   8   9
ENDBRANCH   7   8
ENDBRANCH   6   7
ENDBRANCH   5   6
ENDBRANCH   4   5
ENDBRANCH   3   4
ENDBRANCH   2   3
ENDBRANCH   1   2
BRANCH   1  15
ATOM     15  C   UNL     1      89.210 326.300 200.832  1.00  0.00     0.000 C 
BRANCH  15  16
ATOM     16  C   UNL     1      90.605 326.470 201.459  1.00  0.00     0.000 C 
BRANCH  16  17
ATOM     17  C   UNL     1      90.605 326.989 202.912  1.00  0.00     0.000 C 
BRANCH  17  18
ATOM     18  C   UNL     1      89.210 327.204 203.530  1.00  0.00    -0.000 C 
BRANCH  18  19
ATOM     19  C   UNL     1      89.198 327.398 205.060  1.00  0.00    -0.000 C 
BRANCH  19  20
ATOM     20  C   UNL     1      89.266 326.095 205.881  1.00  0.00    -0.000 C 
BRANCH  20  21
ATOM     21  C   UNL     1      87.906 325.576 206.388  1.00  0.00    -0.000 C 
BRANCH  21  22
ATOM     22  C   UNL     1      87.575 324.122 205.997  1.00  0.00    -0.000 C 
BRANCH  22  23
ATOM     23  C   UNL     1      86.372 323.957 205.050  1.00  0.00    -0.000 C 
BRANCH  23  24
ATOM     24  C   UNL     1      86.742 323.260 203.729  1.00  0.00    -0.000 C 
BRANCH  24  25
ATOM     25  C   UNL     1      88.197 323.527 203.312  1.00  0.00    -0.003 C 
ATOM     26  C   UNL     1      88.546 322.911 201.957  1.00  0.00     0.004 C 
ENDBRANCH  24  25
ENDBRANCH  23  24
ENDBRANCH  22  23
ENDBRANCH  21  22
ENDBRANCH  20  21
ENDBRANCH  19  20
ENDBRANCH  18  19
ENDBRANCH  17  18
ENDBRANCH  16  17
ENDBRANCH  15  16
ENDBRANCH   1  15
TORSDOF 22
ENDMDL
MODEL 4
REMARK VINA RESULT:    -6.132      1.905      5.133
REMARK INTER + INTRA:         -15.359
REMARK INTER:                 -13.735
REMARK INTRA:                  -1.624
REMARK UNBOUND:                -1.341
REMARK SMILES CCCCCCCCCCCCCCCCCCCCCCCC(=O)[O-]
REMARK SMILES IDX 13 1 14 2 15 3 16 4 17 5 18 6 19 7 20 8 21 9 22 10 23 11
REMARK SMILES IDX 24 12 25 13 26 14 12 15 11 16 10 17 9 18 8 19 7 20 6 21 5 22
REMARK SMILES IDX 4 23 3 24 2 25 1 26
REMARK H PARENT
REMARK Flexibility Score: inf
ROOT
ATOM      1  C   UNL     1      88.042 326.424 193.932  1.00  0.00     0.000 C 
ENDROOT
BRANCH   1   2
ATOM      2  C   UNL     1      86.727 326.463 194.726  1.00  0.00     0.000 C 
BRANCH   2   3
ATOM      3  C   UNL     1      86.949 326.541 196.245  1.00  0.00     0.000 C 
BRANCH   3   4
ATOM      4  C   UNL     1      88.377 326.140 196.655  1.00  0.00     0.000 C 
BRANCH   4   5
ATOM      5  C   UNL     1      88.711 326.524 198.108  1.00  0.00     0.000 C 
BRANCH   5   6
ATOM      6  C   UNL     1      89.026 325.344 199.052  1.00  0.00     0.000 C 
BRANCH   6   7
ATOM      7  C   UNL     1      90.211 325.559 200.017  1.00  0.00     0.000 C 
BRANCH   7   8
ATOM      8  C   UNL     1      89.905 326.491 201.212  1.00  0.00     0.000 C 
BRANCH   8   9
ATOM      9  C   UNL     1      91.149 326.881 202.032  1.00  0.00     0.000 C 
BRANCH   9  10
ATOM     10  C   UNL     1      90.860 327.331 203.476  1.00  0.00     0.006 C 
BRANCH  10  11
ATOM     11  C   UNL     1      89.374 327.286 203.870  1.00  0.00     0.053 C 
BRANCH  11  12
ATOM     12  C   UNL     1      89.167 326.622 205.195  1.00  0.00     0.041 C 
ATOM     13  O   UNL     1      89.345 327.266 206.263  1.00  0.00    -0.550 OA
ATOM     14  O   UNL     1      88.748 325.298 205.252  1.00  0.00    -0.550 OA
ENDBRANCH  11  12
ENDBRANCH  10  11
ENDBRANCH   9  10
ENDBRANCH   8   9
ENDBRANCH   7   8
ENDBRANCH   6   7
ENDBRANCH   5   6
ENDBRANCH   4   5
ENDBRANCH   3   4
ENDBRANCH   2   3
ENDBRANCH   1   2
BRANCH   1  15
ATOM     15  C   UNL     1      88.050 325.249 192.943  1.00  0.00     0.000 C 
BRANCH  15  16
ATOM     16  C   UNL     1      88.372 323.903 193.616  1.00  0.00     0.000 C 
BRANCH  16  17
ATOM     17  C   UNL     1      87.595 322.694 193.056  1.00  0.00     0.000 C 
BRANCH  17  18
ATOM     18  C   UNL     1      86.386 323.047 192.168  1.00  0.00    -0.000 C 
BRANCH  18  19
ATOM     19  C   UNL     1      86.552 322.705 190.674  1.00  0.00    -0.000 C 
BRANCH  19  20
ATOM     20  C   UNL     1      88.007 322.471 190.219  1.00  0.00    -0.000 C 
BRANCH  20  21
ATOM     21  C   UNL     1      88.671 323.675 189.523  1.00  0.00    -0.000 C 
BRANCH  21  22
ATOM     22  C   UNL     1      90.018 323.371 188.837  1.00  0.00    -0.000 C 
BRANCH  22  23
ATOM     23  C   UNL     1      90.567 321.952 189.074  1.00  0.00    -0.000 C 
BRANCH  23  24
ATOM     24  C   UNL     1      92.104 321.894 189.052  1.00  0.00    -0.000 C 
BRANCH  24  25
ATOM     25  C   UNL     1      92.730 323.138 188.402  1.00  0.00    -0.003 C 
ATOM     26  C   UNL     1      93.926 323.677 189.186  1.00  0.00     0.004 C 
ENDBRANCH  24  25
ENDBRANCH  23  24
ENDBRANCH  22  23
ENDBRANCH  21  22
ENDBRANCH  20  21
ENDBRANCH  19  20
ENDBRANCH  18  19
ENDBRANCH  17  18
ENDBRANCH  16  17
ENDBRANCH  15  16
ENDBRANCH   1  15
TORSDOF 22
ENDMDL
MODEL 5
REMARK VINA RESULT:    -6.127      1.621      2.867
REMARK INTER + INTRA:         -15.348
REMARK INTER:                 -12.803
REMARK INTRA:                  -2.545
REMARK UNBOUND:                -1.341
REMARK SMILES CCCCCCCCCCCCCCCCCCCCCCCC(=O)[O-]
REMARK SMILES IDX 13 1 14 2 15 3 16 4 17 5 18 6 19 7 20 8 21 9 22 10 23 11
REMARK SMILES IDX 24 12 25 13 26 14 12 15 11 16 10 17 9 18 8 19 7 20 6 21 5 22
REMARK SMILES IDX 4 23 3 24 2 25 1 26
REMARK H PARENT
REMARK Flexibility Score: inf
ROOT
ATOM      1  C   UNL     1      90.429 323.250 198.225  1.00  0.00     0.000 C 
ENDROOT
BRANCH   1   2
ATOM      2  C   UNL     1      90.605 324.042 199.530  1.00  0.00     0.000 C 
BRANCH   2   3
ATOM      3  C   UNL     1      89.273 324.543 200.109  1.00  0.00     0.000 C 
BRANCH   3   4
ATOM      4  C   UNL     1      89.211 326.078 200.206  1.00  0.00     0.000 C 
BRANCH   4   5
ATOM      5  C   UNL     1      89.418 326.593 201.641  1.00  0.00     0.000 C 
BRANCH   5   6
ATOM      6  C   UNL     1      90.885 326.840 202.054  1.00  0.00     0.000 C 
BRANCH   6   7
ATOM      7  C   UNL     1      91.339 326.146 203.355  1.00  0.00     0.000 C 
BRANCH   7   8
ATOM      8  C   UNL     1      91.883 327.105 204.439  1.00  0.00     0.000 C 
BRANCH   8   9
ATOM      9  C   UNL     1      91.025 327.153 205.717  1.00  0.00     0.000 C 
BRANCH   9  10
ATOM     10  C   UNL     1      89.507 327.260 205.476  1.00  0.00     0.006 C 
BRANCH  10  11
ATOM     11  C   UNL     1      88.650 326.428 206.442  1.00  0.00     0.053 C 
BRANCH  11  12
ATOM     12  C   UNL     1      88.056 325.229 205.772  1.00  0.00     0.041 C 
ATOM     13  O   UNL     1      88.740 324.552 204.958  1.00  0.00    -0.550 OA
ATOM     14  O   UNL     1      86.755 324.838 206.068  1.00  0.00    -0.550 OA
ENDBRANCH  11  12
ENDBRANCH  10  11
ENDBRANCH   9  10
ENDBRANCH   8   9
ENDBRANCH   7   8
ENDBRANCH   6   7
ENDBRANCH   5   6
ENDBRANCH   4   5
ENDBRANCH   3   4
ENDBRANCH   2   3
ENDBRANCH   1   2
BRANCH   1  15
ATOM     15  C   UNL     1      88.945 322.947 197.964  1.00  0.00     0.000 C 
BRANCH  15  16
ATOM     16  C   UNL     1      88.391 323.689 196.735  1.00  0.00     0.000 C 
BRANCH  16  17
ATOM     17  C   UNL     1      89.296 324.812 196.191  1.00  0.00     0.000 C 
BRANCH  17  18
ATOM     18  C   UNL     1      88.765 326.243 196.406  1.00  0.00    -0.000 C 
BRANCH  18  19
ATOM     19  C   UNL     1      87.297 326.330 196.869  1.00  0.00    -0.000 C 
BRANCH  19  20
ATOM     20  C   UNL     1      86.286 326.685 195.760  1.00  0.00    -0.000 C 
BRANCH  20  21
ATOM     21  C   UNL     1      86.871 326.713 194.333  1.00  0.00    -0.000 C 
BRANCH  21  22
ATOM     22  C   UNL     1      86.745 325.391 193.549  1.00  0.00    -0.000 C 
BRANCH  22  23
ATOM     23  C   UNL     1      87.961 325.029 192.678  1.00  0.00    -0.000 C 
BRANCH  23  24
ATOM     24  C   UNL     1      88.122 323.512 192.477  1.00  0.00    -0.000 C 
BRANCH  24  25
ATOM     25  C   UNL     1      87.631 323.047 191.097  1.00  0.00    -0.003 C 
ATOM     26  C   UNL     1      88.526 323.532 189.957  1.00  0.00     0.004 C 
ENDBRANCH  24  25
ENDBRANCH  23  24
ENDBRANCH  22  23
ENDBRANCH  21  22
ENDBRANCH  20  21
ENDBRANCH  19  20
ENDBRANCH  18  19
ENDBRANCH  17  18
ENDBRANCH  16  17
ENDBRANCH  15  16
ENDBRANCH   1  15
TORSDOF 22
ENDMDL
MODEL 6
REMARK VINA RESULT:    -6.120     16.698     19.547
REMARK INTER + INTRA:         -15.332
REMARK INTER:                 -14.317
REMARK INTRA:                  -1.015
REMARK UNBOUND:                -1.341
REMARK SMILES CCCCCCCCCCCCCCCCCCCCCCCC(=O)[O-]
REMARK SMILES IDX 13 1 14 2 15 3 16 4 17 5 18 6 19 7 20 8 21 9 22 10 23 11
REMARK SMILES IDX 24 12 25 13 26 14 12 15 11 16 10 17 9 18 8 19 7 20 6 21 5 22
REMARK SMILES IDX 4 23 3 24 2 25 1 26
REMARK H PARENT
REMARK Flexibility Score: inf
ROOT
ATOM      1  C   UNL     1     103.884 313.377 190.952  1.00  0.00     0.000 C 
ENDROOT
BRANCH   1   2
ATOM      2  C   UNL     1     104.546 313.303 192.336  1.00  0.00     0.000 C 
BRANCH   2   3
ATOM      3  C   UNL     1     104.237 311.992 193.077  1.00  0.00     0.000 C 
BRANCH   3   4
ATOM      4  C   UNL     1     105.506 311.291 193.592  1.00  0.00     0.000 C 
BRANCH   4   5
ATOM      5  C   UNL     1     105.756 311.536 195.091  1.00  0.00     0.000 C 
BRANCH   5   6
ATOM      6  C   UNL     1     104.631 312.283 195.839  1.00  0.00     0.000 C 
BRANCH   6   7
ATOM      7  C   UNL     1     103.870 311.458 196.898  1.00  0.00     0.000 C 
BRANCH   7   8
ATOM      8  C   UNL     1     103.914 312.049 198.326  1.00  0.00     0.000 C 
BRANCH   8   9
ATOM      9  C   UNL     1     103.102 311.245 199.358  1.00  0.00     0.000 C 
BRANCH   9  10
ATOM     10  C   UNL     1     103.026 311.878 200.761  1.00  0.00     0.006 C 
BRANCH  10  11
ATOM     11  C   UNL     1     102.305 311.015 201.809  1.00  0.00     0.053 C 
BRANCH  11  12
ATOM     12  C   UNL     1     103.003 311.046 203.134  1.00  0.00     0.041 C 
ATOM     13  O   UNL     1     102.469 311.623 204.119  1.00  0.00    -0.550 OA
ATOM     14  O   UNL     1     104.229 310.411 203.290  1.00  0.00    -0.550 OA
ENDBRANCH  11  12
ENDBRANCH  10  11
ENDBRANCH   9  10
ENDBRANCH   8   9
ENDBRANCH   7   8
ENDBRANCH   6   7
ENDBRANCH   5   6
ENDBRANCH   4   5
ENDBRANCH   3   4
ENDBRANCH   2   3
ENDBRANCH   1   2
BRANCH   1  15
ATOM     15  C   UNL     1     104.366 314.614 190.180  1.00  0.00     0.000 C 
BRANCH  15  16
ATOM     16  C   UNL     1     103.216 315.387 189.510  1.00  0.00     0.000 C 
BRANCH  16  17
ATOM     17  C   UNL     1     102.616 314.707 188.262  1.00  0.00     0.000 C 
BRANCH  17  18
ATOM     18  C   UNL     1     101.107 314.939 188.054  1.00  0.00    -0.000 C 
BRANCH  18  19
ATOM     19  C   UNL     1     100.522 316.147 188.812  1.00  0.00    -0.000 C 
BRANCH  19  20
ATOM     20  C   UNL     1      98.983 316.234 188.809  1.00  0.00    -0.000 C 
BRANCH  20  21
ATOM     21  C   UNL     1      98.259 314.925 188.433  1.00  0.00    -0.000 C 
BRANCH  21  22
ATOM     22  C   UNL     1      97.245 314.417 189.477  1.00  0.00    -0.000 C 
BRANCH  22  23
ATOM     23  C   UNL     1      97.454 312.963 189.939  1.00  0.00    -0.000 C 
BRANCH  23  24
ATOM     24  C   UNL     1      96.599 312.596 191.164  1.00  0.00    -0.000 C 
BRANCH  24  25
ATOM     25  C   UNL     1      96.765 313.596 192.318  1.00  0.00    -0.003 C 
ATOM     26  C   UNL     1      96.391 313.002 193.675  1.00  0.00     0.004 C 
ENDBRANCH  24  25
ENDBRANCH  23  24
ENDBRANCH  22  23
ENDBRANCH  21  22
ENDBRANCH  20  21
ENDBRANCH  19  20
ENDBRANCH  18  19
ENDBRANCH  17  18
ENDBRANCH  16  17
ENDBRANCH  15  16
ENDBRANCH   1  15
TORSDOF 22
ENDMDL
MODEL 7
REMARK VINA RESULT:    -6.107      2.051      3.153
REMARK INTER + INTRA:         -15.302
REMARK INTER:                 -12.885
REMARK INTRA:                  -2.418
REMARK UNBOUND:                -1.341
REMARK SMILES CCCCCCCCCCCCCCCCCCCCCCCC(=O)[O-]
REMARK SMILES IDX 13 1 14 2 15 3 16 4 17 5 18 6 19 7 20 8 21 9 22 10 23 11
REMARK SMILES IDX 24 12 25 13 26 14 12 15 11 16 10 17 9 18 8 19 7 20 6 21 5 22
REMARK SMILES IDX 4 23 3 24 2 25 1 26
REMARK H PARENT
REMARK Flexibility Score: inf
ROOT
ATOM      1  C   UNL     1      90.390 324.306 199.359  1.00  0.00     0.000 C 
ENDROOT
BRANCH   1   2
ATOM      2  C   UNL     1      90.452 325.337 200.497  1.00  0.00     0.000 C 
BRANCH   2   3
ATOM      3  C   UNL     1      89.064 325.844 200.919  1.00  0.00     0.000 C 
BRANCH   3   4
ATOM      4  C   UNL     1      88.647 325.335 202.310  1.00  0.00     0.000 C 
BRANCH   4   5
ATOM      5  C   UNL     1      89.519 324.167 202.804  1.00  0.00     0.000 C 
BRANCH   5   6
ATOM      6  C   UNL     1      89.188 323.640 204.217  1.00  0.00     0.000 C 
BRANCH   6   7
ATOM      7  C   UNL     1      88.224 324.515 205.047  1.00  0.00     0.000 C 
BRANCH   7   8
ATOM      8  C   UNL     1      88.823 325.056 206.366  1.00  0.00     0.000 C 
BRANCH   8   9
ATOM      9  C   UNL     1      88.806 326.592 206.472  1.00  0.00     0.000 C 
BRANCH   9  10
ATOM     10  C   UNL     1      89.415 327.334 205.266  1.00  0.00     0.006 C 
BRANCH  10  11
ATOM     11  C   UNL     1      90.933 327.558 205.359  1.00  0.00     0.053 C 
BRANCH  11  12
ATOM     12  C   UNL     1      91.685 326.701 204.389  1.00  0.00     0.041 C 
ATOM     13  O   UNL     1      91.911 327.114 203.220  1.00  0.00    -0.550 OA
ATOM     14  O   UNL     1      92.163 325.457 204.784  1.00  0.00    -0.550 OA
ENDBRANCH  11  12
ENDBRANCH  10  11
ENDBRANCH   9  10
ENDBRANCH   8   9
ENDBRANCH   7   8
ENDBRANCH   6   7
ENDBRANCH   5   6
ENDBRANCH   4   5
ENDBRANCH   3   4
ENDBRANCH   2   3
ENDBRANCH   1   2
BRANCH   1  15
ATOM     15  C   UNL     1      88.952 323.809 199.148  1.00  0.00     0.000 C 
BRANCH  15  16
ATOM     16  C   UNL     1      88.458 324.002 197.704  1.00  0.00     0.000 C 
BRANCH  16  17
ATOM     17  C   UNL     1      88.988 325.267 196.999  1.00  0.00     0.000 C 
BRANCH  17  18
ATOM     18  C   UNL     1      88.021 326.466 196.993  1.00  0.00    -0.000 C 
BRANCH  18  19
ATOM     19  C   UNL     1      86.733 326.260 196.171  1.00  0.00    -0.000 C 
BRANCH  19  20
ATOM     20  C   UNL     1      86.760 326.874 194.757  1.00  0.00    -0.000 C 
BRANCH  20  21
ATOM     21  C   UNL     1      88.019 326.545 193.930  1.00  0.00    -0.000 C 
BRANCH  21  22
ATOM     22  C   UNL     1      88.139 325.075 193.480  1.00  0.00    -0.000 C 
BRANCH  22  23
ATOM     23  C   UNL     1      86.815 324.409 193.063  1.00  0.00    -0.000 C 
BRANCH  23  24
ATOM     24  C   UNL     1      86.874 323.787 191.657  1.00  0.00    -0.000 C 
BRANCH  24  25
ATOM     25  C   UNL     1      88.233 324.007 190.975  1.00  0.00    -0.003 C 
ATOM     26  C   UNL     1      88.362 323.248 189.654  1.00  0.00     0.004 C 
ENDBRANCH  24  25
ENDBRANCH  23  24
ENDBRANCH  22  23
ENDBRANCH  21  22
ENDBRANCH  20  21
ENDBRANCH  19  20
ENDBRANCH  18  19
ENDBRANCH  17  18
ENDBRANCH  16  17
ENDBRANCH  15  16
ENDBRANCH   1  15
TORSDOF 22
ENDMDL
MODEL 8
REMARK VINA RESULT:    -6.081      1.478      2.513
REMARK INTER + INTRA:         -15.242
REMARK INTER:                 -12.885
REMARK INTRA:                  -2.357
REMARK UNBOUND:                -1.341
REMARK SMILES CCCCCCCCCCCCCCCCCCCCCCCC(=O)[O-]
REMARK SMILES IDX 13 1 14 2 15 3 16 4 17 5 18 6 19 7 20 8 21 9 22 10 23 11
REMARK SMILES IDX 24 12 25 13 26 14 12 15 11 16 10 17 9 18 8 19 7 20 6 21 5 22
REMARK SMILES IDX 4 23 3 24 2 25 1 26
REMARK H PARENT
REMARK Flexibility Score: inf
ROOT
ATOM      1  C   UNL     1      88.995 325.886 199.338  1.00  0.00     0.000 C 
ENDROOT
BRANCH   1   2
ATOM      2  C   UNL     1      89.897 326.553 200.388  1.00  0.00     0.000 C 
BRANCH   2   3
ATOM      3  C   UNL     1      89.811 325.876 201.765  1.00  0.00     0.000 C 
BRANCH   3   4
ATOM      4  C   UNL     1      89.115 326.759 202.816  1.00  0.00     0.000 C 
BRANCH   4   5
ATOM      5  C   UNL     1      90.039 327.131 203.989  1.00  0.00     0.000 C 
BRANCH   5   6
ATOM      6  C   UNL     1      89.336 327.352 205.346  1.00  0.00     0.000 C 
BRANCH   6   7
ATOM      7  C   UNL     1      89.158 326.093 206.219  1.00  0.00     0.000 C 
BRANCH   7   8
ATOM      8  C   UNL     1      87.694 325.784 206.611  1.00  0.00     0.000 C 
BRANCH   8   9
ATOM      9  C   UNL     1      87.054 324.654 205.784  1.00  0.00     0.000 C 
BRANCH   9  10
ATOM     10  C   UNL     1      87.972 323.446 205.515  1.00  0.00     0.006 C 
BRANCH  10  11
ATOM     11  C   UNL     1      88.405 323.291 204.048  1.00  0.00     0.053 C 
BRANCH  11  12
ATOM     12  C   UNL     1      87.247 322.976 203.154  1.00  0.00     0.041 C 
ATOM     13  O   UNL     1      86.860 323.814 202.297  1.00  0.00    -0.550 OA
ATOM     14  O   UNL     1      86.612 321.743 203.246  1.00  0.00    -0.550 OA
ENDBRANCH  11  12
ENDBRANCH  10  11
ENDBRANCH   9  10
ENDBRANCH   8   9
ENDBRANCH   7   8
ENDBRANCH   6   7
ENDBRANCH   5   6
ENDBRANCH   4   5
ENDBRANCH   3   4
ENDBRANCH   2   3
ENDBRANCH   1   2
BRANCH   1  15
ATOM     15  C   UNL     1      88.850 326.777 198.095  1.00  0.00     0.000 C 
BRANCH  15  16
ATOM     16  C   UNL     1      88.125 326.073 196.935  1.00  0.00     0.000 C 
BRANCH  16  17
ATOM     17  C   UNL     1      88.641 326.438 195.529  1.00  0.00     0.000 C 
BRANCH  17  18
ATOM     18  C   UNL     1      87.544 326.701 194.478  1.00  0.00    -0.000 C 
BRANCH  18  19
ATOM     19  C   UNL     1      86.416 325.652 194.437  1.00  0.00    -0.000 C 
BRANCH  19  20
ATOM     20  C   UNL     1      86.398 324.764 193.177  1.00  0.00    -0.000 C 
BRANCH  20  21
ATOM     21  C   UNL     1      87.742 324.677 192.426  1.00  0.00    -0.000 C 
BRANCH  21  22
ATOM     22  C   UNL     1      88.218 323.246 192.104  1.00  0.00    -0.000 C 
BRANCH  22  23
ATOM     23  C   UNL     1      87.862 322.185 193.161  1.00  0.00    -0.000 C 
BRANCH  23  24
ATOM     24  C   UNL     1      88.963 322.002 194.220  1.00  0.00    -0.000 C 
BRANCH  24  25
ATOM     25  C   UNL     1      88.704 322.833 195.486  1.00  0.00    -0.003 C 
ATOM     26  C   UNL     1      89.746 322.590 196.577  1.00  0.00     0.004 C 
ENDBRANCH  24  25
ENDBRANCH  23  24
ENDBRANCH  22  23
ENDBRANCH  21  22
ENDBRANCH  20  21
ENDBRANCH  19  20
ENDBRANCH  18  19
ENDBRANCH  17  18
ENDBRANCH  16  17
ENDBRANCH  15  16
ENDBRANCH   1  15
TORSDOF 22
ENDMDL
MODEL 9
REMARK VINA RESULT:    -6.064      4.134     12.008
REMARK INTER + INTRA:         -15.205
REMARK INTER:                 -13.256
REMARK INTRA:                  -1.949
REMARK UNBOUND:                -1.341
REMARK SMILES CCCCCCCCCCCCCCCCCCCCCCCC(=O)[O-]
REMARK SMILES IDX 13 1 14 2 15 3 16 4 17 5 18 6 19 7 20 8 21 9 22 10 23 11
REMARK SMILES IDX 24 12 25 13 26 14 12 15 11 16 10 17 9 18 8 19 7 20 6 21 5 22
REMARK SMILES IDX 4 23 3 24 2 25 1 26
REMARK H PARENT
REMARK Flexibility Score: inf
ROOT
ATOM      1  C   UNL     1      88.782 326.630 197.810  1.00  0.00     0.000 C 
ENDROOT
BRANCH   1   2
ATOM      2  C   UNL     1      88.045 325.831 196.723  1.00  0.00     0.000 C 
BRANCH   2   3
ATOM      3  C   UNL     1      86.739 326.502 196.272  1.00  0.00     0.000 C 
BRANCH   3   4
ATOM      4  C   UNL     1      86.748 326.869 194.777  1.00  0.00     0.000 C 
BRANCH   4   5
ATOM      5  C   UNL     1      88.104 326.593 194.104  1.00  0.00     0.000 C 
BRANCH   5   6
ATOM      6  C   UNL     1      88.090 325.522 192.992  1.00  0.00     0.000 C 
BRANCH   6   7
ATOM      7  C   UNL     1      88.020 324.058 193.476  1.00  0.00     0.000 C 
BRANCH   7   8
ATOM      8  C   UNL     1      86.765 323.286 193.007  1.00  0.00     0.000 C 
BRANCH   8   9
ATOM      9  C   UNL     1      86.384 323.550 191.539  1.00  0.00     0.000 C 
BRANCH   9  10
ATOM     10  C   UNL     1      87.227 322.784 190.501  1.00  0.00     0.006 C 
BRANCH  10  11
ATOM     11  C   UNL     1      88.520 323.500 190.079  1.00  0.00     0.053 C 
BRANCH  11  12
ATOM     12  C   UNL     1      89.428 322.601 189.299  1.00  0.00     0.041 C 
ATOM     13  O   UNL     1      89.276 321.351 189.345  1.00  0.00    -0.550 OA
ATOM     14  O   UNL     1      90.424 323.144 188.497  1.00  0.00    -0.550 OA
ENDBRANCH  11  12
ENDBRANCH  10  11
ENDBRANCH   9  10
ENDBRANCH   8   9
ENDBRANCH   7   8
ENDBRANCH   6   7
ENDBRANCH   5   6
ENDBRANCH   4   5
ENDBRANCH   3   4
ENDBRANCH   2   3
ENDBRANCH   1   2
BRANCH   1  15
ATOM     15  C   UNL     1      88.955 325.790 199.084  1.00  0.00     0.000 C 
BRANCH  15  16
ATOM     16  C   UNL     1      89.721 326.534 200.192  1.00  0.00     0.000 C 
BRANCH  16  17
ATOM     17  C   UNL     1      89.094 326.431 201.598  1.00  0.00     0.000 C 
BRANCH  17  18
ATOM     18  C   UNL     1      88.909 324.995 202.128  1.00  0.00    -0.000 C 
BRANCH  18  19
ATOM     19  C   UNL     1      89.966 324.538 203.152  1.00  0.00    -0.000 C 
BRANCH  19  20
ATOM     20  C   UNL     1      91.406 324.997 202.849  1.00  0.00    -0.000 C 
BRANCH  20  21
ATOM     21  C   UNL     1      92.181 325.547 204.063  1.00  0.00    -0.000 C 
BRANCH  21  22
ATOM     22  C   UNL     1      91.318 325.855 205.304  1.00  0.00    -0.000 C 
BRANCH  22  23
ATOM     23  C   UNL     1      90.707 327.268 205.341  1.00  0.00    -0.000 C 
BRANCH  23  24
ATOM     24  C   UNL     1      89.183 327.255 205.552  1.00  0.00    -0.000 C 
BRANCH  24  25
ATOM     25  C   UNL     1      88.742 326.206 206.584  1.00  0.00    -0.003 C 
ATOM     26  C   UNL     1      87.679 325.252 206.040  1.00  0.00     0.004 C 
ENDBRANCH  24  25
ENDBRANCH  23  24
ENDBRANCH  22  23
ENDBRANCH  21  22
ENDBRANCH  20  21
ENDBRANCH  19  20
ENDBRANCH  18  19
ENDBRANCH  17  18
ENDBRANCH  16  17
ENDBRANCH  15  16
ENDBRANCH   1  15
TORSDOF 22
ENDMDL
