MODEL 1
REMARK VINA RESULT:    -5.946      0.000      0.000
REMARK INTER + INTRA:          -7.118
REMARK INTER:                  -6.988
REMARK INTRA:                  -0.130
REMARK UNBOUND:                -0.130
REMARK SMILES O=c1c(O)c(-c2ccc(O)cc2)oc2cc(O)cc(O)c12
REMARK SMILES IDX 5 1 3 2 2 3 1 4 21 5 19 6 18 7 16 8 15 9 14 10 13 11 6 12
REMARK SMILES IDX 7 13 8 14 9 15 12 16 11 17 10 18 4 20 20 22 17 24
REMARK H PARENT 10 19 4 21 20 23 17 25
REMARK Flexibility Score: inf
ROOT
ATOM      1  C   UNL     1      30.997 -91.928  37.585  1.00  0.00     0.180 A 
ATOM      2  C   UNL     1      29.766 -92.529  37.271  1.00  0.00     0.208 A 
ATOM      3  C   UNL     1      29.630 -93.919  37.413  1.00  0.00     0.238 A 
ATOM      4  O   UNL     1      28.511 -94.444  37.181  1.00  0.00    -0.285 OA
ATOM      5  C   UNL     1      30.732 -94.693  37.851  1.00  0.00     0.111 A 
ATOM      6  C   UNL     1      30.719 -96.114  37.992  1.00  0.00     0.134 A 
ATOM      7  C   UNL     1      31.825 -96.761  38.559  1.00  0.00     0.093 A 
ATOM      8  C   UNL     1      32.965 -96.049  38.928  1.00  0.00     0.123 A 
ATOM      9  C   UNL     1      33.010 -94.667  38.739  1.00  0.00     0.094 A 
ATOM     10  C   UNL     1      31.910 -93.988  38.211  1.00  0.00     0.146 A 
ATOM     11  O   UNL     1      31.990 -92.672  38.057  1.00  0.00    -0.452 OA
ENDROOT
BRANCH   1  12
ATOM     12  C   UNL     1      31.224 -90.472  37.438  1.00  0.00     0.021 A 
ATOM     13  C   UNL     1      32.159 -89.966  36.516  1.00  0.00     0.016 A 
ATOM     14  C   UNL     1      32.373 -88.589  36.411  1.00  0.00     0.047 A 
ATOM     15  C   UNL     1      31.670 -87.702  37.233  1.00  0.00     0.115 A 
ATOM     16  C   UNL     1      30.536 -89.576  38.273  1.00  0.00     0.016 A 
ATOM     17  C   UNL     1      30.752 -88.199  38.165  1.00  0.00     0.047 A 
BRANCH  15  18
ATOM     18  O   UNL     1      31.894 -86.332  37.115  1.00  0.00    -0.508 OA
ATOM     19  H   UNL     1      32.567 -85.853  37.704  1.00  0.00     0.293 HD
ENDBRANCH  15  18
ENDBRANCH   1  12
BRANCH   2  20
ATOM     20  O   UNL     1      28.684 -91.744  36.860  1.00  0.00    -0.502 OA
ATOM     21  H   UNL     1      28.193 -91.907  35.990  1.00  0.00     0.293 HD
ENDBRANCH   2  20
BRANCH   6  22
ATOM     22  O   UNL     1      29.667 -96.931  37.569  1.00  0.00    -0.507 OA
ATOM     23  H   UNL     1      28.816 -96.596  37.144  1.00  0.00     0.293 HD
ENDBRANCH   6  22
BRANCH   8  24
ATOM     24  O   UNL     1      34.053 -96.728  39.474  1.00  0.00    -0.508 OA
ATOM     25  H   UNL     1      35.000 -96.553  39.158  1.00  0.00     0.293 HD
ENDBRANCH   8  24
TORSDOF 5
ENDMDL
MODEL 2
REMARK VINA RESULT:    -5.748      9.587     10.795
REMARK INTER + INTRA:          -6.886
REMARK INTER:                  -6.586
REMARK INTRA:                  -0.300
REMARK UNBOUND:                -0.130
REMARK SMILES O=c1c(O)c(-c2ccc(O)cc2)oc2cc(O)cc(O)c12
REMARK SMILES IDX 5 1 3 2 2 3 1 4 21 5 19 6 18 7 16 8 15 9 14 10 13 11 6 12
REMARK SMILES IDX 7 13 8 14 9 15 12 16 11 17 10 18 4 20 20 22 17 24
REMARK H PARENT 10 19 4 21 20 23 17 25
REMARK Flexibility Score: inf
ROOT
ATOM      1  C   UNL     1      36.061 -95.160  29.739  1.00  0.00     0.180 A 
ATOM      2  C   UNL     1      37.133 -95.562  28.925  1.00  0.00     0.208 A 
ATOM      3  C   UNL     1      38.433 -95.547  29.453  1.00  0.00     0.238 A 
ATOM      4  O   UNL     1      39.382 -95.959  28.737  1.00  0.00    -0.285 OA
ATOM      5  C   UNL     1      38.649 -95.114  30.784  1.00  0.00     0.111 A 
ATOM      6  C   UNL     1      39.929 -95.020  31.409  1.00  0.00     0.134 A 
ATOM      7  C   UNL     1      40.009 -94.705  32.772  1.00  0.00     0.093 A 
ATOM      8  C   UNL     1      38.865 -94.416  33.514  1.00  0.00     0.123 A 
ATOM      9  C   UNL     1      37.614 -94.447  32.898  1.00  0.00     0.094 A 
ATOM     10  C   UNL     1      37.497 -94.795  31.550  1.00  0.00     0.146 A 
ATOM     11  O   UNL     1      36.287 -94.822  31.004  1.00  0.00    -0.452 OA
ENDROOT
BRANCH   1  12
ATOM     12  C   UNL     1      34.665 -95.125  29.246  1.00  0.00     0.021 A 
ATOM     13  C   UNL     1      34.137 -93.980  28.623  1.00  0.00     0.016 A 
ATOM     14  C   UNL     1      32.809 -93.962  28.186  1.00  0.00     0.047 A 
ATOM     15  C   UNL     1      31.990 -95.079  28.379  1.00  0.00     0.115 A 
ATOM     16  C   UNL     1      33.830 -96.235  29.454  1.00  0.00     0.016 A 
ATOM     17  C   UNL     1      32.503 -96.215  29.016  1.00  0.00     0.047 A 
BRANCH  15  18
ATOM     18  O   UNL     1      30.669 -95.047  27.937  1.00  0.00    -0.508 OA
ATOM     19  H   UNL     1      30.212 -94.174  27.696  1.00  0.00     0.293 HD
ENDBRANCH  15  18
ENDBRANCH   1  12
BRANCH   2  20
ATOM     20  O   UNL     1      36.897 -96.007  27.621  1.00  0.00    -0.502 OA
ATOM     21  H   UNL     1      37.513 -96.657  27.148  1.00  0.00     0.293 HD
ENDBRANCH   2  20
BRANCH   6  22
ATOM     22  O   UNL     1      41.141 -95.197  30.737  1.00  0.00    -0.507 OA
ATOM     23  H   UNL     1      41.411 -94.703  29.900  1.00  0.00     0.293 HD
ENDBRANCH   6  22
BRANCH   8  24
ATOM     24  O   UNL     1      38.985 -94.090  34.863  1.00  0.00    -0.508 OA
ATOM     25  H   UNL     1      39.255 -93.160  35.162  1.00  0.00     0.293 HD
ENDBRANCH   8  24
TORSDOF 5
ENDMDL
MODEL 3
REMARK VINA RESULT:    -5.619      1.481      2.985
REMARK INTER + INTRA:          -6.735
REMARK INTER:                  -6.665
REMARK INTRA:                  -0.070
REMARK UNBOUND:                -0.130
REMARK SMILES O=c1c(O)c(-c2ccc(O)cc2)oc2cc(O)cc(O)c12
REMARK SMILES IDX 5 1 3 2 2 3 1 4 21 5 19 6 18 7 16 8 15 9 14 10 13 11 6 12
REMARK SMILES IDX 7 13 8 14 9 15 12 16 11 17 10 18 4 20 20 22 17 24
REMARK H PARENT 10 19 4 21 20 23 17 25
REMARK Flexibility Score: inf
ROOT
ATOM      1  C   UNL     1      30.618 -92.205  37.630  1.00  0.00     0.180 A 
ATOM      2  C   UNL     1      31.865 -92.786  37.916  1.00  0.00     0.208 A 
ATOM      3  C   UNL     1      31.942 -94.174  38.111  1.00  0.00     0.238 A 
ATOM      4  O   UNL     1      33.069 -94.695  38.314  1.00  0.00    -0.285 OA
ATOM      5  C   UNL     1      30.769 -94.963  38.033  1.00  0.00     0.111 A 
ATOM      6  C   UNL     1      30.723 -96.373  38.252  1.00  0.00     0.134 A 
ATOM      7  C   UNL     1      29.530 -97.069  38.019  1.00  0.00     0.093 A 
ATOM      8  C   UNL     1      28.368 -96.400  37.640  1.00  0.00     0.123 A 
ATOM      9  C   UNL     1      28.386 -95.014  37.480  1.00  0.00     0.094 A 
ATOM     10  C   UNL     1      29.569 -94.296  37.669  1.00  0.00     0.146 A 
ATOM     11  O   UNL     1      29.547 -92.979  37.498  1.00  0.00    -0.452 OA
ENDROOT
BRANCH   1  12
ATOM     12  C   UNL     1      30.453 -90.747  37.437  1.00  0.00     0.021 A 
ATOM     13  C   UNL     1      31.149 -90.058  36.426  1.00  0.00     0.016 A 
ATOM     14  C   UNL     1      30.995 -88.676  36.278  1.00  0.00     0.047 A 
ATOM     15  C   UNL     1      30.158 -87.964  37.143  1.00  0.00     0.115 A 
ATOM     16  C   UNL     1      29.629 -90.021  38.314  1.00  0.00     0.016 A 
ATOM     17  C   UNL     1      29.477 -88.639  38.163  1.00  0.00     0.047 A 
BRANCH  15  18
ATOM     18  O   UNL     1      30.014 -86.588  36.982  1.00  0.00    -0.508 OA
ATOM     19  H   UNL     1      30.053 -85.955  37.773  1.00  0.00     0.293 HD
ENDBRANCH  15  18
ENDBRANCH   1  12
BRANCH   2  20
ATOM     20  O   UNL     1      33.015 -91.993  37.968  1.00  0.00    -0.502 OA
ATOM     21  H   UNL     1      33.604 -91.942  38.790  1.00  0.00     0.293 HD
ENDBRANCH   2  20
BRANCH   6  22
ATOM     22  O   UNL     1      31.804 -97.125  38.721  1.00  0.00    -0.507 OA
ATOM     23  H   UNL     1      32.770 -96.940  38.500  1.00  0.00     0.293 HD
ENDBRANCH   6  22
BRANCH   8  24
ATOM     24  O   UNL     1      27.195 -97.124  37.433  1.00  0.00    -0.508 OA
ATOM     25  H   UNL     1      26.495 -97.218  38.159  1.00  0.00     0.293 HD
ENDBRANCH   8  24
TORSDOF 5
ENDMDL
MODEL 4
REMARK VINA RESULT:    -5.603      9.510     10.964
REMARK INTER + INTRA:          -6.716
REMARK INTER:                  -6.620
REMARK INTRA:                  -0.096
REMARK UNBOUND:                -0.130
REMARK SMILES O=c1c(O)c(-c2ccc(O)cc2)oc2cc(O)cc(O)c12
REMARK SMILES IDX 5 1 3 2 2 3 1 4 21 5 19 6 18 7 16 8 15 9 14 10 13 11 6 12
REMARK SMILES IDX 7 13 8 14 9 15 12 16 11 17 10 18 4 20 20 22 17 24
REMARK H PARENT 10 19 4 21 20 23 17 25
REMARK Flexibility Score: inf
ROOT
ATOM      1  C   UNL     1      37.453 -95.140  31.012  1.00  0.00     0.180 A 
ATOM      2  C   UNL     1      38.104 -95.758  29.931  1.00  0.00     0.208 A 
ATOM      3  C   UNL     1      37.418 -95.905  28.715  1.00  0.00     0.238 A 
ATOM      4  O   UNL     1      38.025 -96.411  27.735  1.00  0.00    -0.285 OA
ATOM      5  C   UNL     1      36.083 -95.447  28.599  1.00  0.00     0.111 A 
ATOM      6  C   UNL     1      35.279 -95.580  27.427  1.00  0.00     0.134 A 
ATOM      7  C   UNL     1      34.018 -94.972  27.383  1.00  0.00     0.093 A 
ATOM      8  C   UNL     1      33.506 -94.295  28.488  1.00  0.00     0.123 A 
ATOM      9  C   UNL     1      34.259 -94.210  29.659  1.00  0.00     0.094 A 
ATOM     10  C   UNL     1      35.536 -94.773  29.722  1.00  0.00     0.146 A 
ATOM     11  O   UNL     1      36.224 -94.661  30.852  1.00  0.00    -0.452 OA
ENDROOT
BRANCH   1  12
ATOM     12  C   UNL     1      38.101 -94.971  32.332  1.00  0.00     0.021 A 
ATOM     13  C   UNL     1      37.566 -95.560  33.492  1.00  0.00     0.016 A 
ATOM     14  C   UNL     1      38.183 -95.368  34.731  1.00  0.00     0.047 A 
ATOM     15  C   UNL     1      39.331 -94.575  34.831  1.00  0.00     0.115 A 
ATOM     16  C   UNL     1      39.243 -94.161  32.443  1.00  0.00     0.016 A 
ATOM     17  C   UNL     1      39.858 -93.970  33.684  1.00  0.00     0.047 A 
BRANCH  15  18
ATOM     18  O   UNL     1      39.935 -94.394  36.073  1.00  0.00    -0.508 OA
ATOM     19  H   UNL     1      39.420 -94.019  36.862  1.00  0.00     0.293 HD
ENDBRANCH  15  18
ENDBRANCH   1  12
BRANCH   2  20
ATOM     20  O   UNL     1      39.429 -96.184  30.059  1.00  0.00    -0.502 OA
ATOM     21  H   UNL     1      39.908 -96.211  30.951  1.00  0.00     0.293 HD
ENDBRANCH   2  20
BRANCH   6  22
ATOM     22  O   UNL     1      35.657 -96.315  26.300  1.00  0.00    -0.507 OA
ATOM     23  H   UNL     1      35.021 -96.828  25.709  1.00  0.00     0.293 HD
ENDBRANCH   6  22
BRANCH   8  24
ATOM     24  O   UNL     1      32.239 -93.717  28.414  1.00  0.00    -0.508 OA
ATOM     25  H   UNL     1      31.404 -94.282  28.318  1.00  0.00     0.293 HD
ENDBRANCH   8  24
TORSDOF 5
ENDMDL
MODEL 5
REMARK VINA RESULT:    -5.521      7.950     10.336
REMARK INTER + INTRA:          -6.620
REMARK INTER:                  -6.458
REMARK INTRA:                  -0.161
REMARK UNBOUND:                -0.130
REMARK SMILES O=c1c(O)c(-c2ccc(O)cc2)oc2cc(O)cc(O)c12
REMARK SMILES IDX 5 1 3 2 2 3 1 4 21 5 19 6 18 7 16 8 15 9 14 10 13 11 6 12
REMARK SMILES IDX 7 13 8 14 9 15 12 16 11 17 10 18 4 20 20 22 17 24
REMARK H PARENT 10 19 4 21 20 23 17 25
REMARK Flexibility Score: inf
ROOT
ATOM      1  C   UNL     1      39.958 -95.058  35.191  1.00  0.00     0.180 A 
ATOM      2  C   UNL     1      41.019 -94.700  36.039  1.00  0.00     0.208 A 
ATOM      3  C   UNL     1      40.827 -94.748  37.429  1.00  0.00     0.238 A 
ATOM      4  O   UNL     1      41.797 -94.478  38.184  1.00  0.00    -0.285 OA
ATOM      5  C   UNL     1      39.571 -95.138  37.954  1.00  0.00     0.111 A 
ATOM      6  C   UNL     1      39.252 -95.183  39.345  1.00  0.00     0.134 A 
ATOM      7  C   UNL     1      38.020 -95.710  39.753  1.00  0.00     0.093 A 
ATOM      8  C   UNL     1      37.072 -96.130  38.822  1.00  0.00     0.123 A 
ATOM      9  C   UNL     1      37.350 -96.034  37.458  1.00  0.00     0.094 A 
ATOM     10  C   UNL     1      38.584 -95.548  37.020  1.00  0.00     0.146 A 
ATOM     11  O   UNL     1      38.813 -95.483  35.714  1.00  0.00    -0.452 OA
ENDROOT
BRANCH   1  12
ATOM     12  C   UNL     1      40.076 -95.009  33.716  1.00  0.00     0.021 A 
ATOM     13  C   UNL     1      39.339 -94.085  32.952  1.00  0.00     0.016 A 
ATOM     14  C   UNL     1      39.449 -94.073  31.559  1.00  0.00     0.047 A 
ATOM     15  C   UNL     1      40.283 -94.990  30.910  1.00  0.00     0.115 A 
ATOM     16  C   UNL     1      40.896 -95.939  33.056  1.00  0.00     0.016 A 
ATOM     17  C   UNL     1      41.004 -95.924  31.662  1.00  0.00     0.047 A 
BRANCH  15  18
ATOM     18  O   UNL     1      40.383 -94.964  29.521  1.00  0.00    -0.508 OA
ATOM     19  H   UNL     1      39.559 -94.977  28.931  1.00  0.00     0.293 HD
ENDBRANCH  15  18
ENDBRANCH   1  12
BRANCH   2  20
ATOM     20  O   UNL     1      42.258 -94.339  35.502  1.00  0.00    -0.502 OA
ATOM     21  H   UNL     1      42.881 -95.011  35.073  1.00  0.00     0.293 HD
ENDBRANCH   2  20
BRANCH   6  22
ATOM     22  O   UNL     1      40.091 -94.703  40.354  1.00  0.00    -0.507 OA
ATOM     23  H   UNL     1      40.713 -93.915  40.257  1.00  0.00     0.293 HD
ENDBRANCH   6  22
BRANCH   8  24
ATOM     24  O   UNL     1      35.850 -96.634  39.265  1.00  0.00    -0.508 OA
ATOM     25  H   UNL     1      35.312 -96.164  39.984  1.00  0.00     0.293 HD
ENDBRANCH   8  24
TORSDOF 5
ENDMDL
MODEL 6
REMARK VINA RESULT:    -5.283      9.286     10.742
REMARK INTER + INTRA:          -6.340
REMARK INTER:                  -6.079
REMARK INTRA:                  -0.261
REMARK UNBOUND:                -0.130
REMARK SMILES O=c1c(O)c(-c2ccc(O)cc2)oc2cc(O)cc(O)c12
REMARK SMILES IDX 5 1 3 2 2 3 1 4 21 5 19 6 18 7 16 8 15 9 14 10 13 11 6 12
REMARK SMILES IDX 7 13 8 14 9 15 12 16 11 17 10 18 4 20 20 22 17 24
REMARK H PARENT 10 19 4 21 20 23 17 25
REMARK Flexibility Score: inf
ROOT
ATOM      1  C   UNL     1      30.892 -95.706  29.003  1.00  0.00     0.180 A 
ATOM      2  C   UNL     1      30.408 -95.909  30.307  1.00  0.00     0.208 A 
ATOM      3  C   UNL     1      29.035 -96.131  30.497  1.00  0.00     0.238 A 
ATOM      4  O   UNL     1      28.616 -96.366  31.660  1.00  0.00    -0.285 OA
ATOM      5  C   UNL     1      28.160 -96.130  29.383  1.00  0.00     0.111 A 
ATOM      6  C   UNL     1      26.745 -96.304  29.464  1.00  0.00     0.134 A 
ATOM      7  C   UNL     1      25.996 -96.417  28.286  1.00  0.00     0.093 A 
ATOM      8  C   UNL     1      26.598 -96.297  27.035  1.00  0.00     0.123 A 
ATOM      9  C   UNL     1      27.971 -96.066  26.946  1.00  0.00     0.094 A 
ATOM     10  C   UNL     1      28.752 -95.986  28.101  1.00  0.00     0.146 A 
ATOM     11  O   UNL     1      30.057 -95.776  27.973  1.00  0.00    -0.452 OA
ENDROOT
BRANCH   1  12
ATOM     12  C   UNL     1      32.322 -95.441  28.725  1.00  0.00     0.021 A 
ATOM     13  C   UNL     1      32.791 -94.139  28.472  1.00  0.00     0.016 A 
ATOM     14  C   UNL     1      34.142 -93.917  28.188  1.00  0.00     0.047 A 
ATOM     15  C   UNL     1      35.037 -94.991  28.141  1.00  0.00     0.115 A 
ATOM     16  C   UNL     1      33.223 -96.517  28.656  1.00  0.00     0.016 A 
ATOM     17  C   UNL     1      34.574 -96.291  28.372  1.00  0.00     0.047 A 
BRANCH  15  18
ATOM     18  O   UNL     1      36.380 -94.753  27.858  1.00  0.00    -0.508 OA
ATOM     19  H   UNL     1      36.894 -94.008  28.316  1.00  0.00     0.293 HD
ENDBRANCH  15  18
ENDBRANCH   1  12
BRANCH   2  20
ATOM     20  O   UNL     1      31.291 -95.928  31.390  1.00  0.00    -0.502 OA
ATOM     21  H   UNL     1      31.310 -95.195  32.088  1.00  0.00     0.293 HD
ENDBRANCH   2  20
BRANCH   6  22
ATOM     22  O   UNL     1      26.030 -96.345  30.664  1.00  0.00    -0.507 OA
ATOM     23  H   UNL     1      26.041 -97.117  31.313  1.00  0.00     0.293 HD
ENDBRANCH   6  22
BRANCH   8  24
ATOM     24  O   UNL     1      25.818 -96.397  25.884  1.00  0.00    -0.508 OA
ATOM     25  H   UNL     1      24.903 -95.967  25.825  1.00  0.00     0.293 HD
ENDBRANCH   8  24
TORSDOF 5
ENDMDL
MODEL 7
REMARK VINA RESULT:    -5.083     10.048     11.447
REMARK INTER + INTRA:          -6.104
REMARK INTER:                  -6.239
REMARK INTRA:                   0.135
REMARK UNBOUND:                -0.130
REMARK SMILES O=c1c(O)c(-c2ccc(O)cc2)oc2cc(O)cc(O)c12
REMARK SMILES IDX 5 1 3 2 2 3 1 4 21 5 19 6 18 7 16 8 15 9 14 10 13 11 6 12
REMARK SMILES IDX 7 13 8 14 9 15 12 16 11 17 10 18 4 20 20 22 17 24
REMARK H PARENT 10 19 4 21 20 23 17 25
REMARK Flexibility Score: inf
ROOT
ATOM      1  C   UNL     1      39.182 -95.106  31.400  1.00  0.00     0.180 A 
ATOM      2  C   UNL     1      39.624 -95.260  30.075  1.00  0.00     0.208 A 
ATOM      3  C   UNL     1      38.675 -95.438  29.056  1.00  0.00     0.238 A 
ATOM      4  O   UNL     1      39.075 -95.523  27.866  1.00  0.00    -0.285 OA
ATOM      5  C   UNL     1      37.296 -95.476  29.376  1.00  0.00     0.111 A 
ATOM      6  C   UNL     1      36.250 -95.691  28.429  1.00  0.00     0.134 A 
ATOM      7  C   UNL     1      34.915 -95.577  28.838  1.00  0.00     0.093 A 
ATOM      8  C   UNL     1      34.589 -95.321  30.168  1.00  0.00     0.123 A 
ATOM      9  C   UNL     1      35.603 -95.169  31.114  1.00  0.00     0.094 A 
ATOM     10  C   UNL     1      36.944 -95.240  30.730  1.00  0.00     0.146 A 
ATOM     11  O   UNL     1      37.880 -95.079  31.659  1.00  0.00    -0.452 OA
ENDROOT
BRANCH   1  12
ATOM     12  C   UNL     1      40.122 -94.938  32.531  1.00  0.00     0.021 A 
ATOM     13  C   UNL     1      41.315 -95.680  32.608  1.00  0.00     0.016 A 
ATOM     14  C   UNL     1      42.177 -95.523  33.697  1.00  0.00     0.047 A 
ATOM     15  C   UNL     1      41.853 -94.635  34.728  1.00  0.00     0.115 A 
ATOM     16  C   UNL     1      39.794 -94.064  33.580  1.00  0.00     0.016 A 
ATOM     17  C   UNL     1      40.658 -93.908  34.669  1.00  0.00     0.047 A 
BRANCH  15  18
ATOM     18  O   UNL     1      42.722 -94.488  35.807  1.00  0.00    -0.508 OA
ATOM     19  H   UNL     1      43.661 -94.871  35.786  1.00  0.00     0.293 HD
ENDBRANCH  15  18
ENDBRANCH   1  12
BRANCH   2  20
ATOM     20  O   UNL     1      40.989 -95.199  29.777  1.00  0.00    -0.502 OA
ATOM     21  H   UNL     1      41.399 -95.701  28.999  1.00  0.00     0.293 HD
ENDBRANCH   2  20
BRANCH   6  22
ATOM     22  O   UNL     1      36.466 -96.043  27.093  1.00  0.00    -0.507 OA
ATOM     23  H   UNL     1      35.791 -96.512  26.507  1.00  0.00     0.293 HD
ENDBRANCH   6  22
BRANCH   8  24
ATOM     24  O   UNL     1      33.249 -95.231  30.542  1.00  0.00    -0.508 OA
ATOM     25  H   UNL     1      32.601 -95.994  30.382  1.00  0.00     0.293 HD
ENDBRANCH   8  24
TORSDOF 5
ENDMDL
MODEL 8
REMARK VINA RESULT:    -4.977      8.696     11.008
REMARK INTER + INTRA:          -5.979
REMARK INTER:                  -5.698
REMARK INTRA:                  -0.281
REMARK UNBOUND:                -0.130
REMARK SMILES O=c1c(O)c(-c2ccc(O)cc2)oc2cc(O)cc(O)c12
REMARK SMILES IDX 5 1 3 2 2 3 1 4 21 5 19 6 18 7 16 8 15 9 14 10 13 11 6 12
REMARK SMILES IDX 7 13 8 14 9 15 12 16 11 17 10 18 4 20 20 22 17 24
REMARK H PARENT 10 19 4 21 20 23 17 25
REMARK Flexibility Score: inf
ROOT
ATOM      1  C   UNL     1      40.085 -95.256  35.997  1.00  0.00     0.180 A 
ATOM      2  C   UNL     1      41.280 -95.134  35.267  1.00  0.00     0.208 A 
ATOM      3  C   UNL     1      41.215 -94.985  33.873  1.00  0.00     0.238 A 
ATOM      4  O   UNL     1      42.285 -94.822  33.232  1.00  0.00    -0.285 OA
ATOM      5  C   UNL     1      39.957 -94.977  33.223  1.00  0.00     0.111 A 
ATOM      6  C   UNL     1      39.775 -94.873  31.811  1.00  0.00     0.134 A 
ATOM      7  C   UNL     1      38.481 -94.743  31.290  1.00  0.00     0.093 A 
ATOM      8  C   UNL     1      37.362 -94.780  32.121  1.00  0.00     0.123 A 
ATOM      9  C   UNL     1      37.527 -94.941  33.497  1.00  0.00     0.094 A 
ATOM     10  C   UNL     1      38.806 -95.036  34.051  1.00  0.00     0.146 A 
ATOM     11  O   UNL     1      38.919 -95.179  35.366  1.00  0.00    -0.452 OA
ENDROOT
BRANCH   1  12
ATOM     12  C   UNL     1      40.074 -95.441  37.466  1.00  0.00     0.021 A 
ATOM     13  C   UNL     1      39.953 -94.346  38.341  1.00  0.00     0.016 A 
ATOM     14  C   UNL     1      39.968 -94.543  39.725  1.00  0.00     0.047 A 
ATOM     15  C   UNL     1      40.118 -95.829  40.252  1.00  0.00     0.115 A 
ATOM     16  C   UNL     1      40.244 -96.728  38.003  1.00  0.00     0.016 A 
ATOM     17  C   UNL     1      40.258 -96.921  39.388  1.00  0.00     0.047 A 
BRANCH  15  18
ATOM     18  O   UNL     1      40.130 -96.009  41.633  1.00  0.00    -0.508 OA
ATOM     19  H   UNL     1      39.325 -96.382  42.126  1.00  0.00     0.293 HD
ENDBRANCH  15  18
ENDBRANCH   1  12
BRANCH   2  20
ATOM     20  O   UNL     1      42.511 -95.122  35.930  1.00  0.00    -0.502 OA
ATOM     21  H   UNL     1      43.393 -95.194  35.439  1.00  0.00     0.293 HD
ENDBRANCH   2  20
BRANCH   6  22
ATOM     22  O   UNL     1      40.819 -94.919  30.883  1.00  0.00    -0.507 OA
ATOM     23  H   UNL     1      41.416 -95.718  30.731  1.00  0.00     0.293 HD
ENDBRANCH   6  22
BRANCH   8  24
ATOM     24  O   UNL     1      36.089 -94.664  31.566  1.00  0.00    -0.508 OA
ATOM     25  H   UNL     1      35.365 -95.348  31.754  1.00  0.00     0.293 HD
ENDBRANCH   8  24
TORSDOF 5
ENDMDL
MODEL 9
REMARK VINA RESULT:    -3.706     15.426     16.782
REMARK INTER + INTRA:          -4.486
REMARK INTER:                  -4.471
REMARK INTRA:                  -0.015
REMARK UNBOUND:                -0.130
REMARK SMILES O=c1c(O)c(-c2ccc(O)cc2)oc2cc(O)cc(O)c12
REMARK SMILES IDX 5 1 3 2 2 3 1 4 21 5 19 6 18 7 16 8 15 9 14 10 13 11 6 12
REMARK SMILES IDX 7 13 8 14 9 15 12 16 11 17 10 18 4 20 20 22 17 24
REMARK H PARENT 10 19 4 21 20 23 17 25
REMARK Flexibility Score: inf
ROOT
ATOM      1  C   UNL     1      37.295 -77.728  37.727  1.00  0.00     0.180 A 
ATOM      2  C   UNL     1      37.855 -77.605  36.444  1.00  0.00     0.208 A 
ATOM      3  C   UNL     1      37.001 -77.529  35.332  1.00  0.00     0.238 A 
ATOM      4  O   UNL     1      37.506 -77.366  34.191  1.00  0.00    -0.285 OA
ATOM      5  C   UNL     1      35.598 -77.593  35.515  1.00  0.00     0.111 A 
ATOM      6  C   UNL     1      34.640 -77.567  34.456  1.00  0.00     0.134 A 
ATOM      7  C   UNL     1      33.275 -77.503  34.763  1.00  0.00     0.093 A 
ATOM      8  C   UNL     1      32.831 -77.532  36.084  1.00  0.00     0.123 A 
ATOM      9  C   UNL     1      33.757 -77.619  37.124  1.00  0.00     0.094 A 
ATOM     10  C   UNL     1      35.126 -77.646  36.853  1.00  0.00     0.146 A 
ATOM     11  O   UNL     1      35.974 -77.719  37.872  1.00  0.00    -0.452 OA
ENDROOT
BRANCH   1  12
ATOM     12  C   UNL     1      38.130 -77.838  38.945  1.00  0.00     0.021 A 
ATOM     13  C   UNL     1      39.108 -76.875  39.252  1.00  0.00     0.016 A 
ATOM     14  C   UNL     1      39.901 -77.013  40.395  1.00  0.00     0.047 A 
ATOM     15  C   UNL     1      39.737 -78.117  41.236  1.00  0.00     0.115 A 
ATOM     16  C   UNL     1      37.985 -78.955  39.784  1.00  0.00     0.016 A 
ATOM     17  C   UNL     1      38.779 -79.090  40.927  1.00  0.00     0.047 A 
BRANCH  15  18
ATOM     18  O   UNL     1      40.534 -78.240  42.372  1.00  0.00    -0.508 OA
ATOM     19  H   UNL     1      40.532 -77.533  43.099  1.00  0.00     0.293 HD
ENDBRANCH  15  18
ENDBRANCH   1  12
BRANCH   2  20
ATOM     20  O   UNL     1      39.241 -77.522  36.287  1.00  0.00    -0.502 OA
ATOM     21  H   UNL     1      39.780 -76.733  36.622  1.00  0.00     0.293 HD
ENDBRANCH   2  20
BRANCH   6  22
ATOM     22  O   UNL     1      34.973 -77.628  33.101  1.00  0.00    -0.507 OA
ATOM     23  H   UNL     1      34.642 -76.984  32.399  1.00  0.00     0.293 HD
ENDBRANCH   6  22
BRANCH   8  24
ATOM     24  O   UNL     1      31.464 -77.485  36.351  1.00  0.00    -0.508 OA
ATOM     25  H   UNL     1      30.918 -76.650  36.174  1.00  0.00     0.293 HD
ENDBRANCH   8  24
TORSDOF 5
ENDMDL
