MODEL 1
REMARK VINA RESULT:    -4.455      0.000      0.000
REMARK INTER + INTRA:          -4.911
REMARK INTER:                  -4.846
REMARK INTRA:                  -0.064
REMARK UNBOUND:                -0.064
REMARK SMILES COc1cc2ccc(=O)oc2cc1O
REMARK SMILES IDX 3 1 13 2 12 3 11 4 5 5 4 6 6 7 7 8 8 9 9 10 10 11 2 12 1 13
REMARK SMILES IDX 14 14
REMARK H PARENT 14 15
REMARK Flexibility Score: inf
ROOT
ATOM      1  C   UNL     1      29.965  48.556  40.588  1.00  0.00     0.161 A 
ATOM      2  C   UNL     1      30.825  49.319  41.393  1.00  0.00     0.161 A 
ATOM      3  C   UNL     1      30.680  50.712  41.464  1.00  0.00     0.098 A 
ATOM      4  C   UNL     1      29.676  51.352  40.734  1.00  0.00     0.142 A 
ATOM      5  C   UNL     1      28.807  50.594  39.922  1.00  0.00     0.022 A 
ATOM      6  C   UNL     1      28.952  49.202  39.850  1.00  0.00     0.062 A 
ATOM      7  C   UNL     1      27.812  51.265  39.203  1.00  0.00     0.019 A 
ATOM      8  C   UNL     1      27.709  52.651  39.308  1.00  0.00     0.094 A 
ATOM      9  C   UNL     1      28.606  53.338  40.133  1.00  0.00     0.336 A 
ATOM     10  O   UNL     1      28.529  54.589  40.241  1.00  0.00    -0.246 OA
ATOM     11  O   UNL     1      29.543  52.675  40.806  1.00  0.00    -0.423 OA
ENDROOT
BRANCH   1  12
ATOM     12  O   UNL     1      30.148  47.165  40.547  1.00  0.00    -0.493 OA
ATOM     13  C   UNL     1      29.372  46.227  41.285  1.00  0.00     0.278 C 
ENDBRANCH   1  12
BRANCH   2  14
ATOM     14  O   UNL     1      31.828  48.681  42.124  1.00  0.00    -0.504 OA
ATOM     15  H   UNL     1      31.961  48.863  43.111  1.00  0.00     0.293 HD
ENDBRANCH   2  14
TORSDOF 2
ENDMDL
MODEL 2
REMARK VINA RESULT:    -4.355      1.280      5.444
REMARK INTER + INTRA:          -4.801
REMARK INTER:                  -4.754
REMARK INTRA:                  -0.047
REMARK UNBOUND:                -0.064
REMARK SMILES COc1cc2ccc(=O)oc2cc1O
REMARK SMILES IDX 3 1 13 2 12 3 11 4 5 5 4 6 6 7 7 8 8 9 9 10 10 11 2 12 1 13
REMARK SMILES IDX 14 14
REMARK H PARENT 14 15
REMARK Flexibility Score: inf
ROOT
ATOM      1  C   UNL     1      28.677  53.202  40.226  1.00  0.00     0.161 A 
ATOM      2  C   UNL     1      27.856  52.547  39.294  1.00  0.00     0.161 A 
ATOM      3  C   UNL     1      27.929  51.155  39.141  1.00  0.00     0.098 A 
ATOM      4  C   UNL     1      28.818  50.407  39.916  1.00  0.00     0.142 A 
ATOM      5  C   UNL     1      29.647  51.057  40.854  1.00  0.00     0.022 A 
ATOM      6  C   UNL     1      29.575  52.448  41.008  1.00  0.00     0.062 A 
ATOM      7  C   UNL     1      30.528  50.280  41.615  1.00  0.00     0.019 A 
ATOM      8  C   UNL     1      30.562  48.900  41.426  1.00  0.00     0.094 A 
ATOM      9  C   UNL     1      29.710  48.324  40.476  1.00  0.00     0.336 A 
ATOM     10  O   UNL     1      29.726  47.080  40.291  1.00  0.00    -0.246 OA
ATOM     11  O   UNL     1      28.882  49.086  39.766  1.00  0.00    -0.423 OA
ENDROOT
BRANCH   1  12
ATOM     12  O   UNL     1      28.571  54.596  40.345  1.00  0.00    -0.493 OA
ATOM     13  C   UNL     1      28.941  55.338  41.503  1.00  0.00     0.278 C 
ENDBRANCH   1  12
BRANCH   2  14
ATOM     14  O   UNL     1      26.966  53.292  38.520  1.00  0.00    -0.504 OA
ATOM     15  H   UNL     1      27.237  54.173  38.101  1.00  0.00     0.293 HD
ENDBRANCH   2  14
TORSDOF 2
ENDMDL
MODEL 3
REMARK VINA RESULT:    -4.023      1.671      2.052
REMARK INTER + INTRA:          -4.440
REMARK INTER:                  -4.383
REMARK INTRA:                  -0.057
REMARK UNBOUND:                -0.064
REMARK SMILES COc1cc2ccc(=O)oc2cc1O
REMARK SMILES IDX 3 1 13 2 12 3 11 4 5 5 4 6 6 7 7 8 8 9 9 10 10 11 2 12 1 13
REMARK SMILES IDX 14 14
REMARK H PARENT 14 15
REMARK Flexibility Score: inf
ROOT
ATOM      1  C   UNL     1      29.110  49.174  40.258  1.00  0.00     0.161 A 
ATOM      2  C   UNL     1      28.192  49.680  41.190  1.00  0.00     0.161 A 
ATOM      3  C   UNL     1      27.852  51.040  41.184  1.00  0.00     0.098 A 
ATOM      4  C   UNL     1      28.426  51.905  40.249  1.00  0.00     0.142 A 
ATOM      5  C   UNL     1      29.351  51.405  39.308  1.00  0.00     0.022 A 
ATOM      6  C   UNL     1      29.691  50.045  39.314  1.00  0.00     0.062 A 
ATOM      7  C   UNL     1      29.908  52.296  38.384  1.00  0.00     0.019 A 
ATOM      8  C   UNL     1      29.539  53.639  38.419  1.00  0.00     0.094 A 
ATOM      9  C   UNL     1      28.615  54.063  39.381  1.00  0.00     0.336 A 
ATOM     10  O   UNL     1      28.268  55.272  39.429  1.00  0.00    -0.246 OA
ATOM     11  O   UNL     1      28.100  53.195  40.248  1.00  0.00    -0.423 OA
ENDROOT
BRANCH   1  12
ATOM     12  O   UNL     1      29.421  47.806  40.301  1.00  0.00    -0.493 OA
ATOM     13  C   UNL     1      30.546  47.255  40.979  1.00  0.00     0.278 C 
ENDBRANCH   1  12
BRANCH   2  14
ATOM     14  O   UNL     1      27.617  48.819  42.125  1.00  0.00    -0.504 OA
ATOM     15  H   UNL     1      28.081  47.968  42.418  1.00  0.00     0.293 HD
ENDBRANCH   2  14
TORSDOF 2
ENDMDL
MODEL 4
REMARK VINA RESULT:    -3.855     17.269     19.113
REMARK INTER + INTRA:          -4.258
REMARK INTER:                  -4.193
REMARK INTRA:                  -0.065
REMARK UNBOUND:                -0.064
REMARK SMILES COc1cc2ccc(=O)oc2cc1O
REMARK SMILES IDX 3 1 13 2 12 3 11 4 5 5 4 6 6 7 7 8 8 9 9 10 10 11 2 12 1 13
REMARK SMILES IDX 14 14
REMARK H PARENT 14 15
REMARK Flexibility Score: inf
ROOT
ATOM      1  C   UNL     1      27.222  42.199  26.034  1.00  0.00     0.161 A 
ATOM      2  C   UNL     1      26.282  42.465  25.027  1.00  0.00     0.161 A 
ATOM      3  C   UNL     1      25.625  41.411  24.375  1.00  0.00     0.098 A 
ATOM      4  C   UNL     1      25.902  40.087  24.722  1.00  0.00     0.142 A 
ATOM      5  C   UNL     1      26.846  39.810  25.732  1.00  0.00     0.022 A 
ATOM      6  C   UNL     1      27.503  40.863  26.385  1.00  0.00     0.062 A 
ATOM      7  C   UNL     1      27.101  38.474  26.058  1.00  0.00     0.019 A 
ATOM      8  C   UNL     1      26.422  37.463  25.380  1.00  0.00     0.094 A 
ATOM      9  C   UNL     1      25.499  37.812  24.389  1.00  0.00     0.336 A 
ATOM     10  O   UNL     1      24.875  36.914  23.766  1.00  0.00    -0.246 OA
ATOM     11  O   UNL     1      25.275  39.091  24.100  1.00  0.00    -0.423 OA
ENDROOT
BRANCH   1  12
ATOM     12  O   UNL     1      27.856  43.284  26.659  1.00  0.00    -0.493 OA
ATOM     13  C   UNL     1      29.214  43.658  26.446  1.00  0.00     0.278 C 
ENDBRANCH   1  12
BRANCH   2  14
ATOM     14  O   UNL     1      26.003  43.786  24.679  1.00  0.00    -0.504 OA
ATOM     15  H   UNL     1      25.621  44.027  23.772  1.00  0.00     0.293 HD
ENDBRANCH   2  14
TORSDOF 2
ENDMDL
MODEL 5
REMARK VINA RESULT:    -3.710      1.540      2.550
REMARK INTER + INTRA:          -4.099
REMARK INTER:                  -4.048
REMARK INTRA:                  -0.051
REMARK UNBOUND:                -0.064
REMARK SMILES COc1cc2ccc(=O)oc2cc1O
REMARK SMILES IDX 3 1 13 2 12 3 11 4 5 5 4 6 6 7 7 8 8 9 9 10 10 11 2 12 1 13
REMARK SMILES IDX 14 14
REMARK H PARENT 14 15
REMARK Flexibility Score: inf
ROOT
ATOM      1  C   UNL     1      29.317  49.730  41.463  1.00  0.00     0.161 A 
ATOM      2  C   UNL     1      28.833  49.728  40.146  1.00  0.00     0.161 A 
ATOM      3  C   UNL     1      28.557  50.937  39.491  1.00  0.00     0.098 A 
ATOM      4  C   UNL     1      28.761  52.154  40.145  1.00  0.00     0.142 A 
ATOM      5  C   UNL     1      29.246  52.166  41.470  1.00  0.00     0.022 A 
ATOM      6  C   UNL     1      29.523  50.957  42.125  1.00  0.00     0.062 A 
ATOM      7  C   UNL     1      29.441  53.400  42.098  1.00  0.00     0.019 A 
ATOM      8  C   UNL     1      29.151  54.574  41.404  1.00  0.00     0.094 A 
ATOM      9  C   UNL     1      28.673  54.486  40.092  1.00  0.00     0.336 A 
ATOM     10  O   UNL     1      28.406  55.534  39.449  1.00  0.00    -0.246 OA
ATOM     11  O   UNL     1      28.497  53.299  39.519  1.00  0.00    -0.423 OA
ENDROOT
BRANCH   1  12
ATOM     12  O   UNL     1      29.579  48.496  42.080  1.00  0.00    -0.493 OA
ATOM     13  C   UNL     1      30.850  47.853  42.089  1.00  0.00     0.278 C 
ENDBRANCH   1  12
BRANCH   2  14
ATOM     14  O   UNL     1      28.630  48.514  39.490  1.00  0.00    -0.504 OA
ATOM     15  H   UNL     1      28.726  47.629  39.972  1.00  0.00     0.293 HD
ENDBRANCH   2  14
TORSDOF 2
ENDMDL
MODEL 6
REMARK VINA RESULT:    -3.702     15.534     16.955
REMARK INTER + INTRA:          -4.091
REMARK INTER:                  -4.044
REMARK INTRA:                  -0.047
REMARK UNBOUND:                -0.064
REMARK SMILES COc1cc2ccc(=O)oc2cc1O
REMARK SMILES IDX 3 1 13 2 12 3 11 4 5 5 4 6 6 7 7 8 8 9 9 10 10 11 2 12 1 13
REMARK SMILES IDX 14 14
REMARK H PARENT 14 15
REMARK Flexibility Score: inf
ROOT
ATOM      1  C   UNL     1      25.941  40.938  26.740  1.00  0.00     0.161 A 
ATOM      2  C   UNL     1      25.926  41.373  25.405  1.00  0.00     0.161 A 
ATOM      3  C   UNL     1      26.959  42.182  24.913  1.00  0.00     0.098 A 
ATOM      4  C   UNL     1      28.013  42.564  25.746  1.00  0.00     0.142 A 
ATOM      5  C   UNL     1      28.036  42.132  27.089  1.00  0.00     0.022 A 
ATOM      6  C   UNL     1      27.004  41.322  27.582  1.00  0.00     0.062 A 
ATOM      7  C   UNL     1      29.105  42.530  27.898  1.00  0.00     0.019 A 
ATOM      8  C   UNL     1      30.108  43.336  27.361  1.00  0.00     0.094 A 
ATOM      9  C   UNL     1      30.019  43.726  26.020  1.00  0.00     0.336 A 
ATOM     10  O   UNL     1      30.914  44.453  25.516  1.00  0.00    -0.246 OA
ATOM     11  O   UNL     1      28.991  43.332  25.272  1.00  0.00    -0.423 OA
ENDROOT
BRANCH   1  12
ATOM     12  O   UNL     1      24.886  40.129  27.190  1.00  0.00    -0.493 OA
ATOM     13  C   UNL     1      24.974  39.224  28.286  1.00  0.00     0.278 C 
ENDBRANCH   1  12
BRANCH   2  14
ATOM     14  O   UNL     1      24.875  40.993  24.571  1.00  0.00    -0.504 OA
ATOM     15  H   UNL     1      24.343  40.148  24.740  1.00  0.00     0.293 HD
ENDBRANCH   2  14
TORSDOF 2
ENDMDL
MODEL 7
REMARK VINA RESULT:    -3.453     16.061     17.849
REMARK INTER + INTRA:          -3.820
REMARK INTER:                  -3.775
REMARK INTRA:                  -0.045
REMARK UNBOUND:                -0.064
REMARK SMILES COc1cc2ccc(=O)oc2cc1O
REMARK SMILES IDX 3 1 13 2 12 3 11 4 5 5 4 6 6 7 7 8 8 9 9 10 10 11 2 12 1 13
REMARK SMILES IDX 14 14
REMARK H PARENT 14 15
REMARK Flexibility Score: inf
ROOT
ATOM      1  C   UNL     1      25.957  41.613  25.131  1.00  0.00     0.161 A 
ATOM      2  C   UNL     1      26.552  42.358  26.161  1.00  0.00     0.161 A 
ATOM      3  C   UNL     1      26.585  41.857  27.470  1.00  0.00     0.098 A 
ATOM      4  C   UNL     1      26.026  40.611  27.761  1.00  0.00     0.142 A 
ATOM      5  C   UNL     1      25.426  39.855  26.733  1.00  0.00     0.022 A 
ATOM      6  C   UNL     1      25.392  40.355  25.423  1.00  0.00     0.062 A 
ATOM      7  C   UNL     1      24.875  38.610  27.055  1.00  0.00     0.019 A 
ATOM      8  C   UNL     1      24.933  38.156  28.372  1.00  0.00     0.094 A 
ATOM      9  C   UNL     1      25.545  38.961  29.340  1.00  0.00     0.336 A 
ATOM     10  O   UNL     1      25.608  38.569  30.534  1.00  0.00    -0.246 OA
ATOM     11  O   UNL     1      26.061  40.140  29.006  1.00  0.00    -0.423 OA
ENDROOT
BRANCH   1  12
ATOM     12  O   UNL     1      25.946  42.153  23.836  1.00  0.00    -0.493 OA
ATOM     13  C   UNL     1      25.162  41.652  22.758  1.00  0.00     0.278 C 
ENDBRANCH   1  12
BRANCH   2  14
ATOM     14  O   UNL     1      27.112  43.603  25.873  1.00  0.00    -0.504 OA
ATOM     15  H   UNL     1      27.638  44.121  26.566  1.00  0.00     0.293 HD
ENDBRANCH   2  14
TORSDOF 2
ENDMDL
MODEL 8
REMARK VINA RESULT:    -3.397     16.118     17.544
REMARK INTER + INTRA:          -3.760
REMARK INTER:                  -3.703
REMARK INTRA:                  -0.057
REMARK UNBOUND:                -0.064
REMARK SMILES COc1cc2ccc(=O)oc2cc1O
REMARK SMILES IDX 3 1 13 2 12 3 11 4 5 5 4 6 6 7 7 8 8 9 9 10 10 11 2 12 1 13
REMARK SMILES IDX 14 14
REMARK H PARENT 14 15
REMARK Flexibility Score: inf
ROOT
ATOM      1  C   UNL     1      25.644  38.966  28.765  1.00  0.00     0.161 A 
ATOM      2  C   UNL     1      25.264  38.234  27.630  1.00  0.00     0.161 A 
ATOM      3  C   UNL     1      25.275  38.835  26.363  1.00  0.00     0.098 A 
ATOM      4  C   UNL     1      25.665  40.168  26.220  1.00  0.00     0.142 A 
ATOM      5  C   UNL     1      26.048  40.912  27.355  1.00  0.00     0.022 A 
ATOM      6  C   UNL     1      26.038  40.312  28.622  1.00  0.00     0.062 A 
ATOM      7  C   UNL     1      26.434  42.245  27.179  1.00  0.00     0.019 A 
ATOM      8  C   UNL     1      26.428  42.796  25.899  1.00  0.00     0.094 A 
ATOM      9  C   UNL     1      26.035  41.998  24.819  1.00  0.00     0.336 A 
ATOM     10  O   UNL     1      26.023  42.477  23.655  1.00  0.00    -0.246 OA
ATOM     11  O   UNL     1      25.673  40.733  25.014  1.00  0.00    -0.423 OA
ENDROOT
BRANCH   1  12
ATOM     12  O   UNL     1      25.618  38.325  30.013  1.00  0.00    -0.493 OA
ATOM     13  C   UNL     1      26.723  38.255  30.909  1.00  0.00     0.278 C 
ENDBRANCH   1  12
BRANCH   2  14
ATOM     14  O   UNL     1      24.875  36.902  27.770  1.00  0.00    -0.504 OA
ATOM     15  H   UNL     1      24.479  36.381  26.997  1.00  0.00     0.293 HD
ENDBRANCH   2  14
TORSDOF 2
ENDMDL
MODEL 9
REMARK VINA RESULT:    -2.963     16.292     18.320
REMARK INTER + INTRA:          -3.287
REMARK INTER:                  -3.242
REMARK INTRA:                  -0.046
REMARK UNBOUND:                -0.064
REMARK SMILES COc1cc2ccc(=O)oc2cc1O
REMARK SMILES IDX 3 1 13 2 12 3 11 4 5 5 4 6 6 7 7 8 8 9 9 10 10 11 2 12 1 13
REMARK SMILES IDX 14 14
REMARK H PARENT 14 15
REMARK Flexibility Score: inf
ROOT
ATOM      1  C   UNL     1      25.150  39.417  25.600  1.00  0.00     0.161 A 
ATOM      2  C   UNL     1      25.447  40.603  26.290  1.00  0.00     0.161 A 
ATOM      3  C   UNL     1      25.550  40.602  27.688  1.00  0.00     0.098 A 
ATOM      4  C   UNL     1      25.359  39.420  28.407  1.00  0.00     0.142 A 
ATOM      5  C   UNL     1      25.060  38.223  27.722  1.00  0.00     0.022 A 
ATOM      6  C   UNL     1      24.957  38.224  26.324  1.00  0.00     0.062 A 
ATOM      7  C   UNL     1      24.875  37.056  28.470  1.00  0.00     0.019 A 
ATOM      8  C   UNL     1      24.988  37.107  29.858  1.00  0.00     0.094 A 
ATOM      9  C   UNL     1      25.287  38.330  30.470  1.00  0.00     0.336 A 
ATOM     10  O   UNL     1      25.394  38.397  31.722  1.00  0.00    -0.246 OA
ATOM     11  O   UNL     1      25.459  39.425  29.734  1.00  0.00    -0.423 OA
ENDROOT
BRANCH   1  12
ATOM     12  O   UNL     1      25.056  39.465  24.200  1.00  0.00    -0.493 OA
ATOM     13  C   UNL     1      25.079  38.323  23.350  1.00  0.00     0.278 C 
ENDBRANCH   1  12
BRANCH   2  14
ATOM     14  O   UNL     1      25.639  41.785  25.574  1.00  0.00    -0.504 OA
ATOM     15  H   UNL     1      24.981  42.552  25.632  1.00  0.00     0.293 HD
ENDBRANCH   2  14
TORSDOF 2
ENDMDL
