MODEL 1
REMARK VINA RESULT:    -2.640      0.000      0.000
REMARK INTER + INTRA:          -4.505
REMARK INTER:                  -4.184
REMARK INTRA:                  -0.322
REMARK UNBOUND:                -0.322
REMARK SMILES CCCCCCCCCCCC(=O)[O-]
REMARK SMILES IDX 7 1 8 2 9 3 10 4 11 5 12 6 13 7 14 8 6 9 5 10 4 11 3 12 2 13
REMARK SMILES IDX 1 14
REMARK H PARENT
REMARK Flexibility Score: inf
ROOT
ATOM      1  C   UNL     1      66.437  56.462  10.959  1.00  0.00     0.000 C 
ENDROOT
BRANCH   1   2
ATOM      2  C   UNL     1      66.004  57.071   9.613  1.00  0.00     0.000 C 
BRANCH   2   3
ATOM      3  C   UNL     1      64.811  58.045   9.687  1.00  0.00     0.000 C 
BRANCH   3   4
ATOM      4  C   UNL     1      63.988  57.976  10.990  1.00  0.00     0.006 C 
BRANCH   4   5
ATOM      5  C   UNL     1      62.492  57.699  10.783  1.00  0.00     0.053 C 
BRANCH   5   6
ATOM      6  C   UNL     1      62.115  57.707   9.334  1.00  0.00     0.041 C 
ATOM      7  O   UNL     1      62.046  56.625   8.692  1.00  0.00    -0.550 OA
ATOM      8  O   UNL     1      61.875  58.909   8.682  1.00  0.00    -0.550 OA
ENDBRANCH   5   6
ENDBRANCH   4   5
ENDBRANCH   3   4
ENDBRANCH   2   3
ENDBRANCH   1   2
BRANCH   1   9
ATOM      9  C   UNL     1      66.619  54.932  10.949  1.00  0.00     0.000 C 
BRANCH   9  10
ATOM     10  C   UNL     1      67.951  54.468  10.321  1.00  0.00    -0.000 C 
BRANCH  10  11
ATOM     11  C   UNL     1      69.179  55.019  11.065  1.00  0.00    -0.000 C 
BRANCH  11  12
ATOM     12  C   UNL     1      70.484  54.310  10.643  1.00  0.00    -0.000 C 
BRANCH  12  13
ATOM     13  C   UNL     1      71.726  55.214  10.714  1.00  0.00    -0.003 C 
ATOM     14  C   UNL     1      71.400  56.648  11.124  1.00  0.00     0.004 C 
ENDBRANCH  12  13
ENDBRANCH  11  12
ENDBRANCH  10  11
ENDBRANCH   9  10
ENDBRANCH   1   9
TORSDOF 10
ENDMDL
MODEL 2
REMARK VINA RESULT:    -1.487      3.950      7.295
REMARK INTER + INTRA:          -2.678
REMARK INTER:                  -3.453
REMARK INTRA:                   0.776
REMARK UNBOUND:                -0.322
REMARK SMILES CCCCCCCCCCCC(=O)[O-]
REMARK SMILES IDX 7 1 8 2 9 3 10 4 11 5 12 6 13 7 14 8 6 9 5 10 4 11 3 12 2 13
REMARK SMILES IDX 1 14
REMARK H PARENT
REMARK Flexibility Score: inf
ROOT
ATOM      1  C   UNL     1      65.891  56.636  10.644  1.00  0.00     0.000 C 
ENDROOT
BRANCH   1   2
ATOM      2  C   UNL     1      66.928  55.554  10.991  1.00  0.00     0.000 C 
BRANCH   2   3
ATOM      3  C   UNL     1      67.721  54.997   9.791  1.00  0.00     0.000 C 
BRANCH   3   4
ATOM      4  C   UNL     1      69.254  54.980   9.968  1.00  0.00     0.006 C 
BRANCH   4   5
ATOM      5  C   UNL     1      69.769  55.850  11.125  1.00  0.00     0.053 C 
BRANCH   5   6
ATOM      6  C   UNL     1      71.236  56.128  11.006  1.00  0.00     0.041 C 
ATOM      7  O   UNL     1      71.644  57.306  10.825  1.00  0.00    -0.550 OA
ATOM      8  O   UNL     1      72.151  55.085  11.061  1.00  0.00    -0.550 OA
ENDBRANCH   5   6
ENDBRANCH   4   5
ENDBRANCH   3   4
ENDBRANCH   2   3
ENDBRANCH   1   2
BRANCH   1   9
ATOM      9  C   UNL     1      65.765  56.955   9.141  1.00  0.00     0.000 C 
BRANCH   9  10
ATOM     10  C   UNL     1      65.208  58.365   8.849  1.00  0.00    -0.000 C 
BRANCH  10  11
ATOM     11  C   UNL     1      63.918  58.665   9.631  1.00  0.00    -0.000 C 
BRANCH  11  12
ATOM     12  C   UNL     1      63.694  57.672  10.792  1.00  0.00    -0.000 C 
BRANCH  12  13
ATOM     13  C   UNL     1      62.226  57.248  10.964  1.00  0.00    -0.003 C 
ATOM     14  C   UNL     1      62.052  55.737  11.099  1.00  0.00     0.004 C 
ENDBRANCH  12  13
ENDBRANCH  11  12
ENDBRANCH  10  11
ENDBRANCH   9  10
ENDBRANCH   1   9
TORSDOF 10
ENDMDL
