MODEL 1
REMARK VINA RESULT:    -3.770      0.000      0.000
REMARK INTER + INTRA:          -4.754
REMARK INTER:                  -4.432
REMARK INTRA:                  -0.322
REMARK UNBOUND:                -0.322
REMARK SMILES C=CC(C)=CCC=C(C)C
REMARK SMILES IDX 5 1 3 2 4 3 6 4 7 5 9 6 8 7 10 8 2 9 1 10
REMARK H PARENT
REMARK Flexibility Score: inf
ROOT
ATOM      1  C   UNL     1     146.862 145.625 132.754  1.00  0.00    -0.020 C 
ATOM      2  C   UNL     1     146.490 146.896 133.003  1.00  0.00    -0.055 C 
ATOM      3  C   UNL     1     145.536 147.239 134.125  1.00  0.00     0.044 C 
ENDROOT
BRANCH   1   4
ATOM      4  C   UNL     1     146.388 144.440 133.557  1.00  0.00     0.055 C 
BRANCH   4   5
ATOM      5  C   UNL     1     145.629 143.463 132.695  1.00  0.00    -0.024 C 
ATOM      6  C   UNL     1     143.648 142.553 131.519  1.00  0.00     0.039 C 
ATOM      7  C   UNL     1     144.319 143.590 132.382  1.00  0.00    -0.080 C 
ATOM      8  C   UNL     1     143.497 144.763 132.854  1.00  0.00     0.039 C 
ENDBRANCH   4   5
ENDBRANCH   1   4
BRANCH   2   9
ATOM      9  C   UNL     1     146.990 147.959 132.092  1.00  0.00    -0.005 C 
ATOM     10  C   UNL     1     146.798 147.950 130.773  1.00  0.00     0.009 C 
ENDBRANCH   2   9
TORSDOF 3
ENDMDL
MODEL 2
REMARK VINA RESULT:    -3.758      1.004      4.569
REMARK INTER + INTRA:          -4.738
REMARK INTER:                  -4.405
REMARK INTRA:                  -0.333
REMARK UNBOUND:                -0.322
REMARK SMILES C=CC(C)=CCC=C(C)C
REMARK SMILES IDX 5 1 3 2 4 3 6 4 7 5 9 6 8 7 10 8 2 9 1 10
REMARK H PARENT
REMARK Flexibility Score: inf
ROOT
ATOM      1  C   UNL     1     143.856 145.152 132.794  1.00  0.00    -0.020 C 
ATOM      2  C   UNL     1     144.238 143.881 133.033  1.00  0.00    -0.055 C 
ATOM      3  C   UNL     1     145.227 143.541 134.125  1.00  0.00     0.044 C 
ENDROOT
BRANCH   1   4
ATOM      4  C   UNL     1     144.351 146.337 133.583  1.00  0.00     0.055 C 
BRANCH   4   5
ATOM      5  C   UNL     1     145.095 147.309 132.701  1.00  0.00    -0.024 C 
ATOM      6  C   UNL     1     147.058 148.220 131.497  1.00  0.00     0.039 C 
ATOM      7  C   UNL     1     146.403 147.190 132.380  1.00  0.00    -0.080 C 
ATOM      8  C   UNL     1     147.240 146.032 132.865  1.00  0.00     0.039 C 
ENDBRANCH   4   5
ENDBRANCH   1   4
BRANCH   2   9
ATOM      9  C   UNL     1     143.713 142.817 132.138  1.00  0.00    -0.005 C 
ATOM     10  C   UNL     1     143.895 142.808 130.818  1.00  0.00     0.009 C 
ENDBRANCH   2   9
TORSDOF 3
ENDMDL
MODEL 3
REMARK VINA RESULT:    -3.603      1.311      2.121
REMARK INTER + INTRA:          -4.557
REMARK INTER:                  -4.252
REMARK INTRA:                  -0.305
REMARK UNBOUND:                -0.322
REMARK SMILES C=CC(C)=CCC=C(C)C
REMARK SMILES IDX 5 1 3 2 4 3 6 4 7 5 9 6 8 7 10 8 2 9 1 10
REMARK H PARENT
REMARK Flexibility Score: inf
ROOT
ATOM      1  C   UNL     1     145.930 145.978 131.305  1.00  0.00    -0.020 C 
ATOM      2  C   UNL     1     146.631 146.342 132.397  1.00  0.00    -0.055 C 
ATOM      3  C   UNL     1     147.611 145.402 133.062  1.00  0.00     0.044 C 
ENDROOT
BRANCH   1   4
ATOM      4  C   UNL     1     146.057 144.633 130.637  1.00  0.00     0.055 C 
BRANCH   4   5
ATOM      5  C   UNL     1     144.751 143.880 130.669  1.00  0.00    -0.024 C 
ATOM      6  C   UNL     1     143.006 142.425 131.655  1.00  0.00     0.039 C 
ATOM      7  C   UNL     1     144.325 143.149 131.725  1.00  0.00    -0.080 C 
ATOM      8  C   UNL     1     145.127 143.047 132.999  1.00  0.00     0.039 C 
ENDBRANCH   4   5
ENDBRANCH   1   4
BRANCH   2   9
ATOM      9  C   UNL     1     146.360 147.681 132.983  1.00  0.00    -0.005 C 
ATOM     10  C   UNL     1     145.248 147.981 133.654  1.00  0.00     0.009 C 
ENDBRANCH   2   9
TORSDOF 3
ENDMDL
MODEL 4
REMARK VINA RESULT:    -3.569      1.379      4.615
REMARK INTER + INTRA:          -4.517
REMARK INTER:                  -4.225
REMARK INTRA:                  -0.292
REMARK UNBOUND:                -0.322
REMARK SMILES C=CC(C)=CCC=C(C)C
REMARK SMILES IDX 5 1 3 2 4 3 6 4 7 5 9 6 8 7 10 8 2 9 1 10
REMARK H PARENT
REMARK Flexibility Score: inf
ROOT
ATOM      1  C   UNL     1     144.878 144.828 131.320  1.00  0.00    -0.020 C 
ATOM      2  C   UNL     1     144.127 144.470 132.380  1.00  0.00    -0.055 C 
ATOM      3  C   UNL     1     143.110 145.409 132.988  1.00  0.00     0.044 C 
ENDROOT
BRANCH   1   4
ATOM      4  C   UNL     1     144.774 146.167 130.634  1.00  0.00     0.055 C 
BRANCH   4   5
ATOM      5  C   UNL     1     146.078 146.922 130.707  1.00  0.00    -0.024 C 
ATOM      6  C   UNL     1     147.793 148.372 131.752  1.00  0.00     0.039 C 
ATOM      7  C   UNL     1     146.473 147.645 131.780  1.00  0.00    -0.080 C 
ATOM      8  C   UNL     1     145.638 147.735 133.033  1.00  0.00     0.039 C 
ENDBRANCH   4   5
ENDBRANCH   1   4
BRANCH   2   9
ATOM      9  C   UNL     1     144.378 143.139 132.991  1.00  0.00    -0.005 C 
ATOM     10  C   UNL     1     145.404 142.880 133.802  1.00  0.00     0.009 C 
ENDBRANCH   2   9
TORSDOF 3
ENDMDL
MODEL 5
REMARK VINA RESULT:    -3.367      1.807      3.377
REMARK INTER + INTRA:          -4.280
REMARK INTER:                  -3.969
REMARK INTRA:                  -0.311
REMARK UNBOUND:                -0.322
REMARK SMILES C=CC(C)=CCC=C(C)C
REMARK SMILES IDX 5 1 3 2 4 3 6 4 7 5 9 6 8 7 10 8 2 9 1 10
REMARK H PARENT
REMARK Flexibility Score: inf
ROOT
ATOM      1  C   UNL     1     145.452 143.786 132.915  1.00  0.00    -0.020 C 
ATOM      2  C   UNL     1     146.760 144.073 133.061  1.00  0.00    -0.055 C 
ATOM      3  C   UNL     1     147.249 145.031 134.125  1.00  0.00     0.044 C 
ENDROOT
BRANCH   1   4
ATOM      4  C   UNL     1     144.364 144.363 133.785  1.00  0.00     0.055 C 
BRANCH   4   5
ATOM      5  C   UNL     1     143.438 145.249 132.989  1.00  0.00    -0.024 C 
ATOM      6  C   UNL     1     142.658 147.369 131.973  1.00  0.00     0.039 C 
ATOM      7  C   UNL     1     143.649 146.568 132.777  1.00  0.00    -0.080 C 
ATOM      8  C   UNL     1     144.872 147.274 133.307  1.00  0.00     0.039 C 
ENDBRANCH   4   5
ENDBRANCH   1   4
BRANCH   2   9
ATOM      9  C   UNL     1     147.716 143.475 132.094  1.00  0.00    -0.005 C 
ATOM     10  C   UNL     1     147.830 143.874 130.827  1.00  0.00     0.009 C 
ENDBRANCH   2   9
TORSDOF 3
ENDMDL
MODEL 6
REMARK VINA RESULT:    -3.346      1.827      3.133
REMARK INTER + INTRA:          -4.254
REMARK INTER:                  -3.947
REMARK INTRA:                  -0.307
REMARK UNBOUND:                -0.322
REMARK SMILES C=CC(C)=CCC=C(C)C
REMARK SMILES IDX 5 1 3 2 4 3 6 4 7 5 9 6 8 7 10 8 2 9 1 10
REMARK H PARENT
REMARK Flexibility Score: inf
ROOT
ATOM      1  C   UNL     1     145.193 147.016 132.898  1.00  0.00    -0.020 C 
ATOM      2  C   UNL     1     143.887 146.714 133.040  1.00  0.00    -0.055 C 
ATOM      3  C   UNL     1     143.402 145.763 134.111  1.00  0.00     0.044 C 
ENDROOT
BRANCH   1   4
ATOM      4  C   UNL     1     146.281 146.461 133.782  1.00  0.00     0.055 C 
BRANCH   4   5
ATOM      5  C   UNL     1     147.218 145.571 133.003  1.00  0.00    -0.024 C 
ATOM      6  C   UNL     1     148.022 143.440 132.030  1.00  0.00     0.039 C 
ATOM      7  C   UNL     1     147.021 144.246 132.817  1.00  0.00    -0.080 C 
ATOM      8  C   UNL     1     145.806 143.536 133.361  1.00  0.00     0.039 C 
ENDBRANCH   4   5
ENDBRANCH   1   4
BRANCH   2   9
ATOM      9  C   UNL     1     142.930 147.290 132.059  1.00  0.00    -0.005 C 
ATOM     10  C   UNL     1     142.863 146.911 130.783  1.00  0.00     0.009 C 
ENDBRANCH   2   9
TORSDOF 3
ENDMDL
MODEL 7
REMARK VINA RESULT:    -3.309      2.059      3.123
REMARK INTER + INTRA:          -4.211
REMARK INTER:                  -3.937
REMARK INTRA:                  -0.275
REMARK UNBOUND:                -0.322
REMARK SMILES C=CC(C)=CCC=C(C)C
REMARK SMILES IDX 5 1 3 2 4 3 6 4 7 5 9 6 8 7 10 8 2 9 1 10
REMARK H PARENT
REMARK Flexibility Score: inf
ROOT
ATOM      1  C   UNL     1     143.940 144.915 133.079  1.00  0.00    -0.020 C 
ATOM      2  C   UNL     1     143.997 146.258 133.178  1.00  0.00    -0.055 C 
ATOM      3  C   UNL     1     144.955 146.945 134.125  1.00  0.00     0.044 C 
ENDROOT
BRANCH   1   4
ATOM      4  C   UNL     1     144.816 143.978 133.872  1.00  0.00     0.055 C 
BRANCH   4   5
ATOM      5  C   UNL     1     145.868 143.340 132.998  1.00  0.00    -0.024 C 
ATOM      6  C   UNL     1     148.092 143.127 131.930  1.00  0.00     0.039 C 
ATOM      7  C   UNL     1     147.115 143.835 132.833  1.00  0.00    -0.080 C 
ATOM      8  C   UNL     1     147.580 145.080 133.547  1.00  0.00     0.039 C 
ENDBRANCH   4   5
ENDBRANCH   1   4
BRANCH   2   9
ATOM      9  C   UNL     1     143.032 147.055 132.377  1.00  0.00    -0.005 C 
ATOM     10  C   UNL     1     142.909 146.952 131.054  1.00  0.00     0.009 C 
ENDBRANCH   2   9
TORSDOF 3
ENDMDL
MODEL 8
REMARK VINA RESULT:    -3.262      2.056      3.585
REMARK INTER + INTRA:          -4.156
REMARK INTER:                  -3.932
REMARK INTRA:                  -0.225
REMARK UNBOUND:                -0.322
REMARK SMILES C=CC(C)=CCC=C(C)C
REMARK SMILES IDX 5 1 3 2 4 3 6 4 7 5 9 6 8 7 10 8 2 9 1 10
REMARK H PARENT
REMARK Flexibility Score: inf
ROOT
ATOM      1  C   UNL     1     144.666 146.014 131.360  1.00  0.00    -0.020 C 
ATOM      2  C   UNL     1     144.377 146.788 132.425  1.00  0.00    -0.055 C 
ATOM      3  C   UNL     1     145.382 147.768 132.990  1.00  0.00     0.044 C 
ENDROOT
BRANCH   1   4
ATOM      4  C   UNL     1     145.983 146.052 130.628  1.00  0.00     0.055 C 
BRANCH   4   5
ATOM      5  C   UNL     1     146.699 144.727 130.720  1.00  0.00    -0.024 C 
ATOM      6  C   UNL     1     148.114 142.993 131.781  1.00  0.00     0.039 C 
ATOM      7  C   UNL     1     147.428 144.335 131.789  1.00  0.00    -0.080 C 
ATOM      8  C   UNL     1     147.566 145.197 133.020  1.00  0.00     0.039 C 
ENDBRANCH   4   5
ENDBRANCH   1   4
BRANCH   2   9
ATOM      9  C   UNL     1     143.059 146.602 133.084  1.00  0.00    -0.005 C 
ATOM     10  C   UNL     1     142.861 145.793 134.124  1.00  0.00     0.009 C 
ENDBRANCH   2   9
TORSDOF 3
ENDMDL
MODEL 9
REMARK VINA RESULT:    -3.206      2.193      3.565
REMARK INTER + INTRA:          -4.090
REMARK INTER:                  -3.798
REMARK INTRA:                  -0.293
REMARK UNBOUND:                -0.322
REMARK SMILES C=CC(C)=CCC=C(C)C
REMARK SMILES IDX 5 1 3 2 4 3 6 4 7 5 9 6 8 7 10 8 2 9 1 10
REMARK H PARENT
REMARK Flexibility Score: inf
ROOT
ATOM      1  C   UNL     1     145.981 144.789 131.467  1.00  0.00    -0.020 C 
ATOM      2  C   UNL     1     146.287 144.017 132.529  1.00  0.00    -0.055 C 
ATOM      3  C   UNL     1     145.313 142.998 133.077  1.00  0.00     0.044 C 
ENDROOT
BRANCH   1   4
ATOM      4  C   UNL     1     144.673 144.709 130.721  1.00  0.00     0.055 C 
BRANCH   4   5
ATOM      5  C   UNL     1     143.940 146.027 130.760  1.00  0.00    -0.024 C 
ATOM      6  C   UNL     1     142.501 147.783 131.750  1.00  0.00     0.039 C 
ATOM      7  C   UNL     1     143.204 146.452 131.812  1.00  0.00    -0.080 C 
ATOM      8  C   UNL     1     143.076 145.638 133.076  1.00  0.00     0.039 C 
ENDBRANCH   4   5
ENDBRANCH   1   4
BRANCH   2   9
ATOM      9  C   UNL     1     147.592 144.245 133.202  1.00  0.00    -0.005 C 
ATOM     10  C   UNL     1     147.910 145.377 133.829  1.00  0.00     0.009 C 
ENDBRANCH   2   9
TORSDOF 3
ENDMDL
