MODEL 1
REMARK VINA RESULT:    -4.937      0.000      0.000
REMARK INTER + INTRA:          -6.188
REMARK INTER:                  -6.091
REMARK INTRA:                  -0.097
REMARK UNBOUND:                -0.097
REMARK SMILES [NH3+][C@@H](Cc1ccc(O)cc1)C(=O)[O-]
REMARK SMILES IDX 3 1 2 2 1 3 11 7 12 8 13 9 4 10 5 11 10 12 6 13 9 14 7 15
REMARK SMILES IDX 8 16
REMARK H PARENT 1 4 1 5 1 6 8 17
REMARK Flexibility Score: inf
ROOT
ATOM      1  C   UNL     1     -15.111  13.886  -4.753  1.00  0.00     0.107 C 
ENDROOT
BRANCH   1   2
ATOM      2  C   UNL     1     -14.502  12.843  -3.792  1.00  0.00     0.232 C 
BRANCH   2   3
ATOM      3  N   UNL     1     -13.268  13.341  -3.169  1.00  0.00    -0.350 N 
ATOM      4  H   UNL     1     -12.861  12.606  -2.545  1.00  0.00     0.345 HD
ATOM      5  H   UNL     1     -12.559  13.559  -3.908  1.00  0.00     0.345 HD
ATOM      6  H   UNL     1     -13.456  14.203  -2.609  1.00  0.00     0.345 HD
ENDBRANCH   2   3
BRANCH   2   7
ATOM      7  C   UNL     1     -14.223  11.567  -4.542  1.00  0.00     0.099 C 
ATOM      8  O   UNL     1     -14.209  10.465  -3.932  1.00  0.00    -0.544 OA
ATOM      9  O   UNL     1     -14.003  11.594  -5.914  1.00  0.00    -0.544 OA
ENDBRANCH   2   7
ENDBRANCH   1   2
BRANCH   1  10
ATOM     10  C   UNL     1     -16.604  13.725  -4.883  1.00  0.00    -0.041 A 
ATOM     11  C   UNL     1     -17.148  12.907  -5.886  1.00  0.00     0.008 A 
ATOM     12  C   UNL     1     -17.467  14.423  -4.020  1.00  0.00     0.008 A 
ATOM     13  C   UNL     1     -18.534  12.778  -6.015  1.00  0.00     0.046 A 
ATOM     14  C   UNL     1     -18.852  14.293  -4.152  1.00  0.00     0.046 A 
ATOM     15  C   UNL     1     -19.390  13.470  -5.152  1.00  0.00     0.115 A 
BRANCH  15  16
ATOM     16  O   UNL     1     -20.769  13.334  -5.293  1.00  0.00    -0.508 OA
ATOM     17  H   UNL     1     -21.412  13.719  -4.611  1.00  0.00     0.293 HD
ENDBRANCH  15  16
ENDBRANCH   1  10
TORSDOF 5
ENDMDL
MODEL 2
REMARK VINA RESULT:    -4.847      2.902      3.290
REMARK INTER + INTRA:          -6.077
REMARK INTER:                  -5.845
REMARK INTRA:                  -0.232
REMARK UNBOUND:                -0.097
REMARK SMILES [NH3+][C@@H](Cc1ccc(O)cc1)C(=O)[O-]
REMARK SMILES IDX 3 1 2 2 1 3 11 7 12 8 13 9 4 10 5 11 10 12 6 13 9 14 7 15
REMARK SMILES IDX 8 16
REMARK H PARENT 1 4 1 5 1 6 8 17
REMARK Flexibility Score: inf
ROOT
ATOM      1  C   UNL     1     -15.835  12.435  -4.735  1.00  0.00     0.107 C 
ENDROOT
BRANCH   1   2
ATOM      2  C   UNL     1     -14.347  12.113  -4.483  1.00  0.00     0.232 C 
BRANCH   2   3
ATOM      3  N   UNL     1     -14.188  10.912  -3.654  1.00  0.00    -0.350 N 
ATOM      4  H   UNL     1     -14.816  10.967  -2.819  1.00  0.00     0.345 HD
ATOM      5  H   UNL     1     -14.460  10.062  -4.201  1.00  0.00     0.345 HD
ATOM      6  H   UNL     1     -13.198  10.810  -3.333  1.00  0.00     0.345 HD
ENDBRANCH   2   3
BRANCH   2   7
ATOM      7  C   UNL     1     -13.680  13.290  -3.821  1.00  0.00     0.099 C 
ATOM      8  O   UNL     1     -13.615  13.356  -2.566  1.00  0.00    -0.544 OA
ATOM      9  O   UNL     1     -13.112  14.298  -4.592  1.00  0.00    -0.544 OA
ENDBRANCH   2   7
ENDBRANCH   1   2
BRANCH   1  10
ATOM     10  C   UNL     1     -16.082  12.881  -6.153  1.00  0.00    -0.041 A 
ATOM     11  C   UNL     1     -15.890  11.992  -7.224  1.00  0.00     0.008 A 
ATOM     12  C   UNL     1     -16.474  14.204  -6.419  1.00  0.00     0.008 A 
ATOM     13  C   UNL     1     -16.099  12.418  -8.539  1.00  0.00     0.046 A 
ATOM     14  C   UNL     1     -16.683  14.627  -7.735  1.00  0.00     0.046 A 
ATOM     15  C   UNL     1     -16.495  13.734  -8.799  1.00  0.00     0.115 A 
BRANCH  15  16
ATOM     16  O   UNL     1     -16.699  14.144 -10.114  1.00  0.00    -0.508 OA
ATOM     17  H   UNL     1     -17.291  14.936 -10.336  1.00  0.00     0.293 HD
ENDBRANCH  15  16
ENDBRANCH   1  10
TORSDOF 5
ENDMDL
MODEL 3
REMARK VINA RESULT:    -4.822      3.350      5.196
REMARK INTER + INTRA:          -6.046
REMARK INTER:                  -5.812
REMARK INTRA:                  -0.234
REMARK UNBOUND:                -0.097
REMARK SMILES [NH3+][C@@H](Cc1ccc(O)cc1)C(=O)[O-]
REMARK SMILES IDX 3 1 2 2 1 3 11 7 12 8 13 9 4 10 5 11 10 12 6 13 9 14 7 15
REMARK SMILES IDX 8 16
REMARK H PARENT 1 4 1 5 1 6 8 17
REMARK Flexibility Score: inf
ROOT
ATOM      1  C   UNL     1     -16.686  12.016  -7.303  1.00  0.00     0.107 C 
ENDROOT
BRANCH   1   2
ATOM      2  C   UNL     1     -17.381  13.278  -7.857  1.00  0.00     0.232 C 
BRANCH   2   3
ATOM      3  N   UNL     1     -18.836  13.097  -7.944  1.00  0.00    -0.350 N 
ATOM      4  H   UNL     1     -19.325  13.931  -7.543  1.00  0.00     0.345 HD
ATOM      5  H   UNL     1     -19.125  13.010  -8.946  1.00  0.00     0.345 HD
ATOM      6  H   UNL     1     -19.136  12.240  -7.425  1.00  0.00     0.345 HD
ENDBRANCH   2   3
BRANCH   2   7
ATOM      7  C   UNL     1     -16.820  13.609  -9.214  1.00  0.00     0.099 C 
ATOM      8  O   UNL     1     -17.594  13.856 -10.176  1.00  0.00    -0.544 OA
ATOM      9  O   UNL     1     -15.445  13.668  -9.409  1.00  0.00    -0.544 OA
ENDBRANCH   2   7
ENDBRANCH   1   2
BRANCH   1  10
ATOM     10  C   UNL     1     -15.780  12.338  -6.142  1.00  0.00    -0.041 A 
ATOM     11  C   UNL     1     -14.826  11.405  -5.702  1.00  0.00     0.008 A 
ATOM     12  C   UNL     1     -15.906  13.564  -5.467  1.00  0.00     0.008 A 
ATOM     13  C   UNL     1     -14.003  11.700  -4.612  1.00  0.00     0.046 A 
ATOM     14  C   UNL     1     -15.081  13.856  -4.376  1.00  0.00     0.046 A 
ATOM     15  C   UNL     1     -14.127  12.924  -3.946  1.00  0.00     0.115 A 
BRANCH  15  16
ATOM     16  O   UNL     1     -13.301  13.204  -2.860  1.00  0.00    -0.508 OA
ATOM     17  H   UNL     1     -13.080  14.157  -2.594  1.00  0.00     0.293 HD
ENDBRANCH  15  16
ENDBRANCH   1  10
TORSDOF 5
ENDMDL
MODEL 4
REMARK VINA RESULT:    -4.696      2.509      5.246
REMARK INTER + INTRA:          -5.891
REMARK INTER:                  -5.699
REMARK INTRA:                  -0.192
REMARK UNBOUND:                -0.097
REMARK SMILES [NH3+][C@@H](Cc1ccc(O)cc1)C(=O)[O-]
REMARK SMILES IDX 3 1 2 2 1 3 11 7 12 8 13 9 4 10 5 11 10 12 6 13 9 14 7 15
REMARK SMILES IDX 8 16
REMARK H PARENT 1 4 1 5 1 6 8 17
REMARK Flexibility Score: inf
ROOT
ATOM      1  C   UNL     1     -17.326  12.722  -6.507  1.00  0.00     0.107 C 
ENDROOT
BRANCH   1   2
ATOM      2  C   UNL     1     -18.614  13.368  -5.956  1.00  0.00     0.232 C 
BRANCH   2   3
ATOM      3  N   UNL     1     -19.416  12.404  -5.190  1.00  0.00    -0.350 N 
ATOM      4  H   UNL     1     -19.876  12.883  -4.382  1.00  0.00     0.345 HD
ATOM      5  H   UNL     1     -20.170  12.007  -5.797  1.00  0.00     0.345 HD
ATOM      6  H   UNL     1     -18.817  11.624  -4.833  1.00  0.00     0.345 HD
ENDBRANCH   2   3
BRANCH   2   7
ATOM      7  C   UNL     1     -19.426  13.926  -7.094  1.00  0.00     0.099 C 
ATOM      8  O   UNL     1     -20.516  14.515  -6.865  1.00  0.00    -0.544 OA
ATOM      9  O   UNL     1     -18.968  13.816  -8.402  1.00  0.00    -0.544 OA
ENDBRANCH   2   7
ENDBRANCH   1   2
BRANCH   1  10
ATOM     10  C   UNL     1     -16.165  12.885  -5.558  1.00  0.00    -0.041 A 
ATOM     11  C   UNL     1     -15.267  11.827  -5.342  1.00  0.00     0.008 A 
ATOM     12  C   UNL     1     -15.993  14.089  -4.854  1.00  0.00     0.008 A 
ATOM     13  C   UNL     1     -14.206  11.976  -4.445  1.00  0.00     0.046 A 
ATOM     14  C   UNL     1     -14.931  14.235  -3.957  1.00  0.00     0.046 A 
ATOM     15  C   UNL     1     -14.034  13.178  -3.750  1.00  0.00     0.115 A 
BRANCH  15  16
ATOM     16  O   UNL     1     -12.973  13.313  -2.858  1.00  0.00    -0.508 OA
ATOM     17  H   UNL     1     -12.164  13.881  -3.079  1.00  0.00     0.293 HD
ENDBRANCH  15  16
ENDBRANCH   1  10
TORSDOF 5
ENDMDL
MODEL 5
REMARK VINA RESULT:    -4.637      2.547      5.370
REMARK INTER + INTRA:          -5.818
REMARK INTER:                  -5.591
REMARK INTRA:                  -0.227
REMARK UNBOUND:                -0.097
REMARK SMILES [NH3+][C@@H](Cc1ccc(O)cc1)C(=O)[O-]
REMARK SMILES IDX 3 1 2 2 1 3 11 7 12 8 13 9 4 10 5 11 10 12 6 13 9 14 7 15
REMARK SMILES IDX 8 16
REMARK H PARENT 1 4 1 5 1 6 8 17
REMARK Flexibility Score: inf
ROOT
ATOM      1  C   UNL     1     -17.534  13.762  -5.680  1.00  0.00     0.107 C 
ENDROOT
BRANCH   1   2
ATOM      2  C   UNL     1     -18.769  13.492  -4.796  1.00  0.00     0.232 C 
BRANCH   2   3
ATOM      3  N   UNL     1     -19.497  12.295  -5.239  1.00  0.00    -0.350 N 
ATOM      4  H   UNL     1     -20.528  12.475  -5.220  1.00  0.00     0.345 HD
ATOM      5  H   UNL     1     -19.233  12.062  -6.224  1.00  0.00     0.345 HD
ATOM      6  H   UNL     1     -19.279  11.479  -4.623  1.00  0.00     0.345 HD
ENDBRANCH   2   3
BRANCH   2   7
ATOM      7  C   UNL     1     -19.682  14.690  -4.823  1.00  0.00     0.099 C 
ATOM      8  O   UNL     1     -19.240  15.829  -4.519  1.00  0.00    -0.544 OA
ATOM      9  O   UNL     1     -21.011  14.550  -5.205  1.00  0.00    -0.544 OA
ENDBRANCH   2   7
ENDBRANCH   1   2
BRANCH   1  10
ATOM     10  C   UNL     1     -16.251  13.686  -4.891  1.00  0.00    -0.041 A 
ATOM     11  C   UNL     1     -15.460  12.526  -4.927  1.00  0.00     0.008 A 
ATOM     12  C   UNL     1     -15.854  14.765  -4.083  1.00  0.00     0.008 A 
ATOM     13  C   UNL     1     -14.283  12.452  -4.176  1.00  0.00     0.046 A 
ATOM     14  C   UNL     1     -14.676  14.688  -3.333  1.00  0.00     0.046 A 
ATOM     15  C   UNL     1     -13.888  13.530  -3.378  1.00  0.00     0.115 A 
BRANCH  15  16
ATOM     16  O   UNL     1     -12.714  13.442  -2.635  1.00  0.00    -0.508 OA
ATOM     17  H   UNL     1     -11.818  13.271  -3.076  1.00  0.00     0.293 HD
ENDBRANCH  15  16
ENDBRANCH   1  10
TORSDOF 5
ENDMDL
MODEL 6
REMARK VINA RESULT:    -4.569     11.404     13.344
REMARK INTER + INTRA:          -5.735
REMARK INTER:                  -5.551
REMARK INTRA:                  -0.183
REMARK UNBOUND:                -0.097
REMARK SMILES [NH3+][C@@H](Cc1ccc(O)cc1)C(=O)[O-]
REMARK SMILES IDX 3 1 2 2 1 3 11 7 12 8 13 9 4 10 5 11 10 12 6 13 9 14 7 15
REMARK SMILES IDX 8 16
REMARK H PARENT 1 4 1 5 1 6 8 17
REMARK Flexibility Score: inf
ROOT
ATOM      1  C   UNL     1     -12.719   2.989   3.389  1.00  0.00     0.107 C 
ENDROOT
BRANCH   1   2
ATOM      2  C   UNL     1     -13.908   2.973   4.373  1.00  0.00     0.232 C 
BRANCH   2   3
ATOM      3  N   UNL     1     -14.487   4.313   4.539  1.00  0.00    -0.350 N 
ATOM      4  H   UNL     1     -13.725   5.022   4.645  1.00  0.00     0.345 HD
ATOM      5  H   UNL     1     -15.044   4.568   3.691  1.00  0.00     0.345 HD
ATOM      6  H   UNL     1     -15.108   4.347   5.380  1.00  0.00     0.345 HD
ENDBRANCH   2   3
BRANCH   2   7
ATOM      7  C   UNL     1     -13.454   2.438   5.705  1.00  0.00     0.099 C 
ATOM      8  O   UNL     1     -12.824   3.179   6.504  1.00  0.00    -0.544 OA
ATOM      9  O   UNL     1     -13.749   1.130   6.072  1.00  0.00    -0.544 OA
ENDBRANCH   2   7
ENDBRANCH   1   2
BRANCH   1  10
ATOM     10  C   UNL     1     -13.171   2.828   1.960  1.00  0.00    -0.041 A 
ATOM     11  C   UNL     1     -12.702   3.697   0.961  1.00  0.00     0.008 A 
ATOM     12  C   UNL     1     -14.094   1.824   1.621  1.00  0.00     0.008 A 
ATOM     13  C   UNL     1     -13.141   3.556  -0.358  1.00  0.00     0.046 A 
ATOM     14  C   UNL     1     -14.531   1.685   0.300  1.00  0.00     0.046 A 
ATOM     15  C   UNL     1     -14.055   2.552  -0.694  1.00  0.00     0.115 A 
BRANCH  15  16
ATOM     16  O   UNL     1     -14.485   2.424  -2.012  1.00  0.00    -0.508 OA
ATOM     17  H   UNL     1     -14.354   3.168  -2.687  1.00  0.00     0.293 HD
ENDBRANCH  15  16
ENDBRANCH   1  10
TORSDOF 5
ENDMDL
MODEL 7
REMARK VINA RESULT:    -4.559      2.292      2.830
REMARK INTER + INTRA:          -5.722
REMARK INTER:                  -5.746
REMARK INTRA:                   0.025
REMARK UNBOUND:                -0.097
REMARK SMILES [NH3+][C@@H](Cc1ccc(O)cc1)C(=O)[O-]
REMARK SMILES IDX 3 1 2 2 1 3 11 7 12 8 13 9 4 10 5 11 10 12 6 13 9 14 7 15
REMARK SMILES IDX 8 16
REMARK H PARENT 1 4 1 5 1 6 8 17
REMARK Flexibility Score: inf
ROOT
ATOM      1  C   UNL     1     -14.868  12.179  -4.085  1.00  0.00     0.107 C 
ENDROOT
BRANCH   1   2
ATOM      2  C   UNL     1     -13.872  13.358  -4.118  1.00  0.00     0.232 C 
BRANCH   2   3
ATOM      3  N   UNL     1     -13.015  13.372  -2.926  1.00  0.00    -0.350 N 
ATOM      4  H   UNL     1     -12.119  12.869  -3.123  1.00  0.00     0.345 HD
ATOM      5  H   UNL     1     -12.776  14.359  -2.671  1.00  0.00     0.345 HD
ATOM      6  H   UNL     1     -13.495  12.916  -2.117  1.00  0.00     0.345 HD
ENDBRANCH   2   3
BRANCH   2   7
ATOM      7  C   UNL     1     -14.629  14.655  -4.225  1.00  0.00     0.099 C 
ATOM      8  O   UNL     1     -14.620  15.306  -5.303  1.00  0.00    -0.544 OA
ATOM      9  O   UNL     1     -15.360  15.131  -3.143  1.00  0.00    -0.544 OA
ENDBRANCH   2   7
ENDBRANCH   1   2
BRANCH   1  10
ATOM     10  C   UNL     1     -15.908  12.291  -5.171  1.00  0.00    -0.041 A 
ATOM     11  C   UNL     1     -15.574  12.020  -6.508  1.00  0.00     0.008 A 
ATOM     12  C   UNL     1     -17.214  12.702  -4.857  1.00  0.00     0.008 A 
ATOM     13  C   UNL     1     -16.537  12.147  -7.513  1.00  0.00     0.046 A 
ATOM     14  C   UNL     1     -18.175  12.829  -5.864  1.00  0.00     0.046 A 
ATOM     15  C   UNL     1     -17.838  12.551  -7.197  1.00  0.00     0.115 A 
BRANCH  15  16
ATOM     16  O   UNL     1     -18.787  12.674  -8.208  1.00  0.00    -0.508 OA
ATOM     17  H   UNL     1     -19.698  13.082  -8.033  1.00  0.00     0.293 HD
ENDBRANCH  15  16
ENDBRANCH   1  10
TORSDOF 5
ENDMDL
MODEL 8
REMARK VINA RESULT:    -4.451      8.440     10.286
REMARK INTER + INTRA:          -5.589
REMARK INTER:                  -5.361
REMARK INTRA:                  -0.228
REMARK UNBOUND:                -0.097
REMARK SMILES [NH3+][C@@H](Cc1ccc(O)cc1)C(=O)[O-]
REMARK SMILES IDX 3 1 2 2 1 3 11 7 12 8 13 9 4 10 5 11 10 12 6 13 9 14 7 15
REMARK SMILES IDX 8 16
REMARK H PARENT 1 4 1 5 1 6 8 17
REMARK Flexibility Score: inf
ROOT
ATOM      1  C   UNL     1     -13.184   4.166  -0.777  1.00  0.00     0.107 C 
ENDROOT
BRANCH   1   2
ATOM      2  C   UNL     1     -14.529   3.811  -0.110  1.00  0.00     0.232 C 
BRANCH   2   3
ATOM      3  N   UNL     1     -14.902   4.800   0.911  1.00  0.00    -0.350 N 
ATOM      4  H   UNL     1     -14.657   5.763   0.583  1.00  0.00     0.345 HD
ATOM      5  H   UNL     1     -15.935   4.772   1.074  1.00  0.00     0.345 HD
ATOM      6  H   UNL     1     -14.407   4.608   1.812  1.00  0.00     0.345 HD
ENDBRANCH   2   3
BRANCH   2   7
ATOM      7  C   UNL     1     -14.442   2.440   0.507  1.00  0.00     0.099 C 
ATOM      8  O   UNL     1     -14.239   1.431  -0.218  1.00  0.00    -0.544 OA
ATOM      9  O   UNL     1     -14.562   2.282   1.883  1.00  0.00    -0.544 OA
ENDBRANCH   2   7
ENDBRANCH   1   2
BRANCH   1  10
ATOM     10  C   UNL     1     -13.357   4.535  -2.229  1.00  0.00    -0.041 A 
ATOM     11  C   UNL     1     -12.758   5.696  -2.745  1.00  0.00     0.008 A 
ATOM     12  C   UNL     1     -14.149   3.736  -3.070  1.00  0.00     0.008 A 
ATOM     13  C   UNL     1     -12.940   6.045  -4.087  1.00  0.00     0.046 A 
ATOM     14  C   UNL     1     -14.329   4.088  -4.412  1.00  0.00     0.046 A 
ATOM     15  C   UNL     1     -13.724   5.244  -4.923  1.00  0.00     0.115 A 
BRANCH  15  16
ATOM     16  O   UNL     1     -13.898   5.604  -6.257  1.00  0.00    -0.508 OA
ATOM     17  H   UNL     1     -13.210   6.163  -6.749  1.00  0.00     0.293 HD
ENDBRANCH  15  16
ENDBRANCH   1  10
TORSDOF 5
ENDMDL
MODEL 9
REMARK VINA RESULT:    -4.443      9.421     10.562
REMARK INTER + INTRA:          -5.578
REMARK INTER:                  -5.404
REMARK INTRA:                  -0.175
REMARK UNBOUND:                -0.097
REMARK SMILES [NH3+][C@@H](Cc1ccc(O)cc1)C(=O)[O-]
REMARK SMILES IDX 3 1 2 2 1 3 11 7 12 8 13 9 4 10 5 11 10 12 6 13 9 14 7 15
REMARK SMILES IDX 8 16
REMARK H PARENT 1 4 1 5 1 6 8 17
REMARK Flexibility Score: inf
ROOT
ATOM      1  C   UNL     1     -13.943   4.790  -1.907  1.00  0.00     0.107 C 
ENDROOT
BRANCH   1   2
ATOM      2  C   UNL     1     -13.870   3.457  -1.134  1.00  0.00     0.232 C 
BRANCH   2   3
ATOM      3  N   UNL     1     -14.425   2.347  -1.919  1.00  0.00    -0.350 N 
ATOM      4  H   UNL     1     -15.288   1.977  -1.457  1.00  0.00     0.345 HD
ATOM      5  H   UNL     1     -14.694   2.684  -2.872  1.00  0.00     0.345 HD
ATOM      6  H   UNL     1     -13.727   1.573  -2.014  1.00  0.00     0.345 HD
ENDBRANCH   2   3
BRANCH   2   7
ATOM      7  C   UNL     1     -14.611   3.587   0.171  1.00  0.00     0.099 C 
ATOM      8  O   UNL     1     -14.523   2.683   1.042  1.00  0.00    -0.544 OA
ATOM      9  O   UNL     1     -15.378   4.717   0.430  1.00  0.00    -0.544 OA
ENDBRANCH   2   7
ENDBRANCH   1   2
BRANCH   1  10
ATOM     10  C   UNL     1     -13.062   4.779  -3.130  1.00  0.00    -0.041 A 
ATOM     11  C   UNL     1     -11.663   4.747  -3.001  1.00  0.00     0.008 A 
ATOM     12  C   UNL     1     -13.633   4.835  -4.413  1.00  0.00     0.008 A 
ATOM     13  C   UNL     1     -10.851   4.759  -4.138  1.00  0.00     0.046 A 
ATOM     14  C   UNL     1     -12.818   4.847  -5.548  1.00  0.00     0.046 A 
ATOM     15  C   UNL     1     -11.423   4.809  -5.413  1.00  0.00     0.115 A 
BRANCH  15  16
ATOM     16  O   UNL     1     -10.601   4.822  -6.538  1.00  0.00    -0.508 OA
ATOM     17  H   UNL     1      -9.911   4.098  -6.697  1.00  0.00     0.293 HD
ENDBRANCH  15  16
ENDBRANCH   1  10
TORSDOF 5
ENDMDL
