MODEL 1
REMARK VINA RESULT:    -3.819      0.000      0.000
REMARK INTER + INTRA:          -5.307
REMARK INTER:                  -5.158
REMARK INTRA:                  -0.148
REMARK UNBOUND:                -0.148
REMARK SMILES CCCCCCC=CC(=O)[O-]
REMARK SMILES IDX 5 1 6 2 7 3 8 4 9 5 10 6 11 7 4 8 3 9 2 10 1 11
REMARK H PARENT
REMARK Flexibility Score: inf
ROOT
ATOM      1  C   UNL     1      51.219 -40.718 -30.265  1.00  0.00     0.004 C 
ENDROOT
BRANCH   1   2
ATOM      2  C   UNL     1      52.092 -41.779 -30.958  1.00  0.00     0.027 C 
BRANCH   2   3
ATOM      3  C   UNL     1      53.423 -41.236 -31.396  1.00  0.00    -0.025 C 
ATOM      4  C   UNL     1      53.589 -40.676 -32.599  1.00  0.00     0.020 C 
BRANCH   4   5
ATOM      5  C   UNL     1      54.886 -40.143 -33.047  1.00  0.00     0.064 C 
ATOM      6  O   UNL     1      55.782 -39.825 -32.220  1.00  0.00    -0.545 OA
ATOM      7  O   UNL     1      55.126 -39.989 -34.407  1.00  0.00    -0.545 OA
ENDBRANCH   4   5
ENDBRANCH   2   3
ENDBRANCH   1   2
BRANCH   1   8
ATOM      8  C   UNL     1      50.728 -41.122 -28.862  1.00  0.00     0.000 C 
BRANCH   8   9
ATOM      9  C   UNL     1      49.234 -41.475 -28.834  1.00  0.00    -0.000 C 
BRANCH   9  10
ATOM     10  C   UNL     1      48.652 -41.286 -27.427  1.00  0.00    -0.003 C 
ATOM     11  C   UNL     1      47.596 -40.184 -27.410  1.00  0.00     0.004 C 
ENDBRANCH   9  10
ENDBRANCH   8   9
ENDBRANCH   1   8
TORSDOF 6
ENDMDL
MODEL 2
REMARK VINA RESULT:    -3.818     11.036     11.903
REMARK INTER + INTRA:          -5.306
REMARK INTER:                  -5.061
REMARK INTRA:                  -0.244
REMARK UNBOUND:                -0.148
REMARK SMILES CCCCCCC=CC(=O)[O-]
REMARK SMILES IDX 5 1 6 2 7 3 8 4 9 5 10 6 11 7 4 8 3 9 2 10 1 11
REMARK H PARENT
REMARK Flexibility Score: inf
ROOT
ATOM      1  C   UNL     1      47.167 -29.907 -29.878  1.00  0.00     0.004 C 
ENDROOT
BRANCH   1   2
ATOM      2  C   UNL     1      46.491 -29.209 -31.072  1.00  0.00     0.027 C 
BRANCH   2   3
ATOM      3  C   UNL     1      47.470 -28.466 -31.938  1.00  0.00    -0.025 C 
ATOM      4  C   UNL     1      48.790 -28.572 -31.750  1.00  0.00     0.020 C 
BRANCH   4   5
ATOM      5  C   UNL     1      49.764 -27.849 -32.584  1.00  0.00     0.064 C 
ATOM      6  O   UNL     1      49.731 -27.927 -33.841  1.00  0.00    -0.545 OA
ATOM      7  O   UNL     1      50.736 -27.067 -31.973  1.00  0.00    -0.545 OA
ENDBRANCH   4   5
ENDBRANCH   2   3
ENDBRANCH   1   2
BRANCH   1   8
ATOM      8  C   UNL     1      46.496 -31.227 -29.455  1.00  0.00     0.000 C 
BRANCH   8   9
ATOM      9  C   UNL     1      47.367 -32.057 -28.501  1.00  0.00    -0.000 C 
BRANCH   9  10
ATOM     10  C   UNL     1      47.771 -33.389 -29.146  1.00  0.00    -0.003 C 
ATOM     11  C   UNL     1      46.544 -34.207 -29.539  1.00  0.00     0.004 C 
ENDBRANCH   9  10
ENDBRANCH   8   9
ENDBRANCH   1   8
TORSDOF 6
ENDMDL
MODEL 3
REMARK VINA RESULT:    -3.751     13.075     13.777
REMARK INTER + INTRA:          -5.215
REMARK INTER:                  -4.899
REMARK INTRA:                  -0.316
REMARK UNBOUND:                -0.148
REMARK SMILES CCCCCCC=CC(=O)[O-]
REMARK SMILES IDX 5 1 6 2 7 3 8 4 9 5 10 6 11 7 4 8 3 9 2 10 1 11
REMARK H PARENT
REMARK Flexibility Score: inf
ROOT
ATOM      1  C   UNL     1      45.112 -29.080 -29.952  1.00  0.00     0.004 C 
ENDROOT
BRANCH   1   2
ATOM      2  C   UNL     1      45.538 -28.484 -31.306  1.00  0.00     0.027 C 
BRANCH   2   3
ATOM      3  C   UNL     1      46.979 -28.765 -31.633  1.00  0.00    -0.025 C 
ATOM      4  C   UNL     1      47.753 -27.849 -32.223  1.00  0.00     0.020 C 
BRANCH   4   5
ATOM      5  C   UNL     1      49.163 -28.107 -32.556  1.00  0.00     0.064 C 
ATOM      6  O   UNL     1      49.956 -28.593 -31.706  1.00  0.00    -0.545 OA
ATOM      7  O   UNL     1      49.628 -27.810 -33.831  1.00  0.00    -0.545 OA
ENDBRANCH   4   5
ENDBRANCH   2   3
ENDBRANCH   1   2
BRANCH   1   8
ATOM      8  C   UNL     1      43.639 -28.822 -29.584  1.00  0.00     0.000 C 
BRANCH   8   9
ATOM      9  C   UNL     1      42.677 -29.817 -30.248  1.00  0.00    -0.000 C 
BRANCH   9  10
ATOM     10  C   UNL     1      41.580 -29.083 -31.029  1.00  0.00    -0.003 C 
ATOM     11  C   UNL     1      42.046 -28.734 -32.439  1.00  0.00     0.004 C 
ENDBRANCH   9  10
ENDBRANCH   8   9
ENDBRANCH   1   8
TORSDOF 6
ENDMDL
MODEL 4
REMARK VINA RESULT:    -3.604     10.128     11.337
REMARK INTER + INTRA:          -5.016
REMARK INTER:                  -4.519
REMARK INTRA:                  -0.497
REMARK UNBOUND:                -0.148
REMARK SMILES CCCCCCC=CC(=O)[O-]
REMARK SMILES IDX 5 1 6 2 7 3 8 4 9 5 10 6 11 7 4 8 3 9 2 10 1 11
REMARK H PARENT
REMARK Flexibility Score: inf
ROOT
ATOM      1  C   UNL     1      48.186 -31.495 -28.798  1.00  0.00     0.004 C 
ENDROOT
BRANCH   1   2
ATOM      2  C   UNL     1      46.722 -31.019 -28.783  1.00  0.00     0.027 C 
BRANCH   2   3
ATOM      3  C   UNL     1      46.414 -30.060 -29.898  1.00  0.00    -0.025 C 
ATOM      4  C   UNL     1      47.358 -29.658 -30.756  1.00  0.00     0.020 C 
BRANCH   4   5
ATOM      5  C   UNL     1      47.078 -28.715 -31.850  1.00  0.00     0.064 C 
ATOM      6  O   UNL     1      45.918 -28.259 -32.037  1.00  0.00    -0.545 OA
ATOM      7  O   UNL     1      48.110 -28.322 -32.692  1.00  0.00    -0.545 OA
ENDBRANCH   4   5
ENDBRANCH   2   3
ENDBRANCH   1   2
BRANCH   1   8
ATOM      8  C   UNL     1      48.354 -33.025 -28.756  1.00  0.00     0.000 C 
BRANCH   8   9
ATOM      9  C   UNL     1      47.269 -33.765 -29.552  1.00  0.00    -0.000 C 
BRANCH   9  10
ATOM     10  C   UNL     1      46.575 -34.821 -28.683  1.00  0.00    -0.003 C 
ATOM     11  C   UNL     1      46.735 -34.506 -27.198  1.00  0.00     0.004 C 
ENDBRANCH   9  10
ENDBRANCH   8   9
ENDBRANCH   1   8
TORSDOF 6
ENDMDL
MODEL 5
REMARK VINA RESULT:    -3.540     10.620     11.431
REMARK INTER + INTRA:          -4.930
REMARK INTER:                  -4.632
REMARK INTRA:                  -0.298
REMARK UNBOUND:                -0.148
REMARK SMILES CCCCCCC=CC(=O)[O-]
REMARK SMILES IDX 5 1 6 2 7 3 8 4 9 5 10 6 11 7 4 8 3 9 2 10 1 11
REMARK H PARENT
REMARK Flexibility Score: inf
ROOT
ATOM      1  C   UNL     1      47.109 -30.113 -29.468  1.00  0.00     0.004 C 
ENDROOT
BRANCH   1   2
ATOM      2  C   UNL     1      48.620 -30.109 -29.178  1.00  0.00     0.027 C 
BRANCH   2   3
ATOM      3  C   UNL     1      49.421 -29.486 -30.287  1.00  0.00    -0.025 C 
ATOM      4  C   UNL     1      48.948 -28.457 -30.999  1.00  0.00     0.020 C 
BRANCH   4   5
ATOM      5  C   UNL     1      49.714 -27.838 -32.092  1.00  0.00     0.064 C 
ATOM      6  O   UNL     1      50.743 -27.149 -31.859  1.00  0.00    -0.545 OA
ATOM      7  O   UNL     1      49.295 -28.016 -33.404  1.00  0.00    -0.545 OA
ENDBRANCH   4   5
ENDBRANCH   2   3
ENDBRANCH   1   2
BRANCH   1   8
ATOM      8  C   UNL     1      46.463 -31.511 -29.435  1.00  0.00     0.000 C 
BRANCH   8   9
ATOM      9  C   UNL     1      47.479 -32.629 -29.161  1.00  0.00    -0.000 C 
BRANCH   9  10
ATOM     10  C   UNL     1      46.896 -34.000 -29.526  1.00  0.00    -0.003 C 
ATOM     11  C   UNL     1      46.567 -34.811 -28.276  1.00  0.00     0.004 C 
ENDBRANCH   9  10
ENDBRANCH   8   9
ENDBRANCH   1   8
TORSDOF 6
ENDMDL
MODEL 6
REMARK VINA RESULT:    -3.505     11.140     12.667
REMARK INTER + INTRA:          -4.883
REMARK INTER:                  -4.443
REMARK INTRA:                  -0.440
REMARK UNBOUND:                -0.148
REMARK SMILES CCCCCCC=CC(=O)[O-]
REMARK SMILES IDX 5 1 6 2 7 3 8 4 9 5 10 6 11 7 4 8 3 9 2 10 1 11
REMARK H PARENT
REMARK Flexibility Score: inf
ROOT
ATOM      1  C   UNL     1      46.064 -28.629 -30.978  1.00  0.00     0.004 C 
ENDROOT
BRANCH   1   2
ATOM      2  C   UNL     1      45.791 -29.492 -29.734  1.00  0.00     0.027 C 
BRANCH   2   3
ATOM      3  C   UNL     1      46.566 -30.780 -29.743  1.00  0.00    -0.025 C 
ATOM      4  C   UNL     1      46.118 -31.871 -29.113  1.00  0.00     0.020 C 
BRANCH   4   5
ATOM      5  C   UNL     1      46.864 -33.139 -29.106  1.00  0.00     0.064 C 
ATOM      6  O   UNL     1      46.713 -33.990 -30.023  1.00  0.00    -0.545 OA
ATOM      7  O   UNL     1      47.750 -33.403 -28.069  1.00  0.00    -0.545 OA
ENDBRANCH   4   5
ENDBRANCH   2   3
ENDBRANCH   1   2
BRANCH   1   8
ATOM      8  C   UNL     1      47.266 -29.095 -31.820  1.00  0.00     0.000 C 
BRANCH   8   9
ATOM      9  C   UNL     1      48.025 -27.928 -32.469  1.00  0.00    -0.000 C 
BRANCH   9  10
ATOM     10  C   UNL     1      49.533 -28.046 -32.214  1.00  0.00    -0.003 C 
ATOM     11  C   UNL     1      49.821 -28.934 -31.006  1.00  0.00     0.004 C 
ENDBRANCH   9  10
ENDBRANCH   8   9
ENDBRANCH   1   8
TORSDOF 6
ENDMDL
MODEL 7
REMARK VINA RESULT:    -3.500     12.568     13.619
REMARK INTER + INTRA:          -4.876
REMARK INTER:                  -4.433
REMARK INTRA:                  -0.443
REMARK UNBOUND:                -0.148
REMARK SMILES CCCCCCC=CC(=O)[O-]
REMARK SMILES IDX 5 1 6 2 7 3 8 4 9 5 10 6 11 7 4 8 3 9 2 10 1 11
REMARK H PARENT
REMARK Flexibility Score: inf
ROOT
ATOM      1  C   UNL     1      49.755 -27.441 -31.781  1.00  0.00     0.004 C 
ENDROOT
BRANCH   1   2
ATOM      2  C   UNL     1      48.820 -28.072 -32.827  1.00  0.00     0.027 C 
BRANCH   2   3
ATOM      3  C   UNL     1      47.610 -28.716 -32.207  1.00  0.00    -0.025 C 
ATOM      4  C   UNL     1      47.588 -29.067 -30.917  1.00  0.00     0.020 C 
BRANCH   4   5
ATOM      5  C   UNL     1      46.416 -29.702 -30.294  1.00  0.00     0.064 C 
ATOM      6  O   UNL     1      46.505 -30.830 -29.738  1.00  0.00    -0.545 OA
ATOM      7  O   UNL     1      45.192 -29.047 -30.318  1.00  0.00    -0.545 OA
ENDBRANCH   4   5
ENDBRANCH   2   3
ENDBRANCH   1   2
BRANCH   1   8
ATOM      8  C   UNL     1      51.230 -27.362 -32.218  1.00  0.00     0.000 C 
BRANCH   8   9
ATOM      9  C   UNL     1      51.913 -28.737 -32.257  1.00  0.00    -0.000 C 
BRANCH   9  10
ATOM     10  C   UNL     1      51.775 -29.457 -30.910  1.00  0.00    -0.003 C 
ATOM     11  C   UNL     1      53.106 -29.490 -30.163  1.00  0.00     0.004 C 
ENDBRANCH   9  10
ENDBRANCH   8   9
ENDBRANCH   1   8
TORSDOF 6
ENDMDL
MODEL 8
REMARK VINA RESULT:    -3.499     12.104     12.626
REMARK INTER + INTRA:          -4.874
REMARK INTER:                  -4.259
REMARK INTRA:                  -0.615
REMARK UNBOUND:                -0.148
REMARK SMILES CCCCCCC=CC(=O)[O-]
REMARK SMILES IDX 5 1 6 2 7 3 8 4 9 5 10 6 11 7 4 8 3 9 2 10 1 11
REMARK H PARENT
REMARK Flexibility Score: inf
ROOT
ATOM      1  C   UNL     1      48.174 -27.686 -32.137  1.00  0.00     0.004 C 
ENDROOT
BRANCH   1   2
ATOM      2  C   UNL     1      49.327 -27.944 -33.124  1.00  0.00     0.027 C 
BRANCH   2   3
ATOM      3  C   UNL     1      50.677 -27.694 -32.512  1.00  0.00    -0.025 C 
ATOM      4  C   UNL     1      51.510 -28.698 -32.221  1.00  0.00     0.020 C 
BRANCH   4   5
ATOM      5  C   UNL     1      52.833 -28.474 -31.618  1.00  0.00     0.064 C 
ATOM      6  O   UNL     1      53.617 -27.598 -32.071  1.00  0.00    -0.545 OA
ATOM      7  O   UNL     1      53.225 -29.243 -30.529  1.00  0.00    -0.545 OA
ENDBRANCH   4   5
ENDBRANCH   2   3
ENDBRANCH   1   2
BRANCH   1   8
ATOM      8  C   UNL     1      47.293 -28.918 -31.857  1.00  0.00     0.000 C 
BRANCH   8   9
ATOM      9  C   UNL     1      47.306 -29.334 -30.379  1.00  0.00    -0.000 C 
BRANCH   9  10
ATOM     10  C   UNL     1      48.715 -29.746 -29.937  1.00  0.00    -0.003 C 
ATOM     11  C   UNL     1      49.238 -28.829 -28.835  1.00  0.00     0.004 C 
ENDBRANCH   9  10
ENDBRANCH   8   9
ENDBRANCH   1   8
TORSDOF 6
ENDMDL
MODEL 9
REMARK VINA RESULT:    -3.471      6.475      7.222
REMARK INTER + INTRA:          -4.837
REMARK INTER:                  -4.503
REMARK INTRA:                  -0.334
REMARK UNBOUND:                -0.148
REMARK SMILES CCCCCCC=CC(=O)[O-]
REMARK SMILES IDX 5 1 6 2 7 3 8 4 9 5 10 6 11 7 4 8 3 9 2 10 1 11
REMARK H PARENT
REMARK Flexibility Score: inf
ROOT
ATOM      1  C   UNL     1      53.078 -42.214 -25.495  1.00  0.00     0.004 C 
ENDROOT
BRANCH   1   2
ATOM      2  C   UNL     1      54.558 -42.340 -25.897  1.00  0.00     0.027 C 
BRANCH   2   3
ATOM      3  C   UNL     1      55.453 -41.434 -25.098  1.00  0.00    -0.025 C 
ATOM      4  C   UNL     1      54.956 -40.548 -24.229  1.00  0.00     0.020 C 
BRANCH   4   5
ATOM      5  C   UNL     1      55.816 -39.649 -23.442  1.00  0.00     0.064 C 
ATOM      6  O   UNL     1      55.393 -39.099 -22.390  1.00  0.00    -0.545 OA
ATOM      7  O   UNL     1      57.115 -39.405 -23.865  1.00  0.00    -0.545 OA
ENDBRANCH   4   5
ENDBRANCH   2   3
ENDBRANCH   1   2
BRANCH   1   8
ATOM      8  C   UNL     1      52.199 -43.399 -25.937  1.00  0.00     0.000 C 
BRANCH   8   9
ATOM      9  C   UNL     1      50.968 -43.594 -25.040  1.00  0.00    -0.000 C 
BRANCH   9  10
ATOM     10  C   UNL     1      50.987 -42.614 -23.861  1.00  0.00    -0.003 C 
ATOM     11  C   UNL     1      49.889 -42.941 -22.854  1.00  0.00     0.004 C 
ENDBRANCH   9  10
ENDBRANCH   8   9
ENDBRANCH   1   8
TORSDOF 6
ENDMDL
