MODEL 1
REMARK VINA RESULT:    -3.962      0.000      0.000
REMARK INTER + INTRA:          -6.045
REMARK INTER:                  -6.046
REMARK INTRA:                   0.001
REMARK UNBOUND:                 0.001
REMARK SMILES CC1=CCC[C@H](C)C(=O)C[C@@H](C(C)C)C(=O)C1
REMARK SMILES IDX 8 1 9 2 6 3 7 4 5 5 4 6 3 7 2 8 1 9 10 11 11 12 15 13 16 14
REMARK SMILES IDX 17 15 12 17 13 18 14 19
REMARK H PARENT
REMARK Flexibility Score: 70.00
ROOT
ATOM      1  C   UNL     1     -13.213 -15.965  30.932  1.00  0.00     0.136 C 
ATOM      2  O   UNL     1     -12.084 -15.541  31.137  1.00  0.00    -0.299 OA
ENDROOT
BRANCH   1   3
ATOM      3  C   UNL     1     -14.342 -14.985  30.673  1.00  0.00     0.053 C 
ATOM      4  C   UNL     1     -14.711 -14.240  31.964  1.00  0.00     0.016 C 
BRANCH   3   5
ATOM      5  C   UNL     1     -13.950 -13.990  29.557  1.00  0.00     0.015 C 
BRANCH   5   6
ATOM      6  C   UNL     1     -14.224 -14.573  28.156  1.00  0.00     0.028 C 
BRANCH   6   7
ATOM      7  C   UNL     1     -13.024 -15.259  27.550  1.00  0.00    -0.028 C 
ATOM      8  C   UNL     1     -12.928 -16.588  27.292  1.00  0.00    -0.070 CG0
ATOM      9  C   UNL     1     -11.689 -17.110  26.609  1.00  0.00     0.039 C 
ATOM     10  G   UNL     1     -13.949 -17.615  27.758  1.00  0.00     0.000 G0
ENDBRANCH   6   7
ENDBRANCH   5   6
ENDBRANCH   3   5
ENDBRANCH   1   3
BRANCH   1  11
ATOM     11  C   UNL     1     -13.451 -17.460  30.954  1.00  0.00     0.087 C 
BRANCH  11  12
ATOM     12  C   UNL     1     -12.562 -18.206  29.927  1.00  0.00     0.066 C 
BRANCH  12  13
ATOM     13  C   UNL     1     -13.376 -18.657  28.722  1.00  0.00     0.140 C 
ATOM     14  O   UNL     1     -13.559 -19.845  28.505  1.00  0.00    -0.299 OA
BRANCH  13  15
ATOM     15  C   UNL     1     -13.936 -17.629  27.769  1.00  0.00     0.106 CG0
ATOM     16  G   UNL     1     -12.920 -16.597  27.305  1.00  0.00     0.000 G0
ENDBRANCH  13  15
ENDBRANCH  12  13
BRANCH  12  17
ATOM     17  C   UNL     1     -11.713 -19.338  30.586  1.00  0.00    -0.006 C 
ATOM     18  C   UNL     1     -12.449 -19.980  31.773  1.00  0.00     0.008 C 
ATOM     19  C   UNL     1     -10.293 -18.915  31.001  1.00  0.00     0.008 C 
ENDBRANCH  12  17
ENDBRANCH  11  12
ENDBRANCH   1  11
TORSDOF 1
ENDMDL
MODEL 2
REMARK VINA RESULT:    -3.630      2.087      3.814
REMARK INTER + INTRA:          -5.539
REMARK INTER:                  -5.892
REMARK INTRA:                   0.354
REMARK UNBOUND:                 0.001
REMARK SMILES CC1=CCC[C@H](C)C(=O)C[C@@H](C(C)C)C(=O)C1
REMARK SMILES IDX 8 1 9 2 6 3 7 4 5 5 4 6 3 7 2 8 1 9 10 11 11 12 15 13 16 14
REMARK SMILES IDX 17 15 12 17 13 18 14 19
REMARK H PARENT
REMARK Flexibility Score: 70.00
ROOT
ATOM      1  C   UNL     1     -11.143 -16.311  29.146  1.00  0.00     0.136 C 
ATOM      2  O   UNL     1     -10.296 -15.565  29.619  1.00  0.00    -0.299 OA
ENDROOT
BRANCH   1   3
ATOM      3  C   UNL     1     -11.801 -15.951  27.828  1.00  0.00     0.053 C 
ATOM      4  C   UNL     1     -11.737 -17.138  26.856  1.00  0.00     0.016 C 
BRANCH   3   5
ATOM      5  C   UNL     1     -13.263 -15.505  28.057  1.00  0.00     0.015 C 
BRANCH   5   6
ATOM      6  C   UNL     1     -13.334 -14.142  28.773  1.00  0.00     0.028 C 
BRANCH   6   7
ATOM      7  C   UNL     1     -14.417 -14.075  29.823  1.00  0.00    -0.028 C 
ATOM      8  C   UNL     1     -14.332 -14.598  31.072  1.00  0.00    -0.070 CG0
ATOM      9  C   UNL     1     -15.473 -14.380  32.033  1.00  0.00     0.039 C 
ATOM     10  G   UNL     1     -13.198 -15.501  31.534  1.00  0.00     0.000 G0
ENDBRANCH   6   7
ENDBRANCH   5   6
ENDBRANCH   3   5
ENDBRANCH   1   3
BRANCH   1  11
ATOM     11  C   UNL     1     -11.515 -17.569  29.901  1.00  0.00     0.087 C 
BRANCH  11  12
ATOM     12  C   UNL     1     -13.047 -17.698  30.097  1.00  0.00     0.066 C 
BRANCH  12  13
ATOM     13  C   UNL     1     -13.500 -16.984  31.364  1.00  0.00     0.140 C 
ATOM     14  O   UNL     1     -14.119 -17.586  32.228  1.00  0.00    -0.299 OA
BRANCH  13  15
ATOM     15  C   UNL     1     -13.207 -15.514  31.540  1.00  0.00     0.106 CG0
ATOM     16  G   UNL     1     -14.335 -14.600  31.085  1.00  0.00     0.000 G0
ENDBRANCH  13  15
ENDBRANCH  12  13
BRANCH  12  17
ATOM     17  C   UNL     1     -13.540 -19.175  29.984  1.00  0.00    -0.006 C 
ATOM     18  C   UNL     1     -12.521 -20.159  30.579  1.00  0.00     0.008 C 
ATOM     19  C   UNL     1     -13.940 -19.610  28.563  1.00  0.00     0.008 C 
ENDBRANCH  12  17
ENDBRANCH  11  12
ENDBRANCH   1  11
TORSDOF 1
ENDMDL
MODEL 3
REMARK VINA RESULT:    -3.488      1.549      3.944
REMARK INTER + INTRA:          -5.321
REMARK INTER:                  -6.065
REMARK INTRA:                   0.744
REMARK UNBOUND:                 0.001
REMARK SMILES CC1=CCC[C@H](C)C(=O)C[C@@H](C(C)C)C(=O)C1
REMARK SMILES IDX 8 1 9 2 6 3 7 4 5 5 4 6 3 7 2 8 1 9 10 11 11 12 15 13 16 14
REMARK SMILES IDX 17 15 12 17 13 18 14 19
REMARK H PARENT
REMARK Flexibility Score: 70.00
ROOT
ATOM      1  C   UNL     1     -11.171 -18.585  30.836  1.00  0.00     0.136 C 
ATOM      2  O   UNL     1     -10.015 -18.829  30.521  1.00  0.00    -0.299 OA
ENDROOT
BRANCH   1   3
ATOM      3  C   UNL     1     -12.198 -19.702  30.829  1.00  0.00     0.053 C 
ATOM      4  C   UNL     1     -12.479 -20.180  32.260  1.00  0.00     0.016 C 
BRANCH   3   5
ATOM      5  C   UNL     1     -13.500 -19.235  30.138  1.00  0.00     0.015 C 
BRANCH   5   6
ATOM      6  C   UNL     1     -13.411 -19.379  28.606  1.00  0.00     0.028 C 
BRANCH   6   7
ATOM      7  C   UNL     1     -13.970 -18.189  27.862  1.00  0.00    -0.028 C 
ATOM      8  C   UNL     1     -13.234 -17.184  27.325  1.00  0.00    -0.070 CG0
ATOM      9  C   UNL     1     -13.937 -16.104  26.542  1.00  0.00     0.039 C 
ATOM     10  G   UNL     1     -11.741 -17.010  27.564  1.00  0.00     0.000 G0
ENDBRANCH   6   7
ENDBRANCH   5   6
ENDBRANCH   3   5
ENDBRANCH   1   3
BRANCH   1  11
ATOM     11  C   UNL     1     -11.544 -17.168  31.214  1.00  0.00     0.087 C 
BRANCH  11  12
ATOM     12  C   UNL     1     -12.312 -16.445  30.078  1.00  0.00     0.066 C 
BRANCH  12  13
ATOM     13  C   UNL     1     -11.428 -16.254  28.853  1.00  0.00     0.140 C 
ATOM     14  O   UNL     1     -10.475 -15.490  28.889  1.00  0.00    -0.299 OA
BRANCH  13  15
ATOM     15  C   UNL     1     -11.749 -16.990  27.576  1.00  0.00     0.106 CG0
ATOM     16  G   UNL     1     -13.238 -17.168  27.321  1.00  0.00     0.000 G0
ENDBRANCH  13  15
ENDBRANCH  12  13
BRANCH  12  17
ATOM     17  C   UNL     1     -13.015 -15.141  30.570  1.00  0.00    -0.006 C 
ATOM     18  C   UNL     1     -14.021 -15.431  31.695  1.00  0.00     0.008 C 
ATOM     19  C   UNL     1     -13.680 -14.312  29.457  1.00  0.00     0.008 C 
ENDBRANCH  12  17
ENDBRANCH  11  12
ENDBRANCH   1  11
TORSDOF 1
ENDMDL
MODEL 4
REMARK VINA RESULT:    -3.145      1.729      3.774
REMARK INTER + INTRA:          -4.799
REMARK INTER:                  -5.427
REMARK INTRA:                   0.628
REMARK UNBOUND:                 0.001
REMARK SMILES CC1=CCC[C@H](C)C(=O)C[C@@H](C(C)C)C(=O)C1
REMARK SMILES IDX 8 1 9 2 6 3 7 4 5 5 4 6 3 7 2 8 1 9 10 11 11 12 15 13 16 14
REMARK SMILES IDX 17 15 12 17 13 18 14 19
REMARK H PARENT
REMARK Flexibility Score: 70.00
ROOT
ATOM      1  C   UNL     1     -13.735 -14.716  28.246  1.00  0.00     0.136 C 
ATOM      2  O   UNL     1     -14.484 -14.827  27.285  1.00  0.00    -0.299 OA
ENDROOT
BRANCH   1   3
ATOM      3  C   UNL     1     -14.099 -13.762  29.368  1.00  0.00     0.053 C 
ATOM      4  C   UNL     1     -15.291 -12.885  28.960  1.00  0.00     0.016 C 
BRANCH   3   5
ATOM      5  C   UNL     1     -14.409 -14.545  30.665  1.00  0.00     0.015 C 
BRANCH   5   6
ATOM      6  C   UNL     1     -13.222 -15.432  31.089  1.00  0.00     0.028 C 
BRANCH   6   7
ATOM      7  C   UNL     1     -13.642 -16.794  31.584  1.00  0.00    -0.028 C 
ATOM      8  C   UNL     1     -13.181 -17.978  31.109  1.00  0.00    -0.070 CG0
ATOM      9  C   UNL     1     -13.641 -19.256  31.764  1.00  0.00     0.039 C 
ATOM     10  G   UNL     1     -12.311 -18.108  29.868  1.00  0.00     0.000 G0
ENDBRANCH   6   7
ENDBRANCH   5   6
ENDBRANCH   3   5
ENDBRANCH   1   3
BRANCH   1  11
ATOM     11  C   UNL     1     -12.460 -15.530  28.280  1.00  0.00     0.087 C 
BRANCH  11  12
ATOM     12  C   UNL     1     -12.625 -16.901  27.577  1.00  0.00     0.066 C 
BRANCH  12  13
ATOM     13  C   UNL     1     -13.058 -17.976  28.565  1.00  0.00     0.140 C 
ATOM     14  O   UNL     1     -14.018 -18.693  28.323  1.00  0.00    -0.299 OA
BRANCH  13  15
ATOM     15  C   UNL     1     -12.315 -18.138  29.869  1.00  0.00     0.106 CG0
ATOM     16  G   UNL     1     -13.186 -17.968  31.104  1.00  0.00     0.000 G0
ENDBRANCH  13  15
ENDBRANCH  12  13
BRANCH  12  17
ATOM     17  C   UNL     1     -11.379 -17.285  26.719  1.00  0.00    -0.006 C 
ATOM     18  C   UNL     1     -10.067 -16.986  27.460  1.00  0.00     0.008 C 
ATOM     19  C   UNL     1     -11.354 -16.663  25.311  1.00  0.00     0.008 C 
ENDBRANCH  12  17
ENDBRANCH  11  12
ENDBRANCH   1  11
TORSDOF 1
ENDMDL
MODEL 5
REMARK VINA RESULT:    -2.868      1.327      4.238
REMARK INTER + INTRA:          -4.375
REMARK INTER:                  -4.805
REMARK INTRA:                   0.430
REMARK UNBOUND:                 0.001
REMARK SMILES CC1=CCC[C@H](C)C(=O)C[C@@H](C(C)C)C(=O)C1
REMARK SMILES IDX 8 1 9 2 6 3 7 4 5 5 4 6 3 7 2 8 1 9 10 11 11 12 15 13 16 14
REMARK SMILES IDX 17 15 12 17 13 18 14 19
REMARK H PARENT
REMARK Flexibility Score: 70.00
ROOT
ATOM      1  C   UNL     1     -13.480 -18.195  30.899  1.00  0.00     0.136 C 
ATOM      2  O   UNL     1     -14.375 -18.717  30.249  1.00  0.00    -0.299 OA
ENDROOT
BRANCH   1   3
ATOM      3  C   UNL     1     -12.115 -18.855  30.955  1.00  0.00     0.053 C 
ATOM      4  C   UNL     1     -12.148 -20.076  31.885  1.00  0.00     0.016 C 
BRANCH   3   5
ATOM      5  C   UNL     1     -11.650 -19.256  29.536  1.00  0.00     0.015 C 
BRANCH   5   6
ATOM      6  C   UNL     1     -11.207 -18.027  28.716  1.00  0.00     0.028 C 
BRANCH   6   7
ATOM      7  C   UNL     1     -12.289 -17.496  27.807  1.00  0.00    -0.028 C 
ATOM      8  C   UNL     1     -12.666 -16.196  27.715  1.00  0.00    -0.070 CG0
ATOM      9  C   UNL     1     -13.712 -15.811  26.699  1.00  0.00     0.039 C 
ATOM     10  G   UNL     1     -12.182 -15.106  28.660  1.00  0.00     0.000 G0
ENDBRANCH   6   7
ENDBRANCH   5   6
ENDBRANCH   3   5
ENDBRANCH   1   3
BRANCH   1  11
ATOM     11  C   UNL     1     -13.768 -16.907  31.640  1.00  0.00     0.087 C 
BRANCH  11  12
ATOM     12  C   UNL     1     -13.741 -15.676  30.699  1.00  0.00     0.066 C 
BRANCH  12  13
ATOM     13  C   UNL     1     -12.346 -15.451  30.130  1.00  0.00     0.140 C 
ATOM     14  O   UNL     1     -11.362 -15.526  30.850  1.00  0.00    -0.299 OA
BRANCH  13  15
ATOM     15  C   UNL     1     -12.181 -15.103  28.671  1.00  0.00     0.106 CG0
ATOM     16  G   UNL     1     -12.659 -16.187  27.717  1.00  0.00     0.000 G0
ENDBRANCH  13  15
ENDBRANCH  12  13
BRANCH  12  17
ATOM     17  C   UNL     1     -14.376 -14.410  31.356  1.00  0.00    -0.006 C 
ATOM     18  C   UNL     1     -15.222 -14.774  32.585  1.00  0.00     0.008 C 
ATOM     19  C   UNL     1     -15.186 -13.526  30.391  1.00  0.00     0.008 C 
ENDBRANCH  12  17
ENDBRANCH  11  12
ENDBRANCH   1  11
TORSDOF 1
ENDMDL
MODEL 6
REMARK VINA RESULT:    -2.663      2.114      3.912
REMARK INTER + INTRA:          -4.063
REMARK INTER:                  -5.717
REMARK INTRA:                   1.654
REMARK UNBOUND:                 0.001
REMARK SMILES CC1=CCC[C@H](C)C(=O)C[C@@H](C(C)C)C(=O)C1
REMARK SMILES IDX 8 1 9 2 6 3 7 4 5 5 4 6 3 7 2 8 1 9 10 11 11 12 15 13 16 14
REMARK SMILES IDX 17 15 12 17 13 18 14 19
REMARK H PARENT
REMARK Flexibility Score: 70.00
ROOT
ATOM      1  C   UNL     1     -13.218 -15.045  28.500  1.00  0.00     0.136 C 
ATOM      2  O   UNL     1     -13.817 -14.047  28.876  1.00  0.00    -0.299 OA
ENDROOT
BRANCH   1   3
ATOM      3  C   UNL     1     -13.942 -16.073  27.651  1.00  0.00     0.053 C 
ATOM      4  C   UNL     1     -14.272 -15.490  26.269  1.00  0.00     0.016 C 
BRANCH   3   5
ATOM      5  C   UNL     1     -13.095 -17.359  27.518  1.00  0.00     0.015 C 
BRANCH   5   6
ATOM      6  C   UNL     1     -13.837 -18.587  28.084  1.00  0.00     0.028 C 
BRANCH   6   7
ATOM      7  C   UNL     1     -13.082 -19.281  29.192  1.00  0.00    -0.028 C 
ATOM      8  C   UNL     1     -13.064 -18.893  30.492  1.00  0.00    -0.070 CG0
ATOM      9  C   UNL     1     -12.323 -19.740  31.496  1.00  0.00     0.039 C 
ATOM     10  G   UNL     1     -13.651 -17.580  30.989  1.00  0.00     0.000 G0
ENDBRANCH   6   7
ENDBRANCH   5   6
ENDBRANCH   3   5
ENDBRANCH   1   3
BRANCH   1  11
ATOM     11  C   UNL     1     -11.771 -15.228  28.903  1.00  0.00     0.087 C 
BRANCH  11  12
ATOM     12  C   UNL     1     -11.596 -16.368  29.939  1.00  0.00     0.066 C 
BRANCH  12  13
ATOM     13  C   UNL     1     -12.743 -16.382  30.939  1.00  0.00     0.140 C 
ATOM     14  O   UNL     1     -12.912 -15.444  31.704  1.00  0.00    -0.299 OA
BRANCH  13  15
ATOM     15  C   UNL     1     -13.662 -17.577  31.008  1.00  0.00     0.106 CG0
ATOM     16  G   UNL     1     -13.047 -18.862  30.474  1.00  0.00     0.000 G0
ENDBRANCH  13  15
ENDBRANCH  12  13
BRANCH  12  17
ATOM     17  C   UNL     1     -10.177 -16.367  30.591  1.00  0.00    -0.006 C 
ATOM     18  C   UNL     1      -9.903 -17.673  31.350  1.00  0.00     0.008 C 
ATOM     19  C   UNL     1      -9.886 -15.152  31.490  1.00  0.00     0.008 C 
ENDBRANCH  12  17
ENDBRANCH  11  12
ENDBRANCH   1  11
TORSDOF 1
ENDMDL
MODEL 7
REMARK VINA RESULT:    -2.636      2.011      3.720
REMARK INTER + INTRA:          -4.021
REMARK INTER:                  -4.773
REMARK INTRA:                   0.752
REMARK UNBOUND:                 0.001
REMARK SMILES CC1=CCC[C@H](C)C(=O)C[C@@H](C(C)C)C(=O)C1
REMARK SMILES IDX 8 1 9 2 6 3 7 4 5 5 4 6 3 7 2 8 1 9 10 11 11 12 15 13 16 14
REMARK SMILES IDX 17 15 12 17 13 18 14 19
REMARK H PARENT
REMARK Flexibility Score: 70.00
ROOT
ATOM      1  C   UNL     1     -13.675 -14.797  30.634  1.00  0.00     0.136 C 
ATOM      2  O   UNL     1     -14.657 -14.223  30.182  1.00  0.00    -0.299 OA
ENDROOT
BRANCH   1   3
ATOM      3  C   UNL     1     -13.724 -15.361  32.042  1.00  0.00     0.053 C 
ATOM      4  C   UNL     1     -14.332 -14.336  33.009  1.00  0.00     0.016 C 
BRANCH   3   5
ATOM      5  C   UNL     1     -14.524 -16.684  32.067  1.00  0.00     0.015 C 
BRANCH   5   6
ATOM      6  C   UNL     1     -13.602 -17.907  31.892  1.00  0.00     0.028 C 
BRANCH   6   7
ATOM      7  C   UNL     1     -13.879 -18.687  30.630  1.00  0.00    -0.028 C 
ATOM      8  C   UNL     1     -12.941 -19.096  29.739  1.00  0.00    -0.070 CG0
ATOM      9  C   UNL     1     -13.369 -19.937  28.563  1.00  0.00     0.039 C 
ATOM     10  G   UNL     1     -11.484 -18.658  29.785  1.00  0.00     0.000 G0
ENDBRANCH   6   7
ENDBRANCH   5   6
ENDBRANCH   3   5
ENDBRANCH   1   3
BRANCH   1  11
ATOM     11  C   UNL     1     -12.435 -14.917  29.775  1.00  0.00     0.087 C 
BRANCH  11  12
ATOM     12  C   UNL     1     -12.352 -16.290  29.061  1.00  0.00     0.066 C 
BRANCH  12  13
ATOM     13  C   UNL     1     -11.270 -17.165  29.680  1.00  0.00     0.140 C 
ATOM     14  O   UNL     1     -10.228 -16.672  30.084  1.00  0.00    -0.299 OA
BRANCH  13  15
ATOM     15  C   UNL     1     -11.475 -18.658  29.768  1.00  0.00     0.106 CG0
ATOM     16  G   UNL     1     -12.935 -19.085  29.751  1.00  0.00     0.000 G0
ENDBRANCH  13  15
ENDBRANCH  12  13
BRANCH  12  17
ATOM     17  C   UNL     1     -12.252 -16.150  27.510  1.00  0.00    -0.006 C 
ATOM     18  C   UNL     1     -13.632 -16.250  26.843  1.00  0.00     0.008 C 
ATOM     19  C   UNL     1     -11.261 -17.119  26.841  1.00  0.00     0.008 C 
ENDBRANCH  12  17
ENDBRANCH  11  12
ENDBRANCH   1  11
TORSDOF 1
ENDMDL
MODEL 8
REMARK VINA RESULT:    -2.471      2.083      4.949
REMARK INTER + INTRA:          -3.770
REMARK INTER:                  -5.299
REMARK INTRA:                   1.529
REMARK UNBOUND:                 0.001
REMARK SMILES CC1=CCC[C@H](C)C(=O)C[C@@H](C(C)C)C(=O)C1
REMARK SMILES IDX 8 1 9 2 6 3 7 4 5 5 4 6 3 7 2 8 1 9 10 11 11 12 15 13 16 14
REMARK SMILES IDX 17 15 12 17 13 18 14 19
REMARK H PARENT
REMARK Flexibility Score: 70.00
ROOT
ATOM      1  C   UNL     1     -13.155 -16.297  27.187  1.00  0.00     0.136 C 
ATOM      2  O   UNL     1     -13.602 -15.783  26.170  1.00  0.00    -0.299 OA
ENDROOT
BRANCH   1   3
ATOM      3  C   UNL     1     -11.812 -16.999  27.139  1.00  0.00     0.053 C 
ATOM      4  C   UNL     1     -11.331 -17.140  25.688  1.00  0.00     0.016 C 
BRANCH   3   5
ATOM      5  C   UNL     1     -10.772 -16.237  27.992  1.00  0.00     0.015 C 
BRANCH   5   6
ATOM      6  C   UNL     1     -10.012 -17.185  28.941  1.00  0.00     0.028 C 
BRANCH   6   7
ATOM      7  C   UNL     1     -10.894 -18.243  29.559  1.00  0.00    -0.028 C 
ATOM      8  C   UNL     1     -11.828 -18.024  30.518  1.00  0.00    -0.070 CG0
ATOM      9  C   UNL     1     -12.685 -19.176  30.978  1.00  0.00     0.039 C 
ATOM     10  G   UNL     1     -11.989 -16.701  31.252  1.00  0.00     0.000 G0
ENDBRANCH   6   7
ENDBRANCH   5   6
ENDBRANCH   3   5
ENDBRANCH   1   3
BRANCH   1  11
ATOM     11  C   UNL     1     -13.967 -16.224  28.462  1.00  0.00     0.087 C 
BRANCH  11  12
ATOM     12  C   UNL     1     -13.334 -15.263  29.500  1.00  0.00     0.066 C 
BRANCH  12  13
ATOM     13  C   UNL     1     -13.240 -15.920  30.871  1.00  0.00     0.140 C 
ATOM     14  O   UNL     1     -14.154 -15.811  31.675  1.00  0.00    -0.299 OA
BRANCH  13  15
ATOM     15  C   UNL     1     -11.997 -16.686  31.251  1.00  0.00     0.106 CG0
ATOM     16  G   UNL     1     -11.831 -18.004  30.508  1.00  0.00     0.000 G0
ENDBRANCH  13  15
ENDBRANCH  12  13
BRANCH  12  17
ATOM     17  C   UNL     1     -14.018 -13.860  29.508  1.00  0.00    -0.006 C 
ATOM     18  C   UNL     1     -14.957 -13.695  30.713  1.00  0.00     0.008 C 
ATOM     19  C   UNL     1     -14.750 -13.497  28.204  1.00  0.00     0.008 C 
ENDBRANCH  12  17
ENDBRANCH  11  12
ENDBRANCH   1  11
TORSDOF 1
ENDMDL
MODEL 9
REMARK VINA RESULT:    -2.371      2.167      4.968
REMARK INTER + INTRA:          -3.617
REMARK INTER:                  -4.764
REMARK INTRA:                   1.147
REMARK UNBOUND:                 0.001
REMARK SMILES CC1=CCC[C@H](C)C(=O)C[C@@H](C(C)C)C(=O)C1
REMARK SMILES IDX 8 1 9 2 6 3 7 4 5 5 4 6 3 7 2 8 1 9 10 11 11 12 15 13 16 14
REMARK SMILES IDX 17 15 12 17 13 18 14 19
REMARK H PARENT
REMARK Flexibility Score: 70.00
ROOT
ATOM      1  C   UNL     1     -12.687 -17.775  28.463  1.00  0.00     0.136 C 
ATOM      2  O   UNL     1     -12.013 -18.015  27.470  1.00  0.00    -0.299 OA
ENDROOT
BRANCH   1   3
ATOM      3  C   UNL     1     -12.591 -18.691  29.668  1.00  0.00     0.053 C 
ATOM      4  C   UNL     1     -13.574 -19.863  29.529  1.00  0.00     0.016 C 
BRANCH   3   5
ATOM      5  C   UNL     1     -11.144 -19.205  29.845  1.00  0.00     0.015 C 
BRANCH   5   6
ATOM      6  C   UNL     1     -10.364 -18.360  30.872  1.00  0.00     0.028 C 
BRANCH   6   7
ATOM      7  C   UNL     1      -9.939 -17.014  30.337  1.00  0.00    -0.028 C 
ATOM      8  C   UNL     1     -10.478 -15.821  30.696  1.00  0.00    -0.070 CG0
ATOM      9  C   UNL     1      -9.889 -14.554  30.129  1.00  0.00     0.039 C 
ATOM     10  G   UNL     1     -11.728 -15.683  31.553  1.00  0.00     0.000 G0
ENDBRANCH   6   7
ENDBRANCH   5   6
ENDBRANCH   3   5
ENDBRANCH   1   3
BRANCH   1  11
ATOM     11  C   UNL     1     -13.605 -16.572  28.453  1.00  0.00     0.087 C 
BRANCH  11  12
ATOM     12  C   UNL     1     -13.046 -15.406  29.307  1.00  0.00     0.066 C 
BRANCH  12  13
ATOM     13  C   UNL     1     -13.022 -15.770  30.785  1.00  0.00     0.140 C 
ATOM     14  O   UNL     1     -14.044 -16.124  31.354  1.00  0.00    -0.299 OA
BRANCH  13  15
ATOM     15  C   UNL     1     -11.733 -15.664  31.562  1.00  0.00     0.106 CG0
ATOM     16  G   UNL     1     -10.482 -15.823  30.710  1.00  0.00     0.000 G0
ENDBRANCH  13  15
ENDBRANCH  12  13
BRANCH  12  17
ATOM     17  C   UNL     1     -13.749 -14.047  28.993  1.00  0.00    -0.006 C 
ATOM     18  C   UNL     1     -14.665 -13.605  30.144  1.00  0.00     0.008 C 
ATOM     19  C   UNL     1     -14.512 -14.014  27.657  1.00  0.00     0.008 C 
ENDBRANCH  12  17
ENDBRANCH  11  12
ENDBRANCH   1  11
TORSDOF 1
ENDMDL
