MODEL 1
REMARK VINA RESULT:    -6.046      0.000      0.000
REMARK INTER + INTRA:          -6.780
REMARK INTER:                  -7.107
REMARK INTRA:                   0.327
REMARK UNBOUND:                 0.327
REMARK SMILES O=c1c(O)c(-c2ccc(O)c(O)c2)oc2cc(O)ccc12
REMARK SMILES IDX 5 1 3 2 2 3 1 4 21 5 15 6 14 7 16 8 17 9 19 10 20 11 6 12
REMARK SMILES IDX 7 13 8 14 9 15 13 16 11 17 10 18 12 20 4 22 18 24
REMARK H PARENT 10 19 12 21 4 23 18 25
REMARK Flexibility Score: inf
ROOT
ATOM      1  C   UNL     1      19.568 -35.299 149.745  1.00  0.00     0.180 A 
ATOM      2  C   UNL     1      18.893 -34.883 148.579  1.00  0.00     0.208 A 
ATOM      3  C   UNL     1      17.565 -35.295 148.383  1.00  0.00     0.235 A 
ATOM      4  O   UNL     1      16.943 -34.946 147.343  1.00  0.00    -0.285 OA
ATOM      5  C   UNL     1      16.938 -36.089 149.357  1.00  0.00     0.069 A 
ATOM      6  C   UNL     1      17.674 -36.442 150.508  1.00  0.00     0.142 A 
ATOM      7  O   UNL     1      18.932 -36.039 150.651  1.00  0.00    -0.452 OA
ATOM      8  C   UNL     1      17.081 -37.224 151.505  1.00  0.00     0.094 A 
ATOM      9  C   UNL     1      15.759 -37.660 151.368  1.00  0.00     0.119 A 
ATOM     10  C   UNL     1      15.026 -37.312 150.226  1.00  0.00     0.047 A 
ATOM     11  C   UNL     1      15.609 -36.530 149.224  1.00  0.00     0.020 A 
ENDROOT
BRANCH   1  12
ATOM     12  C   UNL     1      20.975 -34.922 150.015  1.00  0.00     0.025 A 
ATOM     13  C   UNL     1      21.464 -34.979 151.330  1.00  0.00     0.016 A 
ATOM     14  C   UNL     1      22.794 -34.648 151.605  1.00  0.00     0.051 A 
ATOM     15  C   UNL     1      23.657 -34.271 150.568  1.00  0.00     0.157 A 
ATOM     16  C   UNL     1      21.850 -34.563 148.975  1.00  0.00     0.062 A 
ATOM     17  C   UNL     1      23.182 -34.233 149.247  1.00  0.00     0.158 A 
BRANCH  15  18
ATOM     18  O   UNL     1      24.983 -33.939 150.845  1.00  0.00    -0.504 OA
ATOM     19  H   UNL     1      25.496 -34.387 151.595  1.00  0.00     0.293 HD
ENDBRANCH  15  18
BRANCH  17  20
ATOM     20  O   UNL     1      24.020 -33.875 148.190  1.00  0.00    -0.504 OA
ATOM     21  H   UNL     1      23.730 -33.955 147.222  1.00  0.00     0.293 HD
ENDBRANCH  17  20
ENDBRANCH   1  12
BRANCH   2  22
ATOM     22  O   UNL     1      19.527 -34.053 147.651  1.00  0.00    -0.502 OA
ATOM     23  H   UNL     1      19.130 -33.169 147.354  1.00  0.00     0.293 HD
ENDBRANCH   2  22
BRANCH   9  24
ATOM     24  O   UNL     1      15.185 -38.437 152.371  1.00  0.00    -0.508 OA
ATOM     25  H   UNL     1      14.237 -38.275 152.689  1.00  0.00     0.293 HD
ENDBRANCH   9  24
TORSDOF 5
ENDMDL
MODEL 2
REMARK VINA RESULT:    -5.911     17.402     17.924
REMARK INTER + INTRA:          -6.621
REMARK INTER:                  -7.140
REMARK INTRA:                   0.520
REMARK UNBOUND:                 0.327
REMARK SMILES O=c1c(O)c(-c2ccc(O)c(O)c2)oc2cc(O)ccc12
REMARK SMILES IDX 5 1 3 2 2 3 1 4 21 5 15 6 14 7 16 8 17 9 19 10 20 11 6 12
REMARK SMILES IDX 7 13 8 14 9 15 13 16 11 17 10 18 12 20 4 22 18 24
REMARK H PARENT 10 19 12 21 4 23 18 25
REMARK Flexibility Score: inf
ROOT
ATOM      1  C   UNL     1      24.904 -52.562 149.556  1.00  0.00     0.180 A 
ATOM      2  C   UNL     1      24.989 -53.093 148.252  1.00  0.00     0.208 A 
ATOM      3  C   UNL     1      23.833 -53.631 147.665  1.00  0.00     0.235 A 
ATOM      4  O   UNL     1      23.884 -54.123 146.505  1.00  0.00    -0.285 OA
ATOM      5  C   UNL     1      22.622 -53.608 148.377  1.00  0.00     0.069 A 
ATOM      6  C   UNL     1      22.616 -53.035 149.667  1.00  0.00     0.142 A 
ATOM      7  O   UNL     1      23.734 -52.545 150.191  1.00  0.00    -0.452 OA
ATOM      8  C   UNL     1      21.427 -52.985 150.404  1.00  0.00     0.094 A 
ATOM      9  C   UNL     1      20.242 -53.500 149.868  1.00  0.00     0.119 A 
ATOM     10  C   UNL     1      20.245 -54.071 148.588  1.00  0.00     0.047 A 
ATOM     11  C   UNL     1      21.428 -54.125 147.844  1.00  0.00     0.020 A 
ENDROOT
BRANCH   1  12
ATOM     12  C   UNL     1      26.082 -51.994 150.251  1.00  0.00     0.025 A 
ATOM     13  C   UNL     1      27.273 -51.788 149.536  1.00  0.00     0.016 A 
ATOM     14  C   UNL     1      28.390 -51.234 150.166  1.00  0.00     0.051 A 
ATOM     15  C   UNL     1      28.329 -50.863 151.516  1.00  0.00     0.157 A 
ATOM     16  C   UNL     1      26.018 -51.601 151.600  1.00  0.00     0.062 A 
ATOM     17  C   UNL     1      27.135 -51.045 152.233  1.00  0.00     0.158 A 
BRANCH  15  18
ATOM     18  O   UNL     1      29.446 -50.313 152.143  1.00  0.00    -0.504 OA
ATOM     19  H   UNL     1      30.156 -49.814 151.619  1.00  0.00     0.293 HD
ENDBRANCH  15  18
BRANCH  17  20
ATOM     20  O   UNL     1      27.037 -50.673 153.574  1.00  0.00    -0.504 OA
ATOM     21  H   UNL     1      27.498 -49.847 153.939  1.00  0.00     0.293 HD
ENDBRANCH  17  20
ENDBRANCH   1  12
BRANCH   2  22
ATOM     22  O   UNL     1      26.196 -53.059 147.550  1.00  0.00    -0.502 OA
ATOM     23  H   UNL     1      27.038 -53.502 147.897  1.00  0.00     0.293 HD
ENDBRANCH   2  22
BRANCH   9  24
ATOM     24  O   UNL     1      19.069 -53.442 150.616  1.00  0.00    -0.508 OA
ATOM     25  H   UNL     1      18.843 -52.633 151.184  1.00  0.00     0.293 HD
ENDBRANCH   9  24
TORSDOF 5
ENDMDL
MODEL 3
REMARK VINA RESULT:    -5.849      1.570      7.139
REMARK INTER + INTRA:          -6.549
REMARK INTER:                  -6.683
REMARK INTRA:                   0.134
REMARK UNBOUND:                 0.327
REMARK SMILES O=c1c(O)c(-c2ccc(O)c(O)c2)oc2cc(O)ccc12
REMARK SMILES IDX 5 1 3 2 2 3 1 4 21 5 15 6 14 7 16 8 17 9 19 10 20 11 6 12
REMARK SMILES IDX 7 13 8 14 9 15 13 16 11 17 10 18 12 20 4 22 18 24
REMARK H PARENT 10 19 12 21 4 23 18 25
REMARK Flexibility Score: inf
ROOT
ATOM      1  C   UNL     1      19.000 -35.504 150.715  1.00  0.00     0.180 A 
ATOM      2  C   UNL     1      19.524 -34.997 151.923  1.00  0.00     0.208 A 
ATOM      3  C   UNL     1      20.822 -34.462 151.925  1.00  0.00     0.235 A 
ATOM      4  O   UNL     1      21.318 -34.012 152.994  1.00  0.00    -0.285 OA
ATOM      5  C   UNL     1      21.556 -34.425 150.728  1.00  0.00     0.069 A 
ATOM      6  C   UNL     1      20.951 -34.929 149.557  1.00  0.00     0.142 A 
ATOM      7  O   UNL     1      19.723 -35.436 149.599  1.00  0.00    -0.452 OA
ATOM      8  C   UNL     1      21.646 -34.901 148.342  1.00  0.00     0.094 A 
ATOM      9  C   UNL     1      22.940 -34.375 148.282  1.00  0.00     0.119 A 
ATOM     10  C   UNL     1      23.545 -33.875 149.443  1.00  0.00     0.047 A 
ATOM     11  C   UNL     1      22.858 -33.897 150.661  1.00  0.00     0.020 A 
ENDROOT
BRANCH   1  12
ATOM     12  C   UNL     1      17.648 -36.101 150.635  1.00  0.00     0.025 A 
ATOM     13  C   UNL     1      16.873 -35.904 149.480  1.00  0.00     0.016 A 
ATOM     14  C   UNL     1      15.603 -36.476 149.374  1.00  0.00     0.051 A 
ATOM     15  C   UNL     1      15.094 -37.264 150.414  1.00  0.00     0.157 A 
ATOM     16  C   UNL     1      17.142 -36.910 151.667  1.00  0.00     0.062 A 
ATOM     17  C   UNL     1      15.870 -37.485 151.564  1.00  0.00     0.158 A 
BRANCH  15  18
ATOM     18  O   UNL     1      13.825 -37.832 150.307  1.00  0.00    -0.504 OA
ATOM     19  H   UNL     1      13.056 -37.526 150.892  1.00  0.00     0.293 HD
ENDBRANCH  15  18
BRANCH  17  20
ATOM     20  O   UNL     1      15.398 -38.277 152.611  1.00  0.00    -0.504 OA
ATOM     21  H   UNL     1      15.063 -39.222 152.462  1.00  0.00     0.293 HD
ENDBRANCH  17  20
ENDBRANCH   1  12
BRANCH   2  22
ATOM     22  O   UNL     1      18.753 -35.002 153.087  1.00  0.00    -0.502 OA
ATOM     23  H   UNL     1      18.487 -34.150 153.565  1.00  0.00     0.293 HD
ENDBRANCH   2  22
BRANCH   9  24
ATOM     24  O   UNL     1      23.617 -34.356 147.065  1.00  0.00    -0.508 OA
ATOM     25  H   UNL     1      24.461 -34.897 146.920  1.00  0.00     0.293 HD
ENDBRANCH   9  24
TORSDOF 5
ENDMDL
MODEL 4
REMARK VINA RESULT:    -5.768     17.333     19.038
REMARK INTER + INTRA:          -6.453
REMARK INTER:                  -6.780
REMARK INTRA:                   0.327
REMARK UNBOUND:                 0.327
REMARK SMILES O=c1c(O)c(-c2ccc(O)c(O)c2)oc2cc(O)ccc12
REMARK SMILES IDX 5 1 3 2 2 3 1 4 21 5 15 6 14 7 16 8 17 9 19 10 20 11 6 12
REMARK SMILES IDX 7 13 8 14 9 15 13 16 11 17 10 18 12 20 4 22 18 24
REMARK H PARENT 10 19 12 21 4 23 18 25
REMARK Flexibility Score: inf
ROOT
ATOM      1  C   UNL     1      24.000 -52.913 149.655  1.00  0.00     0.180 A 
ATOM      2  C   UNL     1      24.836 -53.335 148.600  1.00  0.00     0.208 A 
ATOM      3  C   UNL     1      26.191 -52.970 148.623  1.00  0.00     0.235 A 
ATOM      4  O   UNL     1      26.956 -53.325 147.686  1.00  0.00    -0.285 OA
ATOM      5  C   UNL     1      26.684 -52.216 149.700  1.00  0.00     0.069 A 
ATOM      6  C   UNL     1      25.789 -51.855 150.730  1.00  0.00     0.142 A 
ATOM      7  O   UNL     1      24.511 -52.212 150.665  1.00  0.00    -0.452 OA
ATOM      8  C   UNL     1      26.245 -51.111 151.825  1.00  0.00     0.094 A 
ATOM      9  C   UNL     1      27.586 -50.724 151.905  1.00  0.00     0.119 A 
ATOM     10  C   UNL     1      28.478 -51.079 150.884  1.00  0.00     0.047 A 
ATOM     11  C   UNL     1      28.032 -51.823 149.786  1.00  0.00     0.020 A 
ENDROOT
BRANCH   1  12
ATOM     12  C   UNL     1      22.557 -53.241 149.694  1.00  0.00     0.025 A 
ATOM     13  C   UNL     1      21.871 -53.197 150.918  1.00  0.00     0.016 A 
ATOM     14  C   UNL     1      20.504 -53.482 150.975  1.00  0.00     0.051 A 
ATOM     15  C   UNL     1      19.800 -53.800 149.806  1.00  0.00     0.157 A 
ATOM     16  C   UNL     1      21.842 -53.541 148.521  1.00  0.00     0.062 A 
ATOM     17  C   UNL     1      20.473 -53.826 148.574  1.00  0.00     0.158 A 
BRANCH  15  18
ATOM     18  O   UNL     1      18.437 -54.087 149.866  1.00  0.00    -0.504 OA
ATOM     19  H   UNL     1      17.891 -53.896 150.698  1.00  0.00     0.293 HD
ENDBRANCH  15  18
BRANCH  17  20
ATOM     20  O   UNL     1      19.797 -54.125 147.390  1.00  0.00    -0.504 OA
ATOM     21  H   UNL     1      19.838 -55.044 146.965  1.00  0.00     0.293 HD
ENDBRANCH  17  20
ENDBRANCH   1  12
BRANCH   2  22
ATOM     22  O   UNL     1      24.327 -54.125 147.567  1.00  0.00    -0.502 OA
ATOM     23  H   UNL     1      23.442 -54.612 147.641  1.00  0.00     0.293 HD
ENDBRANCH   2  22
BRANCH   9  24
ATOM     24  O   UNL     1      28.022 -49.984 153.002  1.00  0.00    -0.508 OA
ATOM     25  H   UNL     1      28.542 -49.122 152.886  1.00  0.00     0.293 HD
ENDBRANCH   9  24
TORSDOF 5
ENDMDL
MODEL 5
REMARK VINA RESULT:    -5.216      9.233     12.599
REMARK INTER + INTRA:          -5.804
REMARK INTER:                  -5.485
REMARK INTRA:                  -0.319
REMARK UNBOUND:                 0.327
REMARK SMILES O=c1c(O)c(-c2ccc(O)c(O)c2)oc2cc(O)ccc12
REMARK SMILES IDX 5 1 3 2 2 3 1 4 21 5 15 6 14 7 16 8 17 9 19 10 20 11 6 12
REMARK SMILES IDX 7 13 8 14 9 15 13 16 11 17 10 18 12 20 4 22 18 24
REMARK H PARENT 10 19 12 21 4 23 18 25
REMARK Flexibility Score: inf
ROOT
ATOM      1  C   UNL     1      18.178 -37.391 160.652  1.00  0.00     0.180 A 
ATOM      2  C   UNL     1      19.038 -38.291 161.316  1.00  0.00     0.208 A 
ATOM      3  C   UNL     1      20.281 -38.591 160.736  1.00  0.00     0.235 A 
ATOM      4  O   UNL     1      21.063 -39.402 161.304  1.00  0.00    -0.285 OA
ATOM      5  C   UNL     1      20.645 -37.977 159.527  1.00  0.00     0.069 A 
ATOM      6  C   UNL     1      19.740 -37.068 158.939  1.00  0.00     0.142 A 
ATOM      7  O   UNL     1      18.569 -36.818 159.515  1.00  0.00    -0.452 OA
ATOM      8  C   UNL     1      20.070 -36.428 157.739  1.00  0.00     0.094 A 
ATOM      9  C   UNL     1      21.297 -36.683 157.118  1.00  0.00     0.119 A 
ATOM     10  C   UNL     1      22.198 -37.586 157.698  1.00  0.00     0.047 A 
ATOM     11  C   UNL     1      21.877 -38.230 158.897  1.00  0.00     0.020 A 
ENDROOT
BRANCH   1  12
ATOM     12  C   UNL     1      16.844 -37.038 161.189  1.00  0.00     0.025 A 
ATOM     13  C   UNL     1      16.684 -35.843 161.908  1.00  0.00     0.016 A 
ATOM     14  C   UNL     1      15.430 -35.479 162.405  1.00  0.00     0.051 A 
ATOM     15  C   UNL     1      14.315 -36.297 162.178  1.00  0.00     0.157 A 
ATOM     16  C   UNL     1      15.719 -37.846 160.945  1.00  0.00     0.062 A 
ATOM     17  C   UNL     1      14.462 -37.484 161.441  1.00  0.00     0.158 A 
BRANCH  15  18
ATOM     18  O   UNL     1      13.065 -35.933 162.678  1.00  0.00    -0.504 OA
ATOM     19  H   UNL     1      12.903 -35.021 163.088  1.00  0.00     0.293 HD
ENDBRANCH  15  18
BRANCH  17  20
ATOM     20  O   UNL     1      13.369 -38.312 161.185  1.00  0.00    -0.504 OA
ATOM     21  H   UNL     1      13.284 -38.842 160.325  1.00  0.00     0.293 HD
ENDBRANCH  17  20
ENDBRANCH   1  12
BRANCH   2  22
ATOM     22  O   UNL     1      18.669 -38.850 162.541  1.00  0.00    -0.502 OA
ATOM     23  H   UNL     1      19.317 -39.376 163.115  1.00  0.00     0.293 HD
ENDBRANCH   2  22
BRANCH   9  24
ATOM     24  O   UNL     1      21.610 -36.037 155.924  1.00  0.00    -0.508 OA
ATOM     25  H   UNL     1      22.386 -35.388 155.861  1.00  0.00     0.293 HD
ENDBRANCH   9  24
TORSDOF 5
ENDMDL
MODEL 6
REMARK VINA RESULT:    -5.100      9.458     12.609
REMARK INTER + INTRA:          -5.668
REMARK INTER:                  -5.485
REMARK INTRA:                  -0.183
REMARK UNBOUND:                 0.327
REMARK SMILES O=c1c(O)c(-c2ccc(O)c(O)c2)oc2cc(O)ccc12
REMARK SMILES IDX 5 1 3 2 2 3 1 4 21 5 15 6 14 7 16 8 17 9 19 10 20 11 6 12
REMARK SMILES IDX 7 13 8 14 9 15 13 16 11 17 10 18 12 20 4 22 18 24
REMARK H PARENT 10 19 12 21 4 23 18 25
REMARK Flexibility Score: inf
ROOT
ATOM      1  C   UNL     1      17.310 -37.026 160.452  1.00  0.00     0.180 A 
ATOM      2  C   UNL     1      17.686 -36.141 159.420  1.00  0.00     0.208 A 
ATOM      3  C   UNL     1      18.941 -36.307 158.812  1.00  0.00     0.235 A 
ATOM      4  O   UNL     1      19.306 -35.523 157.894  1.00  0.00    -0.285 OA
ATOM      5  C   UNL     1      19.777 -37.356 159.228  1.00  0.00     0.069 A 
ATOM      6  C   UNL     1      19.316 -38.213 160.250  1.00  0.00     0.142 A 
ATOM      7  O   UNL     1      18.126 -38.017 160.807  1.00  0.00    -0.452 OA
ATOM      8  C   UNL     1      20.116 -39.276 160.686  1.00  0.00     0.094 A 
ATOM      9  C   UNL     1      21.373 -39.494 160.113  1.00  0.00     0.119 A 
ATOM     10  C   UNL     1      21.834 -38.644 159.099  1.00  0.00     0.047 A 
ATOM     11  C   UNL     1      21.042 -37.580 158.656  1.00  0.00     0.020 A 
ENDROOT
BRANCH   1  12
ATOM     12  C   UNL     1      16.012 -36.905 161.156  1.00  0.00     0.025 A 
ATOM     13  C   UNL     1      15.766 -35.783 161.962  1.00  0.00     0.016 A 
ATOM     14  C   UNL     1      14.541 -35.638 162.618  1.00  0.00     0.051 A 
ATOM     15  C   UNL     1      13.539 -36.605 162.466  1.00  0.00     0.157 A 
ATOM     16  C   UNL     1      14.997 -37.863 160.989  1.00  0.00     0.062 A 
ATOM     17  C   UNL     1      13.768 -37.720 161.644  1.00  0.00     0.158 A 
BRANCH  15  18
ATOM     18  O   UNL     1      12.318 -36.459 163.124  1.00  0.00    -0.504 OA
ATOM     19  H   UNL     1      11.728 -37.257 163.329  1.00  0.00     0.293 HD
ENDBRANCH  15  18
BRANCH  17  20
ATOM     20  O   UNL     1      12.786 -38.693 161.459  1.00  0.00    -0.504 OA
ATOM     21  H   UNL     1      12.900 -39.457 160.803  1.00  0.00     0.293 HD
ENDBRANCH  17  20
ENDBRANCH   1  12
BRANCH   2  22
ATOM     22  O   UNL     1      16.814 -35.138 158.994  1.00  0.00    -0.502 OA
ATOM     23  H   UNL     1      16.101 -35.300 158.292  1.00  0.00     0.293 HD
ENDBRANCH   2  22
BRANCH   9  24
ATOM     24  O   UNL     1      22.155 -40.556 160.559  1.00  0.00    -0.508 OA
ATOM     25  H   UNL     1      21.789 -41.501 160.606  1.00  0.00     0.293 HD
ENDBRANCH   9  24
TORSDOF 5
ENDMDL
MODEL 7
REMARK VINA RESULT:    -5.049      9.065     10.954
REMARK INTER + INTRA:          -5.607
REMARK INTER:                  -5.534
REMARK INTRA:                  -0.074
REMARK UNBOUND:                 0.327
REMARK SMILES O=c1c(O)c(-c2ccc(O)c(O)c2)oc2cc(O)ccc12
REMARK SMILES IDX 5 1 3 2 2 3 1 4 21 5 15 6 14 7 16 8 17 9 19 10 20 11 6 12
REMARK SMILES IDX 7 13 8 14 9 15 13 16 11 17 10 18 12 20 4 22 18 24
REMARK H PARENT 10 19 12 21 4 23 18 25
REMARK Flexibility Score: inf
ROOT
ATOM      1  C   UNL     1      18.527 -37.383 160.044  1.00  0.00     0.180 A 
ATOM      2  C   UNL     1      19.121 -38.086 161.113  1.00  0.00     0.208 A 
ATOM      3  C   UNL     1      18.301 -38.554 162.152  1.00  0.00     0.235 A 
ATOM      4  O   UNL     1      18.809 -39.175 163.125  1.00  0.00    -0.285 OA
ATOM      5  C   UNL     1      16.916 -38.331 162.093  1.00  0.00     0.069 A 
ATOM      6  C   UNL     1      16.396 -37.642 160.976  1.00  0.00     0.142 A 
ATOM      7  O   UNL     1      17.207 -37.206 160.018  1.00  0.00    -0.452 OA
ATOM      8  C   UNL     1      15.020 -37.409 160.876  1.00  0.00     0.094 A 
ATOM      9  C   UNL     1      14.154 -37.856 161.878  1.00  0.00     0.119 A 
ATOM     10  C   UNL     1      14.666 -38.541 162.989  1.00  0.00     0.047 A 
ATOM     11  C   UNL     1      16.040 -38.779 163.098  1.00  0.00     0.020 A 
ENDROOT
BRANCH   1  12
ATOM     12  C   UNL     1      19.325 -36.841 158.920  1.00  0.00     0.025 A 
ATOM     13  C   UNL     1      19.311 -35.460 158.666  1.00  0.00     0.016 A 
ATOM     14  C   UNL     1      20.072 -34.924 157.624  1.00  0.00     0.051 A 
ATOM     15  C   UNL     1      20.871 -35.759 156.831  1.00  0.00     0.157 A 
ATOM     16  C   UNL     1      20.143 -37.672 158.135  1.00  0.00     0.062 A 
ATOM     17  C   UNL     1      20.908 -37.138 157.092  1.00  0.00     0.158 A 
BRANCH  15  18
ATOM     18  O   UNL     1      21.628 -35.222 155.791  1.00  0.00    -0.504 OA
ATOM     19  H   UNL     1      22.230 -35.802 155.218  1.00  0.00     0.293 HD
ENDBRANCH  15  18
BRANCH  17  20
ATOM     20  O   UNL     1      21.705 -37.994 156.330  1.00  0.00    -0.504 OA
ATOM     21  H   UNL     1      21.323 -38.561 155.582  1.00  0.00     0.293 HD
ENDBRANCH  17  20
ENDBRANCH   1  12
BRANCH   2  22
ATOM     22  O   UNL     1      20.495 -38.334 161.120  1.00  0.00    -0.502 OA
ATOM     23  H   UNL     1      20.902 -39.118 161.618  1.00  0.00     0.293 HD
ENDBRANCH   2  22
BRANCH   9  24
ATOM     24  O   UNL     1      12.787 -37.616 161.762  1.00  0.00    -0.508 OA
ATOM     25  H   UNL     1      12.378 -36.736 162.054  1.00  0.00     0.293 HD
ENDBRANCH   9  24
TORSDOF 5
ENDMDL
MODEL 8
REMARK VINA RESULT:    -5.019     18.450     19.940
REMARK INTER + INTRA:          -5.573
REMARK INTER:                  -5.616
REMARK INTRA:                   0.044
REMARK UNBOUND:                 0.327
REMARK SMILES O=c1c(O)c(-c2ccc(O)c(O)c2)oc2cc(O)ccc12
REMARK SMILES IDX 5 1 3 2 2 3 1 4 21 5 15 6 14 7 16 8 17 9 19 10 20 11 6 12
REMARK SMILES IDX 7 13 8 14 9 15 13 16 11 17 10 18 12 20 4 22 18 24
REMARK H PARENT 10 19 12 21 4 23 18 25
REMARK Flexibility Score: inf
ROOT
ATOM      1  C   UNL     1      24.518 -51.895 160.168  1.00  0.00     0.180 A 
ATOM      2  C   UNL     1      24.150 -52.695 159.065  1.00  0.00     0.208 A 
ATOM      3  C   UNL     1      22.962 -52.396 158.381  1.00  0.00     0.235 A 
ATOM      4  O   UNL     1      22.605 -53.102 157.399  1.00  0.00    -0.285 OA
ATOM      5  C   UNL     1      22.183 -51.302 158.793  1.00  0.00     0.069 A 
ATOM      6  C   UNL     1      22.634 -50.537 159.890  1.00  0.00     0.142 A 
ATOM      7  O   UNL     1      23.760 -50.858 160.517  1.00  0.00    -0.452 OA
ATOM      8  C   UNL     1      21.891 -49.433 160.325  1.00  0.00     0.094 A 
ATOM      9  C   UNL     1      20.701 -49.084 159.678  1.00  0.00     0.119 A 
ATOM     10  C   UNL     1      20.250 -49.843 158.590  1.00  0.00     0.047 A 
ATOM     11  C   UNL     1      20.986 -50.946 158.147  1.00  0.00     0.020 A 
ENDROOT
BRANCH   1  12
ATOM     12  C   UNL     1      25.746 -52.157 160.953  1.00  0.00     0.025 A 
ATOM     13  C   UNL     1      26.015 -53.461 161.400  1.00  0.00     0.016 A 
ATOM     14  C   UNL     1      27.178 -53.735 162.124  1.00  0.00     0.051 A 
ATOM     15  C   UNL     1      28.096 -52.713 162.399  1.00  0.00     0.157 A 
ATOM     16  C   UNL     1      26.680 -51.139 161.214  1.00  0.00     0.062 A 
ATOM     17  C   UNL     1      27.847 -51.411 161.938  1.00  0.00     0.158 A 
BRANCH  15  18
ATOM     18  O   UNL     1      29.255 -52.989 163.125  1.00  0.00    -0.504 OA
ATOM     19  H   UNL     1      29.439 -53.913 163.499  1.00  0.00     0.293 HD
ENDBRANCH  15  18
BRANCH  17  20
ATOM     20  O   UNL     1      28.748 -50.374 162.183  1.00  0.00    -0.504 OA
ATOM     21  H   UNL     1      28.481 -49.536 162.687  1.00  0.00     0.293 HD
ENDBRANCH  17  20
ENDBRANCH   1  12
BRANCH   2  22
ATOM     22  O   UNL     1      24.969 -53.746 158.648  1.00  0.00    -0.502 OA
ATOM     23  H   UNL     1      24.770 -54.293 157.819  1.00  0.00     0.293 HD
ENDBRANCH   2  22
BRANCH   9  24
ATOM     24  O   UNL     1      19.974 -47.983 160.125  1.00  0.00    -0.508 OA
ATOM     25  H   UNL     1      20.403 -47.070 160.221  1.00  0.00     0.293 HD
ENDBRANCH   9  24
TORSDOF 5
ENDMDL
