MODEL 1
REMARK VINA RESULT:    -4.241      0.000      0.000
REMARK INTER + INTRA:          -5.771
REMARK INTER:                  -5.480
REMARK INTRA:                  -0.291
REMARK UNBOUND:                -0.291
REMARK SMILES CCCCCCC(=O)[O-]
REMARK SMILES IDX 5 1 6 2 7 3 8 4 9 5 4 6 3 7 2 8 1 9
REMARK H PARENT
REMARK Flexibility Score: inf
ROOT
ATOM      1  C   UNL     1       5.357  16.007  -8.075  1.00  0.00     0.006 C 
ENDROOT
BRANCH   1   2
ATOM      2  C   UNL     1       6.659  15.202  -8.062  1.00  0.00     0.053 C 
BRANCH   2   3
ATOM      3  C   UNL     1       7.833  16.102  -8.282  1.00  0.00     0.041 C 
ATOM      4  O   UNL     1       8.692  15.821  -9.161  1.00  0.00    -0.550 OA
ATOM      5  O   UNL     1       7.956  17.277  -7.551  1.00  0.00    -0.550 OA
ENDBRANCH   2   3
ENDBRANCH   1   2
BRANCH   1   6
ATOM      6  C   UNL     1       4.396  15.520  -6.984  1.00  0.00     0.000 C 
BRANCH   6   7
ATOM      7  C   UNL     1       3.936  16.684  -6.095  1.00  0.00    -0.000 C 
BRANCH   7   8
ATOM      8  C   UNL     1       4.890  17.888  -6.158  1.00  0.00    -0.003 C 
ATOM      9  C   UNL     1       5.809  17.978  -4.939  1.00  0.00     0.004 C 
ENDBRANCH   7   8
ENDBRANCH   6   7
ENDBRANCH   1   6
TORSDOF 5
ENDMDL
MODEL 2
REMARK VINA RESULT:    -3.973      1.514      3.471
REMARK INTER + INTRA:          -5.425
REMARK INTER:                  -5.025
REMARK INTRA:                  -0.400
REMARK UNBOUND:                -0.291
REMARK SMILES CCCCCCC(=O)[O-]
REMARK SMILES IDX 5 1 6 2 7 3 8 4 9 5 4 6 3 7 2 8 1 9
REMARK H PARENT
REMARK Flexibility Score: inf
ROOT
ATOM      1  C   UNL     1       4.100  16.447  -6.473  1.00  0.00     0.006 C 
ENDROOT
BRANCH   1   2
ATOM      2  C   UNL     1       4.848  17.667  -7.017  1.00  0.00     0.053 C 
BRANCH   2   3
ATOM      3  C   UNL     1       6.134  17.863  -6.281  1.00  0.00     0.041 C 
ATOM      4  O   UNL     1       6.131  18.338  -5.114  1.00  0.00    -0.550 OA
ATOM      5  O   UNL     1       7.336  17.478  -6.863  1.00  0.00    -0.550 OA
ENDBRANCH   2   3
ENDBRANCH   1   2
BRANCH   1   6
ATOM      6  C   UNL     1       4.516  15.170  -7.213  1.00  0.00     0.000 C 
BRANCH   6   7
ATOM      7  C   UNL     1       4.874  15.473  -8.676  1.00  0.00    -0.000 C 
BRANCH   7   8
ATOM      8  C   UNL     1       6.234  14.886  -9.085  1.00  0.00    -0.003 C 
ATOM      9  C   UNL     1       6.929  14.151  -7.939  1.00  0.00     0.004 C 
ENDBRANCH   7   8
ENDBRANCH   6   7
ENDBRANCH   1   6
TORSDOF 5
ENDMDL
MODEL 3
REMARK VINA RESULT:    -3.963     11.545     13.228
REMARK INTER + INTRA:          -5.412
REMARK INTER:                  -5.160
REMARK INTRA:                  -0.253
REMARK UNBOUND:                -0.291
REMARK SMILES CCCCCCC(=O)[O-]
REMARK SMILES IDX 5 1 6 2 7 3 8 4 9 5 4 6 3 7 2 8 1 9
REMARK H PARENT
REMARK Flexibility Score: inf
ROOT
ATOM      1  C   UNL     1      17.372  20.786 -12.941  1.00  0.00     0.006 C 
ENDROOT
BRANCH   1   2
ATOM      2  C   UNL     1      16.107  20.526 -12.119  1.00  0.00     0.053 C 
BRANCH   2   3
ATOM      3  C   UNL     1      15.187  21.703 -12.188  1.00  0.00     0.041 C 
ATOM      4  O   UNL     1      15.498  22.711 -12.877  1.00  0.00    -0.550 OA
ATOM      5  O   UNL     1      13.964  21.670 -11.531  1.00  0.00    -0.550 OA
ENDBRANCH   2   3
ENDBRANCH   1   2
BRANCH   1   6
ATOM      6  C   UNL     1      17.829  19.514 -13.666  1.00  0.00     0.000 C 
BRANCH   6   7
ATOM      7  C   UNL     1      19.126  18.966 -13.052  1.00  0.00    -0.000 C 
BRANCH   7   8
ATOM      8  C   UNL     1      18.865  17.968 -11.914  1.00  0.00    -0.003 C 
ATOM      9  C   UNL     1      19.394  18.458 -10.566  1.00  0.00     0.004 C 
ENDBRANCH   7   8
ENDBRANCH   6   7
ENDBRANCH   1   6
TORSDOF 5
ENDMDL
MODEL 4
REMARK VINA RESULT:    -3.956     11.430     13.067
REMARK INTER + INTRA:          -5.403
REMARK INTER:                  -5.237
REMARK INTRA:                  -0.166
REMARK UNBOUND:                -0.291
REMARK SMILES CCCCCCC(=O)[O-]
REMARK SMILES IDX 5 1 6 2 7 3 8 4 9 5 4 6 3 7 2 8 1 9
REMARK H PARENT
REMARK Flexibility Score: inf
ROOT
ATOM      1  C   UNL     1      16.697  20.959 -12.435  1.00  0.00     0.006 C 
ENDROOT
BRANCH   1   2
ATOM      2  C   UNL     1      15.926  22.201 -12.890  1.00  0.00     0.053 C 
BRANCH   2   3
ATOM      3  C   UNL     1      14.690  22.380 -12.067  1.00  0.00     0.041 C 
ATOM      4  O   UNL     1      14.037  21.376 -11.676  1.00  0.00    -0.550 OA
ATOM      5  O   UNL     1      14.284  23.654 -11.690  1.00  0.00    -0.550 OA
ENDBRANCH   2   3
ENDBRANCH   1   2
BRANCH   1   6
ATOM      6  C   UNL     1      17.788  20.587 -13.447  1.00  0.00     0.000 C 
BRANCH   6   7
ATOM      7  C   UNL     1      18.743  19.535 -12.864  1.00  0.00    -0.000 C 
BRANCH   7   8
ATOM      8  C   UNL     1      18.193  18.881 -11.586  1.00  0.00    -0.003 C 
ATOM      9  C   UNL     1      19.298  18.431 -10.630  1.00  0.00     0.004 C 
ENDBRANCH   7   8
ENDBRANCH   6   7
ENDBRANCH   1   6
TORSDOF 5
ENDMDL
MODEL 5
REMARK VINA RESULT:    -3.914     12.873     13.943
REMARK INTER + INTRA:          -5.349
REMARK INTER:                  -5.069
REMARK INTRA:                  -0.280
REMARK UNBOUND:                -0.291
REMARK SMILES CCCCCCC(=O)[O-]
REMARK SMILES IDX 5 1 6 2 7 3 8 4 9 5 4 6 3 7 2 8 1 9
REMARK H PARENT
REMARK Flexibility Score: inf
ROOT
ATOM      1  C   UNL     1      18.125  18.998 -13.678  1.00  0.00     0.006 C 
ENDROOT
BRANCH   1   2
ATOM      2  C   UNL     1      18.123  20.514 -13.460  1.00  0.00     0.053 C 
BRANCH   2   3
ATOM      3  C   UNL     1      16.968  20.916 -12.599  1.00  0.00     0.041 C 
ATOM      4  O   UNL     1      16.675  20.243 -11.575  1.00  0.00    -0.550 OA
ATOM      5  O   UNL     1      16.243  22.063 -12.899  1.00  0.00    -0.550 OA
ENDBRANCH   2   3
ENDBRANCH   1   2
BRANCH   1   6
ATOM      6  C   UNL     1      19.401  18.363 -13.113  1.00  0.00     0.000 C 
BRANCH   6   7
ATOM      7  C   UNL     1      19.109  17.606 -11.808  1.00  0.00    -0.000 C 
BRANCH   7   8
ATOM      8  C   UNL     1      19.578  18.374 -10.563  1.00  0.00    -0.003 C 
ATOM      9  C   UNL     1      20.895  17.838 -10.000  1.00  0.00     0.004 C 
ENDBRANCH   7   8
ENDBRANCH   6   7
ENDBRANCH   1   6
TORSDOF 5
ENDMDL
MODEL 6
REMARK VINA RESULT:    -3.902     11.467     13.399
REMARK INTER + INTRA:          -5.333
REMARK INTER:                  -5.081
REMARK INTRA:                  -0.252
REMARK UNBOUND:                -0.291
REMARK SMILES CCCCCCC(=O)[O-]
REMARK SMILES IDX 5 1 6 2 7 3 8 4 9 5 4 6 3 7 2 8 1 9
REMARK H PARENT
REMARK Flexibility Score: inf
ROOT
ATOM      1  C   UNL     1      18.108  18.965 -13.017  1.00  0.00     0.006 C 
ENDROOT
BRANCH   1   2
ATOM      2  C   UNL     1      19.441  18.401 -12.516  1.00  0.00     0.053 C 
BRANCH   2   3
ATOM      3  C   UNL     1      19.453  18.336 -11.022  1.00  0.00     0.041 C 
ATOM      4  O   UNL     1      18.468  18.757 -10.360  1.00  0.00    -0.550 OA
ATOM      5  O   UNL     1      20.534  17.766 -10.359  1.00  0.00    -0.550 OA
ENDBRANCH   2   3
ENDBRANCH   1   2
BRANCH   1   6
ATOM      6  C   UNL     1      18.264  20.420 -13.476  1.00  0.00     0.000 C 
BRANCH   6   7
ATOM      7  C   UNL     1      17.032  21.253 -13.091  1.00  0.00    -0.000 C 
BRANCH   7   8
ATOM      8  C   UNL     1      16.073  20.494 -12.160  1.00  0.00    -0.003 C 
ATOM      9  C   UNL     1      14.813  21.294 -11.831  1.00  0.00     0.004 C 
ENDBRANCH   7   8
ENDBRANCH   6   7
ENDBRANCH   1   6
TORSDOF 5
ENDMDL
MODEL 7
REMARK VINA RESULT:    -3.806     12.054     12.982
REMARK INTER + INTRA:          -5.209
REMARK INTER:                  -5.040
REMARK INTRA:                  -0.169
REMARK UNBOUND:                -0.291
REMARK SMILES CCCCCCC(=O)[O-]
REMARK SMILES IDX 5 1 6 2 7 3 8 4 9 5 4 6 3 7 2 8 1 9
REMARK H PARENT
REMARK Flexibility Score: inf
ROOT
ATOM      1  C   UNL     1      17.345  19.562 -13.168  1.00  0.00     0.006 C 
ENDROOT
BRANCH   1   2
ATOM      2  C   UNL     1      18.793  19.234 -12.795  1.00  0.00     0.053 C 
BRANCH   2   3
ATOM      3  C   UNL     1      18.834  18.296 -11.630  1.00  0.00     0.041 C 
ATOM      4  O   UNL     1      19.088  17.075 -11.807  1.00  0.00    -0.550 OA
ATOM      5  O   UNL     1      18.640  18.778 -10.342  1.00  0.00    -0.550 OA
ENDBRANCH   2   3
ENDBRANCH   1   2
BRANCH   1   6
ATOM      6  C   UNL     1      17.000  21.013 -12.812  1.00  0.00     0.000 C 
BRANCH   6   7
ATOM      7  C   UNL     1      15.631  21.099 -12.121  1.00  0.00    -0.000 C 
BRANCH   7   8
ATOM      8  C   UNL     1      14.957  22.466 -12.316  1.00  0.00    -0.003 C 
ATOM      9  C   UNL     1      15.481  23.215 -13.542  1.00  0.00     0.004 C 
ENDBRANCH   7   8
ENDBRANCH   6   7
ENDBRANCH   1   6
TORSDOF 5
ENDMDL
MODEL 8
REMARK VINA RESULT:    -3.708     11.070     12.157
REMARK INTER + INTRA:          -5.082
REMARK INTER:                  -4.907
REMARK INTRA:                  -0.175
REMARK UNBOUND:                -0.291
REMARK SMILES CCCCCCC(=O)[O-]
REMARK SMILES IDX 5 1 6 2 7 3 8 4 9 5 4 6 3 7 2 8 1 9
REMARK H PARENT
REMARK Flexibility Score: inf
ROOT
ATOM      1  C   UNL     1      16.661  21.582 -12.896  1.00  0.00     0.006 C 
ENDROOT
BRANCH   1   2
ATOM      2  C   UNL     1      16.334  20.261 -12.193  1.00  0.00     0.053 C 
BRANCH   2   3
ATOM      3  C   UNL     1      17.543  19.383 -12.141  1.00  0.00     0.041 C 
ATOM      4  O   UNL     1      18.024  19.031 -11.030  1.00  0.00    -0.550 OA
ATOM      5  O   UNL     1      18.113  18.912 -13.317  1.00  0.00    -0.550 OA
ENDBRANCH   2   3
ENDBRANCH   1   2
BRANCH   1   6
ATOM      6  C   UNL     1      15.515  22.588 -12.740  1.00  0.00     0.000 C 
BRANCH   6   7
ATOM      7  C   UNL     1      14.306  21.942 -12.046  1.00  0.00    -0.000 C 
BRANCH   7   8
ATOM      8  C   UNL     1      12.966  22.428 -12.621  1.00  0.00    -0.003 C 
ATOM      9  C   UNL     1      12.895  23.949 -12.751  1.00  0.00     0.004 C 
ENDBRANCH   7   8
ENDBRANCH   6   7
ENDBRANCH   1   6
TORSDOF 5
ENDMDL
MODEL 9
REMARK VINA RESULT:    -3.652      2.284      4.658
REMARK INTER + INTRA:          -5.010
REMARK INTER:                  -4.824
REMARK INTRA:                  -0.186
REMARK UNBOUND:                -0.291
REMARK SMILES CCCCCCC(=O)[O-]
REMARK SMILES IDX 5 1 6 2 7 3 8 4 9 5 4 6 3 7 2 8 1 9
REMARK H PARENT
REMARK Flexibility Score: inf
ROOT
ATOM      1  C   UNL     1       7.628  17.071  -7.838  1.00  0.00     0.006 C 
ENDROOT
BRANCH   1   2
ATOM      2  C   UNL     1       6.474  16.537  -6.986  1.00  0.00     0.053 C 
BRANCH   2   3
ATOM      3  C   UNL     1       5.930  17.617  -6.105  1.00  0.00     0.041 C 
ATOM      4  O   UNL     1       6.562  18.698  -5.963  1.00  0.00    -0.550 OA
ATOM      5  O   UNL     1       4.701  17.452  -5.479  1.00  0.00    -0.550 OA
ENDBRANCH   2   3
ENDBRANCH   1   2
BRANCH   1   6
ATOM      6  C   UNL     1       8.009  16.072  -8.937  1.00  0.00     0.000 C 
BRANCH   6   7
ATOM      7  C   UNL     1       7.565  14.649  -8.566  1.00  0.00    -0.000 C 
BRANCH   7   8
ATOM      8  C   UNL     1       8.569  13.579  -9.024  1.00  0.00    -0.003 C 
ATOM      9  C   UNL     1       9.405  14.028 -10.222  1.00  0.00     0.004 C 
ENDBRANCH   7   8
ENDBRANCH   6   7
ENDBRANCH   1   6
TORSDOF 5
ENDMDL
