MODEL 1
REMARK VINA RESULT:    -1.126      0.000      0.000
REMARK INTER + INTRA:          -1.367
REMARK INTER:                  -1.324
REMARK INTRA:                  -0.044
REMARK UNBOUND:                -0.044
REMARK SMILES O=C([O-])CCC(=O)[O-]
REMARK SMILES IDX 4 1 2 2 1 3 3 4 5 5 6 6 7 7 8 8
REMARK H PARENT
REMARK Flexibility Score: inf
ROOT
ATOM      1  C   UNL     1      36.768   3.733  41.810  1.00  0.00     0.059 C 
ENDROOT
BRANCH   1   2
ATOM      2  C   UNL     1      38.134   3.124  41.795  1.00  0.00     0.042 C 
ATOM      3  O   UNL     1      38.284   1.901  42.053  1.00  0.00    -0.550 OA
ATOM      4  O   UNL     1      39.237   3.895  41.450  1.00  0.00    -0.550 OA
ENDBRANCH   1   2
BRANCH   1   5
ATOM      5  C   UNL     1      35.711   2.671  42.115  1.00  0.00     0.059 C 
BRANCH   5   6
ATOM      6  C   UNL     1      34.348   3.168  41.751  1.00  0.00     0.042 C 
ATOM      7  O   UNL     1      34.208   4.302  41.222  1.00  0.00    -0.550 OA
ATOM      8  O   UNL     1      33.237   2.360  41.952  1.00  0.00    -0.550 OA
ENDBRANCH   5   6
ENDBRANCH   1   5
TORSDOF 3
ENDMDL
MODEL 2
REMARK VINA RESULT:    -1.077      1.547      4.020
REMARK INTER + INTRA:          -1.310
REMARK INTER:                  -1.195
REMARK INTRA:                  -0.115
REMARK UNBOUND:                -0.044
REMARK SMILES O=C([O-])CCC(=O)[O-]
REMARK SMILES IDX 4 1 2 2 1 3 3 4 5 5 6 6 7 7 8 8
REMARK H PARENT
REMARK Flexibility Score: inf
ROOT
ATOM      1  C   UNL     1      36.969   3.669  41.345  1.00  0.00     0.059 C 
ENDROOT
BRANCH   1   2
ATOM      2  C   UNL     1      35.579   3.482  41.866  1.00  0.00     0.042 C 
ATOM      3  O   UNL     1      35.150   2.327  42.125  1.00  0.00    -0.550 OA
ATOM      4  O   UNL     1      34.773   4.587  42.112  1.00  0.00    -0.550 OA
ENDBRANCH   1   2
BRANCH   1   5
ATOM      5  C   UNL     1      37.946   2.755  42.087  1.00  0.00     0.059 C 
BRANCH   5   6
ATOM      6  C   UNL     1      38.525   1.741  41.154  1.00  0.00     0.042 C 
ATOM      7  O   UNL     1      38.018   1.565  40.015  1.00  0.00    -0.550 OA
ATOM      8  O   UNL     1      39.656   1.022  41.522  1.00  0.00    -0.550 OA
ENDBRANCH   5   6
ENDBRANCH   1   5
TORSDOF 3
ENDMDL
MODEL 3
REMARK VINA RESULT:    -1.063      1.588      2.164
REMARK INTER + INTRA:          -1.294
REMARK INTER:                  -1.237
REMARK INTRA:                  -0.057
REMARK UNBOUND:                -0.044
REMARK SMILES O=C([O-])CCC(=O)[O-]
REMARK SMILES IDX 4 1 2 2 1 3 3 4 5 5 6 6 7 7 8 8
REMARK H PARENT
REMARK Flexibility Score: inf
ROOT
ATOM      1  C   UNL     1      37.963   2.196  42.032  1.00  0.00     0.059 C 
ENDROOT
BRANCH   1   2
ATOM      2  C   UNL     1      39.117   1.852  41.143  1.00  0.00     0.042 C 
ATOM      3  O   UNL     1      40.016   1.068  41.547  1.00  0.00    -0.550 OA
ATOM      4  O   UNL     1      39.175   2.358  39.851  1.00  0.00    -0.550 OA
ENDBRANCH   1   2
BRANCH   1   5
ATOM      5  C   UNL     1      37.408   3.576  41.677  1.00  0.00     0.059 C 
BRANCH   5   6
ATOM      6  C   UNL     1      35.928   3.614  41.884  1.00  0.00     0.042 C 
ATOM      7  O   UNL     1      35.281   2.543  42.030  1.00  0.00    -0.550 OA
ATOM      8  O   UNL     1      35.267   4.833  41.964  1.00  0.00    -0.550 OA
ENDBRANCH   5   6
ENDBRANCH   1   5
TORSDOF 3
ENDMDL
MODEL 4
REMARK VINA RESULT:    -0.977      2.450      3.344
REMARK INTER + INTRA:          -1.192
REMARK INTER:                  -1.011
REMARK INTRA:                  -0.181
REMARK UNBOUND:                -0.044
REMARK SMILES O=C([O-])CCC(=O)[O-]
REMARK SMILES IDX 4 1 2 2 1 3 3 4 5 5 6 6 7 7 8 8
REMARK H PARENT
REMARK Flexibility Score: inf
ROOT
ATOM      1  C   UNL     1      38.971   3.976  41.007  1.00  0.00     0.059 C 
ENDROOT
BRANCH   1   2
ATOM      2  C   UNL     1      38.346   3.844  39.654  1.00  0.00     0.042 C 
ATOM      3  O   UNL     1      38.893   3.132  38.771  1.00  0.00    -0.550 OA
ATOM      4  O   UNL     1      37.135   4.468  39.382  1.00  0.00    -0.550 OA
ENDBRANCH   1   2
BRANCH   1   5
ATOM      5  C   UNL     1      37.971   3.588  42.098  1.00  0.00     0.059 C 
BRANCH   5   6
ATOM      6  C   UNL     1      37.655   2.129  42.024  1.00  0.00     0.042 C 
ATOM      7  O   UNL     1      38.579   1.276  42.093  1.00  0.00    -0.550 OA
ATOM      8  O   UNL     1      36.336   1.707  41.927  1.00  0.00    -0.550 OA
ENDBRANCH   5   6
ENDBRANCH   1   5
TORSDOF 3
ENDMDL
MODEL 5
REMARK VINA RESULT:    -0.970      1.077      4.334
REMARK INTER + INTRA:          -1.184
REMARK INTER:                  -1.150
REMARK INTRA:                  -0.034
REMARK UNBOUND:                -0.044
REMARK SMILES O=C([O-])CCC(=O)[O-]
REMARK SMILES IDX 4 1 2 2 1 3 3 4 5 5 6 6 7 7 8 8
REMARK H PARENT
REMARK Flexibility Score: inf
ROOT
ATOM      1  C   UNL     1      35.663   3.879  40.934  1.00  0.00     0.059 C 
ENDROOT
BRANCH   1   2
ATOM      2  C   UNL     1      34.201   3.947  41.241  1.00  0.00     0.042 C 
ATOM      3  O   UNL     1      33.463   2.948  41.034  1.00  0.00    -0.550 OA
ATOM      4  O   UNL     1      33.660   5.098  41.800  1.00  0.00    -0.550 OA
ENDBRANCH   1   2
BRANCH   1   5
ATOM      5  C   UNL     1      36.482   4.426  42.104  1.00  0.00     0.059 C 
BRANCH   5   6
ATOM      6  C   UNL     1      37.879   3.895  42.060  1.00  0.00     0.042 C 
ATOM      7  O   UNL     1      38.088   2.655  42.124  1.00  0.00    -0.550 OA
ATOM      8  O   UNL     1      38.949   4.766  41.898  1.00  0.00    -0.550 OA
ENDBRANCH   5   6
ENDBRANCH   1   5
TORSDOF 3
ENDMDL
MODEL 6
REMARK VINA RESULT:    -0.940      1.989      3.968
REMARK INTER + INTRA:          -1.149
REMARK INTER:                  -1.027
REMARK INTRA:                  -0.122
REMARK UNBOUND:                -0.044
REMARK SMILES O=C([O-])CCC(=O)[O-]
REMARK SMILES IDX 4 1 2 2 1 3 3 4 5 5 6 6 7 7 8 8
REMARK H PARENT
REMARK Flexibility Score: inf
ROOT
ATOM      1  C   UNL     1      34.612   4.486  40.830  1.00  0.00     0.059 C 
ENDROOT
BRANCH   1   2
ATOM      2  C   UNL     1      34.328   5.905  41.211  1.00  0.00     0.042 C 
ATOM      3  O   UNL     1      33.177   6.387  41.045  1.00  0.00    -0.550 OA
ATOM      4  O   UNL     1      35.321   6.682  41.795  1.00  0.00    -0.550 OA
ENDBRANCH   1   2
BRANCH   1   5
ATOM      5  C   UNL     1      34.886   3.643  42.076  1.00  0.00     0.059 C 
BRANCH   5   6
ATOM      6  C   UNL     1      36.287   3.119  42.056  1.00  0.00     0.042 C 
ATOM      7  O   UNL     1      37.261   3.917  42.022  1.00  0.00    -0.550 OA
ATOM      8  O   UNL     1      36.520   1.752  42.125  1.00  0.00    -0.550 OA
ENDBRANCH   5   6
ENDBRANCH   1   5
TORSDOF 3
ENDMDL
MODEL 7
REMARK VINA RESULT:    -0.935      1.665      2.152
REMARK INTER + INTRA:          -1.143
REMARK INTER:                  -1.022
REMARK INTRA:                  -0.120
REMARK UNBOUND:                -0.044
REMARK SMILES O=C([O-])CCC(=O)[O-]
REMARK SMILES IDX 4 1 2 2 1 3 3 4 5 5 6 6 7 7 8 8
REMARK H PARENT
REMARK Flexibility Score: inf
ROOT
ATOM      1  C   UNL     1      36.742   3.205  40.764  1.00  0.00     0.059 C 
ENDROOT
BRANCH   1   2
ATOM      2  C   UNL     1      37.107   1.759  40.888  1.00  0.00     0.042 C 
ATOM      3  O   UNL     1      37.534   1.126  39.887  1.00  0.00    -0.550 OA
ATOM      4  O   UNL     1      37.023   1.123  42.120  1.00  0.00    -0.550 OA
ENDBRANCH   1   2
BRANCH   1   5
ATOM      5  C   UNL     1      36.138   3.718  42.072  1.00  0.00     0.059 C 
BRANCH   5   6
ATOM      6  C   UNL     1      34.653   3.844  41.949  1.00  0.00     0.042 C 
ATOM      7  O   UNL     1      33.919   2.828  42.066  1.00  0.00    -0.550 OA
ATOM      8  O   UNL     1      34.075   5.092  41.753  1.00  0.00    -0.550 OA
ENDBRANCH   5   6
ENDBRANCH   1   5
TORSDOF 3
ENDMDL
MODEL 8
REMARK VINA RESULT:    -0.526      2.277      3.605
REMARK INTER + INTRA:          -0.662
REMARK INTER:                  -0.542
REMARK INTRA:                  -0.120
REMARK UNBOUND:                -0.044
REMARK SMILES O=C([O-])CCC(=O)[O-]
REMARK SMILES IDX 4 1 2 2 1 3 3 4 5 5 6 6 7 7 8 8
REMARK H PARENT
REMARK Flexibility Score: inf
ROOT
ATOM      1  C   UNL     1      37.786   4.858  40.953  1.00  0.00     0.059 C 
ENDROOT
BRANCH   1   2
ATOM      2  C   UNL     1      36.907   5.956  41.462  1.00  0.00     0.042 C 
ATOM      3  O   UNL     1      35.855   5.683  42.097  1.00  0.00    -0.550 OA
ATOM      4  O   UNL     1      37.274   7.284  41.277  1.00  0.00    -0.550 OA
ENDBRANCH   1   2
BRANCH   1   5
ATOM      5  C   UNL     1      38.153   3.898  42.085  1.00  0.00     0.059 C 
BRANCH   5   6
ATOM      6  C   UNL     1      37.674   2.516  41.777  1.00  0.00     0.042 C 
ATOM      7  O   UNL     1      38.355   1.516  42.125  1.00  0.00    -0.550 OA
ATOM      8  O   UNL     1      36.450   2.329  41.148  1.00  0.00    -0.550 OA
ENDBRANCH   5   6
ENDBRANCH   1   5
TORSDOF 3
ENDMDL
