MODEL 1
REMARK VINA RESULT:    -3.879      0.000      0.000
REMARK INTER + INTRA:         -14.332
REMARK INTER:                  -9.775
REMARK INTRA:                  -4.557
REMARK UNBOUND:                -4.557
REMARK SMILES CCCCCCCCCCCCCCCCCCCCCCCCCCCC(=O)[O-]
REMARK SMILES IDX 15 1 16 2 17 3 18 4 19 5 20 6 21 7 22 8 23 9 24 10 25 11
REMARK SMILES IDX 26 12 27 13 28 14 29 15 30 16 14 17 13 18 12 19 11 20 10 21
REMARK SMILES IDX 9 22 8 23 7 24 6 25 5 26 4 27 3 28 2 29 1 30
REMARK H PARENT
REMARK Flexibility Score: inf
ROOT
ATOM      1  C   UNL     1       7.804   6.139  -4.366  1.00  0.00     0.000 C 
ENDROOT
BRANCH   1   2
ATOM      2  C   UNL     1       9.204   5.593  -4.694  1.00  0.00     0.000 C 
BRANCH   2   3
ATOM      3  C   UNL     1      10.329   6.436  -4.069  1.00  0.00     0.000 C 
BRANCH   3   4
ATOM      4  C   UNL     1       9.804   7.508  -3.101  1.00  0.00     0.000 C 
BRANCH   4   5
ATOM      5  C   UNL     1      10.524   8.856  -3.265  1.00  0.00     0.000 C 
BRANCH   5   6
ATOM      6  C   UNL     1      10.428   9.360  -4.713  1.00  0.00     0.000 C 
BRANCH   6   7
ATOM      7  C   UNL     1       8.992   9.738  -5.111  1.00  0.00     0.000 C 
BRANCH   7   8
ATOM      8  C   UNL     1       8.586   9.156  -6.477  1.00  0.00     0.000 C 
BRANCH   8   9
ATOM      9  C   UNL     1       7.988  10.226  -7.415  1.00  0.00     0.000 C 
BRANCH   9  10
ATOM     10  C   UNL     1       7.992   9.822  -8.900  1.00  0.00     0.000 C 
BRANCH  10  11
ATOM     11  C   UNL     1       9.023   8.726  -9.219  1.00  0.00     0.000 C 
BRANCH  11  12
ATOM     12  C   UNL     1       8.373   7.447  -9.772  1.00  0.00     0.006 C 
BRANCH  12  13
ATOM     13  C   UNL     1       8.923   6.172  -9.117  1.00  0.00     0.053 C 
BRANCH  13  14
ATOM     14  C   UNL     1       7.903   5.575  -8.199  1.00  0.00     0.041 C 
ATOM     15  O   UNL     1       6.909   6.254  -7.830  1.00  0.00    -0.550 OA
ATOM     16  O   UNL     1       8.025   4.252  -7.791  1.00  0.00    -0.550 OA
ENDBRANCH  13  14
ENDBRANCH  12  13
ENDBRANCH  11  12
ENDBRANCH  10  11
ENDBRANCH   9  10
ENDBRANCH   8   9
ENDBRANCH   7   8
ENDBRANCH   6   7
ENDBRANCH   5   6
ENDBRANCH   4   5
ENDBRANCH   3   4
ENDBRANCH   2   3
ENDBRANCH   1   2
BRANCH   1  17
ATOM     17  C   UNL     1       6.986   5.180  -3.482  1.00  0.00     0.000 C 
BRANCH  17  18
ATOM     18  C   UNL     1       7.051   5.546  -1.991  1.00  0.00     0.000 C 
BRANCH  18  19
ATOM     19  C   UNL     1       7.510   4.368  -1.111  1.00  0.00     0.000 C 
BRANCH  19  20
ATOM     20  C   UNL     1       8.996   4.010  -1.332  1.00  0.00     0.000 C 
BRANCH  20  21
ATOM     21  C   UNL     1       9.974   4.902  -0.549  1.00  0.00     0.000 C 
BRANCH  21  22
ATOM     22  C   UNL     1       9.318   5.603   0.647  1.00  0.00    -0.000 C 
BRANCH  22  23
ATOM     23  C   UNL     1       9.460   7.126   0.543  1.00  0.00    -0.000 C 
BRANCH  23  24
ATOM     24  C   UNL     1       9.198   7.793   1.902  1.00  0.00    -0.000 C 
BRANCH  24  25
ATOM     25  C   UNL     1       8.908   9.299   1.780  1.00  0.00    -0.000 C 
BRANCH  25  26
ATOM     26  C   UNL     1       9.036   9.865   0.352  1.00  0.00    -0.000 C 
BRANCH  26  27
ATOM     27  C   UNL     1       7.716  10.445  -0.205  1.00  0.00    -0.000 C 
BRANCH  27  28
ATOM     28  C   UNL     1       7.489  10.123  -1.694  1.00  0.00    -0.000 C 
BRANCH  28  29
ATOM     29  C   UNL     1       6.410   9.049  -1.896  1.00  0.00    -0.003 C 
ATOM     30  C   UNL     1       5.011   9.639  -1.745  1.00  0.00     0.004 C 
ENDBRANCH  28  29
ENDBRANCH  27  28
ENDBRANCH  26  27
ENDBRANCH  25  26
ENDBRANCH  24  25
ENDBRANCH  23  24
ENDBRANCH  22  23
ENDBRANCH  21  22
ENDBRANCH  20  21
ENDBRANCH  19  20
ENDBRANCH  18  19
ENDBRANCH  17  18
ENDBRANCH   1  17
TORSDOF 26
ENDMDL
MODEL 2
REMARK VINA RESULT:    -3.797      3.175      5.814
REMARK INTER + INTRA:         -14.124
REMARK INTER:                  -9.785
REMARK INTRA:                  -4.339
REMARK UNBOUND:                -4.557
REMARK SMILES CCCCCCCCCCCCCCCCCCCCCCCCCCCC(=O)[O-]
REMARK SMILES IDX 15 1 16 2 17 3 18 4 19 5 20 6 21 7 22 8 23 9 24 10 25 11
REMARK SMILES IDX 26 12 27 13 28 14 29 15 30 16 14 17 13 18 12 19 11 20 10 21
REMARK SMILES IDX 9 22 8 23 7 24 6 25 5 26 4 27 3 28 2 29 1 30
REMARK H PARENT
REMARK Flexibility Score: inf
ROOT
ATOM      1  C   UNL     1       7.433   5.597  -2.140  1.00  0.00     0.000 C 
ENDROOT
BRANCH   1   2
ATOM      2  C   UNL     1       6.909   5.246  -3.543  1.00  0.00     0.000 C 
BRANCH   2   3
ATOM      3  C   UNL     1       7.598   6.060  -4.653  1.00  0.00     0.000 C 
BRANCH   3   4
ATOM      4  C   UNL     1       8.857   5.373  -5.204  1.00  0.00     0.000 C 
BRANCH   4   5
ATOM      5  C   UNL     1      10.154   6.016  -4.689  1.00  0.00     0.000 C 
BRANCH   5   6
ATOM      6  C   UNL     1       9.934   7.493  -4.333  1.00  0.00     0.000 C 
BRANCH   6   7
ATOM      7  C   UNL     1      10.956   8.011  -3.306  1.00  0.00     0.000 C 
BRANCH   7   8
ATOM      8  C   UNL     1      10.342   8.199  -1.907  1.00  0.00     0.000 C 
BRANCH   8   9
ATOM      9  C   UNL     1      10.349   9.676  -1.459  1.00  0.00     0.000 C 
BRANCH   9  10
ATOM     10  C   UNL     1       8.955  10.330  -1.456  1.00  0.00     0.000 C 
BRANCH  10  11
ATOM     11  C   UNL     1       7.825   9.328  -1.170  1.00  0.00     0.000 C 
BRANCH  11  12
ATOM     12  C   UNL     1       6.598   9.549  -2.069  1.00  0.00     0.006 C 
BRANCH  12  13
ATOM     13  C   UNL     1       5.754  10.756  -1.635  1.00  0.00     0.053 C 
BRANCH  13  14
ATOM     14  C   UNL     1       4.296  10.447  -1.766  1.00  0.00     0.041 C 
ATOM     15  O   UNL     1       3.647  10.020  -0.775  1.00  0.00    -0.550 OA
ATOM     16  O   UNL     1       3.642  10.677  -2.971  1.00  0.00    -0.550 OA
ENDBRANCH  13  14
ENDBRANCH  12  13
ENDBRANCH  11  12
ENDBRANCH  10  11
ENDBRANCH   9  10
ENDBRANCH   8   9
ENDBRANCH   7   8
ENDBRANCH   6   7
ENDBRANCH   5   6
ENDBRANCH   4   5
ENDBRANCH   3   4
ENDBRANCH   2   3
ENDBRANCH   1   2
BRANCH   1  17
ATOM     17  C   UNL     1       8.147   4.414  -1.462  1.00  0.00     0.000 C 
BRANCH  17  18
ATOM     18  C   UNL     1       9.297   4.860  -0.546  1.00  0.00     0.000 C 
BRANCH  18  19
ATOM     19  C   UNL     1       9.007   6.198   0.162  1.00  0.00     0.000 C 
BRANCH  19  20
ATOM     20  C   UNL     1       9.467   6.198   1.635  1.00  0.00     0.000 C 
BRANCH  20  21
ATOM     21  C   UNL     1       9.335   7.565   2.328  1.00  0.00     0.000 C 
BRANCH  21  22
ATOM     22  C   UNL     1      10.587   8.438   2.175  1.00  0.00    -0.000 C 
BRANCH  22  23
ATOM     23  C   UNL     1      10.234   9.928   2.229  1.00  0.00    -0.000 C 
BRANCH  23  24
ATOM     24  C   UNL     1       8.712  10.128   2.273  1.00  0.00    -0.000 C 
BRANCH  24  25
ATOM     25  C   UNL     1       8.240  10.834   3.556  1.00  0.00    -0.000 C 
BRANCH  25  26
ATOM     26  C   UNL     1       9.126  10.582   4.791  1.00  0.00    -0.000 C 
BRANCH  26  27
ATOM     27  C   UNL     1       8.747   9.306   5.577  1.00  0.00    -0.000 C 
BRANCH  27  28
ATOM     28  C   UNL     1       9.967   8.524   6.099  1.00  0.00    -0.000 C 
BRANCH  28  29
ATOM     29  C   UNL     1       9.586   7.124   6.601  1.00  0.00    -0.003 C 
ATOM     30  C   UNL     1       9.406   6.152   5.439  1.00  0.00     0.004 C 
ENDBRANCH  28  29
ENDBRANCH  27  28
ENDBRANCH  26  27
ENDBRANCH  25  26
ENDBRANCH  24  25
ENDBRANCH  23  24
ENDBRANCH  22  23
ENDBRANCH  21  22
ENDBRANCH  20  21
ENDBRANCH  19  20
ENDBRANCH  18  19
ENDBRANCH  17  18
ENDBRANCH   1  17
TORSDOF 26
ENDMDL
MODEL 3
REMARK VINA RESULT:    -3.796     14.757     17.667
REMARK INTER + INTRA:         -14.121
REMARK INTER:                  -9.761
REMARK INTRA:                  -4.360
REMARK UNBOUND:                -4.557
REMARK SMILES CCCCCCCCCCCCCCCCCCCCCCCCCCCC(=O)[O-]
REMARK SMILES IDX 15 1 16 2 17 3 18 4 19 5 20 6 21 7 22 8 23 9 24 10 25 11
REMARK SMILES IDX 26 12 27 13 28 14 29 15 30 16 14 17 13 18 12 19 11 20 10 21
REMARK SMILES IDX 9 22 8 23 7 24 6 25 5 26 4 27 3 28 2 29 1 30
REMARK H PARENT
REMARK Flexibility Score: inf
ROOT
ATOM      1  C   UNL     1       0.348  -5.221  -6.098  1.00  0.00     0.000 C 
ENDROOT
BRANCH   1   2
ATOM      2  C   UNL     1       1.752  -5.380  -6.705  1.00  0.00     0.000 C 
BRANCH   2   3
ATOM      3  C   UNL     1       1.852  -4.794  -8.125  1.00  0.00     0.000 C 
BRANCH   3   4
ATOM      4  C   UNL     1       1.680  -5.855  -9.222  1.00  0.00     0.000 C 
BRANCH   4   5
ATOM      5  C   UNL     1       0.229  -5.960  -9.720  1.00  0.00     0.000 C 
BRANCH   5   6
ATOM      6  C   UNL     1      -0.385  -7.318  -9.347  1.00  0.00     0.000 C 
BRANCH   6   7
ATOM      7  C   UNL     1      -1.685  -7.173  -8.538  1.00  0.00     0.000 C 
BRANCH   7   8
ATOM      8  C   UNL     1      -2.809  -6.497  -9.343  1.00  0.00     0.000 C 
BRANCH   8   9
ATOM      9  C   UNL     1      -4.091  -6.299  -8.506  1.00  0.00     0.000 C 
BRANCH   9  10
ATOM     10  C   UNL     1      -4.746  -4.918  -8.692  1.00  0.00     0.000 C 
BRANCH  10  11
ATOM     11  C   UNL     1      -5.035  -4.209  -7.359  1.00  0.00     0.000 C 
BRANCH  11  12
ATOM     12  C   UNL     1      -6.539  -4.111  -7.057  1.00  0.00     0.006 C 
BRANCH  12  13
ATOM     13  C   UNL     1      -6.844  -4.124  -5.552  1.00  0.00     0.053 C 
BRANCH  13  14
ATOM     14  C   UNL     1      -7.314  -5.479  -5.126  1.00  0.00     0.041 C 
ATOM     15  O   UNL     1      -8.310  -5.592  -4.363  1.00  0.00    -0.550 OA
ATOM     16  O   UNL     1      -6.683  -6.618  -5.609  1.00  0.00    -0.550 OA
ENDBRANCH  13  14
ENDBRANCH  12  13
ENDBRANCH  11  12
ENDBRANCH  10  11
ENDBRANCH   9  10
ENDBRANCH   8   9
ENDBRANCH   7   8
ENDBRANCH   6   7
ENDBRANCH   5   6
ENDBRANCH   4   5
ENDBRANCH   3   4
ENDBRANCH   2   3
ENDBRANCH   1   2
BRANCH   1  17
ATOM     17  C   UNL     1      -0.243  -3.819  -6.333  1.00  0.00     0.000 C 
BRANCH  17  18
ATOM     18  C   UNL     1      -1.577  -3.857  -7.095  1.00  0.00     0.000 C 
BRANCH  18  19
ATOM     19  C   UNL     1      -1.546  -3.016  -8.386  1.00  0.00     0.000 C 
BRANCH  19  20
ATOM     20  C   UNL     1      -0.465  -1.915  -8.348  1.00  0.00     0.000 C 
BRANCH  20  21
ATOM     21  C   UNL     1      -1.020  -0.507  -8.072  1.00  0.00     0.000 C 
BRANCH  21  22
ATOM     22  C   UNL     1      -1.940   0.002  -9.190  1.00  0.00    -0.000 C 
BRANCH  22  23
ATOM     23  C   UNL     1      -2.884   1.095  -8.675  1.00  0.00    -0.000 C 
BRANCH  23  24
ATOM     24  C   UNL     1      -4.339   0.783  -9.056  1.00  0.00    -0.000 C 
BRANCH  24  25
ATOM     25  C   UNL     1      -4.573  -0.710  -9.341  1.00  0.00    -0.000 C 
BRANCH  25  26
ATOM     26  C   UNL     1      -6.052  -1.144  -9.324  1.00  0.00    -0.000 C 
BRANCH  26  27
ATOM     27  C   UNL     1      -7.000  -0.093  -8.702  1.00  0.00    -0.000 C 
BRANCH  27  28
ATOM     28  C   UNL     1      -7.546  -0.505  -7.322  1.00  0.00    -0.000 C 
BRANCH  28  29
ATOM     29  C   UNL     1      -7.284   0.567  -6.253  1.00  0.00    -0.003 C 
ATOM     30  C   UNL     1      -7.436  -0.009  -4.849  1.00  0.00     0.004 C 
ENDBRANCH  28  29
ENDBRANCH  27  28
ENDBRANCH  26  27
ENDBRANCH  25  26
ENDBRANCH  24  25
ENDBRANCH  23  24
ENDBRANCH  22  23
ENDBRANCH  21  22
ENDBRANCH  20  21
ENDBRANCH  19  20
ENDBRANCH  18  19
ENDBRANCH  17  18
ENDBRANCH   1  17
TORSDOF 26
ENDMDL
MODEL 4
REMARK VINA RESULT:    -3.671      1.730      4.215
REMARK INTER + INTRA:         -13.808
REMARK INTER:                  -9.350
REMARK INTRA:                  -4.458
REMARK UNBOUND:                -4.557
REMARK SMILES CCCCCCCCCCCCCCCCCCCCCCCCCCCC(=O)[O-]
REMARK SMILES IDX 15 1 16 2 17 3 18 4 19 5 20 6 21 7 22 8 23 9 24 10 25 11
REMARK SMILES IDX 26 12 27 13 28 14 29 15 30 16 14 17 13 18 12 19 11 20 10 21
REMARK SMILES IDX 9 22 8 23 7 24 6 25 5 26 4 27 3 28 2 29 1 30
REMARK H PARENT
REMARK Flexibility Score: inf
ROOT
ATOM      1  C   UNL     1       5.546  10.145  -2.004  1.00  0.00     0.000 C 
ENDROOT
BRANCH   1   2
ATOM      2  C   UNL     1       6.252  10.882  -0.853  1.00  0.00     0.000 C 
BRANCH   2   3
ATOM      3  C   UNL     1       7.781  10.911  -1.020  1.00  0.00     0.000 C 
BRANCH   3   4
ATOM      4  C   UNL     1       8.515  10.089   0.051  1.00  0.00     0.000 C 
BRANCH   4   5
ATOM      5  C   UNL     1       9.949   9.723  -0.364  1.00  0.00     0.000 C 
BRANCH   5   6
ATOM      6  C   UNL     1      10.130   9.843  -1.884  1.00  0.00     0.000 C 
BRANCH   6   7
ATOM      7  C   UNL     1      10.247   8.472  -2.573  1.00  0.00     0.000 C 
BRANCH   7   8
ATOM      8  C   UNL     1      10.424   8.592  -4.097  1.00  0.00     0.000 C 
BRANCH   8   9
ATOM      9  C   UNL     1       9.108   8.965  -4.812  1.00  0.00     0.000 C 
BRANCH   9  10
ATOM     10  C   UNL     1       8.617   7.896  -5.806  1.00  0.00     0.000 C 
BRANCH  10  11
ATOM     11  C   UNL     1       8.995   6.467  -5.383  1.00  0.00     0.000 C 
BRANCH  11  12
ATOM     12  C   UNL     1       7.926   5.434  -5.771  1.00  0.00     0.006 C 
BRANCH  12  13
ATOM     13  C   UNL     1       7.717   5.338  -7.289  1.00  0.00     0.053 C 
BRANCH  13  14
ATOM     14  C   UNL     1       8.881   4.655  -7.934  1.00  0.00     0.041 C 
ATOM     15  O   UNL     1       9.316   3.569  -7.468  1.00  0.00    -0.550 OA
ATOM     16  O   UNL     1       9.456   5.192  -9.080  1.00  0.00    -0.550 OA
ENDBRANCH  13  14
ENDBRANCH  12  13
ENDBRANCH  11  12
ENDBRANCH  10  11
ENDBRANCH   9  10
ENDBRANCH   8   9
ENDBRANCH   7   8
ENDBRANCH   6   7
ENDBRANCH   5   6
ENDBRANCH   4   5
ENDBRANCH   3   4
ENDBRANCH   2   3
ENDBRANCH   1   2
BRANCH   1  17
ATOM     17  C   UNL     1       5.487   8.623  -1.785  1.00  0.00     0.000 C 
BRANCH  17  18
ATOM     18  C   UNL     1       6.661   7.882  -2.444  1.00  0.00     0.000 C 
BRANCH  18  19
ATOM     19  C   UNL     1       7.324   6.862  -1.499  1.00  0.00     0.000 C 
BRANCH  19  20
ATOM     20  C   UNL     1       7.491   5.473  -2.153  1.00  0.00     0.000 C 
BRANCH  20  21
ATOM     21  C   UNL     1       7.964   4.379  -1.179  1.00  0.00     0.000 C 
BRANCH  21  22
ATOM     22  C   UNL     1       9.369   3.856  -1.505  1.00  0.00    -0.000 C 
BRANCH  22  23
ATOM     23  C   UNL     1      10.415   4.970  -1.391  1.00  0.00    -0.000 C 
BRANCH  23  24
ATOM     24  C   UNL     1      11.000   5.026   0.028  1.00  0.00    -0.000 C 
BRANCH  24  25
ATOM     25  C   UNL     1      10.690   6.350   0.749  1.00  0.00    -0.000 C 
BRANCH  25  26
ATOM     26  C   UNL     1       9.409   6.331   1.606  1.00  0.00    -0.000 C 
BRANCH  26  27
ATOM     27  C   UNL     1       9.255   7.568   2.519  1.00  0.00    -0.000 C 
BRANCH  27  28
ATOM     28  C   UNL     1      10.064   7.467   3.825  1.00  0.00    -0.000 C 
BRANCH  28  29
ATOM     29  C   UNL     1       9.289   8.021   5.030  1.00  0.00    -0.003 C 
ATOM     30  C   UNL     1       8.915   9.484   4.818  1.00  0.00     0.004 C 
ENDBRANCH  28  29
ENDBRANCH  27  28
ENDBRANCH  26  27
ENDBRANCH  25  26
ENDBRANCH  24  25
ENDBRANCH  23  24
ENDBRANCH  22  23
ENDBRANCH  21  22
ENDBRANCH  20  21
ENDBRANCH  19  20
ENDBRANCH  18  19
ENDBRANCH  17  18
ENDBRANCH   1  17
TORSDOF 26
ENDMDL
MODEL 5
REMARK VINA RESULT:    -3.642     14.467     17.636
REMARK INTER + INTRA:         -13.734
REMARK INTER:                 -10.302
REMARK INTRA:                  -3.432
REMARK UNBOUND:                -4.557
REMARK SMILES CCCCCCCCCCCCCCCCCCCCCCCCCCCC(=O)[O-]
REMARK SMILES IDX 15 1 16 2 17 3 18 4 19 5 20 6 21 7 22 8 23 9 24 10 25 11
REMARK SMILES IDX 26 12 27 13 28 14 29 15 30 16 14 17 13 18 12 19 11 20 10 21
REMARK SMILES IDX 9 22 8 23 7 24 6 25 5 26 4 27 3 28 2 29 1 30
REMARK H PARENT
REMARK Flexibility Score: inf
ROOT
ATOM      1  C   UNL     1      -2.669   0.539  -9.082  1.00  0.00     0.000 C 
ENDROOT
BRANCH   1   2
ATOM      2  C   UNL     1      -3.104   1.801  -8.318  1.00  0.00     0.000 C 
BRANCH   2   3
ATOM      3  C   UNL     1      -4.634   1.950  -8.244  1.00  0.00     0.000 C 
BRANCH   3   4
ATOM      4  C   UNL     1      -5.379   0.823  -8.975  1.00  0.00     0.000 C 
BRANCH   4   5
ATOM      5  C   UNL     1      -6.618   0.337  -8.206  1.00  0.00     0.000 C 
BRANCH   5   6
ATOM      6  C   UNL     1      -6.827   1.156  -6.923  1.00  0.00     0.000 C 
BRANCH   6   7
ATOM      7  C   UNL     1      -8.053   0.690  -6.120  1.00  0.00     0.000 C 
BRANCH   7   8
ATOM      8  C   UNL     1      -7.707  -0.408  -5.099  1.00  0.00     0.000 C 
BRANCH   8   9
ATOM      9  C   UNL     1      -8.022  -1.823  -5.632  1.00  0.00     0.000 C 
BRANCH   9  10
ATOM     10  C   UNL     1      -6.837  -2.801  -5.532  1.00  0.00     0.000 C 
BRANCH  10  11
ATOM     11  C   UNL     1      -6.316  -3.251  -6.907  1.00  0.00     0.000 C 
BRANCH  11  12
ATOM     12  C   UNL     1      -5.123  -4.215  -6.800  1.00  0.00     0.006 C 
BRANCH  12  13
ATOM     13  C   UNL     1      -5.052  -5.202  -7.973  1.00  0.00     0.053 C 
BRANCH  13  14
ATOM     14  C   UNL     1      -5.714  -6.494  -7.610  1.00  0.00     0.041 C 
ATOM     15  O   UNL     1      -5.559  -7.511  -8.337  1.00  0.00    -0.550 OA
ATOM     16  O   UNL     1      -6.464  -6.588  -6.444  1.00  0.00    -0.550 OA
ENDBRANCH  13  14
ENDBRANCH  12  13
ENDBRANCH  11  12
ENDBRANCH  10  11
ENDBRANCH   9  10
ENDBRANCH   8   9
ENDBRANCH   7   8
ENDBRANCH   6   7
ENDBRANCH   5   6
ENDBRANCH   4   5
ENDBRANCH   3   4
ENDBRANCH   2   3
ENDBRANCH   1   2
BRANCH   1  17
ATOM     17  C   UNL     1      -1.438  -0.139  -8.454  1.00  0.00     0.000 C 
BRANCH  17  18
ATOM     18  C   UNL     1      -0.583  -0.892  -9.485  1.00  0.00     0.000 C 
BRANCH  18  19
ATOM     19  C   UNL     1      -0.001  -2.205  -8.927  1.00  0.00     0.000 C 
BRANCH  19  20
ATOM     20  C   UNL     1      -1.070  -3.308  -8.775  1.00  0.00     0.000 C 
BRANCH  20  21
ATOM     21  C   UNL     1      -1.541  -3.523  -7.327  1.00  0.00     0.000 C 
BRANCH  21  22
ATOM     22  C   UNL     1      -1.104  -4.877  -6.751  1.00  0.00    -0.000 C 
BRANCH  22  23
ATOM     23  C   UNL     1       0.233  -4.757  -6.011  1.00  0.00    -0.000 C 
BRANCH  23  24
ATOM     24  C   UNL     1       1.284  -5.692  -6.628  1.00  0.00    -0.000 C 
BRANCH  24  25
ATOM     25  C   UNL     1       2.217  -4.971  -7.616  1.00  0.00    -0.000 C 
BRANCH  25  26
ATOM     26  C   UNL     1       2.334  -5.644  -8.998  1.00  0.00    -0.000 C 
BRANCH  26  27
ATOM     27  C   UNL     1       0.970  -5.967  -9.648  1.00  0.00    -0.000 C 
BRANCH  27  28
ATOM     28  C   UNL     1       0.681  -7.477  -9.741  1.00  0.00    -0.000 C 
BRANCH  28  29
ATOM     29  C   UNL     1      -0.714  -7.834  -9.205  1.00  0.00    -0.003 C 
ATOM     30  C   UNL     1      -0.618  -8.606  -7.893  1.00  0.00     0.004 C 
ENDBRANCH  28  29
ENDBRANCH  27  28
ENDBRANCH  26  27
ENDBRANCH  25  26
ENDBRANCH  24  25
ENDBRANCH  23  24
ENDBRANCH  22  23
ENDBRANCH  21  22
ENDBRANCH  20  21
ENDBRANCH  19  20
ENDBRANCH  18  19
ENDBRANCH  17  18
ENDBRANCH   1  17
TORSDOF 26
ENDMDL
MODEL 6
REMARK VINA RESULT:    -3.608     14.657     17.393
REMARK INTER + INTRA:         -13.649
REMARK INTER:                  -9.701
REMARK INTRA:                  -3.948
REMARK UNBOUND:                -4.557
REMARK SMILES CCCCCCCCCCCCCCCCCCCCCCCCCCCC(=O)[O-]
REMARK SMILES IDX 15 1 16 2 17 3 18 4 19 5 20 6 21 7 22 8 23 9 24 10 25 11
REMARK SMILES IDX 26 12 27 13 28 14 29 15 30 16 14 17 13 18 12 19 11 20 10 21
REMARK SMILES IDX 9 22 8 23 7 24 6 25 5 26 4 27 3 28 2 29 1 30
REMARK H PARENT
REMARK Flexibility Score: inf
ROOT
ATOM      1  C   UNL     1      -3.850  -5.524  -8.964  1.00  0.00     0.000 C 
ENDROOT
BRANCH   1   2
ATOM      2  C   UNL     1      -3.005  -6.779  -8.688  1.00  0.00     0.000 C 
BRANCH   2   3
ATOM      3  C   UNL     1      -1.495  -6.485  -8.679  1.00  0.00     0.000 C 
BRANCH   3   4
ATOM      4  C   UNL     1      -0.674  -7.595  -8.004  1.00  0.00     0.000 C 
BRANCH   4   5
ATOM      5  C   UNL     1       0.179  -7.072  -6.837  1.00  0.00     0.000 C 
BRANCH   5   6
ATOM      6  C   UNL     1      -0.341  -5.715  -6.339  1.00  0.00     0.000 C 
BRANCH   6   7
ATOM      7  C   UNL     1       0.754  -4.635  -6.321  1.00  0.00     0.000 C 
BRANCH   7   8
ATOM      8  C   UNL     1       1.981  -5.026  -7.164  1.00  0.00     0.000 C 
BRANCH   8   9
ATOM      9  C   UNL     1       1.858  -4.557  -8.630  1.00  0.00     0.000 C 
BRANCH   9  10
ATOM     10  C   UNL     1       0.697  -3.575  -8.871  1.00  0.00     0.000 C 
BRANCH  10  11
ATOM     11  C   UNL     1       1.121  -2.332  -9.671  1.00  0.00     0.000 C 
BRANCH  11  12
ATOM     12  C   UNL     1       0.054  -1.227  -9.656  1.00  0.00     0.006 C 
BRANCH  12  13
ATOM     13  C   UNL     1      -1.126  -1.554  -8.730  1.00  0.00     0.053 C 
BRANCH  13  14
ATOM     14  C   UNL     1      -2.332  -0.758  -9.118  1.00  0.00     0.041 C 
ATOM     15  O   UNL     1      -3.287  -1.310  -9.724  1.00  0.00    -0.550 OA
ATOM     16  O   UNL     1      -2.421   0.584  -8.769  1.00  0.00    -0.550 OA
ENDBRANCH  13  14
ENDBRANCH  12  13
ENDBRANCH  11  12
ENDBRANCH  10  11
ENDBRANCH   9  10
ENDBRANCH   8   9
ENDBRANCH   7   8
ENDBRANCH   6   7
ENDBRANCH   5   6
ENDBRANCH   4   5
ENDBRANCH   3   4
ENDBRANCH   2   3
ENDBRANCH   1   2
BRANCH   1  17
ATOM     17  C   UNL     1      -3.693  -4.452  -7.870  1.00  0.00     0.000 C 
BRANCH  17  18
ATOM     18  C   UNL     1      -5.041  -3.919  -7.361  1.00  0.00     0.000 C 
BRANCH  18  19
ATOM     19  C   UNL     1      -5.870  -4.999  -6.639  1.00  0.00     0.000 C 
BRANCH  19  20
ATOM     20  C   UNL     1      -6.848  -4.399  -5.606  1.00  0.00     0.000 C 
BRANCH  20  21
ATOM     21  C   UNL     1      -6.892  -2.861  -5.609  1.00  0.00     0.000 C 
BRANCH  21  22
ATOM     22  C   UNL     1      -8.320  -2.304  -5.666  1.00  0.00    -0.000 C 
BRANCH  22  23
ATOM     23  C   UNL     1      -9.081  -2.851  -6.879  1.00  0.00    -0.000 C 
BRANCH  23  24
ATOM     24  C   UNL     1      -9.023  -1.861  -8.052  1.00  0.00    -0.000 C 
BRANCH  24  25
ATOM     25  C   UNL     1      -7.924  -2.209  -9.071  1.00  0.00    -0.000 C 
BRANCH  25  26
ATOM     26  C   UNL     1      -6.971  -1.046  -9.412  1.00  0.00    -0.000 C 
BRANCH  26  27
ATOM     27  C   UNL     1      -6.249  -0.455  -8.179  1.00  0.00    -0.000 C 
BRANCH  27  28
ATOM     28  C   UNL     1      -5.829   1.015  -8.366  1.00  0.00    -0.000 C 
BRANCH  28  29
ATOM     29  C   UNL     1      -6.587   1.958  -7.420  1.00  0.00    -0.003 C 
ATOM     30  C   UNL     1      -7.458   1.174  -6.443  1.00  0.00     0.004 C 
ENDBRANCH  28  29
ENDBRANCH  27  28
ENDBRANCH  26  27
ENDBRANCH  25  26
ENDBRANCH  24  25
ENDBRANCH  23  24
ENDBRANCH  22  23
ENDBRANCH  21  22
ENDBRANCH  20  21
ENDBRANCH  19  20
ENDBRANCH  18  19
ENDBRANCH  17  18
ENDBRANCH   1  17
TORSDOF 26
ENDMDL
MODEL 7
REMARK VINA RESULT:    -3.604      2.854      5.511
REMARK INTER + INTRA:         -13.638
REMARK INTER:                 -10.377
REMARK INTRA:                  -3.261
REMARK UNBOUND:                -4.557
REMARK SMILES CCCCCCCCCCCCCCCCCCCCCCCCCCCC(=O)[O-]
REMARK SMILES IDX 15 1 16 2 17 3 18 4 19 5 20 6 21 7 22 8 23 9 24 10 25 11
REMARK SMILES IDX 26 12 27 13 28 14 29 15 30 16 14 17 13 18 12 19 11 20 10 21
REMARK SMILES IDX 9 22 8 23 7 24 6 25 5 26 4 27 3 28 2 29 1 30
REMARK H PARENT
REMARK Flexibility Score: inf
ROOT
ATOM      1  C   UNL     1       7.693   5.542  -2.072  1.00  0.00     0.000 C 
ENDROOT
BRANCH   1   2
ATOM      2  C   UNL     1       7.006   5.064  -3.362  1.00  0.00     0.000 C 
BRANCH   2   3
ATOM      3  C   UNL     1       7.403   5.904  -4.589  1.00  0.00     0.000 C 
BRANCH   3   4
ATOM      4  C   UNL     1       8.748   5.475  -5.196  1.00  0.00     0.000 C 
BRANCH   4   5
ATOM      5  C   UNL     1       9.368   6.562  -6.087  1.00  0.00     0.000 C 
BRANCH   5   6
ATOM      6  C   UNL     1       8.279   7.398  -6.776  1.00  0.00     0.000 C 
BRANCH   6   7
ATOM      7  C   UNL     1       8.582   8.905  -6.740  1.00  0.00     0.000 C 
BRANCH   7   8
ATOM      8  C   UNL     1       9.140   9.363  -5.381  1.00  0.00     0.000 C 
BRANCH   8   9
ATOM      9  C   UNL     1       8.603  10.748  -4.964  1.00  0.00     0.000 C 
BRANCH   9  10
ATOM     10  C   UNL     1       7.463  10.686  -3.930  1.00  0.00     0.000 C 
BRANCH  10  11
ATOM     11  C   UNL     1       7.459   9.378  -3.122  1.00  0.00     0.000 C 
BRANCH  11  12
ATOM     12  C   UNL     1       6.622   9.480  -1.837  1.00  0.00     0.006 C 
BRANCH  12  13
ATOM     13  C   UNL     1       5.845  10.800  -1.739  1.00  0.00     0.053 C 
BRANCH  13  14
ATOM     14  C   UNL     1       4.378  10.557  -1.908  1.00  0.00     0.041 C 
ATOM     15  O   UNL     1       3.821  10.792  -3.012  1.00  0.00    -0.550 OA
ATOM     16  O   UNL     1       3.636  10.025  -0.861  1.00  0.00    -0.550 OA
ENDBRANCH  13  14
ENDBRANCH  12  13
ENDBRANCH  11  12
ENDBRANCH  10  11
ENDBRANCH   9  10
ENDBRANCH   8   9
ENDBRANCH   7   8
ENDBRANCH   6   7
ENDBRANCH   5   6
ENDBRANCH   4   5
ENDBRANCH   3   4
ENDBRANCH   2   3
ENDBRANCH   1   2
BRANCH   1  17
ATOM     17  C   UNL     1       8.626   4.476  -1.468  1.00  0.00     0.000 C 
BRANCH  17  18
ATOM     18  C   UNL     1       9.493   5.023  -0.324  1.00  0.00     0.000 C 
BRANCH  18  19
ATOM     19  C   UNL     1       8.841   6.220   0.394  1.00  0.00     0.000 C 
BRANCH  19  20
ATOM     20  C   UNL     1       9.868   7.079   1.162  1.00  0.00     0.000 C 
BRANCH  20  21
ATOM     21  C   UNL     1       9.250   8.285   1.891  1.00  0.00     0.000 C 
BRANCH  21  22
ATOM     22  C   UNL     1       8.829   9.410   0.937  1.00  0.00    -0.000 C 
BRANCH  22  23
ATOM     23  C   UNL     1       8.390  10.658   1.711  1.00  0.00    -0.000 C 
BRANCH  23  24
ATOM     24  C   UNL     1       8.795  10.554   3.189  1.00  0.00    -0.000 C 
BRANCH  24  25
ATOM     25  C   UNL     1       7.728  11.124   4.141  1.00  0.00    -0.000 C 
BRANCH  25  26
ATOM     26  C   UNL     1       7.922  10.749   5.623  1.00  0.00    -0.000 C 
BRANCH  26  27
ATOM     27  C   UNL     1       9.221   9.957   5.897  1.00  0.00    -0.000 C 
BRANCH  27  28
ATOM     28  C   UNL     1       8.976   8.464   6.187  1.00  0.00    -0.000 C 
BRANCH  28  29
ATOM     29  C   UNL     1      10.038   7.566   5.536  1.00  0.00    -0.003 C 
ATOM     30  C   UNL     1       9.399   6.351   4.871  1.00  0.00     0.004 C 
ENDBRANCH  28  29
ENDBRANCH  27  28
ENDBRANCH  26  27
ENDBRANCH  25  26
ENDBRANCH  24  25
ENDBRANCH  23  24
ENDBRANCH  22  23
ENDBRANCH  21  22
ENDBRANCH  20  21
ENDBRANCH  19  20
ENDBRANCH  18  19
ENDBRANCH  17  18
ENDBRANCH   1  17
TORSDOF 26
ENDMDL
MODEL 8
REMARK VINA RESULT:    -3.598      2.097      3.552
REMARK INTER + INTRA:         -13.625
REMARK INTER:                 -10.289
REMARK INTRA:                  -3.336
REMARK UNBOUND:                -4.557
REMARK SMILES CCCCCCCCCCCCCCCCCCCCCCCCCCCC(=O)[O-]
REMARK SMILES IDX 15 1 16 2 17 3 18 4 19 5 20 6 21 7 22 8 23 9 24 10 25 11
REMARK SMILES IDX 26 12 27 13 28 14 29 15 30 16 14 17 13 18 12 19 11 20 10 21
REMARK SMILES IDX 9 22 8 23 7 24 6 25 5 26 4 27 3 28 2 29 1 30
REMARK H PARENT
REMARK Flexibility Score: inf
ROOT
ATOM      1  C   UNL     1       7.166   6.522  -3.186  1.00  0.00     0.000 C 
ENDROOT
BRANCH   1   2
ATOM      2  C   UNL     1       6.998   7.324  -1.884  1.00  0.00     0.000 C 
BRANCH   2   3
ATOM      3  C   UNL     1       7.886   8.581  -1.846  1.00  0.00     0.000 C 
BRANCH   3   4
ATOM      4  C   UNL     1       7.279   9.764  -2.615  1.00  0.00     0.000 C 
BRANCH   4   5
ATOM      5  C   UNL     1       8.067  10.107  -3.889  1.00  0.00     0.000 C 
BRANCH   5   6
ATOM      6  C   UNL     1       9.384   9.320  -3.952  1.00  0.00     0.000 C 
BRANCH   6   7
ATOM      7  C   UNL     1       9.416   8.317  -5.117  1.00  0.00     0.000 C 
BRANCH   7   8
ATOM      8  C   UNL     1       8.409   8.669  -6.226  1.00  0.00     0.000 C 
BRANCH   8   9
ATOM      9  C   UNL     1       9.013   8.506  -7.638  1.00  0.00     0.000 C 
BRANCH   9  10
ATOM     10  C   UNL     1       8.872   7.084  -8.212  1.00  0.00     0.000 C 
BRANCH  10  11
ATOM     11  C   UNL     1       7.644   6.338  -7.668  1.00  0.00     0.000 C 
BRANCH  11  12
ATOM     12  C   UNL     1       7.973   4.904  -7.222  1.00  0.00     0.006 C 
BRANCH  12  13
ATOM     13  C   UNL     1       8.884   4.169  -8.215  1.00  0.00     0.053 C 
BRANCH  13  14
ATOM     14  C   UNL     1      10.006   3.492  -7.491  1.00  0.00     0.041 C 
ATOM     15  O   UNL     1      10.864   4.174  -6.872  1.00  0.00    -0.550 OA
ATOM     16  O   UNL     1      10.075   2.104  -7.460  1.00  0.00    -0.550 OA
ENDBRANCH  13  14
ENDBRANCH  12  13
ENDBRANCH  11  12
ENDBRANCH  10  11
ENDBRANCH   9  10
ENDBRANCH   8   9
ENDBRANCH   7   8
ENDBRANCH   6   7
ENDBRANCH   5   6
ENDBRANCH   4   5
ENDBRANCH   3   4
ENDBRANCH   2   3
ENDBRANCH   1   2
BRANCH   1  17
ATOM     17  C   UNL     1       7.282   5.007  -2.937  1.00  0.00     0.000 C 
BRANCH  17  18
ATOM     18  C   UNL     1       7.712   4.673  -1.500  1.00  0.00     0.000 C 
BRANCH  18  19
ATOM     19  C   UNL     1       9.133   4.082  -1.429  1.00  0.00     0.000 C 
BRANCH  19  20
ATOM     20  C   UNL     1      10.147   4.877  -2.280  1.00  0.00     0.000 C 
BRANCH  20  21
ATOM     21  C   UNL     1      10.612   6.190  -1.629  1.00  0.00     0.000 C 
BRANCH  21  22
ATOM     22  C   UNL     1      10.877   6.051  -0.124  1.00  0.00    -0.000 C 
BRANCH  22  23
ATOM     23  C   UNL     1       9.899   6.904   0.692  1.00  0.00    -0.000 C 
BRANCH  23  24
ATOM     24  C   UNL     1       9.307   6.095   1.855  1.00  0.00    -0.000 C 
BRANCH  24  25
ATOM     25  C   UNL     1       9.419   6.824   3.206  1.00  0.00    -0.000 C 
BRANCH  25  26
ATOM     26  C   UNL     1       9.196   8.347   3.134  1.00  0.00    -0.000 C 
BRANCH  26  27
ATOM     27  C   UNL     1       9.182   9.038   4.517  1.00  0.00    -0.000 C 
BRANCH  27  28
ATOM     28  C   UNL     1       8.383  10.354   4.533  1.00  0.00    -0.000 C 
BRANCH  28  29
ATOM     29  C   UNL     1       8.147  10.871   5.960  1.00  0.00    -0.003 C 
ATOM     30  C   UNL     1       6.797  10.408   6.497  1.00  0.00     0.004 C 
ENDBRANCH  28  29
ENDBRANCH  27  28
ENDBRANCH  26  27
ENDBRANCH  25  26
ENDBRANCH  24  25
ENDBRANCH  23  24
ENDBRANCH  22  23
ENDBRANCH  21  22
ENDBRANCH  20  21
ENDBRANCH  19  20
ENDBRANCH  18  19
ENDBRANCH  17  18
ENDBRANCH   1  17
TORSDOF 26
ENDMDL
MODEL 9
REMARK VINA RESULT:    -3.586     14.753     17.506
REMARK INTER + INTRA:         -13.592
REMARK INTER:                  -9.860
REMARK INTRA:                  -3.733
REMARK UNBOUND:                -4.557
REMARK SMILES CCCCCCCCCCCCCCCCCCCCCCCCCCCC(=O)[O-]
REMARK SMILES IDX 15 1 16 2 17 3 18 4 19 5 20 6 21 7 22 8 23 9 24 10 25 11
REMARK SMILES IDX 26 12 27 13 28 14 29 15 30 16 14 17 13 18 12 19 11 20 10 21
REMARK SMILES IDX 9 22 8 23 7 24 6 25 5 26 4 27 3 28 2 29 1 30
REMARK H PARENT
REMARK Flexibility Score: inf
ROOT
ATOM      1  C   UNL     1      -0.553  -3.897  -6.771  1.00  0.00     0.000 C 
ENDROOT
BRANCH   1   2
ATOM      2  C   UNL     1      -0.070  -3.068  -7.974  1.00  0.00     0.000 C 
BRANCH   2   3
ATOM      3  C   UNL     1      -0.797  -1.717  -8.091  1.00  0.00     0.000 C 
BRANCH   3   4
ATOM      4  C   UNL     1      -0.949  -1.245  -9.545  1.00  0.00     0.000 C 
BRANCH   4   5
ATOM      5  C   UNL     1      -2.051  -0.186  -9.711  1.00  0.00     0.000 C 
BRANCH   5   6
ATOM      6  C   UNL     1      -2.206   0.652  -8.433  1.00  0.00     0.000 C 
BRANCH   6   7
ATOM      7  C   UNL     1      -3.248   1.774  -8.588  1.00  0.00     0.000 C 
BRANCH   7   8
ATOM      8  C   UNL     1      -4.650   1.235  -8.923  1.00  0.00     0.000 C 
BRANCH   8   9
ATOM      9  C   UNL     1      -5.767   2.220  -8.519  1.00  0.00     0.000 C 
BRANCH   9  10
ATOM     10  C   UNL     1      -7.141   1.554  -8.322  1.00  0.00     0.000 C 
BRANCH  10  11
ATOM     11  C   UNL     1      -7.042   0.038  -8.088  1.00  0.00     0.000 C 
BRANCH  11  12
ATOM     12  C   UNL     1      -8.178  -0.499  -7.203  1.00  0.00     0.006 C 
BRANCH  12  13
ATOM     13  C   UNL     1      -8.712   0.553  -6.221  1.00  0.00     0.053 C 
BRANCH  13  14
ATOM     14  C   UNL     1      -8.356   0.184  -4.815  1.00  0.00     0.041 C 
ATOM     15  O   UNL     1      -9.105   0.526  -3.862  1.00  0.00    -0.550 OA
ATOM     16  O   UNL     1      -7.222  -0.577  -4.562  1.00  0.00    -0.550 OA
ENDBRANCH  13  14
ENDBRANCH  12  13
ENDBRANCH  11  12
ENDBRANCH  10  11
ENDBRANCH   9  10
ENDBRANCH   8   9
ENDBRANCH   7   8
ENDBRANCH   6   7
ENDBRANCH   5   6
ENDBRANCH   4   5
ENDBRANCH   3   4
ENDBRANCH   2   3
ENDBRANCH   1   2
BRANCH   1  17
ATOM     17  C   UNL     1       0.551  -4.801  -6.194  1.00  0.00     0.000 C 
BRANCH  17  18
ATOM     18  C   UNL     1       0.250  -6.297  -6.376  1.00  0.00     0.000 C 
BRANCH  18  19
ATOM     19  C   UNL     1       0.099  -6.695  -7.857  1.00  0.00     0.000 C 
BRANCH  19  20
ATOM     20  C   UNL     1      -1.171  -7.535  -8.116  1.00  0.00     0.000 C 
BRANCH  20  21
ATOM     21  C   UNL     1      -2.056  -6.991  -9.251  1.00  0.00     0.000 C 
BRANCH  21  22
ATOM     22  C   UNL     1      -1.524  -5.682  -9.849  1.00  0.00    -0.000 C 
BRANCH  22  23
ATOM     23  C   UNL     1      -2.662  -4.685 -10.098  1.00  0.00    -0.000 C 
BRANCH  23  24
ATOM     24  C   UNL     1      -3.375  -4.331  -8.785  1.00  0.00    -0.000 C 
BRANCH  24  25
ATOM     25  C   UNL     1      -4.266  -3.083  -8.908  1.00  0.00    -0.000 C 
BRANCH  25  26
ATOM     26  C   UNL     1      -5.777  -3.356  -8.777  1.00  0.00    -0.000 C 
BRANCH  26  27
ATOM     27  C   UNL     1      -6.129  -4.384  -7.677  1.00  0.00    -0.000 C 
BRANCH  27  28
ATOM     28  C   UNL     1      -5.970  -3.827  -6.250  1.00  0.00    -0.000 C 
BRANCH  28  29
ATOM     29  C   UNL     1      -7.172  -4.171  -5.358  1.00  0.00    -0.003 C 
ATOM     30  C   UNL     1      -7.321  -5.680  -5.192  1.00  0.00     0.004 C 
ENDBRANCH  28  29
ENDBRANCH  27  28
ENDBRANCH  26  27
ENDBRANCH  25  26
ENDBRANCH  24  25
ENDBRANCH  23  24
ENDBRANCH  22  23
ENDBRANCH  21  22
ENDBRANCH  20  21
ENDBRANCH  19  20
ENDBRANCH  18  19
ENDBRANCH  17  18
ENDBRANCH   1  17
TORSDOF 26
ENDMDL
