MODEL 1
REMARK VINA RESULT:    21.231      0.000      0.000
REMARK INTER + INTRA:          37.704
REMARK INTER:                  32.401
REMARK INTRA:                   5.303
REMARK UNBOUND:                 5.303
REMARK SMILES CC1=CCC[C@@H](C)C(=O)C[C@@H](C(C)C)C(=O)C1
REMARK SMILES IDX 8 1 9 2 6 3 7 4 5 5 4 6 3 7 2 8 1 9 10 11 11 12 15 13 16 14
REMARK SMILES IDX 17 15 12 17 13 18 14 19
REMARK H PARENT
REMARK Flexibility Score: 70.00
ROOT
ATOM      1  C   UNL     1      82.957  13.801 107.237  1.00  0.00     0.136 C 
ATOM      2  O   UNL     1      83.801  12.959 106.968  1.00  0.00    -0.299 OA
ENDROOT
BRANCH   1   3
ATOM      3  C   UNL     1      82.750  14.961 106.277  1.00  0.00     0.053 C 
ATOM      4  C   UNL     1      83.035  14.490 104.846  1.00  0.00     0.016 C 
BRANCH   3   5
ATOM      5  C   UNL     1      83.611  16.204 106.621  1.00  0.00     0.015 C 
BRANCH   5   6
ATOM      6  C   UNL     1      84.571  16.049 107.823  1.00  0.00     0.028 C 
BRANCH   6   7
ATOM      7  C   UNL     1      85.915  15.422 107.538  1.00  0.00    -0.028 C 
ATOM      8  C   UNL     1      86.247  14.127 107.741  1.00  0.00    -0.070 CG0
ATOM      9  C   UNL     1      87.570  13.657 107.183  1.00  0.00     0.039 C 
ATOM     10  G   UNL     1      85.330  13.128 108.428  1.00  0.00     0.000 G0
ENDBRANCH   6   7
ENDBRANCH   5   6
ENDBRANCH   3   5
ENDBRANCH   1   3
BRANCH   1  11
ATOM     11  C   UNL     1      82.260  13.744 108.582  1.00  0.00     0.087 C 
BRANCH  11  12
ATOM     12  C   UNL     1      83.155  14.152 109.784  1.00  0.00     0.066 C 
BRANCH  12  13
ATOM     13  C   UNL     1      84.633  13.777 109.667  1.00  0.00     0.140 C 
ATOM     14  O   UNL     1      85.352  14.005 110.631  1.00  0.00    -0.299 OA
BRANCH  13  15
ATOM     15  C   UNL     1      85.272  13.146 108.448  1.00  0.00     0.106 CG0
ATOM     16  G   UNL     1      86.231  14.107 107.763  1.00  0.00     0.000 G0
ENDBRANCH  13  15
ENDBRANCH  12  13
BRANCH  12  17
ATOM     17  C   UNL     1      82.591  13.645 111.151  1.00  0.00    -0.006 C 
ATOM     18  C   UNL     1      82.359  12.124 111.185  1.00  0.00     0.008 C 
ATOM     19  C   UNL     1      81.315  14.389 111.577  1.00  0.00     0.008 C 
ENDBRANCH  12  17
ENDBRANCH  11  12
ENDBRANCH   1  11
TORSDOF 1
ENDMDL
MODEL 2
REMARK VINA RESULT:    21.903      1.957      4.627
REMARK INTER + INTRA:          38.730
REMARK INTER:                  37.791
REMARK INTRA:                   0.939
REMARK UNBOUND:                 5.303
REMARK SMILES CC1=CCC[C@@H](C)C(=O)C[C@@H](C(C)C)C(=O)C1
REMARK SMILES IDX 8 1 9 2 6 3 7 4 5 5 4 6 3 7 2 8 1 9 10 11 11 12 15 13 16 14
REMARK SMILES IDX 17 15 12 17 13 18 14 19
REMARK H PARENT
REMARK Flexibility Score: 70.00
ROOT
ATOM      1  C   UNL     1      84.728  14.675 110.174  1.00  0.00     0.136 C 
ATOM      2  O   UNL     1      85.676  13.999 110.547  1.00  0.00    -0.299 OA
ENDROOT
BRANCH   1   3
ATOM      3  C   UNL     1      83.447  13.970 109.758  1.00  0.00     0.053 C 
ATOM      4  C   UNL     1      82.634  13.618 111.009  1.00  0.00     0.016 C 
BRANCH   3   5
ATOM      5  C   UNL     1      83.695  12.706 108.896  1.00  0.00     0.015 C 
BRANCH   5   6
ATOM      6  C   UNL     1      83.511  12.880 107.371  1.00  0.00     0.028 C 
BRANCH   6   7
ATOM      7  C   UNL     1      82.550  13.955 106.926  1.00  0.00    -0.028 C 
ATOM      8  C   UNL     1      82.882  15.117 106.317  1.00  0.00    -0.070 CG0
ATOM      9  C   UNL     1      81.755  15.951 105.756  1.00  0.00     0.039 C 
ATOM     10  G   UNL     1      84.320  15.570 106.113  1.00  0.00     0.000 G0
ENDBRANCH   6   7
ENDBRANCH   5   6
ENDBRANCH   3   5
ENDBRANCH   1   3
BRANCH   1  11
ATOM     11  C   UNL     1      84.912  16.169 109.996  1.00  0.00     0.087 C 
BRANCH  11  12
ATOM     12  C   UNL     1      84.670  16.674 108.546  1.00  0.00     0.066 C 
BRANCH  12  13
ATOM     13  C   UNL     1      85.046  15.697 107.432  1.00  0.00     0.140 C 
ATOM     14  O   UNL     1      86.007  14.964 107.624  1.00  0.00    -0.299 OA
BRANCH  13  15
ATOM     15  C   UNL     1      84.318  15.570 106.110  1.00  0.00     0.106 CG0
ATOM     16  G   UNL     1      82.882  15.111 106.309  1.00  0.00     0.000 G0
ENDBRANCH  13  15
ENDBRANCH  12  13
BRANCH  12  17
ATOM     17  C   UNL     1      85.337  18.062 108.276  1.00  0.00    -0.006 C 
ATOM     18  C   UNL     1      85.674  18.834 109.564  1.00  0.00     0.008 C 
ATOM     19  C   UNL     1      84.509  18.942 107.327  1.00  0.00     0.008 C 
ENDBRANCH  12  17
ENDBRANCH  11  12
ENDBRANCH   1  11
TORSDOF 1
ENDMDL
MODEL 3
REMARK VINA RESULT:    21.949      1.484      4.085
REMARK INTER + INTRA:          38.801
REMARK INTER:                  36.533
REMARK INTRA:                   2.268
REMARK UNBOUND:                 5.303
REMARK SMILES CC1=CCC[C@@H](C)C(=O)C[C@@H](C(C)C)C(=O)C1
REMARK SMILES IDX 8 1 9 2 6 3 7 4 5 5 4 6 3 7 2 8 1 9 10 11 11 12 15 13 16 14
REMARK SMILES IDX 17 15 12 17 13 18 14 19
REMARK H PARENT
REMARK Flexibility Score: 70.00
ROOT
ATOM      1  C   UNL     1      84.502  14.445 110.006  1.00  0.00     0.136 C 
ATOM      2  O   UNL     1      85.371  13.687 110.412  1.00  0.00    -0.299 OA
ENDROOT
BRANCH   1   3
ATOM      3  C   UNL     1      83.128  13.876 109.689  1.00  0.00     0.053 C 
ATOM      4  C   UNL     1      82.311  13.774 110.983  1.00  0.00     0.016 C 
BRANCH   3   5
ATOM      5  C   UNL     1      83.183  12.504 108.971  1.00  0.00     0.015 C 
BRANCH   5   6
ATOM      6  C   UNL     1      83.814  12.503 107.560  1.00  0.00     0.028 C 
BRANCH   6   7
ATOM      7  C   UNL     1      85.316  12.645 107.492  1.00  0.00    -0.028 C 
ATOM      8  C   UNL     1      85.993  13.736 107.069  1.00  0.00    -0.070 CG0
ATOM      9  C   UNL     1      87.488  13.751 107.289  1.00  0.00     0.039 C 
ATOM     10  G   UNL     1      85.316  14.955 106.462  1.00  0.00     0.000 G0
ENDBRANCH   6   7
ENDBRANCH   5   6
ENDBRANCH   3   5
ENDBRANCH   1   3
BRANCH   1  11
ATOM     11  C   UNL     1      84.863  15.882 109.689  1.00  0.00     0.087 C 
BRANCH  11  12
ATOM     12  C   UNL     1      84.213  16.433 108.390  1.00  0.00     0.066 C 
BRANCH  12  13
ATOM     13  C   UNL     1      84.147  15.456 107.216  1.00  0.00     0.140 C 
ATOM     14  O   UNL     1      83.043  15.046 106.884  1.00  0.00    -0.299 OA
BRANCH  13  15
ATOM     15  C   UNL     1      85.345  14.959 106.435  1.00  0.00     0.106 CG0
ATOM     16  G   UNL     1      85.969  13.738 107.093  1.00  0.00     0.000 G0
ENDBRANCH  13  15
ENDBRANCH  12  13
BRANCH  12  17
ATOM     17  C   UNL     1      84.860  17.777 107.920  1.00  0.00    -0.006 C 
ATOM     18  C   UNL     1      85.518  18.567 109.065  1.00  0.00     0.008 C 
ATOM     19  C   UNL     1      83.875  18.671 107.151  1.00  0.00     0.008 C 
ENDBRANCH  12  17
ENDBRANCH  11  12
ENDBRANCH   1  11
TORSDOF 1
ENDMDL
MODEL 4
REMARK VINA RESULT:    21.966      1.505      3.640
REMARK INTER + INTRA:          38.826
REMARK INTER:                  36.565
REMARK INTRA:                   2.260
REMARK UNBOUND:                 5.303
REMARK SMILES CC1=CCC[C@@H](C)C(=O)C[C@@H](C(C)C)C(=O)C1
REMARK SMILES IDX 8 1 9 2 6 3 7 4 5 5 4 6 3 7 2 8 1 9 10 11 11 12 15 13 16 14
REMARK SMILES IDX 17 15 12 17 13 18 14 19
REMARK H PARENT
REMARK Flexibility Score: 70.00
ROOT
ATOM      1  C   UNL     1      82.920  13.975 107.210  1.00  0.00     0.136 C 
ATOM      2  O   UNL     1      83.462  12.886 107.087  1.00  0.00    -0.299 OA
ENDROOT
BRANCH   1   3
ATOM      3  C   UNL     1      81.613  14.057 107.983  1.00  0.00     0.053 C 
ATOM      4  C   UNL     1      80.708  15.112 107.337  1.00  0.00     0.016 C 
BRANCH   3   5
ATOM      5  C   UNL     1      81.810  14.359 109.491  1.00  0.00     0.015 C 
BRANCH   5   6
ATOM      6  C   UNL     1      82.631  13.319 110.288  1.00  0.00     0.028 C 
BRANCH   6   7
ATOM      7  C   UNL     1      83.967  13.778 110.820  1.00  0.00    -0.028 C 
ATOM      8  C   UNL     1      85.093  13.961 110.093  1.00  0.00    -0.070 CG0
ATOM      9  C   UNL     1      86.258  14.634 110.780  1.00  0.00     0.039 C 
ATOM     10  G   UNL     1      85.204  13.593 108.621  1.00  0.00     0.000 G0
ENDBRANCH   6   7
ENDBRANCH   5   6
ENDBRANCH   3   5
ENDBRANCH   1   3
BRANCH   1  11
ATOM     11  C   UNL     1      83.482  15.169 106.465  1.00  0.00     0.087 C 
BRANCH  11  12
ATOM     12  C   UNL     1      84.818  15.713 107.043  1.00  0.00     0.066 C 
BRANCH  12  13
ATOM     13  C   UNL     1      85.702  14.684 107.750  1.00  0.00     0.140 C 
ATOM     14  O   UNL     1      86.911  14.773 107.589  1.00  0.00    -0.299 OA
BRANCH  13  15
ATOM     15  C   UNL     1      85.190  13.565 108.633  1.00  0.00     0.106 CG0
ATOM     16  G   UNL     1      85.107  14.000 110.088  1.00  0.00     0.000 G0
ENDBRANCH  13  15
ENDBRANCH  12  13
BRANCH  12  17
ATOM     17  C   UNL     1      84.608  16.953 107.972  1.00  0.00    -0.006 C 
ATOM     18  C   UNL     1      83.452  17.862 107.519  1.00  0.00     0.008 C 
ATOM     19  C   UNL     1      85.892  17.775 108.161  1.00  0.00     0.008 C 
ENDBRANCH  12  17
ENDBRANCH  11  12
ENDBRANCH   1  11
TORSDOF 1
ENDMDL
MODEL 5
REMARK VINA RESULT:    22.485      8.628     10.413
REMARK INTER + INTRA:          39.619
REMARK INTER:                  38.801
REMARK INTRA:                   0.817
REMARK UNBOUND:                 5.303
REMARK SMILES CC1=CCC[C@@H](C)C(=O)C[C@@H](C(C)C)C(=O)C1
REMARK SMILES IDX 8 1 9 2 6 3 7 4 5 5 4 6 3 7 2 8 1 9 10 11 11 12 15 13 16 14
REMARK SMILES IDX 17 15 12 17 13 18 14 19
REMARK H PARENT
REMARK Flexibility Score: 70.00
ROOT
ATOM      1  C   UNL     1      90.037  19.422 112.238  1.00  0.00     0.136 C 
ATOM      2  O   UNL     1      89.923  18.623 113.157  1.00  0.00    -0.299 OA
ENDROOT
BRANCH   1   3
ATOM      3  C   UNL     1      91.142  20.463 112.308  1.00  0.00     0.053 C 
ATOM      4  C   UNL     1      92.487  19.794 112.000  1.00  0.00     0.016 C 
BRANCH   3   5
ATOM      5  C   UNL     1      91.202  21.204 113.669  1.00  0.00     0.015 C 
BRANCH   5   6
ATOM      6  C   UNL     1      91.003  22.735 113.614  1.00  0.00     0.028 C 
BRANCH   6   7
ATOM      7  C   UNL     1      90.963  23.362 112.241  1.00  0.00    -0.028 C 
ATOM      8  C   UNL     1      89.848  23.670 111.539  1.00  0.00    -0.070 CG0
ATOM      9  C   UNL     1      90.026  24.492 110.284  1.00  0.00     0.039 C 
ATOM     10  G   UNL     1      88.446  23.294 111.993  1.00  0.00     0.000 G0
ENDBRANCH   6   7
ENDBRANCH   5   6
ENDBRANCH   3   5
ENDBRANCH   1   3
BRANCH   1  11
ATOM     11  C   UNL     1      88.987  19.445 111.146  1.00  0.00     0.087 C 
BRANCH  11  12
ATOM     12  C   UNL     1      88.450  20.862 110.805  1.00  0.00     0.066 C 
BRANCH  12  13
ATOM     13  C   UNL     1      88.257  21.803 111.995  1.00  0.00     0.140 C 
ATOM     14  O   UNL     1      87.894  21.308 113.053  1.00  0.00    -0.299 OA
BRANCH  13  15
ATOM     15  C   UNL     1      88.481  23.300 111.959  1.00  0.00     0.106 CG0
ATOM     16  G   UNL     1      89.900  23.639 111.528  1.00  0.00     0.000 G0
ENDBRANCH  13  15
ENDBRANCH  12  13
BRANCH  12  17
ATOM     17  C   UNL     1      87.141  20.818 109.951  1.00  0.00    -0.006 C 
ATOM     18  C   UNL     1      86.891  19.449 109.294  1.00  0.00     0.008 C 
ATOM     19  C   UNL     1      87.084  21.935 108.897  1.00  0.00     0.008 C 
ENDBRANCH  12  17
ENDBRANCH  11  12
ENDBRANCH   1  11
TORSDOF 1
ENDMDL
MODEL 6
REMARK VINA RESULT:    22.539      8.399     10.236
REMARK INTER + INTRA:          39.700
REMARK INTER:                  37.941
REMARK INTRA:                   1.759
REMARK UNBOUND:                 5.303
REMARK SMILES CC1=CCC[C@@H](C)C(=O)C[C@@H](C(C)C)C(=O)C1
REMARK SMILES IDX 8 1 9 2 6 3 7 4 5 5 4 6 3 7 2 8 1 9 10 11 11 12 15 13 16 14
REMARK SMILES IDX 17 15 12 17 13 18 14 19
REMARK H PARENT
REMARK Flexibility Score: 70.00
ROOT
ATOM      1  C   UNL     1      90.371  22.880 111.934  1.00  0.00     0.136 C 
ATOM      2  O   UNL     1      91.189  23.323 111.139  1.00  0.00    -0.299 OA
ENDROOT
BRANCH   1   3
ATOM      3  C   UNL     1      90.853  21.947 113.033  1.00  0.00     0.053 C 
ATOM      4  C   UNL     1      90.813  22.684 114.377  1.00  0.00     0.016 C 
BRANCH   3   5
ATOM      5  C   UNL     1      92.267  21.370 112.772  1.00  0.00     0.015 C 
BRANCH   5   6
ATOM      6  C   UNL     1      92.316  19.950 112.163  1.00  0.00     0.028 C 
BRANCH   6   7
ATOM      7  C   UNL     1      91.433  18.908 112.807  1.00  0.00    -0.028 C 
ATOM      8  C   UNL     1      90.136  18.668 112.506  1.00  0.00    -0.070 CG0
ATOM      9  C   UNL     1      89.502  17.438 113.110  1.00  0.00     0.039 C 
ATOM     10  G   UNL     1      89.330  19.528 111.544  1.00  0.00     0.000 G0
ENDBRANCH   6   7
ENDBRANCH   5   6
ENDBRANCH   3   5
ENDBRANCH   1   3
BRANCH   1  11
ATOM     11  C   UNL     1      88.898  23.152 111.706  1.00  0.00     0.087 C 
BRANCH  11  12
ATOM     12  C   UNL     1      88.040  21.876 111.481  1.00  0.00     0.066 C 
BRANCH  12  13
ATOM     13  C   UNL     1      88.531  20.614 112.189  1.00  0.00     0.140 C 
ATOM     14  O   UNL     1      88.271  20.495 113.379  1.00  0.00    -0.299 OA
BRANCH  13  15
ATOM     15  C   UNL     1      89.315  19.500 111.527  1.00  0.00     0.106 CG0
ATOM     16  G   UNL     1      90.108  18.697 112.547  1.00  0.00     0.000 G0
ENDBRANCH  13  15
ENDBRANCH  12  13
BRANCH  12  17
ATOM     17  C   UNL     1      87.805  21.571 109.966  1.00  0.00    -0.006 C 
ATOM     18  C   UNL     1      87.770  22.836 109.090  1.00  0.00     0.008 C 
ATOM     19  C   UNL     1      86.550  20.719 109.721  1.00  0.00     0.008 C 
ENDBRANCH  12  17
ENDBRANCH  11  12
ENDBRANCH   1  11
TORSDOF 1
ENDMDL
MODEL 7
REMARK VINA RESULT:    22.877      8.960     10.523
REMARK INTER + INTRA:          40.217
REMARK INTER:                  38.995
REMARK INTRA:                   1.222
REMARK UNBOUND:                 5.303
REMARK SMILES CC1=CCC[C@@H](C)C(=O)C[C@@H](C(C)C)C(=O)C1
REMARK SMILES IDX 8 1 9 2 6 3 7 4 5 5 4 6 3 7 2 8 1 9 10 11 11 12 15 13 16 14
REMARK SMILES IDX 17 15 12 17 13 18 14 19
REMARK H PARENT
REMARK Flexibility Score: 70.00
ROOT
ATOM      1  C   UNL     1      87.871  21.160 111.363  1.00  0.00     0.136 C 
ATOM      2  O   UNL     1      87.334  21.420 112.430  1.00  0.00    -0.299 OA
ENDROOT
BRANCH   1   3
ATOM      3  C   UNL     1      87.037  21.215 110.093  1.00  0.00     0.053 C 
ATOM      4  C   UNL     1      86.972  19.815 109.470  1.00  0.00     0.016 C 
BRANCH   3   5
ATOM      5  C   UNL     1      87.559  22.246 109.061  1.00  0.00     0.015 C 
BRANCH   5   6
ATOM      6  C   UNL     1      88.749  23.120 109.520  1.00  0.00     0.028 C 
BRANCH   6   7
ATOM      7  C   UNL     1      88.520  23.988 110.733  1.00  0.00    -0.028 C 
ATOM      8  C   UNL     1      89.372  24.142 111.773  1.00  0.00    -0.070 CG0
ATOM      9  C   UNL     1      89.050  25.225 112.776  1.00  0.00     0.039 C 
ATOM     10  G   UNL     1      90.652  23.336 111.930  1.00  0.00     0.000 G0
ENDBRANCH   6   7
ENDBRANCH   5   6
ENDBRANCH   3   5
ENDBRANCH   1   3
BRANCH   1  11
ATOM     11  C   UNL     1      89.297  20.647 111.360  1.00  0.00     0.087 C 
BRANCH  11  12
ATOM     12  C   UNL     1      90.054  20.854 112.701  1.00  0.00     0.066 C 
BRANCH  12  13
ATOM     13  C   UNL     1      90.527  22.280 112.982  1.00  0.00     0.140 C 
ATOM     14  O   UNL     1      90.825  22.560 114.135  1.00  0.00    -0.299 OA
BRANCH  13  15
ATOM     15  C   UNL     1      90.654  23.371 111.939  1.00  0.00     0.106 CG0
ATOM     16  G   UNL     1      89.358  24.153 111.794  1.00  0.00     0.000 G0
ENDBRANCH  13  15
ENDBRANCH  12  13
BRANCH  12  17
ATOM     17  C   UNL     1      91.248  19.859 112.875  1.00  0.00    -0.006 C 
ATOM     18  C   UNL     1      92.372  20.077 111.847  1.00  0.00     0.008 C 
ATOM     19  C   UNL     1      90.800  18.390 112.873  1.00  0.00     0.008 C 
ENDBRANCH  12  17
ENDBRANCH  11  12
ENDBRANCH   1  11
TORSDOF 1
ENDMDL
MODEL 8
REMARK VINA RESULT:    23.124      2.010      3.425
REMARK INTER + INTRA:          40.593
REMARK INTER:                  39.268
REMARK INTRA:                   1.325
REMARK UNBOUND:                 5.303
REMARK SMILES CC1=CCC[C@@H](C)C(=O)C[C@@H](C(C)C)C(=O)C1
REMARK SMILES IDX 8 1 9 2 6 3 7 4 5 5 4 6 3 7 2 8 1 9 10 11 11 12 15 13 16 14
REMARK SMILES IDX 17 15 12 17 13 18 14 19
REMARK H PARENT
REMARK Flexibility Score: 70.00
ROOT
ATOM      1  C   UNL     1      85.054  16.153 107.874  1.00  0.00     0.136 C 
ATOM      2  O   UNL     1      85.805  15.446 107.219  1.00  0.00    -0.299 OA
ENDROOT
BRANCH   1   3
ATOM      3  C   UNL     1      85.012  17.644 107.579  1.00  0.00     0.053 C 
ATOM      4  C   UNL     1      85.621  18.411 108.759  1.00  0.00     0.016 C 
BRANCH   3   5
ATOM      5  C   UNL     1      83.587  18.168 107.267  1.00  0.00     0.015 C 
BRANCH   5   6
ATOM      6  C   UNL     1      82.544  17.097 106.874  1.00  0.00     0.028 C 
BRANCH   6   7
ATOM      7  C   UNL     1      82.923  16.166 105.748  1.00  0.00    -0.028 C 
ATOM      8  C   UNL     1      82.809  14.817 105.758  1.00  0.00    -0.070 CG0
ATOM      9  C   UNL     1      83.036  14.095 104.451  1.00  0.00     0.039 C 
ATOM     10  G   UNL     1      82.396  14.024 106.988  1.00  0.00     0.000 G0
ENDBRANCH   6   7
ENDBRANCH   5   6
ENDBRANCH   3   5
ENDBRANCH   1   3
BRANCH   1  11
ATOM     11  C   UNL     1      84.312  15.552 109.050  1.00  0.00     0.087 C 
BRANCH  11  12
ATOM     12  C   UNL     1      84.181  14.005 109.001  1.00  0.00     0.066 C 
BRANCH  12  13
ATOM     13  C   UNL     1      83.586  13.430 107.715  1.00  0.00     0.140 C 
ATOM     14  O   UNL     1      84.107  12.426 107.250  1.00  0.00    -0.299 OA
BRANCH  13  15
ATOM     15  C   UNL     1      82.400  14.013 106.975  1.00  0.00     0.106 CG0
ATOM     16  G   UNL     1      82.841  14.797 105.749  1.00  0.00     0.000 G0
ENDBRANCH  13  15
ENDBRANCH  12  13
BRANCH  12  17
ATOM     17  C   UNL     1      83.418  13.427 110.237  1.00  0.00    -0.006 C 
ATOM     18  C   UNL     1      81.999  14.000 110.396  1.00  0.00     0.008 C 
ATOM     19  C   UNL     1      84.207  13.586 111.547  1.00  0.00     0.008 C 
ENDBRANCH  12  17
ENDBRANCH  11  12
ENDBRANCH   1  11
TORSDOF 1
ENDMDL
MODEL 9
REMARK VINA RESULT:    23.936      1.471      3.209
REMARK INTER + INTRA:          41.833
REMARK INTER:                  38.239
REMARK INTRA:                   3.593
REMARK UNBOUND:                 5.303
REMARK SMILES CC1=CCC[C@@H](C)C(=O)C[C@@H](C(C)C)C(=O)C1
REMARK SMILES IDX 8 1 9 2 6 3 7 4 5 5 4 6 3 7 2 8 1 9 10 11 11 12 15 13 16 14
REMARK SMILES IDX 17 15 12 17 13 18 14 19
REMARK H PARENT
REMARK Flexibility Score: 70.00
ROOT
ATOM      1  C   UNL     1      85.516  14.245 110.105  1.00  0.00     0.136 C 
ATOM      2  O   UNL     1      86.622  14.300 110.624  1.00  0.00    -0.299 OA
ENDROOT
BRANCH   1   3
ATOM      3  C   UNL     1      85.381  14.604 108.634  1.00  0.00     0.053 C 
ATOM      4  C   UNL     1      86.692  14.275 107.910  1.00  0.00     0.016 C 
BRANCH   3   5
ATOM      5  C   UNL     1      84.987  16.085 108.398  1.00  0.00     0.015 C 
BRANCH   5   6
ATOM      6  C   UNL     1      84.501  16.436 106.973  1.00  0.00     0.028 C 
BRANCH   6   7
ATOM      7  C   UNL     1      83.952  15.297 106.147  1.00  0.00    -0.028 C 
ATOM      8  C   UNL     1      83.042  14.384 106.557  1.00  0.00    -0.070 CG0
ATOM      9  C   UNL     1      82.464  13.465 105.506  1.00  0.00     0.039 C 
ATOM     10  G   UNL     1      82.532  14.297 107.987  1.00  0.00     0.000 G0
ENDBRANCH   6   7
ENDBRANCH   5   6
ENDBRANCH   3   5
ENDBRANCH   1   3
BRANCH   1  11
ATOM     11  C   UNL     1      84.305  13.972 110.974  1.00  0.00     0.087 C 
BRANCH  11  12
ATOM     12  C   UNL     1      83.213  13.099 110.295  1.00  0.00     0.066 C 
BRANCH  12  13
ATOM     13  C   UNL     1      83.161  13.173 108.769  1.00  0.00     0.140 C 
ATOM     14  O   UNL     1      83.661  12.250 108.140  1.00  0.00    -0.299 OA
BRANCH  13  15
ATOM     15  C   UNL     1      82.537  14.304 107.978  1.00  0.00     0.106 CG0
ATOM     16  G   UNL     1      83.060  14.339 106.551  1.00  0.00     0.000 G0
ENDBRANCH  13  15
ENDBRANCH  12  13
BRANCH  12  17
ATOM     17  C   UNL     1      81.788  13.357 110.883  1.00  0.00    -0.006 C 
ATOM     18  C   UNL     1      81.664  14.711 111.604  1.00  0.00     0.008 C 
ATOM     19  C   UNL     1      81.311  12.219 111.800  1.00  0.00     0.008 C 
ENDBRANCH  12  17
ENDBRANCH  11  12
ENDBRANCH   1  11
TORSDOF 1
ENDMDL
