MODEL 1
REMARK VINA RESULT:    -4.555      0.000      0.000
REMARK INTER + INTRA:          -5.265
REMARK INTER:                  -5.221
REMARK INTRA:                  -0.045
REMARK UNBOUND:                -0.045
REMARK SMILES O=C([O-])c1cc(O)c(O)c(O)c1
REMARK SMILES IDX 4 1 5 2 12 3 6 4 10 5 8 6 2 7 1 8 3 9 7 10 11 12 9 14
REMARK H PARENT 7 11 11 13 9 15
REMARK Flexibility Score: inf
ROOT
ATOM      1  C   UNL     1       2.176 -11.950   4.545  1.00  0.00     0.005 A 
ATOM      2  C   UNL     1       2.885 -10.907   3.929  1.00  0.00     0.060 A 
ATOM      3  C   UNL     1       2.086 -13.189   3.894  1.00  0.00     0.060 A 
ATOM      4  C   UNL     1       3.493 -11.095   2.684  1.00  0.00     0.162 A 
ATOM      5  C   UNL     1       2.688 -13.395   2.648  1.00  0.00     0.162 A 
ATOM      6  C   UNL     1       3.402 -12.338   2.032  1.00  0.00     0.200 A 
ENDROOT
BRANCH   1   7
ATOM      7  C   UNL     1       1.534 -11.749   5.863  1.00  0.00     0.072 C 
ATOM      8  O   UNL     1       2.175 -11.953   6.927  1.00  0.00    -0.545 OA
ATOM      9  O   UNL     1       0.210 -11.332   5.946  1.00  0.00    -0.545 OA
ENDBRANCH   1   7
BRANCH   4  10
ATOM     10  O   UNL     1       4.187 -10.031   2.110  1.00  0.00    -0.504 OA
ATOM     11  H   UNL     1       3.764  -9.122   1.967  1.00  0.00     0.293 HD
ENDBRANCH   4  10
BRANCH   5  12
ATOM     12  O   UNL     1       2.553 -14.656   2.063  1.00  0.00    -0.504 OA
ATOM     13  H   UNL     1       2.278 -14.811   1.104  1.00  0.00     0.293 HD
ENDBRANCH   5  12
BRANCH   6  14
ATOM     14  O   UNL     1       4.024 -12.485   0.789  1.00  0.00    -0.502 OA
ATOM     15  H   UNL     1       3.742 -11.996  -0.048  1.00  0.00     0.293 HD
ENDBRANCH   6  14
TORSDOF 4
ENDMDL
MODEL 2
REMARK VINA RESULT:    -4.551      1.525      4.349
REMARK INTER + INTRA:          -5.260
REMARK INTER:                  -5.215
REMARK INTRA:                  -0.046
REMARK UNBOUND:                -0.045
REMARK SMILES O=C([O-])c1cc(O)c(O)c(O)c1
REMARK SMILES IDX 4 1 5 2 12 3 6 4 10 5 8 6 2 7 1 8 3 9 7 10 11 12 9 14
REMARK H PARENT 7 11 11 13 9 15
REMARK Flexibility Score: inf
ROOT
ATOM      1  C   UNL     1       3.723 -12.138   1.564  1.00  0.00     0.005 A 
ATOM      2  C   UNL     1       3.575 -11.074   2.468  1.00  0.00     0.060 A 
ATOM      3  C   UNL     1       3.131 -13.374   1.865  1.00  0.00     0.060 A 
ATOM      4  C   UNL     1       2.851 -11.239   3.652  1.00  0.00     0.162 A 
ATOM      5  C   UNL     1       2.402 -13.557   3.046  1.00  0.00     0.162 A 
ATOM      6  C   UNL     1       2.257 -12.479   3.953  1.00  0.00     0.200 A 
ENDROOT
BRANCH   1   7
ATOM      7  C   UNL     1       4.490 -11.962   0.312  1.00  0.00     0.072 C 
ATOM      8  O   UNL     1       4.088 -11.169  -0.581  1.00  0.00    -0.545 OA
ATOM      9  O   UNL     1       5.668 -12.670   0.100  1.00  0.00    -0.545 OA
ENDBRANCH   1   7
BRANCH   4  10
ATOM     10  O   UNL     1       2.730 -10.154   4.520  1.00  0.00    -0.504 OA
ATOM     11  H   UNL     1       1.856  -9.661   4.652  1.00  0.00     0.293 HD
ENDBRANCH   4  10
BRANCH   5  12
ATOM     12  O   UNL     1       1.843 -14.816   3.275  1.00  0.00    -0.504 OA
ATOM     13  H   UNL     1       0.914 -15.086   2.987  1.00  0.00     0.293 HD
ENDBRANCH   5  12
BRANCH   6  14
ATOM     14  O   UNL     1       1.542 -12.601   5.147  1.00  0.00    -0.502 OA
ATOM     15  H   UNL     1       1.196 -11.821   5.684  1.00  0.00     0.293 HD
ENDBRANCH   6  14
TORSDOF 4
ENDMDL
MODEL 3
REMARK VINA RESULT:    -4.547      0.096      2.617
REMARK INTER + INTRA:          -5.256
REMARK INTER:                  -5.211
REMARK INTRA:                  -0.045
REMARK UNBOUND:                -0.045
REMARK SMILES O=C([O-])c1cc(O)c(O)c(O)c1
REMARK SMILES IDX 4 1 5 2 12 3 6 4 10 5 8 6 2 7 1 8 3 9 7 10 11 12 9 14
REMARK H PARENT 7 11 11 13 9 15
REMARK Flexibility Score: inf
ROOT
ATOM      1  C   UNL     1       2.166 -12.001   4.540  1.00  0.00     0.005 A 
ATOM      2  C   UNL     1       2.060 -13.243   3.896  1.00  0.00     0.060 A 
ATOM      3  C   UNL     1       2.891 -10.973   3.920  1.00  0.00     0.060 A 
ATOM      4  C   UNL     1       2.667 -13.458   2.655  1.00  0.00     0.162 A 
ATOM      5  C   UNL     1       3.505 -11.170   2.678  1.00  0.00     0.162 A 
ATOM      6  C   UNL     1       3.394 -12.426   2.034  1.00  0.00     0.200 A 
ENDROOT
BRANCH   1   7
ATOM      7  C   UNL     1       1.522 -11.776   5.853  1.00  0.00     0.072 C 
ATOM      8  O   UNL     1       0.319 -11.409   5.923  1.00  0.00    -0.545 OA
ATOM      9  O   UNL     1       2.237 -11.965   7.030  1.00  0.00    -0.545 OA
ENDBRANCH   1   7
BRANCH   4  10
ATOM     10  O   UNL     1       2.536 -14.709   2.052  1.00  0.00    -0.504 OA
ATOM     11  H   UNL     1       1.862 -14.888   1.318  1.00  0.00     0.293 HD
ENDBRANCH   4  10
BRANCH   5  12
ATOM     12  O   UNL     1       4.209 -10.098   2.125  1.00  0.00    -0.504 OA
ATOM     13  H   UNL     1       4.015  -9.127   2.325  1.00  0.00     0.293 HD
ENDBRANCH   5  12
BRANCH   6  14
ATOM     14  O   UNL     1       3.986 -12.682   0.794  1.00  0.00    -0.502 OA
ATOM     15  H   UNL     1       4.955 -12.932   0.668  1.00  0.00     0.293 HD
ENDBRANCH   6  14
TORSDOF 4
ENDMDL
MODEL 4
REMARK VINA RESULT:    -4.466      1.535      4.968
REMARK INTER + INTRA:          -5.164
REMARK INTER:                  -5.117
REMARK INTRA:                  -0.046
REMARK UNBOUND:                -0.045
REMARK SMILES O=C([O-])c1cc(O)c(O)c(O)c1
REMARK SMILES IDX 4 1 5 2 12 3 6 4 10 5 8 6 2 7 1 8 3 9 7 10 11 12 9 14
REMARK H PARENT 7 11 11 13 9 15
REMARK Flexibility Score: inf
ROOT
ATOM      1  C   UNL     1       3.737 -12.143   1.553  1.00  0.00     0.005 A 
ATOM      2  C   UNL     1       3.147 -13.378   1.862  1.00  0.00     0.060 A 
ATOM      3  C   UNL     1       3.587 -11.074   2.449  1.00  0.00     0.060 A 
ATOM      4  C   UNL     1       2.418 -13.546   3.043  1.00  0.00     0.162 A 
ATOM      5  C   UNL     1       2.862 -11.224   3.636  1.00  0.00     0.162 A 
ATOM      6  C   UNL     1       2.268 -12.473   3.941  1.00  0.00     0.200 A 
ENDROOT
BRANCH   1   7
ATOM      7  C   UNL     1       4.508 -11.967   0.302  1.00  0.00     0.072 C 
ATOM      8  O   UNL     1       4.154 -11.114  -0.555  1.00  0.00    -0.545 OA
ATOM      9  O   UNL     1       5.636 -12.741   0.054  1.00  0.00    -0.545 OA
ENDBRANCH   1   7
BRANCH   4  10
ATOM     10  O   UNL     1       1.850 -14.791   3.308  1.00  0.00    -0.504 OA
ATOM     11  H   UNL     1       1.640 -15.102   4.248  1.00  0.00     0.293 HD
ENDBRANCH   4  10
BRANCH   5  12
ATOM     12  O   UNL     1       2.756 -10.114   4.477  1.00  0.00    -0.504 OA
ATOM     13  H   UNL     1       2.032  -9.993   5.170  1.00  0.00     0.293 HD
ENDBRANCH   5  12
BRANCH   6  14
ATOM     14  O   UNL     1       1.532 -12.683   5.111  1.00  0.00    -0.502 OA
ATOM     15  H   UNL     1       1.802 -12.341   6.020  1.00  0.00     0.293 HD
ENDBRANCH   6  14
TORSDOF 4
ENDMDL
MODEL 5
REMARK VINA RESULT:    -4.159      9.807     10.327
REMARK INTER + INTRA:          -4.812
REMARK INTER:                  -4.767
REMARK INTRA:                  -0.045
REMARK UNBOUND:                -0.045
REMARK SMILES O=C([O-])c1cc(O)c(O)c(O)c1
REMARK SMILES IDX 4 1 5 2 12 3 6 4 10 5 8 6 2 7 1 8 3 9 7 10 11 12 9 14
REMARK H PARENT 7 11 11 13 9 15
REMARK Flexibility Score: inf
ROOT
ATOM      1  C   UNL     1       0.199 -18.542  -3.626  1.00  0.00     0.005 A 
ATOM      2  C   UNL     1      -0.038 -17.676  -4.704  1.00  0.00     0.060 A 
ATOM      3  C   UNL     1       1.501 -19.016  -3.408  1.00  0.00     0.060 A 
ATOM      4  C   UNL     1       1.004 -17.289  -5.552  1.00  0.00     0.162 A 
ATOM      5  C   UNL     1       2.556 -18.639  -4.246  1.00  0.00     0.162 A 
ATOM      6  C   UNL     1       2.310 -17.765  -5.333  1.00  0.00     0.200 A 
ENDROOT
BRANCH   1   7
ATOM      7  C   UNL     1      -0.905 -18.950  -2.730  1.00  0.00     0.072 C 
ATOM      8  O   UNL     1      -1.009 -18.460  -1.575  1.00  0.00    -0.545 OA
ATOM      9  O   UNL     1      -1.847 -19.883  -3.151  1.00  0.00    -0.545 OA
ENDBRANCH   1   7
BRANCH   4  10
ATOM     10  O   UNL     1       0.721 -16.427  -6.611  1.00  0.00    -0.504 OA
ATOM     11  H   UNL     1       1.442 -16.071  -7.227  1.00  0.00     0.293 HD
ENDBRANCH   4  10
BRANCH   5  12
ATOM     12  O   UNL     1       3.824 -19.153  -3.964  1.00  0.00    -0.504 OA
ATOM     13  H   UNL     1       4.641 -18.997  -4.537  1.00  0.00     0.293 HD
ENDBRANCH   5  12
BRANCH   6  14
ATOM     14  O   UNL     1       3.323 -17.354  -6.203  1.00  0.00    -0.502 OA
ATOM     15  H   UNL     1       3.939 -16.575  -6.029  1.00  0.00     0.293 HD
ENDBRANCH   6  14
TORSDOF 4
ENDMDL
MODEL 6
REMARK VINA RESULT:    -4.134      9.822     10.432
REMARK INTER + INTRA:          -4.783
REMARK INTER:                  -4.737
REMARK INTRA:                  -0.045
REMARK UNBOUND:                -0.045
REMARK SMILES O=C([O-])c1cc(O)c(O)c(O)c1
REMARK SMILES IDX 4 1 5 2 12 3 6 4 10 5 8 6 2 7 1 8 3 9 7 10 11 12 9 14
REMARK H PARENT 7 11 11 13 9 15
REMARK Flexibility Score: inf
ROOT
ATOM      1  C   UNL     1       0.200 -18.551  -3.652  1.00  0.00     0.005 A 
ATOM      2  C   UNL     1       1.514 -18.987  -3.426  1.00  0.00     0.060 A 
ATOM      3  C   UNL     1      -0.058 -17.706  -4.742  1.00  0.00     0.060 A 
ATOM      4  C   UNL     1       2.555 -18.588  -4.271  1.00  0.00     0.162 A 
ATOM      5  C   UNL     1       0.970 -17.297  -5.598  1.00  0.00     0.162 A 
ATOM      6  C   UNL     1       2.295 -17.741  -5.363  1.00  0.00     0.200 A 
ENDROOT
BRANCH   1   7
ATOM      7  C   UNL     1      -0.899 -18.974  -2.758  1.00  0.00     0.072 C 
ATOM      8  O   UNL     1      -0.991 -18.512  -1.589  1.00  0.00    -0.545 OA
ATOM      9  O   UNL     1      -1.850 -19.890  -3.193  1.00  0.00    -0.545 OA
ENDBRANCH   1   7
BRANCH   4  10
ATOM     10  O   UNL     1       3.845 -19.047  -4.007  1.00  0.00    -0.504 OA
ATOM     11  H   UNL     1       4.671 -18.540  -4.301  1.00  0.00     0.293 HD
ENDBRANCH   4  10
BRANCH   5  12
ATOM     12  O   UNL     1       0.634 -16.455  -6.660  1.00  0.00    -0.504 OA
ATOM     13  H   UNL     1       1.195 -16.338  -7.492  1.00  0.00     0.293 HD
ENDBRANCH   5  12
BRANCH   6  14
ATOM     14  O   UNL     1       3.363 -17.365  -6.183  1.00  0.00    -0.502 OA
ATOM     15  H   UNL     1       3.856 -17.996  -6.796  1.00  0.00     0.293 HD
ENDBRANCH   6  14
TORSDOF 4
ENDMDL
MODEL 7
REMARK VINA RESULT:    -4.100      4.203      5.560
REMARK INTER + INTRA:          -4.744
REMARK INTER:                  -4.695
REMARK INTRA:                  -0.049
REMARK UNBOUND:                -0.045
REMARK SMILES O=C([O-])c1cc(O)c(O)c(O)c1
REMARK SMILES IDX 4 1 5 2 12 3 6 4 10 5 8 6 2 7 1 8 3 9 7 10 11 12 9 14
REMARK H PARENT 7 11 11 13 9 15
REMARK Flexibility Score: inf
ROOT
ATOM      1  C   UNL     1       4.796 -11.252   0.603  1.00  0.00     0.005 A 
ATOM      2  C   UNL     1       5.679 -12.274   0.225  1.00  0.00     0.060 A 
ATOM      3  C   UNL     1       5.285 -10.175   1.358  1.00  0.00     0.060 A 
ATOM      4  C   UNL     1       7.027 -12.226   0.593  1.00  0.00     0.162 A 
ATOM      5  C   UNL     1       6.631 -10.110   1.736  1.00  0.00     0.162 A 
ATOM      6  C   UNL     1       7.517 -11.146   1.350  1.00  0.00     0.200 A 
ENDROOT
BRANCH   1   7
ATOM      7  C   UNL     1       3.370 -11.304   0.213  1.00  0.00     0.072 C 
ATOM      8  O   UNL     1       2.759 -10.256  -0.126  1.00  0.00    -0.545 OA
ATOM      9  O   UNL     1       2.682 -12.512   0.214  1.00  0.00    -0.545 OA
ENDBRANCH   1   7
BRANCH   4  10
ATOM     10  O   UNL     1       7.868 -13.265   0.194  1.00  0.00    -0.504 OA
ATOM     11  H   UNL     1       7.819 -13.678  -0.729  1.00  0.00     0.293 HD
ENDBRANCH   4  10
BRANCH   5  12
ATOM     12  O   UNL     1       7.042  -9.007   2.487  1.00  0.00    -0.504 OA
ATOM     13  H   UNL     1       7.725  -9.048   3.229  1.00  0.00     0.293 HD
ENDBRANCH   5  12
BRANCH   6  14
ATOM     14  O   UNL     1       8.870 -11.137   1.698  1.00  0.00    -0.502 OA
ATOM     15  H   UNL     1       9.221 -10.884   2.609  1.00  0.00     0.293 HD
ENDBRANCH   6  14
TORSDOF 4
ENDMDL
MODEL 8
REMARK VINA RESULT:    -4.096      4.184      5.124
REMARK INTER + INTRA:          -4.739
REMARK INTER:                  -4.687
REMARK INTRA:                  -0.053
REMARK UNBOUND:                -0.045
REMARK SMILES O=C([O-])c1cc(O)c(O)c(O)c1
REMARK SMILES IDX 4 1 5 2 12 3 6 4 10 5 8 6 2 7 1 8 3 9 7 10 11 12 9 14
REMARK H PARENT 7 11 11 13 9 15
REMARK Flexibility Score: inf
ROOT
ATOM      1  C   UNL     1       4.835 -11.257   0.600  1.00  0.00     0.005 A 
ATOM      2  C   UNL     1       5.362 -10.212   1.374  1.00  0.00     0.060 A 
ATOM      3  C   UNL     1       5.685 -12.294   0.186  1.00  0.00     0.060 A 
ATOM      4  C   UNL     1       6.714 -10.198   1.729  1.00  0.00     0.162 A 
ATOM      5  C   UNL     1       7.042 -12.296   0.533  1.00  0.00     0.162 A 
ATOM      6  C   UNL     1       7.566 -11.238   1.314  1.00  0.00     0.200 A 
ENDROOT
BRANCH   1   7
ATOM      7  C   UNL     1       3.404 -11.271   0.225  1.00  0.00     0.072 C 
ATOM      8  O   UNL     1       2.901 -12.271  -0.353  1.00  0.00    -0.545 OA
ATOM      9  O   UNL     1       2.591 -10.178   0.504  1.00  0.00    -0.545 OA
ENDBRANCH   1   7
BRANCH   4  10
ATOM     10  O   UNL     1       7.193  -9.139   2.499  1.00  0.00    -0.504 OA
ATOM     11  H   UNL     1       7.925  -9.258   3.188  1.00  0.00     0.293 HD
ENDBRANCH   4  10
BRANCH   5  12
ATOM     12  O   UNL     1       7.824 -13.362   0.083  1.00  0.00    -0.504 OA
ATOM     13  H   UNL     1       7.568 -14.334   0.176  1.00  0.00     0.293 HD
ENDBRANCH   5  12
BRANCH   6  14
ATOM     14  O   UNL     1       8.911 -11.185   1.690  1.00  0.00    -0.502 OA
ATOM     15  H   UNL     1       9.628 -10.700   1.172  1.00  0.00     0.293 HD
ENDBRANCH   6  14
TORSDOF 4
ENDMDL
MODEL 9
REMARK VINA RESULT:    -4.052      1.878      3.335
REMARK INTER + INTRA:          -4.689
REMARK INTER:                  -4.643
REMARK INTRA:                  -0.047
REMARK UNBOUND:                -0.045
REMARK SMILES O=C([O-])c1cc(O)c(O)c(O)c1
REMARK SMILES IDX 4 1 5 2 12 3 6 4 10 5 8 6 2 7 1 8 3 9 7 10 11 12 9 14
REMARK H PARENT 7 11 11 13 9 15
REMARK Flexibility Score: inf
ROOT
ATOM      1  C   UNL     1       3.384 -11.348   2.997  1.00  0.00     0.005 A 
ATOM      2  C   UNL     1       3.349 -12.089   1.806  1.00  0.00     0.060 A 
ATOM      3  C   UNL     1       4.420 -10.423   3.193  1.00  0.00     0.060 A 
ATOM      4  C   UNL     1       4.331 -11.913   0.827  1.00  0.00     0.162 A 
ATOM      5  C   UNL     1       5.411 -10.233   2.223  1.00  0.00     0.162 A 
ATOM      6  C   UNL     1       5.370 -10.985   1.023  1.00  0.00     0.200 A 
ENDROOT
BRANCH   1   7
ATOM      7  C   UNL     1       2.345 -11.536   4.033  1.00  0.00     0.072 C 
ATOM      8  O   UNL     1       2.154 -12.668   4.553  1.00  0.00    -0.545 OA
ATOM      9  O   UNL     1       1.562 -10.465   4.450  1.00  0.00    -0.545 OA
ENDBRANCH   1   7
BRANCH   4  10
ATOM     10  O   UNL     1       4.255 -12.672  -0.341  1.00  0.00    -0.504 OA
ATOM     11  H   UNL     1       3.716 -12.377  -1.145  1.00  0.00     0.293 HD
ENDBRANCH   4  10
BRANCH   5  12
ATOM     12  O   UNL     1       6.410  -9.294   2.490  1.00  0.00    -0.504 OA
ATOM     13  H   UNL     1       7.310  -9.277   2.034  1.00  0.00     0.293 HD
ENDBRANCH   5  12
BRANCH   6  14
ATOM     14  O   UNL     1       6.330 -10.839   0.019  1.00  0.00    -0.502 OA
ATOM     15  H   UNL     1       7.286 -11.151   0.098  1.00  0.00     0.293 HD
ENDBRANCH   6  14
TORSDOF 4
ENDMDL
