MODEL 1
REMARK VINA RESULT:    -4.039      0.000      0.000
REMARK INTER + INTRA:          -4.039
REMARK INTER:                  -4.039
REMARK INTRA:                   0.000
REMARK UNBOUND:                 0.000
REMARK SMILES O=c1ccc2ccccc2o1
REMARK SMILES IDX 7 1 8 2 9 3 10 4 5 5 6 6 4 7 3 8 2 9 1 10 11 11
REMARK H PARENT
REMARK Flexibility Score: inf
ROOT
ATOM      1  C   UNL     1      74.890  40.459  22.705  1.00  0.00     0.001 A 
ATOM      2  C   UNL     1      75.972  40.427  21.818  1.00  0.00     0.004 A 
ATOM      3  C   UNL     1      75.911  39.639  20.664  1.00  0.00     0.048 A 
ATOM      4  C   UNL     1      74.768  38.880  20.391  1.00  0.00     0.138 A 
ATOM      5  C   UNL     1      73.675  38.912  21.288  1.00  0.00     0.018 A 
ATOM      6  C   UNL     1      73.742  39.705  22.443  1.00  0.00     0.012 A 
ATOM      7  C   UNL     1      72.546  38.144  20.990  1.00  0.00     0.019 A 
ATOM      8  C   UNL     1      72.531  37.373  19.828  1.00  0.00     0.094 A 
ATOM      9  C   UNL     1      73.649  37.389  18.988  1.00  0.00     0.336 A 
ATOM     10  O   UNL     1      73.654  36.700  17.934  1.00  0.00    -0.246 OA
ATOM     11  O   UNL     1      74.712  38.130  19.294  1.00  0.00    -0.423 OA
ENDROOT
TORSDOF 0
ENDMDL
MODEL 2
REMARK VINA RESULT:    -4.026      1.781      4.457
REMARK INTER + INTRA:          -4.026
REMARK INTER:                  -4.026
REMARK INTRA:                   0.000
REMARK UNBOUND:                 0.000
REMARK SMILES O=c1ccc2ccccc2o1
REMARK SMILES IDX 7 1 8 2 9 3 10 4 5 5 6 6 4 7 3 8 2 9 1 10 11 11
REMARK H PARENT
REMARK Flexibility Score: inf
ROOT
ATOM      1  C   UNL     1      73.268  36.129  17.875  1.00  0.00     0.001 A 
ATOM      2  C   UNL     1      72.345  35.768  18.864  1.00  0.00     0.004 A 
ATOM      3  C   UNL     1      72.285  36.483  20.064  1.00  0.00     0.048 A 
ATOM      4  C   UNL     1      73.146  37.564  20.281  1.00  0.00     0.138 A 
ATOM      5  C   UNL     1      74.078  37.930  19.283  1.00  0.00     0.018 A 
ATOM      6  C   UNL     1      74.134  37.208  18.081  1.00  0.00     0.012 A 
ATOM      7  C   UNL     1      74.925  39.014  19.528  1.00  0.00     0.019 A 
ATOM      8  C   UNL     1      74.829  39.698  20.739  1.00  0.00     0.094 A 
ATOM      9  C   UNL     1      73.883  39.280  21.681  1.00  0.00     0.336 A 
ATOM     10  O   UNL     1      73.781  39.885  22.780  1.00  0.00    -0.246 OA
ATOM     11  O   UNL     1      73.087  38.244  21.423  1.00  0.00    -0.423 OA
ENDROOT
TORSDOF 0
ENDMDL
MODEL 3
REMARK VINA RESULT:    -3.977      2.632      3.475
REMARK INTER + INTRA:          -3.977
REMARK INTER:                  -3.977
REMARK INTRA:                   0.000
REMARK UNBOUND:                 0.000
REMARK SMILES O=c1ccc2ccccc2o1
REMARK SMILES IDX 7 1 8 2 9 3 10 4 5 5 6 6 4 7 3 8 2 9 1 10 11 11
REMARK H PARENT
REMARK Flexibility Score: inf
ROOT
ATOM      1  C   UNL     1      76.000  39.437  21.216  1.00  0.00     0.001 A 
ATOM      2  C   UNL     1      75.962  40.389  22.242  1.00  0.00     0.004 A 
ATOM      3  C   UNL     1      74.736  40.801  22.774  1.00  0.00     0.048 A 
ATOM      4  C   UNL     1      73.541  40.262  22.283  1.00  0.00     0.138 A 
ATOM      5  C   UNL     1      73.579  39.301  21.247  1.00  0.00     0.018 A 
ATOM      6  C   UNL     1      74.811  38.892  20.718  1.00  0.00     0.012 A 
ATOM      7  C   UNL     1      72.370  38.781  20.777  1.00  0.00     0.019 A 
ATOM      8  C   UNL     1      71.172  39.221  21.337  1.00  0.00     0.094 A 
ATOM      9  C   UNL     1      71.210  40.175  22.360  1.00  0.00     0.336 A 
ATOM     10  O   UNL     1      70.139  40.585  22.878  1.00  0.00    -0.246 OA
ATOM     11  O   UNL     1      72.376  40.655  22.790  1.00  0.00    -0.423 OA
ENDROOT
TORSDOF 0
ENDMDL
MODEL 4
REMARK VINA RESULT:    -3.914      1.392      3.961
REMARK INTER + INTRA:          -3.914
REMARK INTER:                  -3.914
REMARK INTRA:                   0.000
REMARK UNBOUND:                 0.000
REMARK SMILES O=c1ccc2ccccc2o1
REMARK SMILES IDX 7 1 8 2 9 3 10 4 5 5 6 6 4 7 3 8 2 9 1 10 11 11
REMARK H PARENT
REMARK Flexibility Score: inf
ROOT
ATOM      1  C   UNL     1      72.260  35.870  18.946  1.00  0.00     0.001 A 
ATOM      2  C   UNL     1      73.150  36.011  17.875  1.00  0.00     0.004 A 
ATOM      3  C   UNL     1      74.172  36.965  17.931  1.00  0.00     0.048 A 
ATOM      4  C   UNL     1      74.308  37.782  19.059  1.00  0.00     0.138 A 
ATOM      5  C   UNL     1      73.408  37.639  20.141  1.00  0.00     0.018 A 
ATOM      6  C   UNL     1      72.386  36.681  20.078  1.00  0.00     0.012 A 
ATOM      7  C   UNL     1      73.569  38.469  21.254  1.00  0.00     0.019 A 
ATOM      8  C   UNL     1      74.601  39.406  21.266  1.00  0.00     0.094 A 
ATOM      9  C   UNL     1      75.453  39.492  20.159  1.00  0.00     0.336 A 
ATOM     10  O   UNL     1      76.391  40.331  20.152  1.00  0.00    -0.246 OA
ATOM     11  O   UNL     1      75.279  38.689  19.111  1.00  0.00    -0.423 OA
ENDROOT
TORSDOF 0
ENDMDL
MODEL 5
REMARK VINA RESULT:    -3.840      3.097      4.212
REMARK INTER + INTRA:          -3.840
REMARK INTER:                  -3.840
REMARK INTRA:                   0.000
REMARK UNBOUND:                 0.000
REMARK SMILES O=c1ccc2ccccc2o1
REMARK SMILES IDX 7 1 8 2 9 3 10 4 5 5 6 6 4 7 3 8 2 9 1 10 11 11
REMARK H PARENT
REMARK Flexibility Score: inf
ROOT
ATOM      1  C   UNL     1      74.481  38.580  20.879  1.00  0.00     0.001 A 
ATOM      2  C   UNL     1      73.582  37.938  20.020  1.00  0.00     0.004 A 
ATOM      3  C   UNL     1      72.222  38.259  20.057  1.00  0.00     0.048 A 
ATOM      4  C   UNL     1      71.753  39.226  20.953  1.00  0.00     0.138 A 
ATOM      5  C   UNL     1      72.660  39.875  21.821  1.00  0.00     0.018 A 
ATOM      6  C   UNL     1      74.024  39.549  21.779  1.00  0.00     0.012 A 
ATOM      7  C   UNL     1      72.163  40.837  22.706  1.00  0.00     0.019 A 
ATOM      8  C   UNL     1      70.799  41.124  22.708  1.00  0.00     0.094 A 
ATOM      9  C   UNL     1      69.960  40.441  21.821  1.00  0.00     0.336 A 
ATOM     10  O   UNL     1      68.726  40.688  21.807  1.00  0.00    -0.246 OA
ATOM     11  O   UNL     1      70.459  39.530  20.988  1.00  0.00    -0.423 OA
ENDROOT
TORSDOF 0
ENDMDL
MODEL 6
REMARK VINA RESULT:    -3.784      2.180      3.461
REMARK INTER + INTRA:          -3.784
REMARK INTER:                  -3.784
REMARK INTRA:                   0.000
REMARK UNBOUND:                 0.000
REMARK SMILES O=c1ccc2ccccc2o1
REMARK SMILES IDX 7 1 8 2 9 3 10 4 5 5 6 6 4 7 3 8 2 9 1 10 11 11
REMARK H PARENT
REMARK Flexibility Score: inf
ROOT
ATOM      1  C   UNL     1      69.978  40.353  22.163  1.00  0.00     0.001 A 
ATOM      2  C   UNL     1      70.868  41.125  22.920  1.00  0.00     0.004 A 
ATOM      3  C   UNL     1      72.248  40.964  22.762  1.00  0.00     0.048 A 
ATOM      4  C   UNL     1      72.746  40.031  21.846  1.00  0.00     0.138 A 
ATOM      5  C   UNL     1      71.848  39.251  21.082  1.00  0.00     0.018 A 
ATOM      6  C   UNL     1      70.465  39.417  21.245  1.00  0.00     0.012 A 
ATOM      7  C   UNL     1      72.374  38.327  20.175  1.00  0.00     0.019 A 
ATOM      8  C   UNL     1      73.757  38.201  20.052  1.00  0.00     0.094 A 
ATOM      9  C   UNL     1      74.585  39.006  20.841  1.00  0.00     0.336 A 
ATOM     10  O   UNL     1      75.836  38.907  20.744  1.00  0.00    -0.246 OA
ATOM     11  O   UNL     1      74.058  39.879  21.697  1.00  0.00    -0.423 OA
ENDROOT
TORSDOF 0
ENDMDL
MODEL 7
REMARK VINA RESULT:    -3.745      0.996      2.104
REMARK INTER + INTRA:          -3.745
REMARK INTER:                  -3.745
REMARK INTRA:                   0.000
REMARK UNBOUND:                 0.000
REMARK SMILES O=c1ccc2ccccc2o1
REMARK SMILES IDX 7 1 8 2 9 3 10 4 5 5 6 6 4 7 3 8 2 9 1 10 11 11
REMARK H PARENT
REMARK Flexibility Score: inf
ROOT
ATOM      1  C   UNL     1      75.561  40.384  22.256  1.00  0.00     0.001 A 
ATOM      2  C   UNL     1      74.300  40.018  22.741  1.00  0.00     0.004 A 
ATOM      3  C   UNL     1      73.470  39.186  21.984  1.00  0.00     0.048 A 
ATOM      4  C   UNL     1      73.897  38.713  20.738  1.00  0.00     0.138 A 
ATOM      5  C   UNL     1      75.171  39.083  20.248  1.00  0.00     0.018 A 
ATOM      6  C   UNL     1      75.999  39.918  21.012  1.00  0.00     0.012 A 
ATOM      7  C   UNL     1      75.571  38.596  19.000  1.00  0.00     0.019 A 
ATOM      8  C   UNL     1      74.710  37.769  18.280  1.00  0.00     0.094 A 
ATOM      9  C   UNL     1      73.463  37.446  18.828  1.00  0.00     0.336 A 
ATOM     10  O   UNL     1      72.672  36.700  18.193  1.00  0.00    -0.246 OA
ATOM     11  O   UNL     1      73.107  37.922  20.019  1.00  0.00    -0.423 OA
ENDROOT
TORSDOF 0
ENDMDL
MODEL 8
REMARK VINA RESULT:    -3.681      2.367      3.439
REMARK INTER + INTRA:          -3.681
REMARK INTER:                  -3.681
REMARK INTRA:                   0.000
REMARK UNBOUND:                 0.000
REMARK SMILES O=c1ccc2ccccc2o1
REMARK SMILES IDX 7 1 8 2 9 3 10 4 5 5 6 6 4 7 3 8 2 9 1 10 11 11
REMARK H PARENT
REMARK Flexibility Score: inf
ROOT
ATOM      1  C   UNL     1      70.339  41.017  22.609  1.00  0.00     0.001 A 
ATOM      2  C   UNL     1      69.663  40.866  21.393  1.00  0.00     0.004 A 
ATOM      3  C   UNL     1      70.235  40.118  20.359  1.00  0.00     0.048 A 
ATOM      4  C   UNL     1      71.486  39.517  20.536  1.00  0.00     0.138 A 
ATOM      5  C   UNL     1      72.169  39.670  21.765  1.00  0.00     0.018 A 
ATOM      6  C   UNL     1      71.590  40.421  22.798  1.00  0.00     0.012 A 
ATOM      7  C   UNL     1      73.417  39.058  21.913  1.00  0.00     0.019 A 
ATOM      8  C   UNL     1      73.948  38.322  20.855  1.00  0.00     0.094 A 
ATOM      9  C   UNL     1      73.216  38.214  19.668  1.00  0.00     0.336 A 
ATOM     10  O   UNL     1      73.679  37.554  18.702  1.00  0.00    -0.246 OA
ATOM     11  O   UNL     1      72.029  38.806  19.552  1.00  0.00    -0.423 OA
ENDROOT
TORSDOF 0
ENDMDL
MODEL 9
REMARK VINA RESULT:    -3.670      2.587      4.338
REMARK INTER + INTRA:          -3.670
REMARK INTER:                  -3.670
REMARK INTRA:                   0.000
REMARK UNBOUND:                 0.000
REMARK SMILES O=c1ccc2ccccc2o1
REMARK SMILES IDX 7 1 8 2 9 3 10 4 5 5 6 6 4 7 3 8 2 9 1 10 11 11
REMARK H PARENT
REMARK Flexibility Score: inf
ROOT
ATOM      1  C   UNL     1      71.281  39.252  20.607  1.00  0.00     0.001 A 
ATOM      2  C   UNL     1      71.004  39.989  21.764  1.00  0.00     0.004 A 
ATOM      3  C   UNL     1      72.048  40.443  22.576  1.00  0.00     0.048 A 
ATOM      4  C   UNL     1      73.375  40.163  22.235  1.00  0.00     0.138 A 
ATOM      5  C   UNL     1      73.656  39.417  21.067  1.00  0.00     0.018 A 
ATOM      6  C   UNL     1      72.605  38.965  20.256  1.00  0.00     0.012 A 
ATOM      7  C   UNL     1      74.992  39.152  20.752  1.00  0.00     0.019 A 
ATOM      8  C   UNL     1      76.000  39.625  21.591  1.00  0.00     0.094 A 
ATOM      9  C   UNL     1      75.647  40.355  22.731  1.00  0.00     0.336 A 
ATOM     10  O   UNL     1      76.543  40.790  23.500  1.00  0.00    -0.246 OA
ATOM     11  O   UNL     1      74.367  40.594  23.008  1.00  0.00    -0.423 OA
ENDROOT
TORSDOF 0
ENDMDL
