MODEL 1
REMARK VINA RESULT:    -6.850      0.000      0.000
REMARK INTER + INTRA:          -9.092
REMARK INTER:                  -8.652
REMARK INTRA:                  -0.440
REMARK UNBOUND:                -0.440
REMARK SMILES O=C(C=Cc1ccc(O)cc1)c1ccc(O)cc1O
REMARK SMILES IDX 4 1 3 2 5 3 6 4 7 5 8 6 11 7 10 8 9 9 2 11 1 12 12 13 18 14
REMARK SMILES IDX 13 15 17 16 14 17 15 18 19 19 16 21
REMARK H PARENT 9 10 19 20 16 22
REMARK Flexibility Score: inf
ROOT
ATOM      1  C   UNL     1      -9.960  -1.019 -10.872  1.00  0.00     0.012 C 
ATOM      2  C   UNL     1     -11.031  -0.248 -11.125  1.00  0.00     0.053 C 
ENDROOT
BRANCH   1   3
ATOM      3  C   UNL     1      -9.861  -2.016  -9.785  1.00  0.00    -0.025 A 
ATOM      4  C   UNL     1      -9.527  -3.356 -10.053  1.00  0.00     0.012 A 
ATOM      5  C   UNL     1      -9.391  -4.271  -9.005  1.00  0.00     0.047 A 
ATOM      6  C   UNL     1      -9.565  -3.853  -7.679  1.00  0.00     0.115 A 
ATOM      7  C   UNL     1     -10.004  -1.597  -8.454  1.00  0.00     0.012 A 
ATOM      8  C   UNL     1      -9.868  -2.514  -7.407  1.00  0.00     0.047 A 
BRANCH   6   9
ATOM      9  O   UNL     1      -9.434  -4.755  -6.626  1.00  0.00    -0.508 OA
ATOM     10  H   UNL     1      -8.531  -5.131  -6.361  1.00  0.00     0.293 HD
ENDBRANCH   6   9
ENDBRANCH   1   3
BRANCH   2  11
ATOM     11  C   UNL     1     -12.224  -0.126 -10.252  1.00  0.00     0.189 C 
ATOM     12  O   UNL     1     -12.934  -1.140 -10.006  1.00  0.00    -0.289 OA
BRANCH  11  13
ATOM     13  C   UNL     1     -12.584   1.167  -9.624  1.00  0.00     0.064 A 
ATOM     14  C   UNL     1     -13.937   1.488  -9.374  1.00  0.00     0.130 A 
ATOM     15  C   UNL     1     -11.585   2.085  -9.249  1.00  0.00     0.020 A 
ATOM     16  C   UNL     1     -14.267   2.708  -8.766  1.00  0.00     0.093 A 
ATOM     17  C   UNL     1     -11.925   3.299  -8.646  1.00  0.00     0.047 A 
ATOM     18  C   UNL     1     -13.266   3.613  -8.405  1.00  0.00     0.119 A 
BRANCH  14  19
ATOM     19  O   UNL     1     -14.950   0.602  -9.743  1.00  0.00    -0.507 OA
ATOM     20  H   UNL     1     -14.743  -0.293 -10.170  1.00  0.00     0.293 HD
ENDBRANCH  14  19
BRANCH  18  21
ATOM     21  O   UNL     1     -13.616   4.821  -7.803  1.00  0.00    -0.508 OA
ATOM     22  H   UNL     1     -13.706   5.674  -8.342  1.00  0.00     0.293 HD
ENDBRANCH  18  21
ENDBRANCH  11  13
ENDBRANCH   2  11
TORSDOF 6
ENDMDL
MODEL 2
REMARK VINA RESULT:    -6.603      1.619      2.125
REMARK INTER + INTRA:          -8.780
REMARK INTER:                  -8.628
REMARK INTRA:                  -0.152
REMARK UNBOUND:                -0.440
REMARK SMILES O=C(C=Cc1ccc(O)cc1)c1ccc(O)cc1O
REMARK SMILES IDX 4 1 3 2 5 3 6 4 7 5 8 6 11 7 10 8 9 9 2 11 1 12 12 13 18 14
REMARK SMILES IDX 13 15 17 16 14 17 15 18 19 19 16 21
REMARK H PARENT 9 10 19 20 16 22
REMARK Flexibility Score: inf
ROOT
ATOM      1  C   UNL     1     -11.209  -1.364 -11.116  1.00  0.00     0.012 C 
ATOM      2  C   UNL     1     -11.559  -0.096 -10.844  1.00  0.00     0.053 C 
ENDROOT
BRANCH   1   3
ATOM      3  C   UNL     1     -10.589  -2.305 -10.160  1.00  0.00    -0.025 A 
ATOM      4  C   UNL     1      -9.201  -2.528 -10.151  1.00  0.00     0.012 A 
ATOM      5  C   UNL     1      -8.631  -3.385  -9.206  1.00  0.00     0.047 A 
ATOM      6  C   UNL     1      -9.437  -4.010  -8.246  1.00  0.00     0.115 A 
ATOM      7  C   UNL     1     -11.387  -2.909  -9.177  1.00  0.00     0.012 A 
ATOM      8  C   UNL     1     -10.815  -3.766  -8.232  1.00  0.00     0.047 A 
BRANCH   6   9
ATOM      9  O   UNL     1      -8.881  -4.868  -7.299  1.00  0.00    -0.508 OA
ATOM     10  H   UNL     1      -8.067  -4.601  -6.758  1.00  0.00     0.293 HD
ENDBRANCH   6   9
ENDBRANCH   1   3
BRANCH   2  11
ATOM     11  C   UNL     1     -11.219   0.639  -9.601  1.00  0.00     0.189 C 
ATOM     12  O   UNL     1     -10.274   0.237  -8.868  1.00  0.00    -0.289 OA
BRANCH  11  13
ATOM     13  C   UNL     1     -11.948   1.871  -9.216  1.00  0.00     0.064 A 
ATOM     14  C   UNL     1     -11.249   2.979  -8.689  1.00  0.00     0.130 A 
ATOM     15  C   UNL     1     -13.342   1.963  -9.390  1.00  0.00     0.020 A 
ATOM     16  C   UNL     1     -11.945   4.146  -8.341  1.00  0.00     0.093 A 
ATOM     17  C   UNL     1     -14.026   3.129  -9.038  1.00  0.00     0.047 A 
ATOM     18  C   UNL     1     -13.330   4.222  -8.512  1.00  0.00     0.119 A 
BRANCH  14  19
ATOM     19  O   UNL     1      -9.869   2.914  -8.496  1.00  0.00    -0.507 OA
ATOM     20  H   UNL     1      -9.282   2.309  -9.059  1.00  0.00     0.293 HD
ENDBRANCH  14  19
BRANCH  18  21
ATOM     21  O   UNL     1     -14.003   5.390  -8.159  1.00  0.00    -0.508 OA
ATOM     22  H   UNL     1     -14.767   5.751  -8.718  1.00  0.00     0.293 HD
ENDBRANCH  18  21
ENDBRANCH  11  13
ENDBRANCH   2  11
TORSDOF 6
ENDMDL
MODEL 3
REMARK VINA RESULT:    -6.116      1.455      6.476
REMARK INTER + INTRA:          -8.165
REMARK INTER:                  -8.435
REMARK INTRA:                   0.270
REMARK UNBOUND:                -0.440
REMARK SMILES O=C(C=Cc1ccc(O)cc1)c1ccc(O)cc1O
REMARK SMILES IDX 4 1 3 2 5 3 6 4 7 5 8 6 11 7 10 8 9 9 2 11 1 12 12 13 18 14
REMARK SMILES IDX 13 15 17 16 14 17 15 18 19 19 16 21
REMARK H PARENT 9 10 19 20 16 22
REMARK Flexibility Score: inf
ROOT
ATOM      1  C   UNL     1     -14.175  -0.253 -10.538  1.00  0.00     0.012 C 
ATOM      2  C   UNL     1     -13.169  -1.005 -11.016  1.00  0.00     0.053 C 
ENDROOT
BRANCH   1   3
ATOM      3  C   UNL     1     -14.017   1.001  -9.773  1.00  0.00    -0.025 A 
ATOM      4  C   UNL     1     -12.997   1.919 -10.079  1.00  0.00     0.012 A 
ATOM      5  C   UNL     1     -12.896   3.122  -9.374  1.00  0.00     0.047 A 
ATOM      6  C   UNL     1     -13.825   3.430  -8.372  1.00  0.00     0.115 A 
ATOM      7  C   UNL     1     -14.962   1.329  -8.790  1.00  0.00     0.012 A 
ATOM      8  C   UNL     1     -14.859   2.533  -8.085  1.00  0.00     0.047 A 
BRANCH   6   9
ATOM      9  O   UNL     1     -13.734   4.624  -7.661  1.00  0.00    -0.508 OA
ATOM     10  H   UNL     1     -14.490   5.300  -7.664  1.00  0.00     0.293 HD
ENDBRANCH   6   9
ENDBRANCH   1   3
BRANCH   2  11
ATOM     11  C   UNL     1     -11.732  -0.812 -10.703  1.00  0.00     0.189 C 
ATOM     12  O   UNL     1     -11.129   0.218 -11.112  1.00  0.00    -0.289 OA
BRANCH  11  13
ATOM     13  C   UNL     1     -10.989  -1.796  -9.879  1.00  0.00     0.064 A 
ATOM     14  C   UNL     1     -10.273  -1.374  -8.737  1.00  0.00     0.130 A 
ATOM     15  C   UNL     1     -11.005  -3.164 -10.209  1.00  0.00     0.020 A 
ATOM     16  C   UNL     1      -9.586  -2.314  -7.955  1.00  0.00     0.093 A 
ATOM     17  C   UNL     1     -10.314  -4.091  -9.425  1.00  0.00     0.047 A 
ATOM     18  C   UNL     1      -9.602  -3.669  -8.298  1.00  0.00     0.119 A 
BRANCH  14  19
ATOM     19  O   UNL     1     -10.232  -0.024  -8.391  1.00  0.00    -0.507 OA
ATOM     20  H   UNL     1     -10.853   0.365  -7.691  1.00  0.00     0.293 HD
ENDBRANCH  14  19
BRANCH  18  21
ATOM     21  O   UNL     1      -8.912  -4.586  -7.509  1.00  0.00    -0.508 OA
ATOM     22  H   UNL     1      -8.754  -4.423  -6.521  1.00  0.00     0.293 HD
ENDBRANCH  18  21
ENDBRANCH  11  13
ENDBRANCH   2  11
TORSDOF 6
ENDMDL
MODEL 4
REMARK VINA RESULT:    -5.763     15.412     17.448
REMARK INTER + INTRA:          -7.720
REMARK INTER:                  -6.683
REMARK INTRA:                  -1.036
REMARK UNBOUND:                -0.440
REMARK SMILES O=C(C=Cc1ccc(O)cc1)c1ccc(O)cc1O
REMARK SMILES IDX 4 1 3 2 5 3 6 4 7 5 8 6 11 7 10 8 9 9 2 11 1 12 12 13 18 14
REMARK SMILES IDX 13 15 17 16 14 17 15 18 19 19 16 21
REMARK H PARENT 9 10 19 20 16 22
REMARK Flexibility Score: inf
ROOT
ATOM      1  C   UNL     1     -15.004   8.281   4.896  1.00  0.00     0.012 C 
ATOM      2  C   UNL     1     -14.779   6.963   5.029  1.00  0.00     0.053 C 
ENDROOT
BRANCH   1   3
ATOM      3  C   UNL     1     -14.086   9.245   4.254  1.00  0.00    -0.025 A 
ATOM      4  C   UNL     1     -14.023   9.372   2.855  1.00  0.00     0.012 A 
ATOM      5  C   UNL     1     -13.183  10.324   2.270  1.00  0.00     0.047 A 
ATOM      6  C   UNL     1     -12.414  11.173   3.077  1.00  0.00     0.115 A 
ATOM      7  C   UNL     1     -13.337  10.119   5.056  1.00  0.00     0.012 A 
ATOM      8  C   UNL     1     -12.497  11.070   4.469  1.00  0.00     0.047 A 
BRANCH   6   9
ATOM      9  O   UNL     1     -11.572  12.125   2.507  1.00  0.00    -0.508 OA
ATOM     10  H   UNL     1     -11.339  12.984   2.993  1.00  0.00     0.293 HD
ENDBRANCH   6   9
ENDBRANCH   1   3
BRANCH   2  11
ATOM     11  C   UNL     1     -13.499   6.278   4.727  1.00  0.00     0.189 C 
ATOM     12  O   UNL     1     -13.314   5.755   3.593  1.00  0.00    -0.289 OA
BRANCH  11  13
ATOM     13  C   UNL     1     -12.405   6.224   5.726  1.00  0.00     0.064 A 
ATOM     14  C   UNL     1     -12.379   5.205   6.703  1.00  0.00     0.130 A 
ATOM     15  C   UNL     1     -11.366   7.174   5.703  1.00  0.00     0.020 A 
ATOM     16  C   UNL     1     -11.332   5.154   7.634  1.00  0.00     0.093 A 
ATOM     17  C   UNL     1     -10.329   7.116   6.637  1.00  0.00     0.047 A 
ATOM     18  C   UNL     1     -10.311   6.107   7.606  1.00  0.00     0.119 A 
BRANCH  14  19
ATOM     19  O   UNL     1     -13.399   4.255   6.756  1.00  0.00    -0.507 OA
ATOM     20  H   UNL     1     -14.327   4.490   7.087  1.00  0.00     0.293 HD
ENDBRANCH  14  19
BRANCH  18  21
ATOM     21  O   UNL     1      -9.281   6.039   8.541  1.00  0.00    -0.508 OA
ATOM     22  H   UNL     1      -8.512   6.699   8.532  1.00  0.00     0.293 HD
ENDBRANCH  18  21
ENDBRANCH  11  13
ENDBRANCH   2  11
TORSDOF 6
ENDMDL
MODEL 5
REMARK VINA RESULT:    -5.714     15.034     17.476
REMARK INTER + INTRA:          -7.657
REMARK INTER:                  -7.236
REMARK INTRA:                  -0.421
REMARK UNBOUND:                -0.440
REMARK SMILES O=C(C=Cc1ccc(O)cc1)c1ccc(O)cc1O
REMARK SMILES IDX 4 1 3 2 5 3 6 4 7 5 8 6 11 7 10 8 9 9 2 11 1 12 12 13 18 14
REMARK SMILES IDX 13 15 17 16 14 17 15 18 19 19 16 21
REMARK H PARENT 9 10 19 20 16 22
REMARK Flexibility Score: inf
ROOT
ATOM      1  C   UNL     1     -14.375  10.103   4.716  1.00  0.00     0.012 C 
ATOM      2  C   UNL     1     -13.898   9.267   5.653  1.00  0.00     0.053 C 
ENDROOT
BRANCH   1   3
ATOM      3  C   UNL     1     -13.630  10.569   3.527  1.00  0.00    -0.025 A 
ATOM      4  C   UNL     1     -12.829  11.724   3.575  1.00  0.00     0.012 A 
ATOM      5  C   UNL     1     -12.096  12.120   2.453  1.00  0.00     0.047 A 
ATOM      6  C   UNL     1     -12.137  11.355   1.280  1.00  0.00     0.115 A 
ATOM      7  C   UNL     1     -13.643   9.791   2.360  1.00  0.00     0.012 A 
ATOM      8  C   UNL     1     -12.908  10.189   1.239  1.00  0.00     0.047 A 
BRANCH   6   9
ATOM      9  O   UNL     1     -11.411  11.740   0.155  1.00  0.00    -0.508 OA
ATOM     10  H   UNL     1     -11.263  12.717  -0.070  1.00  0.00     0.293 HD
ENDBRANCH   6   9
ENDBRANCH   1   3
BRANCH   2  11
ATOM     11  C   UNL     1     -12.489   8.815   5.762  1.00  0.00     0.189 C 
ATOM     12  O   UNL     1     -11.557   9.663   5.821  1.00  0.00    -0.289 OA
BRANCH  11  13
ATOM     13  C   UNL     1     -12.151   7.374   5.841  1.00  0.00     0.064 A 
ATOM     14  C   UNL     1     -10.813   6.964   6.030  1.00  0.00     0.130 A 
ATOM     15  C   UNL     1     -13.159   6.396   5.750  1.00  0.00     0.020 A 
ATOM     16  C   UNL     1     -10.505   5.598   6.118  1.00  0.00     0.093 A 
ATOM     17  C   UNL     1     -12.840   5.038   5.836  1.00  0.00     0.047 A 
ATOM     18  C   UNL     1     -11.513   4.636   6.019  1.00  0.00     0.119 A 
BRANCH  14  19
ATOM     19  O   UNL     1      -9.792   7.911   6.114  1.00  0.00    -0.507 OA
ATOM     20  H   UNL     1      -9.737   8.566   6.885  1.00  0.00     0.293 HD
ENDBRANCH  14  19
BRANCH  18  21
ATOM     21  O   UNL     1     -11.185   3.285   6.108  1.00  0.00    -0.508 OA
ATOM     22  H   UNL     1     -10.283   2.938   5.805  1.00  0.00     0.293 HD
ENDBRANCH  18  21
ENDBRANCH  11  13
ENDBRANCH   2  11
TORSDOF 6
ENDMDL
MODEL 6
REMARK VINA RESULT:    -5.638     15.830     18.480
REMARK INTER + INTRA:          -7.562
REMARK INTER:                  -6.605
REMARK INTRA:                  -0.957
REMARK UNBOUND:                -0.440
REMARK SMILES O=C(C=Cc1ccc(O)cc1)c1ccc(O)cc1O
REMARK SMILES IDX 4 1 3 2 5 3 6 4 7 5 8 6 11 7 10 8 9 9 2 11 1 12 12 13 18 14
REMARK SMILES IDX 13 15 17 16 14 17 15 18 19 19 16 21
REMARK H PARENT 9 10 19 20 16 22
REMARK Flexibility Score: inf
ROOT
ATOM      1  C   UNL     1     -10.828  11.125   4.975  1.00  0.00     0.012 C 
ATOM      2  C   UNL     1     -11.881  10.303   5.120  1.00  0.00     0.053 C 
ENDROOT
BRANCH   1   3
ATOM      3  C   UNL     1      -9.566  11.043   5.740  1.00  0.00    -0.025 A 
ATOM      4  C   UNL     1      -8.548  10.145   5.373  1.00  0.00     0.012 A 
ATOM      5  C   UNL     1      -7.343  10.119   6.082  1.00  0.00     0.047 A 
ATOM      6  C   UNL     1      -7.135  11.003   7.148  1.00  0.00     0.115 A 
ATOM      7  C   UNL     1      -9.340  11.946   6.789  1.00  0.00     0.012 A 
ATOM      8  C   UNL     1      -8.134  11.918   7.496  1.00  0.00     0.047 A 
BRANCH   6   9
ATOM      9  O   UNL     1      -5.939  10.985   7.863  1.00  0.00    -0.508 OA
ATOM     10  H   UNL     1      -5.046  10.871   7.397  1.00  0.00     0.293 HD
ENDBRANCH   6   9
ENDBRANCH   1   3
BRANCH   2  11
ATOM     11  C   UNL     1     -12.037   9.292   6.195  1.00  0.00     0.189 C 
ATOM     12  O   UNL     1     -12.504   9.630   7.317  1.00  0.00    -0.289 OA
BRANCH  11  13
ATOM     13  C   UNL     1     -11.685   7.871   5.966  1.00  0.00     0.064 A 
ATOM     14  C   UNL     1     -12.673   6.949   5.553  1.00  0.00     0.130 A 
ATOM     15  C   UNL     1     -10.362   7.423   6.133  1.00  0.00     0.020 A 
ATOM     16  C   UNL     1     -12.328   5.609   5.324  1.00  0.00     0.093 A 
ATOM     17  C   UNL     1     -10.029   6.085   5.905  1.00  0.00     0.047 A 
ATOM     18  C   UNL     1     -11.012   5.175   5.501  1.00  0.00     0.119 A 
BRANCH  14  19
ATOM     19  O   UNL     1     -13.996   7.361   5.388  1.00  0.00    -0.507 OA
ATOM     20  H   UNL     1     -14.230   8.326   5.188  1.00  0.00     0.293 HD
ENDBRANCH  14  19
BRANCH  18  21
ATOM     21  O   UNL     1     -10.691   3.840   5.270  1.00  0.00    -0.508 OA
ATOM     22  H   UNL     1     -11.025   3.101   5.879  1.00  0.00     0.293 HD
ENDBRANCH  18  21
ENDBRANCH  11  13
ENDBRANCH   2  11
TORSDOF 6
ENDMDL
MODEL 7
REMARK VINA RESULT:    -5.608     14.994     17.064
REMARK INTER + INTRA:          -7.524
REMARK INTER:                  -6.979
REMARK INTRA:                  -0.545
REMARK UNBOUND:                -0.440
REMARK SMILES O=C(C=Cc1ccc(O)cc1)c1ccc(O)cc1O
REMARK SMILES IDX 4 1 3 2 5 3 6 4 7 5 8 6 11 7 10 8 9 9 2 11 1 12 12 13 18 14
REMARK SMILES IDX 13 15 17 16 14 17 15 18 19 19 16 21
REMARK H PARENT 9 10 19 20 16 22
REMARK Flexibility Score: inf
ROOT
ATOM      1  C   UNL     1     -14.409  10.109   5.010  1.00  0.00     0.012 C 
ATOM      2  C   UNL     1     -14.740   8.856   5.363  1.00  0.00     0.053 C 
ENDROOT
BRANCH   1   3
ATOM      3  C   UNL     1     -13.583  10.480   3.842  1.00  0.00    -0.025 A 
ATOM      4  C   UNL     1     -13.945  10.092   2.540  1.00  0.00     0.012 A 
ATOM      5  C   UNL     1     -13.175  10.494   1.445  1.00  0.00     0.047 A 
ATOM      6  C   UNL     1     -12.050  11.306   1.636  1.00  0.00     0.115 A 
ATOM      7  C   UNL     1     -12.473  11.318   4.024  1.00  0.00     0.012 A 
ATOM      8  C   UNL     1     -11.704  11.720   2.927  1.00  0.00     0.047 A 
BRANCH   6   9
ATOM      9  O   UNL     1     -11.274  11.713   0.553  1.00  0.00    -0.508 OA
ATOM     10  H   UNL     1     -11.579  12.455  -0.067  1.00  0.00     0.293 HD
ENDBRANCH   6   9
ENDBRANCH   1   3
BRANCH   2  11
ATOM     11  C   UNL     1     -14.186   7.621   4.756  1.00  0.00     0.189 C 
ATOM     12  O   UNL     1     -14.766   7.085   3.772  1.00  0.00    -0.289 OA
BRANCH  11  13
ATOM     13  C   UNL     1     -12.931   7.016   5.262  1.00  0.00     0.064 A 
ATOM     14  C   UNL     1     -12.523   5.740   4.816  1.00  0.00     0.130 A 
ATOM     15  C   UNL     1     -12.118   7.712   6.176  1.00  0.00     0.020 A 
ATOM     16  C   UNL     1     -11.326   5.182   5.289  1.00  0.00     0.093 A 
ATOM     17  C   UNL     1     -10.929   7.146   6.643  1.00  0.00     0.047 A 
ATOM     18  C   UNL     1     -10.531   5.880   6.202  1.00  0.00     0.119 A 
BRANCH  14  19
ATOM     19  O   UNL     1     -13.313   5.022   3.917  1.00  0.00    -0.507 OA
ATOM     20  H   UNL     1     -14.126   5.436   3.477  1.00  0.00     0.293 HD
ENDBRANCH  14  19
BRANCH  18  21
ATOM     21  O   UNL     1      -9.347   5.307   6.661  1.00  0.00    -0.508 OA
ATOM     22  H   UNL     1      -9.218   4.302   6.682  1.00  0.00     0.293 HD
ENDBRANCH  18  21
ENDBRANCH  11  13
ENDBRANCH   2  11
TORSDOF 6
ENDMDL
MODEL 8
REMARK VINA RESULT:    -5.421     15.076     16.320
REMARK INTER + INTRA:          -7.287
REMARK INTER:                  -6.368
REMARK INTRA:                  -0.919
REMARK UNBOUND:                -0.440
REMARK SMILES O=C(C=Cc1ccc(O)cc1)c1ccc(O)cc1O
REMARK SMILES IDX 4 1 3 2 5 3 6 4 7 5 8 6 11 7 10 8 9 9 2 11 1 12 12 13 18 14
REMARK SMILES IDX 13 15 17 16 14 17 15 18 19 19 16 21
REMARK H PARENT 9 10 19 20 16 22
REMARK Flexibility Score: inf
ROOT
ATOM      1  C   UNL     1     -12.932   5.189   4.204  1.00  0.00     0.012 C 
ATOM      2  C   UNL     1     -13.942   5.949   3.748  1.00  0.00     0.053 C 
ENDROOT
BRANCH   1   3
ATOM      3  C   UNL     1     -12.172   5.431   5.448  1.00  0.00    -0.025 A 
ATOM      4  C   UNL     1     -12.493   4.761   6.641  1.00  0.00     0.012 A 
ATOM      5  C   UNL     1     -11.730   4.969   7.794  1.00  0.00     0.047 A 
ATOM      6  C   UNL     1     -10.627   5.832   7.760  1.00  0.00     0.115 A 
ATOM      7  C   UNL     1     -11.048   6.270   5.413  1.00  0.00     0.012 A 
ATOM      8  C   UNL     1     -10.286   6.478   6.567  1.00  0.00     0.047 A 
BRANCH   6   9
ATOM      9  O   UNL     1      -9.859   6.050   8.902  1.00  0.00    -0.508 OA
ATOM     10  H   UNL     1     -10.194   5.786   9.822  1.00  0.00     0.293 HD
ENDBRANCH   6   9
ENDBRANCH   1   3
BRANCH   2  11
ATOM     11  C   UNL     1     -14.346   7.262   4.309  1.00  0.00     0.189 C 
ATOM     12  O   UNL     1     -15.029   7.313   5.368  1.00  0.00    -0.289 OA
BRANCH  11  13
ATOM     13  C   UNL     1     -13.929   8.530   3.665  1.00  0.00     0.064 A 
ATOM     14  C   UNL     1     -13.527   9.632   4.452  1.00  0.00     0.130 A 
ATOM     15  C   UNL     1     -13.906   8.649   2.262  1.00  0.00     0.020 A 
ATOM     16  C   UNL     1     -13.119  10.823   3.833  1.00  0.00     0.093 A 
ATOM     17  C   UNL     1     -13.501   9.841   1.657  1.00  0.00     0.047 A 
ATOM     18  C   UNL     1     -13.108  10.930   2.440  1.00  0.00     0.119 A 
BRANCH  14  19
ATOM     19  O   UNL     1     -13.548   9.547   5.844  1.00  0.00    -0.507 OA
ATOM     20  H   UNL     1     -13.232  10.313   6.428  1.00  0.00     0.293 HD
ENDBRANCH  14  19
BRANCH  18  21
ATOM     21  O   UNL     1     -12.702  12.123   1.846  1.00  0.00    -0.508 OA
ATOM     22  H   UNL     1     -12.112  12.786   2.336  1.00  0.00     0.293 HD
ENDBRANCH  18  21
ENDBRANCH  11  13
ENDBRANCH   2  11
TORSDOF 6
ENDMDL
MODEL 9
REMARK VINA RESULT:    -5.363     16.010     18.686
REMARK INTER + INTRA:          -7.214
REMARK INTER:                  -6.457
REMARK INTRA:                  -0.756
REMARK UNBOUND:                -0.440
REMARK SMILES O=C(C=Cc1ccc(O)cc1)c1ccc(O)cc1O
REMARK SMILES IDX 4 1 3 2 5 3 6 4 7 5 8 6 11 7 10 8 9 9 2 11 1 12 12 13 18 14
REMARK SMILES IDX 13 15 17 16 14 17 15 18 19 19 16 21
REMARK H PARENT 9 10 19 20 16 22
REMARK Flexibility Score: inf
ROOT
ATOM      1  C   UNL     1     -12.427  10.416   6.775  1.00  0.00     0.012 C 
ATOM      2  C   UNL     1     -11.400  11.273   6.650  1.00  0.00     0.053 C 
ENDROOT
BRANCH   1   3
ATOM      3  C   UNL     1     -12.530   9.100   6.109  1.00  0.00    -0.025 A 
ATOM      4  C   UNL     1     -11.738   8.012   6.518  1.00  0.00     0.012 A 
ATOM      5  C   UNL     1     -11.887   6.764   5.906  1.00  0.00     0.047 A 
ATOM      6  C   UNL     1     -12.841   6.584   4.897  1.00  0.00     0.115 A 
ATOM      7  C   UNL     1     -13.505   8.906   5.119  1.00  0.00     0.012 A 
ATOM      8  C   UNL     1     -13.651   7.656   4.509  1.00  0.00     0.047 A 
BRANCH   6   9
ATOM      9  O   UNL     1     -12.997   5.346   4.278  1.00  0.00    -0.508 OA
ATOM     10  H   UNL     1     -13.160   4.503   4.817  1.00  0.00     0.293 HD
ENDBRANCH   6   9
ENDBRANCH   1   3
BRANCH   2  11
ATOM     11  C   UNL     1     -10.283  11.136   5.683  1.00  0.00     0.189 C 
ATOM     12  O   UNL     1     -10.519  11.118   4.444  1.00  0.00    -0.289 OA
BRANCH  11  13
ATOM     13  C   UNL     1      -8.877  11.057   6.145  1.00  0.00     0.064 A 
ATOM     14  C   UNL     1      -7.946  10.242   5.464  1.00  0.00     0.130 A 
ATOM     15  C   UNL     1      -8.443  11.807   7.254  1.00  0.00     0.020 A 
ATOM     16  C   UNL     1      -6.614  10.185   5.899  1.00  0.00     0.093 A 
ATOM     17  C   UNL     1      -7.115  11.741   7.681  1.00  0.00     0.047 A 
ATOM     18  C   UNL     1      -6.198  10.929   7.006  1.00  0.00     0.119 A 
BRANCH  14  19
ATOM     19  O   UNL     1      -8.349   9.479   4.367  1.00  0.00    -0.507 OA
ATOM     20  H   UNL     1      -8.879   9.884   3.604  1.00  0.00     0.293 HD
ENDBRANCH  14  19
BRANCH  18  21
ATOM     21  O   UNL     1      -4.871  10.857   7.423  1.00  0.00    -0.508 OA
ATOM     22  H   UNL     1      -4.238  10.152   7.061  1.00  0.00     0.293 HD
ENDBRANCH  18  21
ENDBRANCH  11  13
ENDBRANCH   2  11
TORSDOF 6
ENDMDL
