MODEL 1
REMARK VINA RESULT:    -3.684      0.000      0.000
REMARK INTER + INTRA:          -8.081
REMARK INTER:                  -6.699
REMARK INTRA:                  -1.382
REMARK UNBOUND:                -1.382
REMARK SMILES CCCCCCCCCCCCCCCC(=O)[O-]
REMARK SMILES IDX 9 1 10 2 11 3 12 4 13 5 14 6 15 7 16 8 17 9 18 10 8 11 7 12
REMARK SMILES IDX 6 13 5 14 4 15 3 16 2 17 1 18
REMARK H PARENT
REMARK Flexibility Score: inf
ROOT
ATOM      1  C   UNL     1     112.656  54.999 230.995  1.00  0.00     0.000 C 
ENDROOT
BRANCH   1   2
ATOM      2  C   UNL     1     112.941  54.333 229.641  1.00  0.00     0.000 C 
BRANCH   2   3
ATOM      3  C   UNL     1     113.812  55.235 228.759  1.00  0.00     0.000 C 
BRANCH   3   4
ATOM      4  C   UNL     1     113.682  54.849 227.278  1.00  0.00     0.000 C 
BRANCH   4   5
ATOM      5  C   UNL     1     113.211  53.398 227.074  1.00  0.00     0.000 C 
BRANCH   5   6
ATOM      6  C   UNL     1     112.398  53.152 225.790  1.00  0.00     0.006 C 
BRANCH   6   7
ATOM      7  C   UNL     1     110.975  53.721 225.867  1.00  0.00     0.053 C 
BRANCH   7   8
ATOM      8  C   UNL     1     110.042  52.911 225.022  1.00  0.00     0.041 C 
ATOM      9  O   UNL     1     109.578  51.823 225.455  1.00  0.00    -0.550 OA
ATOM     10  O   UNL     1     109.643  53.382 223.778  1.00  0.00    -0.550 OA
ENDBRANCH   7   8
ENDBRANCH   6   7
ENDBRANCH   5   6
ENDBRANCH   4   5
ENDBRANCH   3   4
ENDBRANCH   2   3
ENDBRANCH   1   2
BRANCH   1  11
ATOM     11  C   UNL     1     113.748  54.714 232.043  1.00  0.00     0.000 C 
BRANCH  11  12
ATOM     12  C   UNL     1     113.799  53.261 232.556  1.00  0.00    -0.000 C 
BRANCH  12  13
ATOM     13  C   UNL     1     113.929  53.109 234.083  1.00  0.00    -0.000 C 
BRANCH  13  14
ATOM     14  C   UNL     1     113.063  54.112 234.858  1.00  0.00    -0.000 C 
BRANCH  14  15
ATOM     15  C   UNL     1     111.665  53.537 235.125  1.00  0.00    -0.000 C 
BRANCH  15  16
ATOM     16  C   UNL     1     110.599  54.075 234.153  1.00  0.00    -0.000 C 
BRANCH  16  17
ATOM     17  C   UNL     1     109.654  53.008 233.572  1.00  0.00    -0.003 C 
ATOM     18  C   UNL     1     110.322  52.125 232.520  1.00  0.00     0.004 C 
ENDBRANCH  16  17
ENDBRANCH  15  16
ENDBRANCH  14  15
ENDBRANCH  13  14
ENDBRANCH  12  13
ENDBRANCH  11  12
ENDBRANCH   1  11
TORSDOF 14
ENDMDL
MODEL 2
REMARK VINA RESULT:    -3.657      2.800      7.074
REMARK INTER + INTRA:          -8.032
REMARK INTER:                  -6.984
REMARK INTRA:                  -1.047
REMARK UNBOUND:                -1.382
REMARK SMILES CCCCCCCCCCCCCCCC(=O)[O-]
REMARK SMILES IDX 9 1 10 2 11 3 12 4 13 5 14 6 15 7 16 8 17 9 18 10 8 11 7 12
REMARK SMILES IDX 6 13 5 14 4 15 3 16 2 17 1 18
REMARK H PARENT
REMARK Flexibility Score: inf
ROOT
ATOM      1  C   UNL     1     113.073  54.422 230.653  1.00  0.00     0.000 C 
ENDROOT
BRANCH   1   2
ATOM      2  C   UNL     1     113.912  54.290 231.932  1.00  0.00     0.000 C 
BRANCH   2   3
ATOM      3  C   UNL     1     113.480  53.064 232.747  1.00  0.00     0.000 C 
BRANCH   3   4
ATOM      4  C   UNL     1     113.139  53.455 234.192  1.00  0.00     0.000 C 
BRANCH   4   5
ATOM      5  C   UNL     1     111.636  53.343 234.506  1.00  0.00     0.000 C 
BRANCH   5   6
ATOM      6  C   UNL     1     110.741  54.363 233.777  1.00  0.00     0.006 C 
BRANCH   6   7
ATOM      7  C   UNL     1     109.951  53.742 232.619  1.00  0.00     0.053 C 
BRANCH   7   8
ATOM      8  C   UNL     1     109.299  52.468 233.056  1.00  0.00     0.041 C 
ATOM      9  O   UNL     1     108.317  52.496 233.844  1.00  0.00    -0.550 OA
ATOM     10  O   UNL     1     109.741  51.251 232.552  1.00  0.00    -0.550 OA
ENDBRANCH   7   8
ENDBRANCH   6   7
ENDBRANCH   5   6
ENDBRANCH   4   5
ENDBRANCH   3   4
ENDBRANCH   2   3
ENDBRANCH   1   2
BRANCH   1  11
ATOM     11  C   UNL     1     113.666  55.432 229.652  1.00  0.00     0.000 C 
BRANCH  11  12
ATOM     12  C   UNL     1     113.710  54.952 228.187  1.00  0.00    -0.000 C 
BRANCH  12  13
ATOM     13  C   UNL     1     112.987  53.622 227.911  1.00  0.00    -0.000 C 
BRANCH  13  14
ATOM     14  C   UNL     1     113.306  53.045 226.524  1.00  0.00    -0.000 C 
BRANCH  14  15
ATOM     15  C   UNL     1     112.400  53.664 225.451  1.00  0.00    -0.000 C 
BRANCH  15  16
ATOM     16  C   UNL     1     110.943  53.828 225.918  1.00  0.00    -0.000 C 
BRANCH  16  17
ATOM     17  C   UNL     1     109.880  53.420 224.882  1.00  0.00    -0.003 C 
ATOM     18  C   UNL     1     109.296  52.031 225.138  1.00  0.00     0.004 C 
ENDBRANCH  16  17
ENDBRANCH  15  16
ENDBRANCH  14  15
ENDBRANCH  13  14
ENDBRANCH  12  13
ENDBRANCH  11  12
ENDBRANCH   1  11
TORSDOF 14
ENDMDL
MODEL 3
REMARK VINA RESULT:    -3.508      3.045      7.264
REMARK INTER + INTRA:          -7.761
REMARK INTER:                  -6.291
REMARK INTRA:                  -1.469
REMARK UNBOUND:                -1.382
REMARK SMILES CCCCCCCCCCCCCCCC(=O)[O-]
REMARK SMILES IDX 9 1 10 2 11 3 12 4 13 5 14 6 15 7 16 8 17 9 18 10 8 11 7 12
REMARK SMILES IDX 6 13 5 14 4 15 3 16 2 17 1 18
REMARK H PARENT
REMARK Flexibility Score: inf
ROOT
ATOM      1  C   UNL     1     113.068  53.417 227.888  1.00  0.00     0.000 C 
ENDROOT
BRANCH   1   2
ATOM      2  C   UNL     1     113.289  54.860 228.366  1.00  0.00     0.000 C 
BRANCH   2   3
ATOM      3  C   UNL     1     113.142  54.961 229.889  1.00  0.00     0.000 C 
BRANCH   3   4
ATOM      4  C   UNL     1     112.591  53.654 230.478  1.00  0.00     0.000 C 
BRANCH   4   5
ATOM      5  C   UNL     1     112.934  53.474 231.967  1.00  0.00     0.000 C 
BRANCH   5   6
ATOM      6  C   UNL     1     111.992  52.534 232.743  1.00  0.00     0.006 C 
BRANCH   6   7
ATOM      7  C   UNL     1     110.654  53.194 233.101  1.00  0.00     0.053 C 
BRANCH   7   8
ATOM      8  C   UNL     1     109.564  52.171 233.153  1.00  0.00     0.041 C 
ATOM      9  O   UNL     1     108.454  52.453 233.677  1.00  0.00    -0.550 OA
ATOM     10  O   UNL     1     109.754  50.921 232.576  1.00  0.00    -0.550 OA
ENDBRANCH   7   8
ENDBRANCH   6   7
ENDBRANCH   5   6
ENDBRANCH   4   5
ENDBRANCH   3   4
ENDBRANCH   2   3
ENDBRANCH   1   2
BRANCH   1  11
ATOM     11  C   UNL     1     113.497  53.200 226.425  1.00  0.00     0.000 C 
BRANCH  11  12
ATOM     12  C   UNL     1     112.436  53.570 225.370  1.00  0.00    -0.000 C 
BRANCH  12  13
ATOM     13  C   UNL     1     110.974  53.374 225.814  1.00  0.00    -0.000 C 
BRANCH  13  14
ATOM     14  C   UNL     1     109.962  53.830 224.754  1.00  0.00    -0.000 C 
BRANCH  14  15
ATOM     15  C   UNL     1     109.272  55.133 225.180  1.00  0.00    -0.000 C 
BRANCH  15  16
ATOM     16  C   UNL     1     109.616  55.552 226.620  1.00  0.00    -0.000 C 
BRANCH  16  17
ATOM     17  C   UNL     1     110.239  56.954 226.757  1.00  0.00    -0.003 C 
ATOM     18  C   UNL     1     111.526  57.118 225.951  1.00  0.00     0.004 C 
ENDBRANCH  16  17
ENDBRANCH  15  16
ENDBRANCH  14  15
ENDBRANCH  13  14
ENDBRANCH  12  13
ENDBRANCH  11  12
ENDBRANCH   1  11
TORSDOF 14
ENDMDL
MODEL 4
REMARK VINA RESULT:    -3.388      1.926      2.314
REMARK INTER + INTRA:          -7.543
REMARK INTER:                  -5.920
REMARK INTRA:                  -1.623
REMARK UNBOUND:                -1.382
REMARK SMILES CCCCCCCCCCCCCCCC(=O)[O-]
REMARK SMILES IDX 9 1 10 2 11 3 12 4 13 5 14 6 15 7 16 8 17 9 18 10 8 11 7 12
REMARK SMILES IDX 6 13 5 14 4 15 3 16 2 17 1 18
REMARK H PARENT
REMARK Flexibility Score: inf
ROOT
ATOM      1  C   UNL     1     112.372  54.644 229.834  1.00  0.00     0.000 C 
ENDROOT
BRANCH   1   2
ATOM      2  C   UNL     1     113.390  54.613 228.685  1.00  0.00     0.000 C 
BRANCH   2   3
ATOM      3  C   UNL     1     113.146  53.406 227.770  1.00  0.00     0.000 C 
BRANCH   3   4
ATOM      4  C   UNL     1     113.314  53.793 226.293  1.00  0.00     0.000 C 
BRANCH   4   5
ATOM      5  C   UNL     1     112.103  53.403 225.428  1.00  0.00     0.000 C 
BRANCH   5   6
ATOM      6  C   UNL     1     110.730  53.718 226.051  1.00  0.00     0.006 C 
BRANCH   6   7
ATOM      7  C   UNL     1     110.227  55.125 225.705  1.00  0.00     0.053 C 
BRANCH   7   8
ATOM      8  C   UNL     1     110.430  56.052 226.861  1.00  0.00     0.041 C 
ATOM      9  O   UNL     1     111.409  56.844 226.874  1.00  0.00    -0.550 OA
ATOM     10  O   UNL     1     109.510  56.079 227.902  1.00  0.00    -0.550 OA
ENDBRANCH   7   8
ENDBRANCH   6   7
ENDBRANCH   5   6
ENDBRANCH   4   5
ENDBRANCH   3   4
ENDBRANCH   2   3
ENDBRANCH   1   2
BRANCH   1  11
ATOM     11  C   UNL     1     112.637  53.561 230.896  1.00  0.00     0.000 C 
BRANCH  11  12
ATOM     12  C   UNL     1     113.547  53.996 232.062  1.00  0.00    -0.000 C 
BRANCH  12  13
ATOM     13  C   UNL     1     113.743  52.944 233.169  1.00  0.00    -0.000 C 
BRANCH  13  14
ATOM     14  C   UNL     1     113.472  53.498 234.575  1.00  0.00    -0.000 C 
BRANCH  14  15
ATOM     15  C   UNL     1     112.129  54.238 234.623  1.00  0.00    -0.000 C 
BRANCH  15  16
ATOM     16  C   UNL     1     110.920  53.286 234.669  1.00  0.00    -0.000 C 
BRANCH  16  17
ATOM     17  C   UNL     1     109.977  53.375 233.455  1.00  0.00    -0.003 C 
ATOM     18  C   UNL     1     109.828  52.048 232.714  1.00  0.00     0.004 C 
ENDBRANCH  16  17
ENDBRANCH  15  16
ENDBRANCH  14  15
ENDBRANCH  13  14
ENDBRANCH  12  13
ENDBRANCH  11  12
ENDBRANCH   1  11
TORSDOF 14
ENDMDL
MODEL 5
REMARK VINA RESULT:    -3.382      2.164      3.538
REMARK INTER + INTRA:          -7.531
REMARK INTER:                  -5.411
REMARK INTRA:                  -2.120
REMARK UNBOUND:                -1.382
REMARK SMILES CCCCCCCCCCCCCCCC(=O)[O-]
REMARK SMILES IDX 9 1 10 2 11 3 12 4 13 5 14 6 15 7 16 8 17 9 18 10 8 11 7 12
REMARK SMILES IDX 6 13 5 14 4 15 3 16 2 17 1 18
REMARK H PARENT
REMARK Flexibility Score: inf
ROOT
ATOM      1  C   UNL     1     112.500  53.500 230.999  1.00  0.00     0.000 C 
ENDROOT
BRANCH   1   2
ATOM      2  C   UNL     1     113.506  54.642 230.794  1.00  0.00     0.000 C 
BRANCH   2   3
ATOM      3  C   UNL     1     113.624  55.008 229.309  1.00  0.00     0.000 C 
BRANCH   3   4
ATOM      4  C   UNL     1     112.990  53.926 228.422  1.00  0.00     0.000 C 
BRANCH   4   5
ATOM      5  C   UNL     1     112.536  54.460 227.052  1.00  0.00     0.000 C 
BRANCH   5   6
ATOM      6  C   UNL     1     111.867  53.419 226.136  1.00  0.00     0.006 C 
BRANCH   6   7
ATOM      7  C   UNL     1     110.443  53.813 225.726  1.00  0.00     0.053 C 
BRANCH   7   8
ATOM      8  C   UNL     1     109.790  52.700 224.967  1.00  0.00     0.041 C 
ATOM      9  O   UNL     1     109.432  51.651 225.565  1.00  0.00    -0.550 OA
ATOM     10  O   UNL     1     109.531  52.841 223.610  1.00  0.00    -0.550 OA
ENDBRANCH   7   8
ENDBRANCH   6   7
ENDBRANCH   5   6
ENDBRANCH   4   5
ENDBRANCH   3   4
ENDBRANCH   2   3
ENDBRANCH   1   2
BRANCH   1  11
ATOM     11  C   UNL     1     111.584  53.723 232.217  1.00  0.00     0.000 C 
BRANCH  11  12
ATOM     12  C   UNL     1     111.714  55.104 232.889  1.00  0.00    -0.000 C 
BRANCH  12  13
ATOM     13  C   UNL     1     110.577  56.094 232.577  1.00  0.00    -0.000 C 
BRANCH  13  14
ATOM     14  C   UNL     1     109.470  55.478 231.709  1.00  0.00    -0.000 C 
BRANCH  14  15
ATOM     15  C   UNL     1     109.148  56.380 230.510  1.00  0.00    -0.000 C 
BRANCH  15  16
ATOM     16  C   UNL     1     110.136  56.201 229.343  1.00  0.00    -0.000 C 
BRANCH  16  17
ATOM     17  C   UNL     1     110.697  57.512 228.761  1.00  0.00    -0.003 C 
ATOM     18  C   UNL     1     111.766  58.150 229.646  1.00  0.00     0.004 C 
ENDBRANCH  16  17
ENDBRANCH  15  16
ENDBRANCH  14  15
ENDBRANCH  13  14
ENDBRANCH  12  13
ENDBRANCH  11  12
ENDBRANCH   1  11
TORSDOF 14
ENDMDL
MODEL 6
REMARK VINA RESULT:    -3.344      3.242      7.946
REMARK INTER + INTRA:          -7.464
REMARK INTER:                  -6.514
REMARK INTRA:                  -0.950
REMARK UNBOUND:                -1.382
REMARK SMILES CCCCCCCCCCCCCCCC(=O)[O-]
REMARK SMILES IDX 9 1 10 2 11 3 12 4 13 5 14 6 15 7 16 8 17 9 18 10 8 11 7 12
REMARK SMILES IDX 6 13 5 14 4 15 3 16 2 17 1 18
REMARK H PARENT
REMARK Flexibility Score: inf
ROOT
ATOM      1  C   UNL     1     113.010  53.491 227.990  1.00  0.00     0.000 C 
ENDROOT
BRANCH   1   2
ATOM      2  C   UNL     1     112.758  54.915 228.506  1.00  0.00     0.000 C 
BRANCH   2   3
ATOM      3  C   UNL     1     112.780  54.955 230.039  1.00  0.00     0.000 C 
BRANCH   3   4
ATOM      4  C   UNL     1     112.636  53.544 230.629  1.00  0.00     0.000 C 
BRANCH   4   5
ATOM      5  C   UNL     1     113.182  53.434 232.063  1.00  0.00     0.000 C 
BRANCH   5   6
ATOM      6  C   UNL     1     112.147  53.017 233.124  1.00  0.00     0.006 C 
BRANCH   6   7
ATOM      7  C   UNL     1     110.866  52.435 232.510  1.00  0.00     0.053 C 
BRANCH   7   8
ATOM      8  C   UNL     1     109.755  52.445 233.512  1.00  0.00     0.041 C 
ATOM      9  O   UNL     1     108.614  52.016 233.197  1.00  0.00    -0.550 OA
ATOM     10  O   UNL     1     109.992  52.881 234.810  1.00  0.00    -0.550 OA
ENDBRANCH   7   8
ENDBRANCH   6   7
ENDBRANCH   5   6
ENDBRANCH   4   5
ENDBRANCH   3   4
ENDBRANCH   2   3
ENDBRANCH   1   2
BRANCH   1  11
ATOM     11  C   UNL     1     112.969  53.396 226.454  1.00  0.00     0.000 C 
BRANCH  11  12
ATOM     12  C   UNL     1     112.306  54.592 225.741  1.00  0.00    -0.000 C 
BRANCH  12  13
ATOM     13  C   UNL     1     110.953  54.288 225.071  1.00  0.00    -0.000 C 
BRANCH  13  14
ATOM     14  C   UNL     1     110.412  52.895 225.424  1.00  0.00    -0.000 C 
BRANCH  14  15
ATOM     15  C   UNL     1     108.977  52.719 224.911  1.00  0.00    -0.000 C 
BRANCH  15  16
ATOM     16  C   UNL     1     108.565  53.800 223.896  1.00  0.00    -0.000 C 
BRANCH  16  17
ATOM     17  C   UNL     1     108.258  53.278 222.480  1.00  0.00    -0.003 C 
ATOM     18  C   UNL     1     108.215  51.753 222.401  1.00  0.00     0.004 C 
ENDBRANCH  16  17
ENDBRANCH  15  16
ENDBRANCH  14  15
ENDBRANCH  13  14
ENDBRANCH  12  13
ENDBRANCH  11  12
ENDBRANCH   1  11
TORSDOF 14
ENDMDL
MODEL 7
REMARK VINA RESULT:    -3.321      1.423      2.785
REMARK INTER + INTRA:          -7.422
REMARK INTER:                  -5.733
REMARK INTRA:                  -1.688
REMARK UNBOUND:                -1.382
REMARK SMILES CCCCCCCCCCCCCCCC(=O)[O-]
REMARK SMILES IDX 9 1 10 2 11 3 12 4 13 5 14 6 15 7 16 8 17 9 18 10 8 11 7 12
REMARK SMILES IDX 6 13 5 14 4 15 3 16 2 17 1 18
REMARK H PARENT
REMARK Flexibility Score: inf
ROOT
ATOM      1  C   UNL     1     113.027  53.051 232.065  1.00  0.00     0.000 C 
ENDROOT
BRANCH   1   2
ATOM      2  C   UNL     1     112.459  53.691 230.790  1.00  0.00     0.000 C 
BRANCH   2   3
ATOM      3  C   UNL     1     113.429  54.735 230.223  1.00  0.00     0.000 C 
BRANCH   3   4
ATOM      4  C   UNL     1     113.397  54.739 228.687  1.00  0.00     0.000 C 
BRANCH   4   5
ATOM      5  C   UNL     1     112.993  53.379 228.091  1.00  0.00     0.000 C 
BRANCH   5   6
ATOM      6  C   UNL     1     112.573  53.417 226.610  1.00  0.00     0.006 C 
BRANCH   6   7
ATOM      7  C   UNL     1     111.407  54.378 226.346  1.00  0.00     0.053 C 
BRANCH   7   8
ATOM      8  C   UNL     1     110.359  53.712 225.511  1.00  0.00     0.041 C 
ATOM      9  O   UNL     1     109.717  54.373 224.653  1.00  0.00    -0.550 OA
ATOM     10  O   UNL     1     110.125  52.349 225.645  1.00  0.00    -0.550 OA
ENDBRANCH   7   8
ENDBRANCH   6   7
ENDBRANCH   5   6
ENDBRANCH   4   5
ENDBRANCH   3   4
ENDBRANCH   2   3
ENDBRANCH   1   2
BRANCH   1  11
ATOM     11  C   UNL     1     111.934  52.685 233.087  1.00  0.00     0.000 C 
BRANCH  11  12
ATOM     12  C   UNL     1     110.574  52.290 232.478  1.00  0.00    -0.000 C 
BRANCH  12  13
ATOM     13  C   UNL     1     109.340  52.736 233.285  1.00  0.00    -0.000 C 
BRANCH  13  14
ATOM     14  C   UNL     1     109.611  53.969 234.158  1.00  0.00    -0.000 C 
BRANCH  14  15
ATOM     15  C   UNL     1     109.250  55.260 233.410  1.00  0.00    -0.000 C 
BRANCH  15  16
ATOM     16  C   UNL     1     110.172  56.439 233.768  1.00  0.00    -0.000 C 
BRANCH  16  17
ATOM     17  C   UNL     1     111.547  56.422 233.075  1.00  0.00    -0.003 C 
ATOM     18  C   UNL     1     112.708  56.254 234.053  1.00  0.00     0.004 C 
ENDBRANCH  16  17
ENDBRANCH  15  16
ENDBRANCH  14  15
ENDBRANCH  13  14
ENDBRANCH  12  13
ENDBRANCH  11  12
ENDBRANCH   1  11
TORSDOF 14
ENDMDL
MODEL 8
REMARK VINA RESULT:    -3.301     16.714     18.943
REMARK INTER + INTRA:          -7.385
REMARK INTER:                  -5.164
REMARK INTRA:                  -2.221
REMARK UNBOUND:                -1.382
REMARK SMILES CCCCCCCCCCCCCCCC(=O)[O-]
REMARK SMILES IDX 9 1 10 2 11 3 12 4 13 5 14 6 15 7 16 8 17 9 18 10 8 11 7 12
REMARK SMILES IDX 6 13 5 14 4 15 3 16 2 17 1 18
REMARK H PARENT
REMARK Flexibility Score: inf
ROOT
ATOM      1  C   UNL     1      95.622  65.407 227.277  1.00  0.00     0.000 C 
ENDROOT
BRANCH   1   2
ATOM      2  C   UNL     1      96.895  64.786 227.869  1.00  0.00     0.000 C 
BRANCH   2   3
ATOM      3  C   UNL     1      97.232  63.460 227.175  1.00  0.00     0.000 C 
BRANCH   3   4
ATOM      4  C   UNL     1      98.671  63.470 226.637  1.00  0.00     0.000 C 
BRANCH   4   5
ATOM      5  C   UNL     1      99.161  62.077 226.205  1.00  0.00     0.000 C 
BRANCH   5   6
ATOM      6  C   UNL     1     100.686  61.946 226.035  1.00  0.00     0.006 C 
BRANCH   6   7
ATOM      7  C   UNL     1     101.133  62.037 224.571  1.00  0.00     0.053 C 
BRANCH   7   8
ATOM      8  C   UNL     1     101.248  63.467 224.147  1.00  0.00     0.041 C 
ATOM      9  O   UNL     1     102.120  64.213 224.663  1.00  0.00    -0.550 OA
ATOM     10  O   UNL     1     100.425  63.964 223.143  1.00  0.00    -0.550 OA
ENDBRANCH   7   8
ENDBRANCH   6   7
ENDBRANCH   5   6
ENDBRANCH   4   5
ENDBRANCH   3   4
ENDBRANCH   2   3
ENDBRANCH   1   2
BRANCH   1  11
ATOM     11  C   UNL     1      94.984  64.532 226.181  1.00  0.00     0.000 C 
BRANCH  11  12
ATOM     12  C   UNL     1      94.939  65.171 224.778  1.00  0.00    -0.000 C 
BRANCH  12  13
ATOM     13  C   UNL     1      96.010  64.666 223.794  1.00  0.00    -0.000 C 
BRANCH  13  14
ATOM     14  C   UNL     1      97.337  65.431 223.912  1.00  0.00    -0.000 C 
BRANCH  14  15
ATOM     15  C   UNL     1      97.091  66.906 224.257  1.00  0.00    -0.000 C 
BRANCH  15  16
ATOM     16  C   UNL     1      98.151  67.483 225.211  1.00  0.00    -0.000 C 
BRANCH  16  17
ATOM     17  C   UNL     1      99.503  66.746 225.202  1.00  0.00    -0.003 C 
ATOM     18  C   UNL     1     100.524  67.379 224.259  1.00  0.00     0.004 C 
ENDBRANCH  16  17
ENDBRANCH  15  16
ENDBRANCH  14  15
ENDBRANCH  13  14
ENDBRANCH  12  13
ENDBRANCH  11  12
ENDBRANCH   1  11
TORSDOF 14
ENDMDL
MODEL 9
REMARK VINA RESULT:    -3.293     16.673     18.774
REMARK INTER + INTRA:          -7.370
REMARK INTER:                  -4.835
REMARK INTRA:                  -2.534
REMARK UNBOUND:                -1.382
REMARK SMILES CCCCCCCCCCCCCCCC(=O)[O-]
REMARK SMILES IDX 9 1 10 2 11 3 12 4 13 5 14 6 15 7 16 8 17 9 18 10 8 11 7 12
REMARK SMILES IDX 6 13 5 14 4 15 3 16 2 17 1 18
REMARK H PARENT
REMARK Flexibility Score: inf
ROOT
ATOM      1  C   UNL     1      97.151  65.372 228.523  1.00  0.00     0.000 C 
ENDROOT
BRANCH   1   2
ATOM      2  C   UNL     1      97.944  64.204 227.919  1.00  0.00     0.000 C 
BRANCH   2   3
ATOM      3  C   UNL     1      97.019  63.027 227.585  1.00  0.00     0.000 C 
BRANCH   3   4
ATOM      4  C   UNL     1      97.639  62.129 226.504  1.00  0.00     0.000 C 
BRANCH   4   5
ATOM      5  C   UNL     1      99.157  61.941 226.677  1.00  0.00     0.000 C 
BRANCH   5   6
ATOM      6  C   UNL     1     100.007  62.380 225.470  1.00  0.00     0.006 C 
BRANCH   6   7
ATOM      7  C   UNL     1     101.481  62.609 225.832  1.00  0.00     0.053 C 
BRANCH   7   8
ATOM      8  C   UNL     1     102.212  63.225 224.680  1.00  0.00     0.041 C 
ATOM      9  O   UNL     1     101.576  63.827 223.775  1.00  0.00    -0.550 OA
ATOM     10  O   UNL     1     103.599  63.180 224.632  1.00  0.00    -0.550 OA
ENDBRANCH   7   8
ENDBRANCH   6   7
ENDBRANCH   5   6
ENDBRANCH   4   5
ENDBRANCH   3   4
ENDBRANCH   2   3
ENDBRANCH   1   2
BRANCH   1  11
ATOM     11  C   UNL     1      95.747  65.521 227.909  1.00  0.00     0.000 C 
BRANCH  11  12
ATOM     12  C   UNL     1      95.531  66.796 227.069  1.00  0.00    -0.000 C 
BRANCH  12  13
ATOM     13  C   UNL     1      95.113  66.554 225.607  1.00  0.00    -0.000 C 
BRANCH  13  14
ATOM     14  C   UNL     1      94.852  65.073 225.297  1.00  0.00    -0.000 C 
BRANCH  14  15
ATOM     15  C   UNL     1      95.906  64.522 224.327  1.00  0.00    -0.000 C 
BRANCH  15  16
ATOM     16  C   UNL     1      96.898  65.596 223.846  1.00  0.00    -0.000 C 
BRANCH  16  17
ATOM     17  C   UNL     1      98.372  65.322 224.196  1.00  0.00    -0.003 C 
ATOM     18  C   UNL     1      98.958  66.348 225.163  1.00  0.00     0.004 C 
ENDBRANCH  16  17
ENDBRANCH  15  16
ENDBRANCH  14  15
ENDBRANCH  13  14
ENDBRANCH  12  13
ENDBRANCH  11  12
ENDBRANCH   1  11
TORSDOF 14
ENDMDL
