MODEL 1
REMARK VINA RESULT:    -3.497      0.000      0.000
REMARK INTER + INTRA:          -4.142
REMARK INTER:                  -4.110
REMARK INTRA:                  -0.032
REMARK UNBOUND:                -0.032
REMARK SMILES CCCCC(=O)[O-]
REMARK SMILES IDX 4 1 5 2 6 3 7 4 3 5 2 6 1 7
REMARK H PARENT
REMARK Flexibility Score: inf
ROOT
ATOM      1  C   UNL     1       5.181  26.975  14.522  1.00  0.00     0.053 C 
ENDROOT
BRANCH   1   2
ATOM      2  C   UNL     1       5.025  27.681  13.212  1.00  0.00     0.041 C 
ATOM      3  O   UNL     1       4.347  27.159  12.288  1.00  0.00    -0.550 OA
ATOM      4  O   UNL     1       5.669  28.891  12.993  1.00  0.00    -0.550 OA
ENDBRANCH   1   2
BRANCH   1   5
ATOM      5  C   UNL     1       6.318  25.951  14.447  1.00  0.00     0.006 C 
BRANCH   5   6
ATOM      6  C   UNL     1       7.359  26.205  15.543  1.00  0.00    -0.003 C 
ATOM      7  C   UNL     1       6.795  25.883  16.924  1.00  0.00     0.004 C 
ENDBRANCH   5   6
ENDBRANCH   1   5
TORSDOF 3
ENDMDL
MODEL 2
REMARK VINA RESULT:    -3.453      1.471      1.796
REMARK INTER + INTRA:          -4.090
REMARK INTER:                  -4.053
REMARK INTRA:                  -0.037
REMARK UNBOUND:                -0.032
REMARK SMILES CCCCC(=O)[O-]
REMARK SMILES IDX 4 1 5 2 6 3 7 4 3 5 2 6 1 7
REMARK H PARENT
REMARK Flexibility Score: inf
ROOT
ATOM      1  C   UNL     1       4.476  25.261  13.414  1.00  0.00     0.053 C 
ENDROOT
BRANCH   1   2
ATOM      2  C   UNL     1       3.733  26.236  12.556  1.00  0.00     0.041 C 
ATOM      3  O   UNL     1       2.573  25.963  12.147  1.00  0.00    -0.550 OA
ATOM      4  O   UNL     1       4.339  27.422  12.165  1.00  0.00    -0.550 OA
ENDBRANCH   1   2
BRANCH   1   5
ATOM      5  C   UNL     1       5.834  25.837  13.827  1.00  0.00     0.006 C 
BRANCH   5   6
ATOM      6  C   UNL     1       5.981  25.856  15.353  1.00  0.00    -0.003 C 
ATOM      7  C   UNL     1       7.403  26.231  15.765  1.00  0.00     0.004 C 
ENDBRANCH   5   6
ENDBRANCH   1   5
TORSDOF 3
ENDMDL
MODEL 3
REMARK VINA RESULT:    -3.451      0.362      1.257
REMARK INTER + INTRA:          -4.088
REMARK INTER:                  -4.036
REMARK INTRA:                  -0.052
REMARK UNBOUND:                -0.032
REMARK SMILES CCCCC(=O)[O-]
REMARK SMILES IDX 4 1 5 2 6 3 7 4 3 5 2 6 1 7
REMARK H PARENT
REMARK Flexibility Score: inf
ROOT
ATOM      1  C   UNL     1       4.956  26.985  14.250  1.00  0.00     0.053 C 
ENDROOT
BRANCH   1   2
ATOM      2  C   UNL     1       4.989  27.842  13.024  1.00  0.00     0.041 C 
ATOM      3  O   UNL     1       5.737  28.855  12.980  1.00  0.00    -0.550 OA
ATOM      4  O   UNL     1       4.158  27.554  11.951  1.00  0.00    -0.550 OA
ENDBRANCH   1   2
BRANCH   1   5
ATOM      5  C   UNL     1       6.059  25.924  14.193  1.00  0.00     0.006 C 
BRANCH   5   6
ATOM      6  C   UNL     1       7.199  26.264  15.159  1.00  0.00    -0.003 C 
ATOM      7  C   UNL     1       6.806  25.967  16.603  1.00  0.00     0.004 C 
ENDBRANCH   5   6
ENDBRANCH   1   5
TORSDOF 3
ENDMDL
MODEL 4
REMARK VINA RESULT:    -3.219      2.692      3.811
REMARK INTER + INTRA:          -3.816
REMARK INTER:                  -3.736
REMARK INTRA:                  -0.080
REMARK UNBOUND:                -0.032
REMARK SMILES CCCCC(=O)[O-]
REMARK SMILES IDX 4 1 5 2 6 3 7 4 3 5 2 6 1 7
REMARK H PARENT
REMARK Flexibility Score: inf
ROOT
ATOM      1  C   UNL     1       5.291  25.615  15.224  1.00  0.00     0.053 C 
ENDROOT
BRANCH   1   2
ATOM      2  C   UNL     1       6.302  26.247  16.128  1.00  0.00     0.041 C 
ATOM      3  O   UNL     1       7.522  25.952  16.018  1.00  0.00    -0.550 OA
ATOM      4  O   UNL     1       5.893  27.122  17.125  1.00  0.00    -0.550 OA
ENDBRANCH   1   2
BRANCH   1   5
ATOM      5  C   UNL     1       5.604  25.936  13.760  1.00  0.00     0.006 C 
BRANCH   5   6
ATOM      6  C   UNL     1       5.269  27.396  13.434  1.00  0.00    -0.003 C 
ATOM      7  C   UNL     1       4.186  27.486  12.362  1.00  0.00     0.004 C 
ENDBRANCH   5   6
ENDBRANCH   1   5
TORSDOF 3
ENDMDL
MODEL 5
REMARK VINA RESULT:    -3.159      1.707      2.098
REMARK INTER + INTRA:          -3.745
REMARK INTER:                  -3.714
REMARK INTRA:                  -0.032
REMARK UNBOUND:                -0.032
REMARK SMILES CCCCC(=O)[O-]
REMARK SMILES IDX 4 1 5 2 6 3 7 4 3 5 2 6 1 7
REMARK H PARENT
REMARK Flexibility Score: inf
ROOT
ATOM      1  C   UNL     1       5.012  27.266  14.071  1.00  0.00     0.053 C 
ENDROOT
BRANCH   1   2
ATOM      2  C   UNL     1       4.914  28.153  12.870  1.00  0.00     0.041 C 
ATOM      3  O   UNL     1       4.159  27.840  11.912  1.00  0.00    -0.550 OA
ATOM      4  O   UNL     1       5.695  29.297  12.785  1.00  0.00    -0.550 OA
ENDBRANCH   1   2
BRANCH   1   5
ATOM      5  C   UNL     1       5.676  25.936  13.704  1.00  0.00     0.006 C 
BRANCH   5   6
ATOM      6  C   UNL     1       4.628  24.839  13.488  1.00  0.00    -0.003 C 
ATOM      7  C   UNL     1       3.913  24.495  14.792  1.00  0.00     0.004 C 
ENDBRANCH   5   6
ENDBRANCH   1   5
TORSDOF 3
ENDMDL
MODEL 6
REMARK VINA RESULT:    -3.025      2.257      4.015
REMARK INTER + INTRA:          -3.587
REMARK INTER:                  -3.482
REMARK INTRA:                  -0.104
REMARK UNBOUND:                -0.032
REMARK SMILES CCCCC(=O)[O-]
REMARK SMILES IDX 4 1 5 2 6 3 7 4 3 5 2 6 1 7
REMARK H PARENT
REMARK Flexibility Score: inf
ROOT
ATOM      1  C   UNL     1       5.172  27.649  13.964  1.00  0.00     0.053 C 
ENDROOT
BRANCH   1   2
ATOM      2  C   UNL     1       5.656  26.234  13.946  1.00  0.00     0.041 C 
ATOM      3  O   UNL     1       5.018  25.355  13.308  1.00  0.00    -0.550 OA
ATOM      4  O   UNL     1       6.782  25.874  14.674  1.00  0.00    -0.550 OA
ENDBRANCH   1   2
BRANCH   1   5
ATOM      5  C   UNL     1       4.868  28.132  12.543  1.00  0.00     0.006 C 
BRANCH   5   6
ATOM      6  C   UNL     1       3.376  28.440  12.374  1.00  0.00    -0.003 C 
ATOM      7  C   UNL     1       2.722  27.474  11.389  1.00  0.00     0.004 C 
ENDBRANCH   5   6
ENDBRANCH   1   5
TORSDOF 3
ENDMDL
MODEL 7
REMARK VINA RESULT:    -3.014      2.871      3.797
REMARK INTER + INTRA:          -3.575
REMARK INTER:                  -3.525
REMARK INTRA:                  -0.050
REMARK UNBOUND:                -0.032
REMARK SMILES CCCCC(=O)[O-]
REMARK SMILES IDX 4 1 5 2 6 3 7 4 3 5 2 6 1 7
REMARK H PARENT
REMARK Flexibility Score: inf
ROOT
ATOM      1  C   UNL     1       4.872  25.188  13.572  1.00  0.00     0.053 C 
ENDROOT
BRANCH   1   2
ATOM      2  C   UNL     1       4.154  24.912  14.854  1.00  0.00     0.041 C 
ATOM      3  O   UNL     1       3.431  23.886  14.967  1.00  0.00    -0.550 OA
ATOM      4  O   UNL     1       4.239  25.811  15.908  1.00  0.00    -0.550 OA
ENDBRANCH   1   2
BRANCH   1   5
ATOM      5  C   UNL     1       5.509  26.580  13.603  1.00  0.00     0.006 C 
BRANCH   5   6
ATOM      6  C   UNL     1       4.722  27.564  12.730  1.00  0.00    -0.003 C 
ATOM      7  C   UNL     1       5.267  28.983  12.870  1.00  0.00     0.004 C 
ENDBRANCH   5   6
ENDBRANCH   1   5
TORSDOF 3
ENDMDL
MODEL 8
REMARK VINA RESULT:    -2.776     10.100     10.906
REMARK INTER + INTRA:          -3.295
REMARK INTER:                  -3.213
REMARK INTRA:                  -0.082
REMARK UNBOUND:                -0.032
REMARK SMILES CCCCC(=O)[O-]
REMARK SMILES IDX 4 1 5 2 6 3 7 4 3 5 2 6 1 7
REMARK H PARENT
REMARK Flexibility Score: inf
ROOT
ATOM      1  C   UNL     1       4.652  16.050  15.171  1.00  0.00     0.053 C 
ENDROOT
BRANCH   1   2
ATOM      2  C   UNL     1       5.619  15.479  14.183  1.00  0.00     0.041 C 
ATOM      3  O   UNL     1       6.846  15.748  14.269  1.00  0.00    -0.550 OA
ATOM      4  O   UNL     1       5.160  14.690  13.137  1.00  0.00    -0.550 OA
ENDBRANCH   1   2
BRANCH   1   5
ATOM      5  C   UNL     1       5.398  16.671  16.356  1.00  0.00     0.006 C 
BRANCH   5   6
ATOM      6  C   UNL     1       4.901  18.094  16.634  1.00  0.00    -0.003 C 
ATOM      7  C   UNL     1       4.665  18.859  15.335  1.00  0.00     0.004 C 
ENDBRANCH   5   6
ENDBRANCH   1   5
TORSDOF 3
ENDMDL
MODEL 9
REMARK VINA RESULT:    -2.756     10.138     10.902
REMARK INTER + INTRA:          -3.271
REMARK INTER:                  -3.144
REMARK INTRA:                  -0.127
REMARK UNBOUND:                -0.032
REMARK SMILES CCCCC(=O)[O-]
REMARK SMILES IDX 4 1 5 2 6 3 7 4 3 5 2 6 1 7
REMARK H PARENT
REMARK Flexibility Score: inf
ROOT
ATOM      1  C   UNL     1       6.260  16.139  14.276  1.00  0.00     0.053 C 
ENDROOT
BRANCH   1   2
ATOM      2  C   UNL     1       5.310  15.539  13.288  1.00  0.00     0.041 C 
ATOM      3  O   UNL     1       4.817  14.399  13.496  1.00  0.00    -0.550 OA
ATOM      4  O   UNL     1       5.008  16.215  12.114  1.00  0.00    -0.550 OA
ENDBRANCH   1   2
BRANCH   1   5
ATOM      5  C   UNL     1       5.563  16.371  15.620  1.00  0.00     0.006 C 
BRANCH   5   6
ATOM      6  C   UNL     1       4.370  17.320  15.463  1.00  0.00    -0.003 C 
ATOM      7  C   UNL     1       4.834  18.746  15.176  1.00  0.00     0.004 C 
ENDBRANCH   5   6
ENDBRANCH   1   5
TORSDOF 3
ENDMDL
