MODEL 1
REMARK VINA RESULT:    -4.665      0.000      0.000
REMARK INTER + INTRA:          -6.367
REMARK INTER:                  -5.892
REMARK INTRA:                  -0.475
REMARK UNBOUND:                -0.475
REMARK SMILES Oc1cc(O)cc(CCc2ccccc2O)c1
REMARK SMILES IDX 9 1 10 2 12 3 13 4 11 5 14 6 15 7 16 8 8 10 7 11 6 12 17 13
REMARK SMILES IDX 4 14 2 15 3 16 5 17 1 19
REMARK H PARENT 16 9 5 18 1 20
REMARK Flexibility Score: inf
ROOT
ATOM      1  C   UNL     1      -4.521   2.203  -3.397  1.00  0.00     0.044 C 
ENDROOT
BRANCH   1   2
ATOM      2  C   UNL     1      -5.402   0.965  -3.313  1.00  0.00    -0.006 A 
ATOM      3  C   UNL     1      -7.461  -0.169  -2.641  1.00  0.00     0.001 A 
ATOM      4  C   UNL     1      -6.994  -1.361  -3.187  1.00  0.00     0.004 A 
ATOM      5  C   UNL     1      -6.677   0.987  -2.700  1.00  0.00     0.007 A 
ATOM      6  C   UNL     1      -5.741  -1.405  -3.796  1.00  0.00     0.046 A 
ATOM      7  C   UNL     1      -4.941  -0.258  -3.866  1.00  0.00     0.118 A 
BRANCH   7   8
ATOM      8  O   UNL     1      -3.695  -0.370  -4.489  1.00  0.00    -0.508 OA
ATOM      9  H   UNL     1      -3.573  -0.701  -5.437  1.00  0.00     0.293 HD
ENDBRANCH   7   8
ENDBRANCH   1   2
BRANCH   1  10
ATOM     10  C   UNL     1      -4.720   3.086  -4.638  1.00  0.00     0.040 C 
BRANCH  10  11
ATOM     11  C   UNL     1      -5.061   4.497  -4.233  1.00  0.00    -0.040 A 
ATOM     12  C   UNL     1      -6.379   4.968  -4.348  1.00  0.00     0.050 A 
ATOM     13  C   UNL     1      -4.053   5.369  -3.792  1.00  0.00     0.050 A 
ATOM     14  C   UNL     1      -6.691   6.287  -4.005  1.00  0.00     0.119 A 
ATOM     15  C   UNL     1      -4.364   6.692  -3.447  1.00  0.00     0.119 A 
ATOM     16  C   UNL     1      -5.682   7.147  -3.551  1.00  0.00     0.092 A 
BRANCH  14  17
ATOM     17  O   UNL     1      -8.005   6.735  -4.120  1.00  0.00    -0.508 OA
ATOM     18  H   UNL     1      -8.656   6.307  -4.768  1.00  0.00     0.293 HD
ENDBRANCH  14  17
BRANCH  15  19
ATOM     19  O   UNL     1      -3.370   7.561  -3.003  1.00  0.00    -0.508 OA
ATOM     20  H   UNL     1      -3.304   7.839  -2.030  1.00  0.00     0.293 HD
ENDBRANCH  15  19
ENDBRANCH  10  11
ENDBRANCH   1  10
TORSDOF 6
ENDMDL
MODEL 2
REMARK VINA RESULT:    -4.619      1.614      6.853
REMARK INTER + INTRA:          -6.309
REMARK INTER:                  -5.895
REMARK INTRA:                  -0.414
REMARK UNBOUND:                -0.475
REMARK SMILES Oc1cc(O)cc(CCc2ccccc2O)c1
REMARK SMILES IDX 9 1 10 2 12 3 13 4 11 5 14 6 15 7 16 8 8 10 7 11 6 12 17 13
REMARK SMILES IDX 4 14 2 15 3 16 5 17 1 19
REMARK H PARENT 16 9 5 18 1 20
REMARK Flexibility Score: inf
ROOT
ATOM      1  C   UNL     1      -4.693   3.435  -4.702  1.00  0.00     0.044 C 
ENDROOT
BRANCH   1   2
ATOM      2  C   UNL     1      -4.598   4.835  -4.114  1.00  0.00    -0.006 A 
ATOM      3  C   UNL     1      -3.345   6.632  -3.030  1.00  0.00     0.001 A 
ATOM      4  C   UNL     1      -4.479   7.440  -3.037  1.00  0.00     0.004 A 
ATOM      5  C   UNL     1      -3.398   5.341  -3.562  1.00  0.00     0.007 A 
ATOM      6  C   UNL     1      -5.672   6.962  -3.576  1.00  0.00     0.046 A 
ATOM      7  C   UNL     1      -5.745   5.671  -4.114  1.00  0.00     0.118 A 
BRANCH   7   8
ATOM      8  O   UNL     1      -6.971   5.253  -4.639  1.00  0.00    -0.508 OA
ATOM      9  H   UNL     1      -7.251   4.283  -4.697  1.00  0.00     0.293 HD
ENDBRANCH   7   8
ENDBRANCH   1   2
BRANCH   1  10
ATOM     10  C   UNL     1      -3.559   2.470  -4.324  1.00  0.00     0.040 C 
BRANCH  10  11
ATOM     11  C   UNL     1      -4.108   1.094  -4.047  1.00  0.00    -0.040 A 
ATOM     12  C   UNL     1      -3.308  -0.042  -4.249  1.00  0.00     0.050 A 
ATOM     13  C   UNL     1      -5.443   0.933  -3.641  1.00  0.00     0.050 A 
ATOM     14  C   UNL     1      -3.826  -1.321  -4.026  1.00  0.00     0.119 A 
ATOM     15  C   UNL     1      -5.964  -0.348  -3.416  1.00  0.00     0.119 A 
ATOM     16  C   UNL     1      -5.154  -1.473  -3.606  1.00  0.00     0.092 A 
BRANCH  14  17
ATOM     17  O   UNL     1      -3.015  -2.436  -4.225  1.00  0.00    -0.508 OA
ATOM     18  H   UNL     1      -2.768  -3.056  -3.463  1.00  0.00     0.293 HD
ENDBRANCH  14  17
BRANCH  15  19
ATOM     19  O   UNL     1      -7.285  -0.515  -3.007  1.00  0.00    -0.508 OA
ATOM     20  H   UNL     1      -7.531  -1.136  -2.245  1.00  0.00     0.293 HD
ENDBRANCH  15  19
ENDBRANCH  10  11
ENDBRANCH   1  10
TORSDOF 6
ENDMDL
MODEL 3
REMARK VINA RESULT:    -4.617      0.170      2.040
REMARK INTER + INTRA:          -6.307
REMARK INTER:                  -5.844
REMARK INTRA:                  -0.462
REMARK UNBOUND:                -0.475
REMARK SMILES Oc1cc(O)cc(CCc2ccccc2O)c1
REMARK SMILES IDX 9 1 10 2 12 3 13 4 11 5 14 6 15 7 16 8 8 10 7 11 6 12 17 13
REMARK SMILES IDX 4 14 2 15 3 16 5 17 1 19
REMARK H PARENT 16 9 5 18 1 20
REMARK Flexibility Score: inf
ROOT
ATOM      1  C   UNL     1      -4.625   2.194  -3.266  1.00  0.00     0.044 C 
ENDROOT
BRANCH   1   2
ATOM      2  C   UNL     1      -5.523   0.966  -3.237  1.00  0.00    -0.006 A 
ATOM      3  C   UNL     1      -7.602  -0.165  -2.627  1.00  0.00     0.001 A 
ATOM      4  C   UNL     1      -7.144  -1.343  -3.212  1.00  0.00     0.004 A 
ATOM      5  C   UNL     1      -6.803   0.981  -2.636  1.00  0.00     0.007 A 
ATOM      6  C   UNL     1      -5.885  -1.381  -3.810  1.00  0.00     0.046 A 
ATOM      7  C   UNL     1      -5.070  -0.242  -3.830  1.00  0.00     0.118 A 
BRANCH   7   8
ATOM      8  O   UNL     1      -3.820  -0.347  -4.444  1.00  0.00    -0.508 OA
ATOM      9  H   UNL     1      -3.506  -1.175  -4.933  1.00  0.00     0.293 HD
ENDBRANCH   7   8
ENDBRANCH   1   2
BRANCH   1  10
ATOM     10  C   UNL     1      -4.697   3.047  -4.542  1.00  0.00     0.040 C 
BRANCH  10  11
ATOM     11  C   UNL     1      -4.965   4.490  -4.198  1.00  0.00    -0.040 A 
ATOM     12  C   UNL     1      -3.924   5.315  -3.744  1.00  0.00     0.050 A 
ATOM     13  C   UNL     1      -6.270   5.004  -4.272  1.00  0.00     0.050 A 
ATOM     14  C   UNL     1      -4.177   6.644  -3.391  1.00  0.00     0.119 A 
ATOM     15  C   UNL     1      -6.526   6.336  -3.919  1.00  0.00     0.119 A 
ATOM     16  C   UNL     1      -5.479   7.154  -3.483  1.00  0.00     0.092 A 
BRANCH  14  17
ATOM     17  O   UNL     1      -3.130   7.449  -2.949  1.00  0.00    -0.508 OA
ATOM     18  H   UNL     1      -3.245   8.089  -2.171  1.00  0.00     0.293 HD
ENDBRANCH  14  17
BRANCH  15  19
ATOM     19  O   UNL     1      -7.816   6.855  -3.997  1.00  0.00    -0.508 OA
ATOM     20  H   UNL     1      -8.564   6.509  -3.406  1.00  0.00     0.293 HD
ENDBRANCH  15  19
ENDBRANCH  10  11
ENDBRANCH   1  10
TORSDOF 6
ENDMDL
MODEL 4
REMARK VINA RESULT:    -4.597      1.570      6.604
REMARK INTER + INTRA:          -6.282
REMARK INTER:                  -5.881
REMARK INTRA:                  -0.401
REMARK UNBOUND:                -0.475
REMARK SMILES Oc1cc(O)cc(CCc2ccccc2O)c1
REMARK SMILES IDX 9 1 10 2 12 3 13 4 11 5 14 6 15 7 16 8 8 10 7 11 6 12 17 13
REMARK SMILES IDX 4 14 2 15 3 16 5 17 1 19
REMARK H PARENT 16 9 5 18 1 20
REMARK Flexibility Score: inf
ROOT
ATOM      1  C   UNL     1      -4.744   3.603  -4.706  1.00  0.00     0.044 C 
ENDROOT
BRANCH   1   2
ATOM      2  C   UNL     1      -4.725   4.999  -4.101  1.00  0.00    -0.006 A 
ATOM      3  C   UNL     1      -3.575   6.842  -2.980  1.00  0.00     0.001 A 
ATOM      4  C   UNL     1      -4.748   7.593  -2.992  1.00  0.00     0.004 A 
ATOM      5  C   UNL     1      -3.558   5.556  -3.528  1.00  0.00     0.007 A 
ATOM      6  C   UNL     1      -5.910   7.063  -3.551  1.00  0.00     0.046 A 
ATOM      7  C   UNL     1      -5.912   5.777  -4.105  1.00  0.00     0.118 A 
BRANCH   7   8
ATOM      8  O   UNL     1      -7.109   5.305  -4.649  1.00  0.00    -0.508 OA
ATOM      9  H   UNL     1      -7.832   4.856  -4.103  1.00  0.00     0.293 HD
ENDBRANCH   7   8
ENDBRANCH   1   2
BRANCH   1  10
ATOM     10  C   UNL     1      -3.688   2.624  -4.169  1.00  0.00     0.040 C 
BRANCH  10  11
ATOM     11  C   UNL     1      -4.275   1.244  -4.020  1.00  0.00    -0.040 A 
ATOM     12  C   UNL     1      -5.574   1.078  -3.514  1.00  0.00     0.050 A 
ATOM     13  C   UNL     1      -3.506   0.111  -4.329  1.00  0.00     0.050 A 
ATOM     14  C   UNL     1      -6.109  -0.202  -3.343  1.00  0.00     0.119 A 
ATOM     15  C   UNL     1      -4.040  -1.174  -4.158  1.00  0.00     0.119 A 
ATOM     16  C   UNL     1      -5.341  -1.328  -3.669  1.00  0.00     0.092 A 
BRANCH  14  17
ATOM     17  O   UNL     1      -7.402  -0.346  -2.846  1.00  0.00    -0.508 OA
ATOM     18  H   UNL     1      -7.703  -1.200  -2.390  1.00  0.00     0.293 HD
ENDBRANCH  14  17
BRANCH  15  19
ATOM     19  O   UNL     1      -3.285  -2.303  -4.470  1.00  0.00    -0.508 OA
ATOM     20  H   UNL     1      -3.645  -3.031  -5.075  1.00  0.00     0.293 HD
ENDBRANCH  15  19
ENDBRANCH  10  11
ENDBRANCH   1  10
TORSDOF 6
ENDMDL
MODEL 5
REMARK VINA RESULT:    -4.507      1.539      6.506
REMARK INTER + INTRA:          -6.168
REMARK INTER:                  -5.764
REMARK INTRA:                  -0.404
REMARK UNBOUND:                -0.475
REMARK SMILES Oc1cc(O)cc(CCc2ccccc2O)c1
REMARK SMILES IDX 9 1 10 2 12 3 13 4 11 5 14 6 15 7 16 8 8 10 7 11 6 12 17 13
REMARK SMILES IDX 4 14 2 15 3 16 5 17 1 19
REMARK H PARENT 16 9 5 18 1 20
REMARK Flexibility Score: inf
ROOT
ATOM      1  C   UNL     1      -5.110   3.457  -4.085  1.00  0.00     0.044 C 
ENDROOT
BRANCH   1   2
ATOM      2  C   UNL     1      -5.654   4.877  -4.081  1.00  0.00    -0.006 A 
ATOM      3  C   UNL     1      -7.447   6.495  -4.459  1.00  0.00     0.001 A 
ATOM      4  C   UNL     1      -6.610   7.531  -4.055  1.00  0.00     0.004 A 
ATOM      5  C   UNL     1      -6.979   5.178  -4.474  1.00  0.00     0.007 A 
ATOM      6  C   UNL     1      -5.300   7.258  -3.664  1.00  0.00     0.046 A 
ATOM      7  C   UNL     1      -4.813   5.945  -3.672  1.00  0.00     0.118 A 
BRANCH   7   8
ATOM      8  O   UNL     1      -3.491   5.739  -3.269  1.00  0.00    -0.508 OA
ATOM      9  H   UNL     1      -3.161   4.877  -2.856  1.00  0.00     0.293 HD
ENDBRANCH   7   8
ENDBRANCH   1   2
BRANCH   1  10
ATOM     10  C   UNL     1      -5.284   2.667  -2.778  1.00  0.00     0.040 C 
BRANCH  10  11
ATOM     11  C   UNL     1      -5.633   1.231  -3.071  1.00  0.00    -0.040 A 
ATOM     12  C   UNL     1      -6.894   0.722  -2.721  1.00  0.00     0.050 A 
ATOM     13  C   UNL     1      -4.679   0.374  -3.644  1.00  0.00     0.050 A 
ATOM     14  C   UNL     1      -7.207  -0.619  -2.961  1.00  0.00     0.119 A 
ATOM     15  C   UNL     1      -4.991  -0.970  -3.886  1.00  0.00     0.119 A 
ATOM     16  C   UNL     1      -6.255  -1.464  -3.547  1.00  0.00     0.092 A 
BRANCH  14  17
ATOM     17  O   UNL     1      -8.465  -1.104  -2.612  1.00  0.00    -0.508 OA
ATOM     18  H   UNL     1      -9.264  -0.996  -3.226  1.00  0.00     0.293 HD
ENDBRANCH  14  17
BRANCH  15  19
ATOM     19  O   UNL     1      -4.052  -1.824  -4.461  1.00  0.00    -0.508 OA
ATOM     20  H   UNL     1      -3.109  -1.897  -4.097  1.00  0.00     0.293 HD
ENDBRANCH  15  19
ENDBRANCH  10  11
ENDBRANCH   1  10
TORSDOF 6
ENDMDL
MODEL 6
REMARK VINA RESULT:    -4.500      1.548      6.744
REMARK INTER + INTRA:          -6.159
REMARK INTER:                  -5.753
REMARK INTRA:                  -0.406
REMARK UNBOUND:                -0.475
REMARK SMILES Oc1cc(O)cc(CCc2ccccc2O)c1
REMARK SMILES IDX 9 1 10 2 12 3 13 4 11 5 14 6 15 7 16 8 8 10 7 11 6 12 17 13
REMARK SMILES IDX 4 14 2 15 3 16 5 17 1 19
REMARK H PARENT 16 9 5 18 1 20
REMARK Flexibility Score: inf
ROOT
ATOM      1  C   UNL     1      -5.136   3.409  -4.032  1.00  0.00     0.044 C 
ENDROOT
BRANCH   1   2
ATOM      2  C   UNL     1      -5.659   4.837  -4.072  1.00  0.00    -0.006 A 
ATOM      3  C   UNL     1      -7.428   6.468  -4.500  1.00  0.00     0.001 A 
ATOM      4  C   UNL     1      -6.576   7.504  -4.127  1.00  0.00     0.004 A 
ATOM      5  C   UNL     1      -6.979   5.145  -4.475  1.00  0.00     0.007 A 
ATOM      6  C   UNL     1      -5.271   7.224  -3.727  1.00  0.00     0.046 A 
ATOM      7  C   UNL     1      -4.803   5.904  -3.694  1.00  0.00     0.118 A 
BRANCH   7   8
ATOM      8  O   UNL     1      -3.484   5.691  -3.283  1.00  0.00    -0.508 OA
ATOM      9  H   UNL     1      -2.900   4.950  -3.645  1.00  0.00     0.293 HD
ENDBRANCH   7   8
ENDBRANCH   1   2
BRANCH   1  10
ATOM     10  C   UNL     1      -5.362   2.648  -2.716  1.00  0.00     0.040 C 
BRANCH  10  11
ATOM     11  C   UNL     1      -5.666   1.198  -2.991  1.00  0.00    -0.040 A 
ATOM     12  C   UNL     1      -4.712   0.380  -3.617  1.00  0.00     0.050 A 
ATOM     13  C   UNL     1      -6.929   0.668  -2.677  1.00  0.00     0.050 A 
ATOM     14  C   UNL     1      -5.004  -0.957  -3.904  1.00  0.00     0.119 A 
ATOM     15  C   UNL     1      -7.224  -0.672  -2.964  1.00  0.00     0.119 A 
ATOM     16  C   UNL     1      -6.261  -1.482  -3.573  1.00  0.00     0.092 A 
BRANCH  14  17
ATOM     17  O   UNL     1      -4.042  -1.754  -4.518  1.00  0.00    -0.508 OA
ATOM     18  H   UNL     1      -3.317  -2.218  -3.984  1.00  0.00     0.293 HD
ENDBRANCH  14  17
BRANCH  15  19
ATOM     19  O   UNL     1      -8.472  -1.206  -2.649  1.00  0.00    -0.508 OA
ATOM     20  H   UNL     1      -9.331  -0.745  -2.925  1.00  0.00     0.293 HD
ENDBRANCH  15  19
ENDBRANCH  10  11
ENDBRANCH   1  10
TORSDOF 6
ENDMDL
MODEL 7
REMARK VINA RESULT:    -4.459      1.981      6.386
REMARK INTER + INTRA:          -6.108
REMARK INTER:                  -5.635
REMARK INTRA:                  -0.473
REMARK UNBOUND:                -0.475
REMARK SMILES Oc1cc(O)cc(CCc2ccccc2O)c1
REMARK SMILES IDX 9 1 10 2 12 3 13 4 11 5 14 6 15 7 16 8 8 10 7 11 6 12 17 13
REMARK SMILES IDX 4 14 2 15 3 16 5 17 1 19
REMARK H PARENT 16 9 5 18 1 20
REMARK Flexibility Score: inf
ROOT
ATOM      1  C   UNL     1      -4.709   5.469  -3.348  1.00  0.00     0.044 C 
ENDROOT
BRANCH   1   2
ATOM      2  C   UNL     1      -5.811   6.517  -3.313  1.00  0.00    -0.006 A 
ATOM      3  C   UNL     1      -7.380   8.026  -4.424  1.00  0.00     0.001 A 
ATOM      4  C   UNL     1      -7.854   8.458  -3.188  1.00  0.00     0.004 A 
ATOM      5  C   UNL     1      -6.368   7.065  -4.492  1.00  0.00     0.007 A 
ATOM      6  C   UNL     1      -7.320   7.932  -2.013  1.00  0.00     0.046 A 
ATOM      7  C   UNL     1      -6.305   6.968  -2.061  1.00  0.00     0.118 A 
BRANCH   7   8
ATOM      8  O   UNL     1      -5.813   6.481  -0.847  1.00  0.00    -0.508 OA
ATOM      9  H   UNL     1      -6.140   5.628  -0.414  1.00  0.00     0.293 HD
ENDBRANCH   7   8
ENDBRANCH   1   2
BRANCH   1  10
ATOM     10  C   UNL     1      -4.794   4.443  -4.488  1.00  0.00     0.040 C 
BRANCH  10  11
ATOM     11  C   UNL     1      -5.152   3.083  -3.949  1.00  0.00    -0.040 A 
ATOM     12  C   UNL     1      -6.076   2.958  -2.899  1.00  0.00     0.050 A 
ATOM     13  C   UNL     1      -4.520   1.933  -4.451  1.00  0.00     0.050 A 
ATOM     14  C   UNL     1      -6.385   1.700  -2.373  1.00  0.00     0.119 A 
ATOM     15  C   UNL     1      -4.828   0.671  -3.926  1.00  0.00     0.119 A 
ATOM     16  C   UNL     1      -5.762   0.556  -2.891  1.00  0.00     0.092 A 
BRANCH  14  17
ATOM     17  O   UNL     1      -7.309   1.595  -1.337  1.00  0.00    -0.508 OA
ATOM     18  H   UNL     1      -7.278   2.214  -0.535  1.00  0.00     0.293 HD
ENDBRANCH  14  17
BRANCH  15  19
ATOM     19  O   UNL     1      -4.210  -0.474  -4.424  1.00  0.00    -0.508 OA
ATOM     20  H   UNL     1      -4.741  -1.306  -4.655  1.00  0.00     0.293 HD
ENDBRANCH  15  19
ENDBRANCH  10  11
ENDBRANCH   1  10
TORSDOF 6
ENDMDL
MODEL 8
REMARK VINA RESULT:    -4.447      3.362      6.970
REMARK INTER + INTRA:          -6.093
REMARK INTER:                  -5.638
REMARK INTRA:                  -0.454
REMARK UNBOUND:                -0.475
REMARK SMILES Oc1cc(O)cc(CCc2ccccc2O)c1
REMARK SMILES IDX 9 1 10 2 12 3 13 4 11 5 14 6 15 7 16 8 8 10 7 11 6 12 17 13
REMARK SMILES IDX 4 14 2 15 3 16 5 17 1 19
REMARK H PARENT 16 9 5 18 1 20
REMARK Flexibility Score: inf
ROOT
ATOM      1  C   UNL     1      -7.781   8.324  -4.064  1.00  0.00     0.044 C 
ENDROOT
BRANCH   1   2
ATOM      2  C   UNL     1      -8.450   8.469  -2.705  1.00  0.00    -0.006 A 
ATOM      3  C   UNL     1      -8.401   9.076  -0.338  1.00  0.00     0.001 A 
ATOM      4  C   UNL     1      -9.741   8.717  -0.209  1.00  0.00     0.004 A 
ATOM      5  C   UNL     1      -7.757   8.955  -1.572  1.00  0.00     0.007 A 
ATOM      6  C   UNL     1     -10.443   8.236  -1.313  1.00  0.00     0.046 A 
ATOM      7  C   UNL     1      -9.815   8.108  -2.558  1.00  0.00     0.118 A 
BRANCH   7   8
ATOM      8  O   UNL     1     -10.575   7.619  -3.624  1.00  0.00    -0.508 OA
ATOM      9  H   UNL     1     -10.878   6.658  -3.698  1.00  0.00     0.293 HD
ENDBRANCH   7   8
ENDBRANCH   1   2
BRANCH   1  10
ATOM     10  C   UNL     1      -7.562   6.884  -4.555  1.00  0.00     0.040 C 
BRANCH  10  11
ATOM     11  C   UNL     1      -6.219   6.372  -4.103  1.00  0.00    -0.040 A 
ATOM     12  C   UNL     1      -5.203   7.271  -3.741  1.00  0.00     0.050 A 
ATOM     13  C   UNL     1      -5.953   4.992  -4.099  1.00  0.00     0.050 A 
ATOM     14  C   UNL     1      -3.945   6.799  -3.354  1.00  0.00     0.119 A 
ATOM     15  C   UNL     1      -4.692   4.518  -3.712  1.00  0.00     0.119 A 
ATOM     16  C   UNL     1      -3.692   5.421  -3.337  1.00  0.00     0.092 A 
BRANCH  14  17
ATOM     17  O   UNL     1      -2.952   7.706  -2.992  1.00  0.00    -0.508 OA
ATOM     18  H   UNL     1      -2.819   7.989  -2.028  1.00  0.00     0.293 HD
ENDBRANCH  14  17
BRANCH  15  19
ATOM     19  O   UNL     1      -4.423   3.151  -3.698  1.00  0.00    -0.508 OA
ATOM     20  H   UNL     1      -4.560   2.591  -2.864  1.00  0.00     0.293 HD
ENDBRANCH  15  19
ENDBRANCH  10  11
ENDBRANCH   1  10
TORSDOF 6
ENDMDL
MODEL 9
REMARK VINA RESULT:    -4.368      2.665      4.113
REMARK INTER + INTRA:          -5.992
REMARK INTER:                  -5.398
REMARK INTRA:                  -0.594
REMARK UNBOUND:                -0.475
REMARK SMILES Oc1cc(O)cc(CCc2ccccc2O)c1
REMARK SMILES IDX 9 1 10 2 12 3 13 4 11 5 14 6 15 7 16 8 8 10 7 11 6 12 17 13
REMARK SMILES IDX 4 14 2 15 3 16 5 17 1 19
REMARK H PARENT 16 9 5 18 1 20
REMARK Flexibility Score: inf
ROOT
ATOM      1  C   UNL     1      -4.191   6.156  -2.822  1.00  0.00     0.044 C 
ENDROOT
BRANCH   1   2
ATOM      2  C   UNL     1      -4.383   4.723  -3.295  1.00  0.00    -0.006 A 
ATOM      3  C   UNL     1      -3.952   2.901  -4.867  1.00  0.00     0.001 A 
ATOM      4  C   UNL     1      -4.776   2.056  -4.127  1.00  0.00     0.004 A 
ATOM      5  C   UNL     1      -3.754   4.223  -4.459  1.00  0.00     0.007 A 
ATOM      6  C   UNL     1      -5.406   2.528  -2.977  1.00  0.00     0.046 A 
ATOM      7  C   UNL     1      -5.220   3.849  -2.553  1.00  0.00     0.118 A 
BRANCH   7   8
ATOM      8  O   UNL     1      -5.880   4.259  -1.391  1.00  0.00    -0.508 OA
ATOM      9  H   UNL     1      -5.492   4.156  -0.463  1.00  0.00     0.293 HD
ENDBRANCH   7   8
ENDBRANCH   1   2
BRANCH   1  10
ATOM     10  C   UNL     1      -4.773   7.248  -3.732  1.00  0.00     0.040 C 
BRANCH  10  11
ATOM     11  C   UNL     1      -6.275   7.289  -3.614  1.00  0.00    -0.040 A 
ATOM     12  C   UNL     1      -7.074   6.494  -4.451  1.00  0.00     0.050 A 
ATOM     13  C   UNL     1      -6.889   8.166  -2.705  1.00  0.00     0.050 A 
ATOM     14  C   UNL     1      -8.468   6.555  -4.367  1.00  0.00     0.119 A 
ATOM     15  C   UNL     1      -8.287   8.229  -2.618  1.00  0.00     0.119 A 
ATOM     16  C   UNL     1      -9.073   7.422  -3.447  1.00  0.00     0.092 A 
BRANCH  14  17
ATOM     17  O   UNL     1      -9.243   5.754  -5.201  1.00  0.00    -0.508 OA
ATOM     18  H   UNL     1      -9.209   4.743  -5.147  1.00  0.00     0.293 HD
ENDBRANCH  14  17
BRANCH  15  19
ATOM     19  O   UNL     1      -8.903   9.092  -1.715  1.00  0.00    -0.508 OA
ATOM     20  H   UNL     1      -9.884   9.334  -1.796  1.00  0.00     0.293 HD
ENDBRANCH  15  19
ENDBRANCH  10  11
ENDBRANCH   1  10
TORSDOF 6
ENDMDL
