MODEL 1
REMARK VINA RESULT:    -2.467      0.000      0.000
REMARK INTER + INTRA:          -2.467
REMARK INTER:                  -2.467
REMARK INTRA:                   0.000
REMARK UNBOUND:                 0.000
REMARK SMILES CC(=O)[O-]
REMARK SMILES IDX 1 1 2 2 3 3 4 4
REMARK H PARENT
REMARK Flexibility Score: inf
ROOT
ATOM      1  C   UNL     1      31.267  50.937  59.119  1.00  0.00     0.063 C 
ATOM      2  C   UNL     1      32.572  50.928  58.397  1.00  0.00     0.038 C 
ATOM      3  O   UNL     1      33.241  51.990  58.290  1.00  0.00    -0.550 OA
ATOM      4  O   UNL     1      33.027  49.763  57.795  1.00  0.00    -0.550 OA
ENDROOT
TORSDOF 0
ENDMDL
MODEL 2
REMARK VINA RESULT:    -2.354      2.568      3.195
REMARK INTER + INTRA:          -2.354
REMARK INTER:                  -2.354
REMARK INTRA:                   0.000
REMARK UNBOUND:                 0.000
REMARK SMILES CC(=O)[O-]
REMARK SMILES IDX 1 1 2 2 3 3 4 4
REMARK H PARENT
REMARK Flexibility Score: inf
ROOT
ATOM      1  C   UNL     1      35.459  53.296  58.435  1.00  0.00     0.063 C 
ATOM      2  C   UNL     1      34.794  51.996  58.136  1.00  0.00     0.038 C 
ATOM      3  O   UNL     1      35.471  51.022  57.713  1.00  0.00    -0.550 OA
ATOM      4  O   UNL     1      33.418  51.871  58.272  1.00  0.00    -0.550 OA
ENDROOT
TORSDOF 0
ENDMDL
MODEL 3
REMARK VINA RESULT:    -2.349      2.446      3.323
REMARK INTER + INTRA:          -2.349
REMARK INTER:                  -2.349
REMARK INTRA:                   0.000
REMARK UNBOUND:                 0.000
REMARK SMILES CC(=O)[O-]
REMARK SMILES IDX 1 1 2 2 3 3 4 4
REMARK H PARENT
REMARK Flexibility Score: inf
ROOT
ATOM      1  C   UNL     1      35.537  51.169  57.653  1.00  0.00     0.063 C 
ATOM      2  C   UNL     1      34.566  52.190  58.138  1.00  0.00     0.038 C 
ATOM      3  O   UNL     1      33.346  51.898  58.253  1.00  0.00    -0.550 OA
ATOM      4  O   UNL     1      34.993  53.482  58.414  1.00  0.00    -0.550 OA
ENDROOT
TORSDOF 0
ENDMDL
MODEL 4
REMARK VINA RESULT:    -2.345     17.930     18.147
REMARK INTER + INTRA:          -2.345
REMARK INTER:                  -2.345
REMARK INTRA:                   0.000
REMARK UNBOUND:                 0.000
REMARK SMILES CC(=O)[O-]
REMARK SMILES IDX 1 1 2 2 3 3 4 4
REMARK H PARENT
REMARK Flexibility Score: inf
ROOT
ATOM      1  C   UNL     1      43.741  44.742  46.377  1.00  0.00     0.063 C 
ATOM      2  C   UNL     1      44.892  44.114  47.087  1.00  0.00     0.038 C 
ATOM      3  O   UNL     1      44.896  42.875  47.312  1.00  0.00    -0.550 OA
ATOM      4  O   UNL     1      45.938  44.901  47.550  1.00  0.00    -0.550 OA
ENDROOT
TORSDOF 0
ENDMDL
MODEL 5
REMARK VINA RESULT:    -2.343      8.488      8.821
REMARK INTER + INTRA:          -2.343
REMARK INTER:                  -2.343
REMARK INTRA:                   0.000
REMARK UNBOUND:                 0.000
REMARK SMILES CC(=O)[O-]
REMARK SMILES IDX 1 1 2 2 3 3 4 4
REMARK H PARENT
REMARK Flexibility Score: inf
ROOT
ATOM      1  C   UNL     1      33.317  57.578  63.324  1.00  0.00     0.063 C 
ATOM      2  C   UNL     1      31.936  58.077  63.065  1.00  0.00     0.038 C 
ATOM      3  O   UNL     1      31.618  58.490  61.918  1.00  0.00    -0.550 OA
ATOM      4  O   UNL     1      31.012  58.139  64.099  1.00  0.00    -0.550 OA
ENDROOT
TORSDOF 0
ENDMDL
MODEL 6
REMARK VINA RESULT:    -2.314      8.349      8.652
REMARK INTER + INTRA:          -2.314
REMARK INTER:                  -2.314
REMARK INTRA:                   0.000
REMARK UNBOUND:                 0.000
REMARK SMILES CC(=O)[O-]
REMARK SMILES IDX 1 1 2 2 3 3 4 4
REMARK H PARENT
REMARK Flexibility Score: inf
ROOT
ATOM      1  C   UNL     1      39.064  55.312  60.606  1.00  0.00     0.063 C 
ATOM      2  C   UNL     1      39.998  54.170  60.821  1.00  0.00     0.038 C 
ATOM      3  O   UNL     1      39.779  53.340  61.742  1.00  0.00    -0.550 OA
ATOM      4  O   UNL     1      41.141  54.048  60.042  1.00  0.00    -0.550 OA
ENDROOT
TORSDOF 0
ENDMDL
MODEL 7
REMARK VINA RESULT:    -2.302      4.876      5.502
REMARK INTER + INTRA:          -2.302
REMARK INTER:                  -2.302
REMARK INTRA:                   0.000
REMARK UNBOUND:                 0.000
REMARK SMILES CC(=O)[O-]
REMARK SMILES IDX 1 1 2 2 3 3 4 4
REMARK H PARENT
REMARK Flexibility Score: inf
ROOT
ATOM      1  C   UNL     1      36.517  55.761  59.529  1.00  0.00     0.063 C 
ATOM      2  C   UNL     1      36.312  54.288  59.421  1.00  0.00     0.038 C 
ATOM      3  O   UNL     1      35.427  53.827  58.653  1.00  0.00    -0.550 OA
ATOM      4  O   UNL     1      37.059  53.422  60.208  1.00  0.00    -0.550 OA
ENDROOT
TORSDOF 0
ENDMDL
MODEL 8
REMARK VINA RESULT:    -2.287      8.458      8.914
REMARK INTER + INTRA:          -2.287
REMARK INTER:                  -2.287
REMARK INTRA:                   0.000
REMARK UNBOUND:                 0.000
REMARK SMILES CC(=O)[O-]
REMARK SMILES IDX 1 1 2 2 3 3 4 4
REMARK H PARENT
REMARK Flexibility Score: inf
ROOT
ATOM      1  C   UNL     1      41.433  54.263  60.217  1.00  0.00     0.063 C 
ATOM      2  C   UNL     1      40.077  54.227  60.837  1.00  0.00     0.038 C 
ATOM      3  O   UNL     1      39.795  53.342  61.687  1.00  0.00    -0.550 OA
ATOM      4  O   UNL     1      39.104  55.134  60.438  1.00  0.00    -0.550 OA
ENDROOT
TORSDOF 0
ENDMDL
MODEL 9
REMARK VINA RESULT:    -2.268      7.246      7.813
REMARK INTER + INTRA:          -2.268
REMARK INTER:                  -2.268
REMARK INTRA:                   0.000
REMARK UNBOUND:                 0.000
REMARK SMILES CC(=O)[O-]
REMARK SMILES IDX 1 1 2 2 3 3 4 4
REMARK H PARENT
REMARK Flexibility Score: inf
ROOT
ATOM      1  C   UNL     1      38.877  55.889  60.626  1.00  0.00     0.063 C 
ATOM      2  C   UNL     1      38.824  54.402  60.723  1.00  0.00     0.038 C 
ATOM      3  O   UNL     1      37.843  53.773  60.245  1.00  0.00    -0.550 OA
ATOM      4  O   UNL     1      39.828  53.711  61.387  1.00  0.00    -0.550 OA
ENDROOT
TORSDOF 0
ENDMDL
