MODEL 1
REMARK VINA RESULT:    -4.102      0.000      0.000
REMARK INTER + INTRA:          -5.374
REMARK INTER:                  -5.061
REMARK INTRA:                  -0.313
REMARK UNBOUND:                -0.313
REMARK SMILES C=CC[C@H](C)C(=O)CC
REMARK SMILES IDX 4 1 5 2 6 3 7 4 8 5 9 6 3 7 2 8 1 9
REMARK H PARENT
REMARK Flexibility Score: inf
ROOT
ATOM      1  C   UNL     1      13.767 -30.205  23.438  1.00  0.00     0.057 C 
ATOM      2  C   UNL     1      13.586 -31.658  23.899  1.00  0.00     0.016 C 
ENDROOT
BRANCH   1   3
ATOM      3  C   UNL     1      12.414 -29.563  23.218  1.00  0.00     0.135 C 
ATOM      4  O   UNL     1      11.669 -30.002  22.352  1.00  0.00    -0.299 OA
BRANCH   3   5
ATOM      5  C   UNL     1      11.967 -28.384  24.041  1.00  0.00     0.072 C 
ATOM      6  C   UNL     1      13.076 -27.344  24.142  1.00  0.00     0.012 C 
ENDBRANCH   3   5
ENDBRANCH   1   3
BRANCH   1   7
ATOM      7  C   UNL     1      14.609 -30.116  22.150  1.00  0.00     0.038 C 
BRANCH   7   8
ATOM      8  C   UNL     1      15.971 -29.530  22.418  1.00  0.00    -0.034 C 
ATOM      9  C   UNL     1      16.915 -30.209  23.076  1.00  0.00     0.004 C 
ENDBRANCH   7   8
ENDBRANCH   1   7
TORSDOF 4
ENDMDL
MODEL 2
REMARK VINA RESULT:    -4.026      2.102      4.231
REMARK INTER + INTRA:          -5.281
REMARK INTER:                  -5.100
REMARK INTRA:                  -0.181
REMARK UNBOUND:                -0.313
REMARK SMILES C=CC[C@H](C)C(=O)CC
REMARK SMILES IDX 4 1 5 2 6 3 7 4 8 5 9 6 3 7 2 8 1 9
REMARK H PARENT
REMARK Flexibility Score: inf
ROOT
ATOM      1  C   UNL     1      13.226 -31.378  22.811  1.00  0.00     0.057 C 
ATOM      2  C   UNL     1      13.883 -32.060  24.019  1.00  0.00     0.016 C 
ENDROOT
BRANCH   1   3
ATOM      3  C   UNL     1      13.824 -31.917  21.529  1.00  0.00     0.135 C 
ATOM      4  O   UNL     1      13.206 -31.807  20.478  1.00  0.00    -0.299 OA
BRANCH   3   5
ATOM      5  C   UNL     1      15.168 -32.596  21.520  1.00  0.00     0.072 C 
ATOM      6  C   UNL     1      15.054 -34.014  20.973  1.00  0.00     0.012 C 
ENDBRANCH   3   5
ENDBRANCH   1   3
BRANCH   1   7
ATOM      7  C   UNL     1      13.383 -29.846  22.864  1.00  0.00     0.038 C 
BRANCH   7   8
ATOM      8  C   UNL     1      12.737 -29.266  24.095  1.00  0.00    -0.034 C 
ATOM      9  C   UNL     1      11.736 -28.384  24.019  1.00  0.00     0.004 C 
ENDBRANCH   7   8
ENDBRANCH   1   7
TORSDOF 4
ENDMDL
MODEL 3
REMARK VINA RESULT:    -4.021      1.863      3.709
REMARK INTER + INTRA:          -5.275
REMARK INTER:                  -5.065
REMARK INTRA:                  -0.210
REMARK UNBOUND:                -0.313
REMARK SMILES C=CC[C@H](C)C(=O)CC
REMARK SMILES IDX 4 1 5 2 6 3 7 4 8 5 9 6 3 7 2 8 1 9
REMARK H PARENT
REMARK Flexibility Score: inf
ROOT
ATOM      1  C   UNL     1      12.714 -30.059  22.568  1.00  0.00     0.057 C 
ATOM      2  C   UNL     1      11.268 -30.187  22.070  1.00  0.00     0.016 C 
ENDROOT
BRANCH   1   3
ATOM      3  C   UNL     1      13.395 -31.410  22.522  1.00  0.00     0.135 C 
ATOM      4  O   UNL     1      13.518 -31.991  21.452  1.00  0.00    -0.299 OA
BRANCH   3   5
ATOM      5  C   UNL     1      13.919 -32.062  23.775  1.00  0.00     0.072 C 
ATOM      6  C   UNL     1      15.420 -32.303  23.671  1.00  0.00     0.012 C 
ENDBRANCH   3   5
ENDBRANCH   1   3
BRANCH   1   7
ATOM      7  C   UNL     1      12.778 -29.484  23.997  1.00  0.00     0.038 C 
BRANCH   7   8
ATOM      8  C   UNL     1      12.345 -28.041  24.033  1.00  0.00    -0.034 C 
ATOM      9  C   UNL     1      13.208 -27.050  24.274  1.00  0.00     0.004 C 
ENDBRANCH   7   8
ENDBRANCH   1   7
TORSDOF 4
ENDMDL
MODEL 4
REMARK VINA RESULT:    -4.016      1.968      2.423
REMARK INTER + INTRA:          -5.269
REMARK INTER:                  -5.119
REMARK INTRA:                  -0.151
REMARK UNBOUND:                -0.313
REMARK SMILES C=CC[C@H](C)C(=O)CC
REMARK SMILES IDX 4 1 5 2 6 3 7 4 8 5 9 6 3 7 2 8 1 9
REMARK H PARENT
REMARK Flexibility Score: inf
ROOT
ATOM      1  C   UNL     1      13.872 -31.172  22.768  1.00  0.00     0.057 C 
ATOM      2  C   UNL     1      13.909 -32.142  23.957  1.00  0.00     0.016 C 
ENDROOT
BRANCH   1   3
ATOM      3  C   UNL     1      12.630 -30.311  22.846  1.00  0.00     0.135 C 
ATOM      4  O   UNL     1      11.693 -30.528  22.088  1.00  0.00    -0.299 OA
BRANCH   3   5
ATOM      5  C   UNL     1      12.526 -29.180  23.836  1.00  0.00     0.072 C 
ATOM      6  C   UNL     1      11.261 -28.365  23.594  1.00  0.00     0.012 C 
ENDBRANCH   3   5
ENDBRANCH   1   3
BRANCH   1   7
ATOM      7  C   UNL     1      13.912 -31.919  21.420  1.00  0.00     0.038 C 
BRANCH   7   8
ATOM      8  C   UNL     1      14.634 -33.236  21.538  1.00  0.00    -0.034 C 
ATOM      9  C   UNL     1      15.075 -33.899  20.465  1.00  0.00     0.004 C 
ENDBRANCH   7   8
ENDBRANCH   1   7
TORSDOF 4
ENDMDL
MODEL 5
REMARK VINA RESULT:    -3.984      1.883      2.525
REMARK INTER + INTRA:          -5.228
REMARK INTER:                  -4.956
REMARK INTRA:                  -0.273
REMARK UNBOUND:                -0.313
REMARK SMILES C=CC[C@H](C)C(=O)CC
REMARK SMILES IDX 4 1 5 2 6 3 7 4 8 5 9 6 3 7 2 8 1 9
REMARK H PARENT
REMARK Flexibility Score: inf
ROOT
ATOM      1  C   UNL     1      13.055 -30.834  22.941  1.00  0.00     0.057 C 
ATOM      2  C   UNL     1      13.406 -31.297  21.520  1.00  0.00     0.016 C 
ENDROOT
BRANCH   1   3
ATOM      3  C   UNL     1      13.559 -29.424  23.160  1.00  0.00     0.135 C 
ATOM      4  O   UNL     1      14.581 -29.051  22.598  1.00  0.00    -0.299 OA
BRANCH   3   5
ATOM      5  C   UNL     1      12.831 -28.467  24.068  1.00  0.00     0.072 C 
ATOM      6  C   UNL     1      11.359 -28.373  23.685  1.00  0.00     0.012 C 
ENDBRANCH   3   5
ENDBRANCH   1   3
BRANCH   1   7
ATOM      7  C   UNL     1      13.641 -31.777  24.010  1.00  0.00     0.038 C 
BRANCH   7   8
ATOM      8  C   UNL     1      14.868 -32.491  23.506  1.00  0.00    -0.034 C 
ATOM      9  C   UNL     1      15.132 -33.759  23.833  1.00  0.00     0.004 C 
ENDBRANCH   7   8
ENDBRANCH   1   7
TORSDOF 4
ENDMDL
MODEL 6
REMARK VINA RESULT:    -3.975      1.800      4.106
REMARK INTER + INTRA:          -5.217
REMARK INTER:                  -4.935
REMARK INTRA:                  -0.282
REMARK UNBOUND:                -0.313
REMARK SMILES C=CC[C@H](C)C(=O)CC
REMARK SMILES IDX 4 1 5 2 6 3 7 4 8 5 9 6 3 7 2 8 1 9
REMARK H PARENT
REMARK Flexibility Score: inf
ROOT
ATOM      1  C   UNL     1      14.233 -30.854  22.653  1.00  0.00     0.057 C 
ATOM      2  C   UNL     1      14.969 -29.623  22.108  1.00  0.00     0.016 C 
ENDROOT
BRANCH   1   3
ATOM      3  C   UNL     1      13.624 -31.637  21.509  1.00  0.00     0.135 C 
ATOM      4  O   UNL     1      12.560 -31.274  21.026  1.00  0.00    -0.299 OA
BRANCH   3   5
ATOM      5  C   UNL     1      14.300 -32.864  20.956  1.00  0.00     0.072 C 
ATOM      6  C   UNL     1      15.069 -33.596  22.049  1.00  0.00     0.012 C 
ENDBRANCH   3   5
ENDBRANCH   1   3
BRANCH   1   7
ATOM      7  C   UNL     1      13.139 -30.464  23.666  1.00  0.00     0.038 C 
BRANCH   7   8
ATOM      8  C   UNL     1      12.990 -28.968  23.771  1.00  0.00    -0.034 C 
ATOM      9  C   UNL     1      11.803 -28.388  23.970  1.00  0.00     0.004 C 
ENDBRANCH   7   8
ENDBRANCH   1   7
TORSDOF 4
ENDMDL
MODEL 7
REMARK VINA RESULT:    -3.968      1.693      3.728
REMARK INTER + INTRA:          -5.209
REMARK INTER:                  -4.845
REMARK INTRA:                  -0.364
REMARK UNBOUND:                -0.313
REMARK SMILES C=CC[C@H](C)C(=O)CC
REMARK SMILES IDX 4 1 5 2 6 3 7 4 8 5 9 6 3 7 2 8 1 9
REMARK H PARENT
REMARK Flexibility Score: inf
ROOT
ATOM      1  C   UNL     1      13.728 -30.837  22.044  1.00  0.00     0.057 C 
ATOM      2  C   UNL     1      13.492 -31.805  20.876  1.00  0.00     0.016 C 
ENDROOT
BRANCH   1   3
ATOM      3  C   UNL     1      14.539 -31.522  23.123  1.00  0.00     0.135 C 
ATOM      4  O   UNL     1      14.068 -32.483  23.717  1.00  0.00    -0.299 OA
BRANCH   3   5
ATOM      5  C   UNL     1      15.917 -31.037  23.490  1.00  0.00     0.072 C 
ATOM      6  C   UNL     1      16.307 -29.829  22.646  1.00  0.00     0.012 C 
ENDBRANCH   3   5
ENDBRANCH   1   3
BRANCH   1   7
ATOM      7  C   UNL     1      12.401 -30.317  22.631  1.00  0.00     0.038 C 
BRANCH   7   8
ATOM      8  C   UNL     1      12.633 -29.227  23.645  1.00  0.00    -0.034 C 
ATOM      9  C   UNL     1      11.669 -28.372  23.997  1.00  0.00     0.004 C 
ENDBRANCH   7   8
ENDBRANCH   1   7
TORSDOF 4
ENDMDL
MODEL 8
REMARK VINA RESULT:    -3.953      1.287      1.891
REMARK INTER + INTRA:          -5.190
REMARK INTER:                  -4.910
REMARK INTRA:                  -0.281
REMARK UNBOUND:                -0.313
REMARK SMILES C=CC[C@H](C)C(=O)CC
REMARK SMILES IDX 4 1 5 2 6 3 7 4 8 5 9 6 3 7 2 8 1 9
REMARK H PARENT
REMARK Flexibility Score: inf
ROOT
ATOM      1  C   UNL     1      13.657 -30.347  23.153  1.00  0.00     0.057 C 
ATOM      2  C   UNL     1      13.600 -31.657  23.952  1.00  0.00     0.016 C 
ENDROOT
BRANCH   1   3
ATOM      3  C   UNL     1      12.253 -29.848  22.886  1.00  0.00     0.135 C 
ATOM      4  O   UNL     1      11.545 -30.434  22.077  1.00  0.00    -0.299 OA
BRANCH   3   5
ATOM      5  C   UNL     1      11.709 -28.633  23.591  1.00  0.00     0.072 C 
ATOM      6  C   UNL     1      12.800 -27.949  24.407  1.00  0.00     0.012 C 
ENDBRANCH   3   5
ENDBRANCH   1   3
BRANCH   1   7
ATOM      7  C   UNL     1      14.417 -30.521  21.824  1.00  0.00     0.038 C 
BRANCH   7   8
ATOM      8  C   UNL     1      14.560 -31.975  21.454  1.00  0.00    -0.034 C 
ATOM      9  C   UNL     1      13.871 -32.519  20.447  1.00  0.00     0.004 C 
ENDBRANCH   7   8
ENDBRANCH   1   7
TORSDOF 4
ENDMDL
MODEL 9
REMARK VINA RESULT:    -3.917      8.826     10.653
REMARK INTER + INTRA:          -5.146
REMARK INTER:                  -4.907
REMARK INTRA:                  -0.239
REMARK UNBOUND:                -0.313
REMARK SMILES C=CC[C@H](C)C(=O)CC
REMARK SMILES IDX 4 1 5 2 6 3 7 4 8 5 9 6 3 7 2 8 1 9
REMARK H PARENT
REMARK Flexibility Score: inf
ROOT
ATOM      1  C   UNL     1      22.804 -25.625  19.738  1.00  0.00     0.057 C 
ATOM      2  C   UNL     1      23.571 -26.866  20.216  1.00  0.00     0.016 C 
ENDROOT
BRANCH   1   3
ATOM      3  C   UNL     1      23.394 -24.382  20.369  1.00  0.00     0.135 C 
ATOM      4  O   UNL     1      24.231 -23.731  19.757  1.00  0.00    -0.299 OA
BRANCH   3   5
ATOM      5  C   UNL     1      22.976 -23.932  21.744  1.00  0.00     0.072 C 
ATOM      6  C   UNL     1      23.750 -22.687  22.163  1.00  0.00     0.012 C 
ENDBRANCH   3   5
ENDBRANCH   1   3
BRANCH   1   7
ATOM      7  C   UNL     1      21.301 -25.721  20.066  1.00  0.00     0.038 C 
BRANCH   7   8
ATOM      8  C   UNL     1      20.981 -26.979  20.831  1.00  0.00    -0.034 C 
ATOM      9  C   UNL     1      19.842 -27.651  20.641  1.00  0.00     0.004 C 
ENDBRANCH   7   8
ENDBRANCH   1   7
TORSDOF 4
ENDMDL
