MODEL 1
REMARK VINA RESULT:    -5.736      0.000      0.000
REMARK INTER + INTRA:          -6.879
REMARK INTER:                  -6.741
REMARK INTRA:                  -0.138
REMARK UNBOUND:                -0.138
REMARK SMILES O=C([O-])C=Cc1ccc(O)c(O)c1
REMARK SMILES IDX 6 1 13 2 7 3 11 4 8 5 9 6 5 7 4 8 2 9 1 10 3 11 12 12 10 14
REMARK H PARENT 12 13 10 15
REMARK Flexibility Score: inf
ROOT
ATOM      1  C   UNL     1     -22.666 -18.710 -13.245  1.00  0.00    -0.022 A 
ATOM      2  C   UNL     1     -23.864 -19.412 -13.462  1.00  0.00     0.058 A 
ATOM      3  C   UNL     1     -21.525 -19.425 -12.829  1.00  0.00     0.012 A 
ATOM      4  C   UNL     1     -23.922 -20.800 -13.294  1.00  0.00     0.157 A 
ATOM      5  C   UNL     1     -21.583 -20.811 -12.660  1.00  0.00     0.051 A 
ATOM      6  C   UNL     1     -22.776 -21.505 -12.895  1.00  0.00     0.157 A 
ENDROOT
BRANCH   1   7
ATOM      7  C   UNL     1     -22.663 -17.238 -13.427  1.00  0.00     0.010 C 
ATOM      8  C   UNL     1     -21.550 -16.490 -13.433  1.00  0.00     0.025 C 
BRANCH   8   9
ATOM      9  C   UNL     1     -21.593 -15.032 -13.628  1.00  0.00     0.064 C 
ATOM     10  O   UNL     1     -21.250 -14.269 -12.689  1.00  0.00    -0.545 OA
ATOM     11  O   UNL     1     -22.010 -14.483 -14.836  1.00  0.00    -0.545 OA
ENDBRANCH   8   9
ENDBRANCH   1   7
BRANCH   4  12
ATOM     12  O   UNL     1     -25.129 -21.460 -13.530  1.00  0.00    -0.504 OA
ATOM     13  H   UNL     1     -25.163 -22.412 -13.875  1.00  0.00     0.293 HD
ENDBRANCH   4  12
BRANCH   6  14
ATOM     14  O   UNL     1     -22.828 -22.888 -12.727  1.00  0.00    -0.504 OA
ATOM     15  H   UNL     1     -23.690 -23.361 -12.479  1.00  0.00     0.293 HD
ENDBRANCH   6  14
TORSDOF 4
ENDMDL
MODEL 2
REMARK VINA RESULT:    -5.378      1.520      2.234
REMARK INTER + INTRA:          -6.458
REMARK INTER:                  -6.318
REMARK INTRA:                  -0.140
REMARK UNBOUND:                -0.138
REMARK SMILES O=C([O-])C=Cc1ccc(O)c(O)c1
REMARK SMILES IDX 6 1 13 2 7 3 11 4 8 5 9 6 5 7 4 8 2 9 1 10 3 11 12 12 10 14
REMARK H PARENT 12 13 10 15
REMARK Flexibility Score: inf
ROOT
ATOM      1  C   UNL     1     -22.985 -19.768 -12.527  1.00  0.00    -0.022 A 
ATOM      2  C   UNL     1     -22.696 -21.062 -12.994  1.00  0.00     0.058 A 
ATOM      3  C   UNL     1     -24.149 -19.567 -11.760  1.00  0.00     0.012 A 
ATOM      4  C   UNL     1     -23.533 -22.140 -12.685  1.00  0.00     0.157 A 
ATOM      5  C   UNL     1     -24.986 -20.643 -11.451  1.00  0.00     0.051 A 
ATOM      6  C   UNL     1     -24.682 -21.932 -11.907  1.00  0.00     0.157 A 
ENDROOT
BRANCH   1   7
ATOM      7  C   UNL     1     -22.069 -18.660 -12.894  1.00  0.00     0.010 C 
ATOM      8  C   UNL     1     -22.485 -17.434 -13.241  1.00  0.00     0.025 C 
BRANCH   8   9
ATOM      9  C   UNL     1     -21.540 -16.360 -13.587  1.00  0.00     0.064 C 
ATOM     10  O   UNL     1     -20.303 -16.589 -13.563  1.00  0.00    -0.545 OA
ATOM     11  O   UNL     1     -21.992 -15.093 -13.938  1.00  0.00    -0.545 OA
ENDBRANCH   8   9
ENDBRANCH   1   7
BRANCH   4  12
ATOM     12  O   UNL     1     -23.204 -23.410 -13.160  1.00  0.00    -0.504 OA
ATOM     13  H   UNL     1     -22.832 -24.131 -12.554  1.00  0.00     0.293 HD
ENDBRANCH   4  12
BRANCH   6  14
ATOM     14  O   UNL     1     -25.520 -23.002 -11.595  1.00  0.00    -0.504 OA
ATOM     15  H   UNL     1     -26.216 -22.934 -10.862  1.00  0.00     0.293 HD
ENDBRANCH   6  14
TORSDOF 4
ENDMDL
MODEL 3
REMARK VINA RESULT:    -5.118      1.695      1.978
REMARK INTER + INTRA:          -6.153
REMARK INTER:                  -6.024
REMARK INTRA:                  -0.129
REMARK UNBOUND:                -0.138
REMARK SMILES O=C([O-])C=Cc1ccc(O)c(O)c1
REMARK SMILES IDX 6 1 13 2 7 3 11 4 8 5 9 6 5 7 4 8 2 9 1 10 3 11 12 12 10 14
REMARK H PARENT 12 13 10 15
REMARK Flexibility Score: inf
ROOT
ATOM      1  C   UNL     1     -22.679 -19.697 -12.581  1.00  0.00    -0.022 A 
ATOM      2  C   UNL     1     -23.823 -19.527 -11.783  1.00  0.00     0.058 A 
ATOM      3  C   UNL     1     -22.352 -20.990 -13.033  1.00  0.00     0.012 A 
ATOM      4  C   UNL     1     -24.642 -20.615 -11.462  1.00  0.00     0.157 A 
ATOM      5  C   UNL     1     -23.169 -22.078 -12.712  1.00  0.00     0.051 A 
ATOM      6  C   UNL     1     -24.316 -21.897 -11.930  1.00  0.00     0.157 A 
ENDROOT
BRANCH   1   7
ATOM      7  C   UNL     1     -21.841 -18.510 -12.882  1.00  0.00     0.010 C 
ATOM      8  C   UNL     1     -22.338 -17.327 -13.268  1.00  0.00     0.025 C 
BRANCH   8   9
ATOM      9  C   UNL     1     -21.470 -16.171 -13.546  1.00  0.00     0.064 C 
ATOM     10  O   UNL     1     -21.979 -15.027 -13.672  1.00  0.00    -0.545 OA
ATOM     11  O   UNL     1     -20.094 -16.323 -13.674  1.00  0.00    -0.545 OA
ENDBRANCH   8   9
ENDBRANCH   1   7
BRANCH   4  12
ATOM     12  O   UNL     1     -25.775 -20.400 -10.676  1.00  0.00    -0.504 OA
ATOM     13  H   UNL     1     -26.487 -19.726 -10.930  1.00  0.00     0.293 HD
ENDBRANCH   4  12
BRANCH   6  14
ATOM     14  O   UNL     1     -25.129 -22.985 -11.613  1.00  0.00    -0.504 OA
ATOM     15  H   UNL     1     -25.670 -23.467 -12.322  1.00  0.00     0.293 HD
ENDBRANCH   6  14
TORSDOF 4
ENDMDL
MODEL 4
REMARK VINA RESULT:    -5.008      1.752      5.830
REMARK INTER + INTRA:          -6.023
REMARK INTER:                  -5.893
REMARK INTRA:                  -0.130
REMARK UNBOUND:                -0.138
REMARK SMILES O=C([O-])C=Cc1ccc(O)c(O)c1
REMARK SMILES IDX 6 1 13 2 7 3 11 4 8 5 9 6 5 7 4 8 2 9 1 10 3 11 12 12 10 14
REMARK H PARENT 12 13 10 15
REMARK Flexibility Score: inf
ROOT
ATOM      1  C   UNL     1     -23.314 -19.744 -13.066  1.00  0.00    -0.022 A 
ATOM      2  C   UNL     1     -23.814 -18.621 -13.749  1.00  0.00     0.058 A 
ATOM      3  C   UNL     1     -22.018 -19.684 -12.517  1.00  0.00     0.012 A 
ATOM      4  C   UNL     1     -23.052 -17.453 -13.862  1.00  0.00     0.157 A 
ATOM      5  C   UNL     1     -21.256 -18.517 -12.631  1.00  0.00     0.051 A 
ATOM      6  C   UNL     1     -21.768 -17.398 -13.298  1.00  0.00     0.157 A 
ENDROOT
BRANCH   1   7
ATOM      7  C   UNL     1     -24.160 -20.960 -12.985  1.00  0.00     0.010 C 
ATOM      8  C   UNL     1     -24.722 -21.548 -14.051  1.00  0.00     0.025 C 
BRANCH   8   9
ATOM      9  C   UNL     1     -25.545 -22.761 -13.926  1.00  0.00     0.064 C 
ATOM     10  O   UNL     1     -26.305 -22.897 -12.932  1.00  0.00    -0.545 OA
ATOM     11  O   UNL     1     -25.496 -23.764 -14.888  1.00  0.00    -0.545 OA
ENDBRANCH   8   9
ENDBRANCH   1   7
BRANCH   4  12
ATOM     12  O   UNL     1     -23.590 -16.358 -14.539  1.00  0.00    -0.504 OA
ATOM     13  H   UNL     1     -24.589 -16.240 -14.664  1.00  0.00     0.293 HD
ENDBRANCH   4  12
BRANCH   6  14
ATOM     14  O   UNL     1     -21.005 -16.236 -13.408  1.00  0.00    -0.504 OA
ATOM     15  H   UNL     1     -20.690 -15.891 -14.308  1.00  0.00     0.293 HD
ENDBRANCH   6  14
TORSDOF 4
ENDMDL
MODEL 5
REMARK VINA RESULT:    -4.714      1.048      2.171
REMARK INTER + INTRA:          -5.678
REMARK INTER:                  -5.539
REMARK INTRA:                  -0.139
REMARK UNBOUND:                -0.138
REMARK SMILES O=C([O-])C=Cc1ccc(O)c(O)c1
REMARK SMILES IDX 6 1 13 2 7 3 11 4 8 5 9 6 5 7 4 8 2 9 1 10 3 11 12 12 10 14
REMARK H PARENT 12 13 10 15
REMARK Flexibility Score: inf
ROOT
ATOM      1  C   UNL     1     -22.852 -19.508 -13.122  1.00  0.00    -0.022 A 
ATOM      2  C   UNL     1     -22.348 -20.777 -12.789  1.00  0.00     0.058 A 
ATOM      3  C   UNL     1     -24.170 -19.408 -13.609  1.00  0.00     0.012 A 
ATOM      4  C   UNL     1     -23.144 -21.921 -12.912  1.00  0.00     0.157 A 
ATOM      5  C   UNL     1     -24.967 -20.550 -13.733  1.00  0.00     0.051 A 
ATOM      6  C   UNL     1     -24.461 -21.808 -13.383  1.00  0.00     0.157 A 
ENDROOT
BRANCH   1   7
ATOM      7  C   UNL     1     -21.961 -18.331 -12.983  1.00  0.00     0.010 C 
ATOM      8  C   UNL     1     -22.208 -17.139 -13.545  1.00  0.00     0.025 C 
BRANCH   8   9
ATOM      9  C   UNL     1     -21.300 -15.993 -13.370  1.00  0.00     0.064 C 
ATOM     10  O   UNL     1     -20.098 -16.093 -13.728  1.00  0.00    -0.545 OA
ATOM     11  O   UNL     1     -21.750 -14.801 -12.814  1.00  0.00    -0.545 OA
ENDBRANCH   8   9
ENDBRANCH   1   7
BRANCH   4  12
ATOM     12  O   UNL     1     -22.608 -23.160 -12.560  1.00  0.00    -0.504 OA
ATOM     13  H   UNL     1     -23.145 -24.016 -12.623  1.00  0.00     0.293 HD
ENDBRANCH   4  12
BRANCH   6  14
ATOM     14  O   UNL     1     -25.260 -22.944 -13.508  1.00  0.00    -0.504 OA
ATOM     15  H   UNL     1     -25.574 -23.276 -14.412  1.00  0.00     0.293 HD
ENDBRANCH   6  14
TORSDOF 4
ENDMDL
MODEL 6
REMARK VINA RESULT:    -4.566      1.158      5.797
REMARK INTER + INTRA:          -5.505
REMARK INTER:                  -5.366
REMARK INTRA:                  -0.138
REMARK UNBOUND:                -0.138
REMARK SMILES O=C([O-])C=Cc1ccc(O)c(O)c1
REMARK SMILES IDX 6 1 13 2 7 3 11 4 8 5 9 6 5 7 4 8 2 9 1 10 3 11 12 12 10 14
REMARK H PARENT 12 13 10 15
REMARK Flexibility Score: inf
ROOT
ATOM      1  C   UNL     1     -22.920 -18.106 -13.396  1.00  0.00    -0.022 A 
ATOM      2  C   UNL     1     -23.663 -17.222 -14.197  1.00  0.00     0.058 A 
ATOM      3  C   UNL     1     -21.635 -17.718 -12.968  1.00  0.00     0.012 A 
ATOM      4  C   UNL     1     -23.151 -15.967 -14.545  1.00  0.00     0.157 A 
ATOM      5  C   UNL     1     -21.122 -16.465 -13.317  1.00  0.00     0.051 A 
ATOM      6  C   UNL     1     -21.876 -15.584 -14.101  1.00  0.00     0.157 A 
ENDROOT
BRANCH   1   7
ATOM      7  C   UNL     1     -23.507 -19.428 -13.065  1.00  0.00     0.010 C 
ATOM      8  C   UNL     1     -22.789 -20.555 -12.959  1.00  0.00     0.025 C 
BRANCH   8   9
ATOM      9  C   UNL     1     -23.412 -21.844 -12.618  1.00  0.00     0.064 C 
ATOM     10  O   UNL     1     -22.871 -22.915 -12.999  1.00  0.00    -0.545 OA
ATOM     11  O   UNL     1     -24.590 -21.899 -11.882  1.00  0.00    -0.545 OA
ENDBRANCH   8   9
ENDBRANCH   1   7
BRANCH   4  12
ATOM     12  O   UNL     1     -23.926 -15.115 -15.333  1.00  0.00    -0.504 OA
ATOM     13  H   UNL     1     -24.843 -15.382 -15.673  1.00  0.00     0.293 HD
ENDBRANCH   4  12
BRANCH   6  14
ATOM     14  O   UNL     1     -21.361 -14.335 -14.445  1.00  0.00    -0.504 OA
ATOM     15  H   UNL     1     -20.367 -14.189 -14.579  1.00  0.00     0.293 HD
ENDBRANCH   6  14
TORSDOF 4
ENDMDL
MODEL 7
REMARK VINA RESULT:    -4.533      1.693      2.262
REMARK INTER + INTRA:          -5.466
REMARK INTER:                  -5.336
REMARK INTRA:                  -0.130
REMARK UNBOUND:                -0.138
REMARK SMILES O=C([O-])C=Cc1ccc(O)c(O)c1
REMARK SMILES IDX 6 1 13 2 7 3 11 4 8 5 9 6 5 7 4 8 2 9 1 10 3 11 12 12 10 14
REMARK H PARENT 12 13 10 15
REMARK Flexibility Score: inf
ROOT
ATOM      1  C   UNL     1     -23.634 -20.597 -13.538  1.00  0.00    -0.022 A 
ATOM      2  C   UNL     1     -24.598 -21.214 -14.355  1.00  0.00     0.058 A 
ATOM      3  C   UNL     1     -22.721 -21.407 -12.836  1.00  0.00     0.012 A 
ATOM      4  C   UNL     1     -24.637 -22.605 -14.494  1.00  0.00     0.157 A 
ATOM      5  C   UNL     1     -22.759 -22.798 -12.973  1.00  0.00     0.051 A 
ATOM      6  C   UNL     1     -23.712 -23.403 -13.802  1.00  0.00     0.157 A 
ENDROOT
BRANCH   1   7
ATOM      7  C   UNL     1     -23.646 -19.118 -13.420  1.00  0.00     0.010 C 
ATOM      8  C   UNL     1     -22.607 -18.338 -13.750  1.00  0.00     0.025 C 
BRANCH   8   9
ATOM      9  C   UNL     1     -22.666 -16.872 -13.627  1.00  0.00     0.064 C 
ATOM     10  O   UNL     1     -21.821 -16.274 -12.912  1.00  0.00    -0.545 OA
ATOM     11  O   UNL     1     -23.643 -16.136 -14.289  1.00  0.00    -0.545 OA
ENDBRANCH   8   9
ENDBRANCH   1   7
BRANCH   4  12
ATOM     12  O   UNL     1     -25.603 -23.176 -15.323  1.00  0.00    -0.504 OA
ATOM     13  H   UNL     1     -26.152 -22.622 -15.970  1.00  0.00     0.293 HD
ENDBRANCH   4  12
BRANCH   6  14
ATOM     14  O   UNL     1     -23.745 -24.790 -13.936  1.00  0.00    -0.504 OA
ATOM     15  H   UNL     1     -23.836 -25.233 -14.843  1.00  0.00     0.293 HD
ENDBRANCH   6  14
TORSDOF 4
ENDMDL
MODEL 8
REMARK VINA RESULT:    -4.503      1.160      6.117
REMARK INTER + INTRA:          -5.430
REMARK INTER:                  -5.292
REMARK INTRA:                  -0.138
REMARK UNBOUND:                -0.138
REMARK SMILES O=C([O-])C=Cc1ccc(O)c(O)c1
REMARK SMILES IDX 6 1 13 2 7 3 11 4 8 5 9 6 5 7 4 8 2 9 1 10 3 11 12 12 10 14
REMARK H PARENT 12 13 10 15
REMARK Flexibility Score: inf
ROOT
ATOM      1  C   UNL     1     -22.687 -17.776 -13.423  1.00  0.00    -0.022 A 
ATOM      2  C   UNL     1     -21.569 -16.960 -13.183  1.00  0.00     0.058 A 
ATOM      3  C   UNL     1     -23.755 -17.259 -14.183  1.00  0.00     0.012 A 
ATOM      4  C   UNL     1     -21.499 -15.665 -13.708  1.00  0.00     0.157 A 
ATOM      5  C   UNL     1     -23.687 -15.965 -14.708  1.00  0.00     0.051 A 
ATOM      6  C   UNL     1     -22.562 -15.165 -14.477  1.00  0.00     0.157 A 
ENDROOT
BRANCH   1   7
ATOM      7  C   UNL     1     -22.713 -19.137 -12.833  1.00  0.00     0.010 C 
ATOM      8  C   UNL     1     -23.616 -20.072 -13.157  1.00  0.00     0.025 C 
BRANCH   8   9
ATOM      9  C   UNL     1     -23.597 -21.415 -12.555  1.00  0.00     0.064 C 
ATOM     10  O   UNL     1     -22.713 -22.239 -12.902  1.00  0.00    -0.545 OA
ATOM     11  O   UNL     1     -24.544 -21.789 -11.608  1.00  0.00    -0.545 OA
ENDBRANCH   8   9
ENDBRANCH   1   7
BRANCH   4  12
ATOM     12  O   UNL     1     -20.366 -14.891 -13.455  1.00  0.00    -0.504 OA
ATOM     13  H   UNL     1     -20.281 -14.317 -12.624  1.00  0.00     0.293 HD
ENDBRANCH   4  12
BRANCH   6  14
ATOM     14  O   UNL     1     -22.498 -13.875 -15.004  1.00  0.00    -0.504 OA
ATOM     15  H   UNL     1     -23.333 -13.378 -15.291  1.00  0.00     0.293 HD
ENDBRANCH   6  14
TORSDOF 4
ENDMDL
MODEL 9
REMARK VINA RESULT:    -4.060     12.841     14.148
REMARK INTER + INTRA:          -4.910
REMARK INTER:                  -4.774
REMARK INTRA:                  -0.136
REMARK UNBOUND:                -0.138
REMARK SMILES O=C([O-])C=Cc1ccc(O)c(O)c1
REMARK SMILES IDX 6 1 13 2 7 3 11 4 8 5 9 6 5 7 4 8 2 9 1 10 3 11 12 12 10 14
REMARK H PARENT 12 13 10 15
REMARK Flexibility Score: inf
ROOT
ATOM      1  C   UNL     1     -28.126 -30.725 -14.319  1.00  0.00    -0.022 A 
ATOM      2  C   UNL     1     -28.069 -31.663 -13.273  1.00  0.00     0.058 A 
ATOM      3  C   UNL     1     -28.546 -29.412 -14.032  1.00  0.00     0.012 A 
ATOM      4  C   UNL     1     -28.396 -31.296 -11.963  1.00  0.00     0.157 A 
ATOM      5  C   UNL     1     -28.874 -29.045 -12.723  1.00  0.00     0.051 A 
ATOM      6  C   UNL     1     -28.798 -29.981 -11.684  1.00  0.00     0.157 A 
ENDROOT
BRANCH   1   7
ATOM      7  C   UNL     1     -27.779 -31.171 -15.691  1.00  0.00     0.010 C 
ATOM      8  C   UNL     1     -28.413 -30.749 -16.793  1.00  0.00     0.025 C 
BRANCH   8   9
ATOM      9  C   UNL     1     -28.027 -31.209 -18.137  1.00  0.00     0.064 C 
ATOM     10  O   UNL     1     -28.754 -32.038 -18.743  1.00  0.00    -0.545 OA
ATOM     11  O   UNL     1     -26.869 -30.743 -18.749  1.00  0.00    -0.545 OA
ENDBRANCH   8   9
ENDBRANCH   1   7
BRANCH   4  12
ATOM     12  O   UNL     1     -28.315 -32.255 -10.952  1.00  0.00    -0.504 OA
ATOM     13  H   UNL     1     -28.618 -32.064 -10.004  1.00  0.00     0.293 HD
ENDBRANCH   4  12
BRANCH   6  14
ATOM     14  O   UNL     1     -29.125 -29.610 -10.380  1.00  0.00    -0.504 OA
ATOM     15  H   UNL     1     -28.797 -28.739  -9.979  1.00  0.00     0.293 HD
ENDBRANCH   6  14
TORSDOF 4
ENDMDL
