MODEL 1
REMARK VINA RESULT:    -6.276      0.000      0.000
REMARK INTER + INTRA:         -13.111
REMARK INTER:                 -10.311
REMARK INTRA:                  -2.799
REMARK UNBOUND:                -2.799
REMARK SMILES C[C@@H]1O[C@H](OC[C@H]2O[C@@H](Oc3c(-c4ccc(O)c(O)c4)oc4cc(O)cc(O)c4c3=O)[C@H](O)[C@@H](O)[C@@H]2O)[C@H](O)[C@H](O)[C@H]1O
REMARK SMILES IDX 7 1 36 2 34 3 32 4 9 5 8 6 6 7 5 8 4 9 1 10 2 11 42 12 3 13
REMARK SMILES IDX 40 14 38 15 43 16 41 18 39 20 37 22 35 24 10 26 11 27 12 28
REMARK SMILES IDX 30 29 21 30 29 31 31 32 22 33 27 34 23 35 26 36 24 37 13 38
REMARK SMILES IDX 20 39 14 40 18 41 15 42 16 43 19 44 17 46 28 48 25 50 33 52
REMARK H PARENT 43 17 41 19 39 21 37 23 35 25 19 45 17 47 28 49 25 51 33 53
REMARK Flexibility Score: inf
ROOT
ATOM      1  C   UNL     1      -4.509  12.560  -4.416  1.00  0.00     0.180 C 
ATOM      2  C   UNL     1      -6.074  12.532  -4.297  1.00  0.00     0.177 C 
ATOM      3  C   UNL     1      -6.748  12.108  -5.628  1.00  0.00     0.180 C 
ATOM      4  C   UNL     1      -6.127  12.868  -6.845  1.00  0.00     0.214 C 
ATOM      5  C   UNL     1      -4.607  13.074  -6.702  1.00  0.00     0.339 C 
ATOM      6  O   UNL     1      -4.104  12.168  -5.712  1.00  0.00    -0.332 OA
ENDROOT
BRANCH   1   7
ATOM      7  C   UNL     1      -3.841  11.653  -3.357  1.00  0.00     0.198 C 
BRANCH   7   8
ATOM      8  O   UNL     1      -3.609  10.352  -3.909  1.00  0.00    -0.347 OA
BRANCH   8   9
ATOM      9  C   UNL     1      -4.213   9.300  -3.159  1.00  0.00     0.281 C 
ATOM     10  C   UNL     1      -7.119   7.217  -3.975  1.00  0.00     0.041 C 
ATOM     11  C   UNL     1      -5.712   7.531  -3.434  1.00  0.00     0.150 C 
ATOM     12  C   UNL     1      -4.693   6.471  -3.864  1.00  0.00     0.174 C 
ATOM     13  O   UNL     1      -5.315   8.813  -3.901  1.00  0.00    -0.344 OA
ATOM     14  C   UNL     1      -3.254   7.080  -3.907  1.00  0.00     0.179 C 
ATOM     15  C   UNL     1      -3.164   8.212  -2.875  1.00  0.00     0.202 C 
BRANCH  12  16
ATOM     16  O   UNL     1      -4.751   5.320  -3.069  1.00  0.00    -0.388 OA
ATOM     17  H   UNL     1      -4.582   4.555  -3.636  1.00  0.00     0.211 HD
ENDBRANCH  12  16
BRANCH  14  18
ATOM     18  O   UNL     1      -2.983   7.611  -5.210  1.00  0.00    -0.387 OA
ATOM     19  H   UNL     1      -2.258   7.056  -5.617  1.00  0.00     0.211 HD
ENDBRANCH  14  18
BRANCH  15  20
ATOM     20  O   UNL     1      -1.874   8.786  -2.919  1.00  0.00    -0.385 OA
ATOM     21  H   UNL     1      -1.544   8.683  -3.863  1.00  0.00     0.211 HD
ENDBRANCH  15  20
ENDBRANCH   8   9
ENDBRANCH   7   8
ENDBRANCH   1   7
BRANCH   2  22
ATOM     22  O   UNL     1      -6.531  13.811  -3.923  1.00  0.00    -0.387 OA
ATOM     23  H   UNL     1      -6.631  13.821  -2.922  1.00  0.00     0.211 HD
ENDBRANCH   2  22
BRANCH   3  24
ATOM     24  O   UNL     1      -6.581  10.734  -5.793  1.00  0.00    -0.387 OA
ATOM     25  H   UNL     1      -5.617  10.548  -5.684  1.00  0.00     0.211 HD
ENDBRANCH   3  24
BRANCH   5  26
ATOM     26  O   UNL     1      -3.947  12.786  -7.930  1.00  0.00    -0.454 OA
BRANCH  26  27
ATOM     27  C   UNL     1      -2.663  12.211  -7.971  1.00  0.00     0.214 A 
ATOM     28  C   UNL     1      -2.480  10.925  -8.508  1.00  0.00     0.180 A 
ATOM     29  C   UNL     1      -1.546  12.882  -7.436  1.00  0.00     0.239 A 
ATOM     30  O   UNL     1      -1.274  10.393  -8.554  1.00  0.00    -0.452 OA
ATOM     31  C   UNL     1      -0.343  12.156  -7.252  1.00  0.00     0.111 A 
ATOM     32  O   UNL     1      -1.657  14.082  -7.097  1.00  0.00    -0.285 OA
ATOM     33  C   UNL     1      -0.229  10.925  -7.950  1.00  0.00     0.146 A 
ATOM     34  C   UNL     1       0.711  12.574  -6.408  1.00  0.00     0.134 A 
ATOM     35  C   UNL     1       0.996  10.236  -7.974  1.00  0.00     0.094 A 
ATOM     36  C   UNL     1       1.850  11.782  -6.314  1.00  0.00     0.093 A 
ATOM     37  C   UNL     1       2.038  10.662  -7.145  1.00  0.00     0.123 A 
BRANCH  28  38
ATOM     38  C   UNL     1      -3.635  10.107  -8.968  1.00  0.00     0.025 A 
ATOM     39  C   UNL     1      -4.574   9.573  -8.042  1.00  0.00     0.062 A 
ATOM     40  C   UNL     1      -3.828   9.851 -10.315  1.00  0.00     0.016 A 
ATOM     41  C   UNL     1      -5.720   8.899  -8.511  1.00  0.00     0.158 A 
ATOM     42  C   UNL     1      -4.955   9.174 -10.748  1.00  0.00     0.051 A 
ATOM     43  C   UNL     1      -5.918   8.714  -9.864  1.00  0.00     0.157 A 
BRANCH  41  44
ATOM     44  O   UNL     1      -6.642   8.436  -7.583  1.00  0.00    -0.504 OA
ATOM     45  H   UNL     1      -6.576   8.625  -6.609  1.00  0.00     0.293 HD
ENDBRANCH  41  44
BRANCH  43  46
ATOM     46  O   UNL     1      -7.085   8.101 -10.319  1.00  0.00    -0.504 OA
ATOM     47  H   UNL     1      -7.406   7.217  -9.995  1.00  0.00     0.293 HD
ENDBRANCH  43  46
ENDBRANCH  28  38
BRANCH  34  48
ATOM     48  O   UNL     1       0.652  13.661  -5.552  1.00  0.00    -0.507 OA
ATOM     49  H   UNL     1       1.158  14.514  -5.693  1.00  0.00     0.293 HD
ENDBRANCH  34  48
BRANCH  37  50
ATOM     50  O   UNL     1       3.244   9.935  -7.094  1.00  0.00    -0.508 OA
ATOM     51  H   UNL     1       3.689   9.544  -7.919  1.00  0.00     0.293 HD
ENDBRANCH  37  50
ENDBRANCH  26  27
ENDBRANCH   5  26
BRANCH   4  52
ATOM     52  O   UNL     1      -6.762  14.138  -6.947  1.00  0.00    -0.384 OA
ATOM     53  H   UNL     1      -7.013  14.256  -7.893  1.00  0.00     0.211 HD
ENDBRANCH   4  52
TORSDOF 16
ENDMDL
MODEL 2
REMARK VINA RESULT:    -5.287      3.188      7.055
REMARK INTER + INTRA:         -11.485
REMARK INTER:                  -9.501
REMARK INTRA:                  -1.985
REMARK UNBOUND:                -2.799
REMARK SMILES C[C@@H]1O[C@H](OC[C@H]2O[C@@H](Oc3c(-c4ccc(O)c(O)c4)oc4cc(O)cc(O)c4c3=O)[C@H](O)[C@@H](O)[C@@H]2O)[C@H](O)[C@H](O)[C@H]1O
REMARK SMILES IDX 7 1 36 2 34 3 32 4 9 5 8 6 6 7 5 8 4 9 1 10 2 11 42 12 3 13
REMARK SMILES IDX 40 14 38 15 43 16 41 18 39 20 37 22 35 24 10 26 11 27 12 28
REMARK SMILES IDX 30 29 21 30 29 31 31 32 22 33 27 34 23 35 26 36 24 37 13 38
REMARK SMILES IDX 20 39 14 40 18 41 15 42 16 43 19 44 17 46 28 48 25 50 33 52
REMARK H PARENT 43 17 41 19 39 21 37 23 35 25 19 45 17 47 28 49 25 51 33 53
REMARK Flexibility Score: inf
ROOT
ATOM      1  C   UNL     1       0.334  12.710  -7.492  1.00  0.00     0.180 C 
ATOM      2  C   UNL     1       0.995  11.334  -7.859  1.00  0.00     0.177 C 
ATOM      3  C   UNL     1       1.173  10.427  -6.614  1.00  0.00     0.180 C 
ATOM      4  C   UNL     1       1.777  11.225  -5.413  1.00  0.00     0.214 C 
ATOM      5  C   UNL     1       1.243  12.668  -5.331  1.00  0.00     0.339 C 
ATOM      6  O   UNL     1       0.045  12.767  -6.110  1.00  0.00    -0.332 OA
ENDROOT
BRANCH   1   7
ATOM      7  C   UNL     1      -0.953  12.960  -8.311  1.00  0.00     0.198 C 
BRANCH   7   8
ATOM      8  O   UNL     1      -1.984  12.063  -7.882  1.00  0.00    -0.347 OA
BRANCH   8   9
ATOM      9  C   UNL     1      -3.039  11.914  -8.831  1.00  0.00     0.281 C 
ATOM     10  C   UNL     1      -3.940   9.017 -10.891  1.00  0.00     0.041 C 
ATOM     11  C   UNL     1      -4.184  10.246  -9.995  1.00  0.00     0.150 C 
ATOM     12  C   UNL     1      -5.260   9.968  -8.940  1.00  0.00     0.174 C 
ATOM     13  O   UNL     1      -2.961  10.607  -9.368  1.00  0.00    -0.344 OA
ATOM     14  C   UNL     1      -5.050  10.883  -7.690  1.00  0.00     0.179 C 
ATOM     15  C   UNL     1      -4.384  12.191  -8.139  1.00  0.00     0.202 C 
BRANCH  12  16
ATOM     16  O   UNL     1      -6.556  10.077  -9.458  1.00  0.00    -0.388 OA
ATOM     17  H   UNL     1      -7.181   9.982  -8.726  1.00  0.00     0.211 HD
ENDBRANCH  12  16
BRANCH  14  18
ATOM     18  O   UNL     1      -4.203  10.228  -6.738  1.00  0.00    -0.387 OA
ATOM     19  H   UNL     1      -4.742   9.512  -6.296  1.00  0.00     0.211 HD
ENDBRANCH  14  18
BRANCH  15  20
ATOM     20  O   UNL     1      -4.169  13.017  -7.015  1.00  0.00    -0.385 OA
ATOM     21  H   UNL     1      -3.231  13.370  -7.091  1.00  0.00     0.211 HD
ENDBRANCH  15  20
ENDBRANCH   8   9
ENDBRANCH   7   8
ENDBRANCH   1   7
BRANCH   2  22
ATOM     22  O   UNL     1       2.250  11.570  -8.453  1.00  0.00    -0.387 OA
ATOM     23  H   UNL     1       2.789  10.723  -8.379  1.00  0.00     0.211 HD
ENDBRANCH   2  22
BRANCH   3  24
ATOM     24  O   UNL     1      -0.072   9.910  -6.259  1.00  0.00    -0.387 OA
ATOM     25  H   UNL     1      -0.747  10.400  -6.789  1.00  0.00     0.211 HD
ENDBRANCH   3  24
BRANCH   5  26
ATOM     26  O   UNL     1       0.918  13.004  -3.986  1.00  0.00    -0.454 OA
BRANCH  26  27
ATOM     27  C   UNL     1       0.251  14.198  -3.655  1.00  0.00     0.214 A 
ATOM     28  C   UNL     1      -1.111  14.177  -3.311  1.00  0.00     0.180 A 
ATOM     29  C   UNL     1       0.912  15.441  -3.708  1.00  0.00     0.239 A 
ATOM     30  O   UNL     1      -1.731  15.296  -2.991  1.00  0.00    -0.452 OA
ATOM     31  C   UNL     1       0.136  16.625  -3.637  1.00  0.00     0.111 A 
ATOM     32  O   UNL     1       2.154  15.467  -3.859  1.00  0.00    -0.285 OA
ATOM     33  C   UNL     1      -1.191  16.488  -3.154  1.00  0.00     0.146 A 
ATOM     34  C   UNL     1       0.600  17.897  -4.041  1.00  0.00     0.134 A 
ATOM     35  C   UNL     1      -1.964  17.630  -2.875  1.00  0.00     0.094 A 
ATOM     36  C   UNL     1      -0.250  18.992  -3.918  1.00  0.00     0.093 A 
ATOM     37  C   UNL     1      -1.494  18.887  -3.267  1.00  0.00     0.123 A 
BRANCH  28  38
ATOM     38  C   UNL     1      -1.903  12.918  -3.365  1.00  0.00     0.025 A 
ATOM     39  C   UNL     1      -3.290  12.933  -3.681  1.00  0.00     0.062 A 
ATOM     40  C   UNL     1      -1.305  11.694  -3.114  1.00  0.00     0.016 A 
ATOM     41  C   UNL     1      -3.991  11.720  -3.838  1.00  0.00     0.158 A 
ATOM     42  C   UNL     1      -2.020  10.518  -3.261  1.00  0.00     0.051 A 
ATOM     43  C   UNL     1      -3.351  10.513  -3.643  1.00  0.00     0.157 A 
BRANCH  41  44
ATOM     44  O   UNL     1      -5.331  11.770  -4.198  1.00  0.00    -0.504 OA
ATOM     45  H   UNL     1      -5.638  11.960  -5.125  1.00  0.00     0.293 HD
ENDBRANCH  41  44
BRANCH  43  46
ATOM     46  O   UNL     1      -4.038   9.319  -3.861  1.00  0.00    -0.504 OA
ATOM     47  H   UNL     1      -4.740   9.205  -4.557  1.00  0.00     0.293 HD
ENDBRANCH  43  46
ENDBRANCH  28  38
BRANCH  34  48
ATOM     48  O   UNL     1       1.805  18.132  -4.681  1.00  0.00    -0.507 OA
ATOM     49  H   UNL     1       2.536  17.451  -4.768  1.00  0.00     0.293 HD
ENDBRANCH  34  48
BRANCH  37  50
ATOM     50  O   UNL     1      -2.291  20.033  -3.072  1.00  0.00    -0.508 OA
ATOM     51  H   UNL     1      -2.443  20.730  -3.793  1.00  0.00     0.293 HD
ENDBRANCH  37  50
ENDBRANCH  26  27
ENDBRANCH   5  26
BRANCH   4  52
ATOM     52  O   UNL     1       3.192  11.259  -5.568  1.00  0.00    -0.384 OA
ATOM     53  H   UNL     1       3.553  10.492  -5.066  1.00  0.00     0.211 HD
ENDBRANCH   4  52
TORSDOF 16
ENDMDL
MODEL 3
REMARK VINA RESULT:    -5.153      2.461      6.232
REMARK INTER + INTRA:         -11.266
REMARK INTER:                 -10.614
REMARK INTRA:                  -0.652
REMARK UNBOUND:                -2.799
REMARK SMILES C[C@@H]1O[C@H](OC[C@H]2O[C@@H](Oc3c(-c4ccc(O)c(O)c4)oc4cc(O)cc(O)c4c3=O)[C@H](O)[C@@H](O)[C@@H]2O)[C@H](O)[C@H](O)[C@H]1O
REMARK SMILES IDX 7 1 36 2 34 3 32 4 9 5 8 6 6 7 5 8 4 9 1 10 2 11 42 12 3 13
REMARK SMILES IDX 40 14 38 15 43 16 41 18 39 20 37 22 35 24 10 26 11 27 12 28
REMARK SMILES IDX 30 29 21 30 29 31 31 32 22 33 27 34 23 35 26 36 24 37 13 38
REMARK SMILES IDX 20 39 14 40 18 41 15 42 16 43 19 44 17 46 28 48 25 50 33 52
REMARK H PARENT 43 17 41 19 39 21 37 23 35 25 19 45 17 47 28 49 25 51 33 53
REMARK Flexibility Score: inf
ROOT
ATOM      1  C   UNL     1      -5.522  11.812  -6.383  1.00  0.00     0.180 C 
ATOM      2  C   UNL     1      -6.440  11.602  -5.127  1.00  0.00     0.177 C 
ATOM      3  C   UNL     1      -5.962  12.442  -3.914  1.00  0.00     0.180 C 
ATOM      4  C   UNL     1      -4.417  12.317  -3.711  1.00  0.00     0.214 C 
ATOM      5  C   UNL     1      -3.647  12.255  -5.045  1.00  0.00     0.339 C 
ATOM      6  O   UNL     1      -4.494  12.738  -6.095  1.00  0.00    -0.332 OA
ENDROOT
BRANCH   1   7
ATOM      7  C   UNL     1      -6.333  12.288  -7.609  1.00  0.00     0.198 C 
BRANCH   7   8
ATOM      8  O   UNL     1      -5.922  11.565  -8.775  1.00  0.00    -0.347 OA
BRANCH   8   9
ATOM      9  C   UNL     1      -5.597  10.201  -8.513  1.00  0.00     0.281 C 
ATOM     10  C   UNL     1      -7.040   7.141  -9.928  1.00  0.00     0.041 C 
ATOM     11  C   UNL     1      -5.927   8.073  -9.414  1.00  0.00     0.150 C 
ATOM     12  C   UNL     1      -4.706   8.057 -10.340  1.00  0.00     0.174 C 
ATOM     13  O   UNL     1      -6.445   9.391  -9.305  1.00  0.00    -0.344 OA
ATOM     14  C   UNL     1      -3.913   9.398 -10.224  1.00  0.00     0.179 C 
ATOM     15  C   UNL     1      -4.106   9.969  -8.813  1.00  0.00     0.202 C 
BRANCH  12  16
ATOM     16  O   UNL     1      -3.886   6.942 -10.123  1.00  0.00    -0.388 OA
ATOM     17  H   UNL     1      -3.051   7.252  -9.747  1.00  0.00     0.211 HD
ENDBRANCH  12  16
BRANCH  14  18
ATOM     18  O   UNL     1      -4.403  10.343 -11.183  1.00  0.00    -0.387 OA
ATOM     19  H   UNL     1      -3.722  10.416 -11.911  1.00  0.00     0.211 HD
ENDBRANCH  14  18
BRANCH  15  20
ATOM     20  O   UNL     1      -3.412  11.193  -8.702  1.00  0.00    -0.385 OA
ATOM     21  H   UNL     1      -2.436  10.967  -8.625  1.00  0.00     0.211 HD
ENDBRANCH  15  20
ENDBRANCH   8   9
ENDBRANCH   7   8
ENDBRANCH   1   7
BRANCH   2  22
ATOM     22  O   UNL     1      -6.445  10.236  -4.782  1.00  0.00    -0.387 OA
ATOM     23  H   UNL     1      -7.284  10.055  -4.257  1.00  0.00     0.211 HD
ENDBRANCH   2  22
BRANCH   3  24
ATOM     24  O   UNL     1      -6.304  13.775  -4.134  1.00  0.00    -0.387 OA
ATOM     25  H   UNL     1      -6.102  13.970  -5.081  1.00  0.00     0.211 HD
ENDBRANCH   3  24
BRANCH   5  26
ATOM     26  O   UNL     1      -2.495  13.090  -4.995  1.00  0.00    -0.454 OA
BRANCH  26  27
ATOM     27  C   UNL     1      -1.229  12.641  -5.417  1.00  0.00     0.214 A 
ATOM     28  C   UNL     1      -0.079  13.396  -5.133  1.00  0.00     0.180 A 
ATOM     29  C   UNL     1      -1.089  11.459  -6.170  1.00  0.00     0.239 A 
ATOM     30  O   UNL     1       1.107  12.967  -5.520  1.00  0.00    -0.452 OA
ATOM     31  C   UNL     1       0.154  11.199  -6.799  1.00  0.00     0.111 A 
ATOM     32  O   UNL     1      -2.072  10.696  -6.300  1.00  0.00    -0.285 OA
ATOM     33  C   UNL     1       1.270  11.943  -6.335  1.00  0.00     0.146 A 
ATOM     34  C   UNL     1       0.326  10.279  -7.858  1.00  0.00     0.134 A 
ATOM     35  C   UNL     1       2.567  11.619  -6.769  1.00  0.00     0.094 A 
ATOM     36  C   UNL     1       1.598  10.101  -8.393  1.00  0.00     0.093 A 
ATOM     37  C   UNL     1       2.731  10.699  -7.810  1.00  0.00     0.123 A 
BRANCH  28  38
ATOM     38  C   UNL     1      -0.169  14.720  -4.458  1.00  0.00     0.025 A 
ATOM     39  C   UNL     1       0.983  15.345  -3.906  1.00  0.00     0.062 A 
ATOM     40  C   UNL     1      -1.382  15.381  -4.357  1.00  0.00     0.016 A 
ATOM     41  C   UNL     1       0.892  16.647  -3.375  1.00  0.00     0.158 A 
ATOM     42  C   UNL     1      -1.446  16.654  -3.818  1.00  0.00     0.051 A 
ATOM     43  C   UNL     1      -0.320  17.308  -3.346  1.00  0.00     0.157 A 
BRANCH  41  44
ATOM     44  O   UNL     1       2.046  17.249  -2.892  1.00  0.00    -0.504 OA
ATOM     45  H   UNL     1       2.067  17.797  -2.062  1.00  0.00     0.293 HD
ENDBRANCH  41  44
BRANCH  43  46
ATOM     46  O   UNL     1      -0.386  18.618  -2.875  1.00  0.00    -0.504 OA
ATOM     47  H   UNL     1      -0.455  19.415  -3.468  1.00  0.00     0.293 HD
ENDBRANCH  43  46
ENDBRANCH  28  38
BRANCH  34  48
ATOM     48  O   UNL     1      -0.705   9.622  -8.508  1.00  0.00    -0.507 OA
ATOM     49  H   UNL     1      -1.526  10.076  -8.860  1.00  0.00     0.293 HD
ENDBRANCH  34  48
BRANCH  37  50
ATOM     50  O   UNL     1       4.017  10.423  -8.315  1.00  0.00    -0.508 OA
ATOM     51  H   UNL     1       4.174   9.939  -9.193  1.00  0.00     0.293 HD
ENDBRANCH  37  50
ENDBRANCH  26  27
ENDBRANCH   5  26
BRANCH   4  52
ATOM     52  O   UNL     1      -4.160  11.130  -2.969  1.00  0.00    -0.384 OA
ATOM     53  H   UNL     1      -4.767  11.142  -2.193  1.00  0.00     0.211 HD
ENDBRANCH   4  52
TORSDOF 16
ENDMDL
MODEL 4
REMARK VINA RESULT:    -5.054      2.170      6.598
REMARK INTER + INTRA:         -11.103
REMARK INTER:                  -9.545
REMARK INTRA:                  -1.557
REMARK UNBOUND:                -2.799
REMARK SMILES C[C@@H]1O[C@H](OC[C@H]2O[C@@H](Oc3c(-c4ccc(O)c(O)c4)oc4cc(O)cc(O)c4c3=O)[C@H](O)[C@@H](O)[C@@H]2O)[C@H](O)[C@H](O)[C@H]1O
REMARK SMILES IDX 7 1 36 2 34 3 32 4 9 5 8 6 6 7 5 8 4 9 1 10 2 11 42 12 3 13
REMARK SMILES IDX 40 14 38 15 43 16 41 18 39 20 37 22 35 24 10 26 11 27 12 28
REMARK SMILES IDX 30 29 21 30 29 31 31 32 22 33 27 34 23 35 26 36 24 37 13 38
REMARK SMILES IDX 20 39 14 40 18 41 15 42 16 43 19 44 17 46 28 48 25 50 33 52
REMARK H PARENT 43 17 41 19 39 21 37 23 35 25 19 45 17 47 28 49 25 51 33 53
REMARK Flexibility Score: inf
ROOT
ATOM      1  C   UNL     1      -6.506  10.224  -7.311  1.00  0.00     0.180 C 
ATOM      2  C   UNL     1      -6.036  11.325  -8.326  1.00  0.00     0.177 C 
ATOM      3  C   UNL     1      -4.871  12.177  -7.759  1.00  0.00     0.180 C 
ATOM      4  C   UNL     1      -5.159  12.623  -6.288  1.00  0.00     0.214 C 
ATOM      5  C   UNL     1      -5.881  11.535  -5.469  1.00  0.00     0.339 C 
ATOM      6  O   UNL     1      -5.728  10.273  -6.132  1.00  0.00    -0.332 OA
ENDROOT
BRANCH   1   7
ATOM      7  C   UNL     1      -6.436   8.810  -7.930  1.00  0.00     0.198 C 
BRANCH   7   8
ATOM      8  O   UNL     1      -5.099   8.305  -7.840  1.00  0.00    -0.347 OA
BRANCH   8   9
ATOM      9  C   UNL     1      -4.817   7.270  -8.780  1.00  0.00     0.281 C 
ATOM     10  C   UNL     1      -7.125   5.178 -10.716  1.00  0.00     0.041 C 
ATOM     11  C   UNL     1      -5.870   6.032 -10.456  1.00  0.00     0.150 C 
ATOM     12  C   UNL     1      -5.593   6.992 -11.618  1.00  0.00     0.174 C 
ATOM     13  O   UNL     1      -6.051   6.759  -9.249  1.00  0.00    -0.344 OA
ATOM     14  C   UNL     1      -4.801   8.243 -11.117  1.00  0.00     0.179 C 
ATOM     15  C   UNL     1      -3.943   7.837  -9.911  1.00  0.00     0.202 C 
BRANCH  12  16
ATOM     16  O   UNL     1      -4.952   6.361 -12.691  1.00  0.00    -0.388 OA
ATOM     17  H   UNL     1      -4.008   6.310 -12.490  1.00  0.00     0.211 HD
ENDBRANCH  12  16
BRANCH  14  18
ATOM     18  O   UNL     1      -5.712   9.274 -10.718  1.00  0.00    -0.387 OA
ATOM     19  H   UNL     1      -5.312   9.744  -9.931  1.00  0.00     0.211 HD
ENDBRANCH  14  18
BRANCH  15  20
ATOM     20  O   UNL     1      -3.239   8.965  -9.435  1.00  0.00    -0.385 OA
ATOM     21  H   UNL     1      -3.334   9.681 -10.134  1.00  0.00     0.211 HD
ENDBRANCH  15  20
ENDBRANCH   8   9
ENDBRANCH   7   8
ENDBRANCH   1   7
BRANCH   2  22
ATOM     22  O   UNL     1      -7.125  12.163  -8.636  1.00  0.00    -0.387 OA
ATOM     23  H   UNL     1      -6.980  12.525  -9.563  1.00  0.00     0.211 HD
ENDBRANCH   2  22
BRANCH   3  24
ATOM     24  O   UNL     1      -3.703  11.417  -7.802  1.00  0.00    -0.387 OA
ATOM     25  H   UNL     1      -3.958  10.487  -7.587  1.00  0.00     0.211 HD
ENDBRANCH   3  24
BRANCH   5  26
ATOM     26  O   UNL     1      -5.301  11.419  -4.174  1.00  0.00    -0.454 OA
BRANCH  26  27
ATOM     27  C   UNL     1      -4.488  10.328  -3.815  1.00  0.00     0.214 A 
ATOM     28  C   UNL     1      -3.100  10.495  -3.676  1.00  0.00     0.180 A 
ATOM     29  C   UNL     1      -5.032   9.042  -3.634  1.00  0.00     0.239 A 
ATOM     30  O   UNL     1      -2.341   9.473  -3.328  1.00  0.00    -0.452 OA
ATOM     31  C   UNL     1      -4.148   7.937  -3.547  1.00  0.00     0.111 A 
ATOM     32  O   UNL     1      -6.275   8.902  -3.600  1.00  0.00    -0.285 OA
ATOM     33  C   UNL     1      -2.785   8.232  -3.279  1.00  0.00     0.146 A 
ATOM     34  C   UNL     1      -4.542   6.594  -3.738  1.00  0.00     0.134 A 
ATOM     35  C   UNL     1      -1.880   7.196  -2.992  1.00  0.00     0.094 A 
ATOM     36  C   UNL     1      -3.585   5.590  -3.619  1.00  0.00     0.093 A 
ATOM     37  C   UNL     1      -2.280   5.868  -3.172  1.00  0.00     0.123 A 
BRANCH  28  38
ATOM     38  C   UNL     1      -2.442  11.795  -3.982  1.00  0.00     0.025 A 
ATOM     39  C   UNL     1      -1.669  11.968  -5.163  1.00  0.00     0.062 A 
ATOM     40  C   UNL     1      -2.573  12.874  -3.123  1.00  0.00     0.016 A 
ATOM     41  C   UNL     1      -1.152  13.240  -5.486  1.00  0.00     0.158 A 
ATOM     42  C   UNL     1      -2.044  14.108  -3.458  1.00  0.00     0.051 A 
ATOM     43  C   UNL     1      -1.354  14.313  -4.642  1.00  0.00     0.157 A 
BRANCH  41  44
ATOM     44  O   UNL     1      -0.447  13.386  -6.673  1.00  0.00    -0.504 OA
ATOM     45  H   UNL     1      -0.457  14.223  -7.212  1.00  0.00     0.293 HD
ENDBRANCH  41  44
BRANCH  43  46
ATOM     46  O   UNL     1      -0.892  15.578  -5.002  1.00  0.00    -0.504 OA
ATOM     47  H   UNL     1       0.071  15.829  -5.019  1.00  0.00     0.293 HD
ENDBRANCH  43  46
ENDBRANCH  28  38
BRANCH  34  48
ATOM     48  O   UNL     1      -5.796   6.192  -4.166  1.00  0.00    -0.507 OA
ATOM     49  H   UNL     1      -6.654   6.598  -3.847  1.00  0.00     0.293 HD
ENDBRANCH  34  48
BRANCH  37  50
ATOM     50  O   UNL     1      -1.361   4.819  -2.969  1.00  0.00    -0.508 OA
ATOM     51  H   UNL     1      -1.149   4.439  -2.052  1.00  0.00     0.293 HD
ENDBRANCH  37  50
ENDBRANCH  26  27
ENDBRANCH   5  26
BRANCH   4  52
ATOM     52  O   UNL     1      -5.971  13.791  -6.329  1.00  0.00    -0.384 OA
ATOM     53  H   UNL     1      -6.699  13.655  -5.679  1.00  0.00     0.211 HD
ENDBRANCH   4  52
TORSDOF 16
ENDMDL
MODEL 5
REMARK VINA RESULT:    -4.873      5.021      8.584
REMARK INTER + INTRA:         -10.806
REMARK INTER:                 -10.143
REMARK INTRA:                  -0.663
REMARK UNBOUND:                -2.799
REMARK SMILES C[C@@H]1O[C@H](OC[C@H]2O[C@@H](Oc3c(-c4ccc(O)c(O)c4)oc4cc(O)cc(O)c4c3=O)[C@H](O)[C@@H](O)[C@@H]2O)[C@H](O)[C@H](O)[C@H]1O
REMARK SMILES IDX 7 1 36 2 34 3 32 4 9 5 8 6 6 7 5 8 4 9 1 10 2 11 42 12 3 13
REMARK SMILES IDX 40 14 38 15 43 16 41 18 39 20 37 22 35 24 10 26 11 27 12 28
REMARK SMILES IDX 30 29 21 30 29 31 31 32 22 33 27 34 23 35 26 36 24 37 13 38
REMARK SMILES IDX 20 39 14 40 18 41 15 42 16 43 19 44 17 46 28 48 25 50 33 52
REMARK H PARENT 43 17 41 19 39 21 37 23 35 25 19 45 17 47 28 49 25 51 33 53
REMARK Flexibility Score: inf
ROOT
ATOM      1  C   UNL     1      -0.208  13.809  -6.135  1.00  0.00     0.180 C 
ATOM      2  C   UNL     1       0.346  12.341  -6.164  1.00  0.00     0.177 C 
ATOM      3  C   UNL     1       0.972  11.931  -4.806  1.00  0.00     0.180 C 
ATOM      4  C   UNL     1       1.912  13.051  -4.253  1.00  0.00     0.214 C 
ATOM      5  C   UNL     1       1.378  14.468  -4.539  1.00  0.00     0.339 C 
ATOM      6  O   UNL     1      -0.016  14.386  -4.859  1.00  0.00    -0.332 OA
ENDROOT
BRANCH   1   7
ATOM      7  C   UNL     1      -1.705  13.861  -6.517  1.00  0.00     0.198 C 
BRANCH   7   8
ATOM      8  O   UNL     1      -1.968  12.934  -7.576  1.00  0.00    -0.347 OA
BRANCH   8   9
ATOM      9  C   UNL     1      -2.935  11.941  -7.236  1.00  0.00     0.281 C 
ATOM     10  C   UNL     1      -6.555  11.904  -7.823  1.00  0.00     0.041 C 
ATOM     11  C   UNL     1      -5.130  11.326  -7.740  1.00  0.00     0.150 C 
ATOM     12  C   UNL     1      -4.815  10.430  -8.943  1.00  0.00     0.174 C 
ATOM     13  O   UNL     1      -4.201  12.399  -7.670  1.00  0.00    -0.344 OA
ATOM     14  C   UNL     1      -3.276  10.394  -9.210  1.00  0.00     0.179 C 
ATOM     15  C   UNL     1      -2.536  10.603  -7.882  1.00  0.00     0.202 C 
BRANCH  12  16
ATOM     16  O   UNL     1      -5.354   9.145  -8.807  1.00  0.00    -0.388 OA
ATOM     17  H   UNL     1      -5.074   8.619  -9.569  1.00  0.00     0.211 HD
ENDBRANCH  12  16
BRANCH  14  18
ATOM     18  O   UNL     1      -2.910  11.437 -10.120  1.00  0.00    -0.387 OA
ATOM     19  H   UNL     1      -2.771  12.271  -9.585  1.00  0.00     0.211 HD
ENDBRANCH  14  18
BRANCH  15  20
ATOM     20  O   UNL     1      -1.143  10.595  -8.114  1.00  0.00    -0.385 OA
ATOM     21  H   UNL     1      -0.707  10.902  -7.262  1.00  0.00     0.211 HD
ENDBRANCH  15  20
ENDBRANCH   8   9
ENDBRANCH   7   8
ENDBRANCH   1   7
BRANCH   2  22
ATOM     22  O   UNL     1       1.316  12.235  -7.180  1.00  0.00    -0.387 OA
ATOM     23  H   UNL     1       0.856  11.902  -8.011  1.00  0.00     0.211 HD
ENDBRANCH   2  22
BRANCH   3  24
ATOM     24  O   UNL     1      -0.059  11.689  -3.898  1.00  0.00    -0.387 OA
ATOM     25  H   UNL     1      -0.906  11.767  -4.399  1.00  0.00     0.211 HD
ENDBRANCH   3  24
BRANCH   5  26
ATOM     26  O   UNL     1       1.513  15.293  -3.386  1.00  0.00    -0.454 OA
BRANCH  26  27
ATOM     27  C   UNL     1       2.588  16.186  -3.229  1.00  0.00     0.214 A 
ATOM     28  C   UNL     1       2.369  17.573  -3.272  1.00  0.00     0.180 A 
ATOM     29  C   UNL     1       3.908  15.718  -3.074  1.00  0.00     0.239 A 
ATOM     30  O   UNL     1       3.378  18.408  -3.114  1.00  0.00    -0.452 OA
ATOM     31  C   UNL     1       4.975  16.644  -3.197  1.00  0.00     0.111 A 
ATOM     32  O   UNL     1       4.105  14.498  -2.877  1.00  0.00    -0.285 OA
ATOM     33  C   UNL     1       4.638  18.019  -3.099  1.00  0.00     0.146 A 
ATOM     34  C   UNL     1       6.318  16.273  -3.433  1.00  0.00     0.134 A 
ATOM     35  C   UNL     1       5.651  18.991  -3.022  1.00  0.00     0.094 A 
ATOM     36  C   UNL     1       7.283  17.271  -3.527  1.00  0.00     0.093 A 
ATOM     37  C   UNL     1       6.979  18.617  -3.246  1.00  0.00     0.123 A 
BRANCH  28  38
ATOM     38  C   UNL     1       1.023  18.135  -3.566  1.00  0.00     0.025 A 
ATOM     39  C   UNL     1      -0.161  17.464  -3.150  1.00  0.00     0.062 A 
ATOM     40  C   UNL     1       0.889  19.333  -4.248  1.00  0.00     0.016 A 
ATOM     41  C   UNL     1      -1.418  18.073  -3.339  1.00  0.00     0.158 A 
ATOM     42  C   UNL     1      -0.359  19.902  -4.432  1.00  0.00     0.051 A 
ATOM     43  C   UNL     1      -1.516  19.299  -3.966  1.00  0.00     0.157 A 
BRANCH  41  44
ATOM     44  O   UNL     1      -2.550  17.415  -2.875  1.00  0.00    -0.504 OA
ATOM     45  H   UNL     1      -3.401  17.369  -3.388  1.00  0.00     0.293 HD
ENDBRANCH  41  44
BRANCH  43  46
ATOM     46  O   UNL     1      -2.758  19.919  -4.092  1.00  0.00    -0.504 OA
ATOM     47  H   UNL     1      -2.874  20.879  -4.327  1.00  0.00     0.293 HD
ENDBRANCH  43  46
ENDBRANCH  28  38
BRANCH  34  48
ATOM     48  O   UNL     1       6.744  14.986  -3.713  1.00  0.00    -0.507 OA
ATOM     49  H   UNL     1       6.853  14.269  -3.021  1.00  0.00     0.293 HD
ENDBRANCH  34  48
BRANCH  37  50
ATOM     50  O   UNL     1       7.997  19.590  -3.255  1.00  0.00    -0.508 OA
ATOM     51  H   UNL     1       8.750  19.609  -2.574  1.00  0.00     0.293 HD
ENDBRANCH  37  50
ENDBRANCH  26  27
ENDBRANCH   5  26
BRANCH   4  52
ATOM     52  O   UNL     1       3.189  12.902  -4.866  1.00  0.00    -0.384 OA
ATOM     53  H   UNL     1       3.301  11.942  -5.062  1.00  0.00     0.211 HD
ENDBRANCH   4  52
TORSDOF 16
ENDMDL
MODEL 6
REMARK VINA RESULT:    -4.728      2.014      6.912
REMARK INTER + INTRA:         -10.567
REMARK INTER:                  -8.460
REMARK INTRA:                  -2.108
REMARK UNBOUND:                -2.799
REMARK SMILES C[C@@H]1O[C@H](OC[C@H]2O[C@@H](Oc3c(-c4ccc(O)c(O)c4)oc4cc(O)cc(O)c4c3=O)[C@H](O)[C@@H](O)[C@@H]2O)[C@H](O)[C@H](O)[C@H]1O
REMARK SMILES IDX 7 1 36 2 34 3 32 4 9 5 8 6 6 7 5 8 4 9 1 10 2 11 42 12 3 13
REMARK SMILES IDX 40 14 38 15 43 16 41 18 39 20 37 22 35 24 10 26 11 27 12 28
REMARK SMILES IDX 30 29 21 30 29 31 31 32 22 33 27 34 23 35 26 36 24 37 13 38
REMARK SMILES IDX 20 39 14 40 18 41 15 42 16 43 19 44 17 46 28 48 25 50 33 52
REMARK H PARENT 43 17 41 19 39 21 37 23 35 25 19 45 17 47 28 49 25 51 33 53
REMARK Flexibility Score: inf
ROOT
ATOM      1  C   UNL     1      -3.351  10.458  -8.166  1.00  0.00     0.180 C 
ATOM      2  C   UNL     1      -3.952  11.819  -8.667  1.00  0.00     0.177 C 
ATOM      3  C   UNL     1      -4.850  12.486  -7.593  1.00  0.00     0.180 C 
ATOM      4  C   UNL     1      -5.832  11.452  -6.953  1.00  0.00     0.214 C 
ATOM      5  C   UNL     1      -5.192  10.062  -6.768  1.00  0.00     0.339 C 
ATOM      6  O   UNL     1      -3.766  10.191  -6.842  1.00  0.00    -0.332 OA
ENDROOT
BRANCH   1   7
ATOM      7  C   UNL     1      -1.807  10.452  -8.246  1.00  0.00     0.198 C 
BRANCH   7   8
ATOM      8  O   UNL     1      -1.255  10.895  -7.001  1.00  0.00    -0.347 OA
BRANCH   8   9
ATOM      9  C   UNL     1      -0.582  12.149  -7.091  1.00  0.00     0.281 C 
ATOM     10  C   UNL     1      -1.084  15.217  -5.146  1.00  0.00     0.041 C 
ATOM     11  C   UNL     1      -0.287  14.119  -5.874  1.00  0.00     0.150 C 
ATOM     12  C   UNL     1       0.926  13.667  -5.054  1.00  0.00     0.174 C 
ATOM     13  O   UNL     1      -1.147  13.017  -6.127  1.00  0.00    -0.344 OA
ATOM     14  C   UNL     1       1.320  12.200  -5.421  1.00  0.00     0.179 C 
ATOM     15  C   UNL     1       0.926  11.931  -6.880  1.00  0.00     0.202 C 
BRANCH  12  16
ATOM     16  O   UNL     1       2.009  14.547  -5.174  1.00  0.00    -0.388 OA
ATOM     17  H   UNL     1       1.756  15.255  -5.782  1.00  0.00     0.211 HD
ENDBRANCH  12  16
BRANCH  14  18
ATOM     18  O   UNL     1       0.628  11.278  -4.571  1.00  0.00    -0.387 OA
ATOM     19  H   UNL     1       0.351  10.498  -5.132  1.00  0.00     0.211 HD
ENDBRANCH  14  18
BRANCH  15  20
ATOM     20  O   UNL     1       1.256  10.601  -7.217  1.00  0.00    -0.385 OA
ATOM     21  H   UNL     1       2.213  10.609  -7.525  1.00  0.00     0.211 HD
ENDBRANCH  15  20
ENDBRANCH   8   9
ENDBRANCH   7   8
ENDBRANCH   1   7
BRANCH   2  22
ATOM     22  O   UNL     1      -4.706  11.588  -9.835  1.00  0.00    -0.387 OA
ATOM     23  H   UNL     1      -5.321  12.374  -9.963  1.00  0.00     0.211 HD
ENDBRANCH   2  22
BRANCH   3  24
ATOM     24  O   UNL     1      -4.030  13.033  -6.607  1.00  0.00    -0.387 OA
ATOM     25  H   UNL     1      -4.013  14.008  -6.756  1.00  0.00     0.211 HD
ENDBRANCH   3  24
BRANCH   5  26
ATOM     26  O   UNL     1      -5.515   9.531  -5.487  1.00  0.00    -0.454 OA
BRANCH  26  27
ATOM     27  C   UNL     1      -4.686   8.601  -4.833  1.00  0.00     0.214 A 
ATOM     28  C   UNL     1      -3.798   9.026  -3.830  1.00  0.00     0.180 A 
ATOM     29  C   UNL     1      -4.687   7.241  -5.199  1.00  0.00     0.239 A 
ATOM     30  O   UNL     1      -3.030   8.150  -3.212  1.00  0.00    -0.452 OA
ATOM     31  C   UNL     1      -3.650   6.406  -4.710  1.00  0.00     0.111 A 
ATOM     32  O   UNL     1      -5.573   6.816  -5.974  1.00  0.00    -0.285 OA
ATOM     33  C   UNL     1      -2.903   6.898  -3.608  1.00  0.00     0.146 A 
ATOM     34  C   UNL     1      -3.315   5.153  -5.271  1.00  0.00     0.134 A 
ATOM     35  C   UNL     1      -1.987   6.063  -2.945  1.00  0.00     0.094 A 
ATOM     36  C   UNL     1      -2.282   4.417  -4.701  1.00  0.00     0.093 A 
ATOM     37  C   UNL     1      -1.668   4.820  -3.499  1.00  0.00     0.123 A 
BRANCH  28  38
ATOM     38  C   UNL     1      -3.649  10.466  -3.488  1.00  0.00     0.025 A 
ATOM     39  C   UNL     1      -2.368  11.039  -3.255  1.00  0.00     0.062 A 
ATOM     40  C   UNL     1      -4.759  11.290  -3.393  1.00  0.00     0.016 A 
ATOM     41  C   UNL     1      -2.244  12.428  -3.046  1.00  0.00     0.158 A 
ATOM     42  C   UNL     1      -4.610  12.648  -3.173  1.00  0.00     0.051 A 
ATOM     43  C   UNL     1      -3.364  13.234  -3.021  1.00  0.00     0.157 A 
BRANCH  41  44
ATOM     44  O   UNL     1      -0.974  12.962  -2.875  1.00  0.00    -0.504 OA
ATOM     45  H   UNL     1      -0.141  12.456  -3.071  1.00  0.00     0.293 HD
ENDBRANCH  41  44
BRANCH  43  46
ATOM     46  O   UNL     1      -3.225  14.614  -2.875  1.00  0.00    -0.504 OA
ATOM     47  H   UNL     1      -2.546  15.154  -3.362  1.00  0.00     0.293 HD
ENDBRANCH  43  46
ENDBRANCH  28  38
BRANCH  34  48
ATOM     48  O   UNL     1      -3.853   4.643  -6.441  1.00  0.00    -0.507 OA
ATOM     49  H   UNL     1      -3.993   3.666  -6.614  1.00  0.00     0.293 HD
ENDBRANCH  34  48
BRANCH  37  50
ATOM     50  O   UNL     1      -0.691   4.005  -2.894  1.00  0.00    -0.508 OA
ATOM     51  H   UNL     1      -0.409   3.106  -3.273  1.00  0.00     0.293 HD
ENDBRANCH  37  50
ENDBRANCH  26  27
ENDBRANCH   5  26
BRANCH   4  52
ATOM     52  O   UNL     1      -6.967  11.332  -7.803  1.00  0.00    -0.384 OA
ATOM     53  H   UNL     1      -7.435  12.199  -7.778  1.00  0.00     0.211 HD
ENDBRANCH   4  52
TORSDOF 16
ENDMDL
MODEL 7
REMARK VINA RESULT:    -4.484      1.901      7.125
REMARK INTER + INTRA:         -10.166
REMARK INTER:                 -10.131
REMARK INTRA:                  -0.036
REMARK UNBOUND:                -2.799
REMARK SMILES C[C@@H]1O[C@H](OC[C@H]2O[C@@H](Oc3c(-c4ccc(O)c(O)c4)oc4cc(O)cc(O)c4c3=O)[C@H](O)[C@@H](O)[C@@H]2O)[C@H](O)[C@H](O)[C@H]1O
REMARK SMILES IDX 7 1 36 2 34 3 32 4 9 5 8 6 6 7 5 8 4 9 1 10 2 11 42 12 3 13
REMARK SMILES IDX 40 14 38 15 43 16 41 18 39 20 37 22 35 24 10 26 11 27 12 28
REMARK SMILES IDX 30 29 21 30 29 31 31 32 22 33 27 34 23 35 26 36 24 37 13 38
REMARK SMILES IDX 20 39 14 40 18 41 15 42 16 43 19 44 17 46 28 48 25 50 33 52
REMARK H PARENT 43 17 41 19 39 21 37 23 35 25 19 45 17 47 28 49 25 51 33 53
REMARK Flexibility Score: inf
ROOT
ATOM      1  C   UNL     1      -2.955  12.245  -8.366  1.00  0.00     0.180 C 
ATOM      2  C   UNL     1      -1.433  12.614  -8.478  1.00  0.00     0.177 C 
ATOM      3  C   UNL     1      -0.712  12.516  -7.109  1.00  0.00     0.180 C 
ATOM      4  C   UNL     1      -1.544  13.205  -5.979  1.00  0.00     0.214 C 
ATOM      5  C   UNL     1      -3.061  12.992  -6.146  1.00  0.00     0.339 C 
ATOM      6  O   UNL     1      -3.283  11.893  -7.038  1.00  0.00    -0.332 OA
ENDROOT
BRANCH   1   7
ATOM      7  C   UNL     1      -3.335  11.095  -9.326  1.00  0.00     0.198 C 
BRANCH   7   8
ATOM      8  O   UNL     1      -4.468  11.474 -10.115  1.00  0.00    -0.347 OA
BRANCH   8   9
ATOM      9  C   UNL     1      -5.115  10.372 -10.749  1.00  0.00     0.281 C 
ATOM     10  C   UNL     1      -4.098   6.853 -10.929  1.00  0.00     0.041 C 
ATOM     11  C   UNL     1      -5.069   8.038 -10.775  1.00  0.00     0.150 C 
ATOM     12  C   UNL     1      -6.064   7.806  -9.633  1.00  0.00     0.174 C 
ATOM     13  O   UNL     1      -4.318   9.221 -10.541  1.00  0.00    -0.344 OA
ATOM     14  C   UNL     1      -6.566   9.170  -9.059  1.00  0.00     0.179 C 
ATOM     15  C   UNL     1      -6.534  10.220 -10.176  1.00  0.00     0.202 C 
BRANCH  12  16
ATOM     16  O   UNL     1      -7.125   6.973 -10.009  1.00  0.00    -0.388 OA
ATOM     17  H   UNL     1      -7.092   6.860 -10.969  1.00  0.00     0.211 HD
ENDBRANCH  12  16
BRANCH  14  18
ATOM     18  O   UNL     1      -5.714   9.597  -7.989  1.00  0.00    -0.387 OA
ATOM     19  H   UNL     1      -6.300   9.921  -7.247  1.00  0.00     0.211 HD
ENDBRANCH  14  18
BRANCH  15  20
ATOM     20  O   UNL     1      -6.965  11.464  -9.664  1.00  0.00    -0.385 OA
ATOM     21  H   UNL     1      -7.733  11.271  -9.046  1.00  0.00     0.211 HD
ENDBRANCH  15  20
ENDBRANCH   8   9
ENDBRANCH   7   8
ENDBRANCH   1   7
BRANCH   2  22
ATOM     22  O   UNL     1      -1.312  13.924  -8.982  1.00  0.00    -0.387 OA
ATOM     23  H   UNL     1      -1.997  14.496  -8.518  1.00  0.00     0.211 HD
ENDBRANCH   2  22
BRANCH   3  24
ATOM     24  O   UNL     1      -0.523  11.169  -6.802  1.00  0.00    -0.387 OA
ATOM     25  H   UNL     1       0.423  11.065  -6.537  1.00  0.00     0.211 HD
ENDBRANCH   3  24
BRANCH   5  26
ATOM     26  O   UNL     1      -3.659  12.667  -4.896  1.00  0.00    -0.454 OA
BRANCH  26  27
ATOM     27  C   UNL     1      -3.670  11.353  -4.393  1.00  0.00     0.214 A 
ATOM     28  C   UNL     1      -2.558  10.853  -3.694  1.00  0.00     0.180 A 
ATOM     29  C   UNL     1      -4.766  10.496  -4.616  1.00  0.00     0.239 A 
ATOM     30  O   UNL     1      -2.576   9.624  -3.215  1.00  0.00    -0.452 OA
ATOM     31  C   UNL     1      -4.615   9.115  -4.334  1.00  0.00     0.111 A 
ATOM     32  O   UNL     1      -5.822  10.965  -5.096  1.00  0.00    -0.285 OA
ATOM     33  C   UNL     1      -3.517   8.750  -3.511  1.00  0.00     0.146 A 
ATOM     34  C   UNL     1      -5.466   8.108  -4.843  1.00  0.00     0.134 A 
ATOM     35  C   UNL     1      -3.401   7.434  -3.031  1.00  0.00     0.094 A 
ATOM     36  C   UNL     1      -5.224   6.784  -4.490  1.00  0.00     0.093 A 
ATOM     37  C   UNL     1      -4.254   6.444  -3.529  1.00  0.00     0.123 A 
BRANCH  28  38
ATOM     38  C   UNL     1      -1.316  11.658  -3.538  1.00  0.00     0.025 A 
ATOM     39  C   UNL     1      -0.064  11.178  -4.013  1.00  0.00     0.062 A 
ATOM     40  C   UNL     1      -1.351  12.902  -2.930  1.00  0.00     0.016 A 
ATOM     41  C   UNL     1       1.075  12.007  -3.956  1.00  0.00     0.158 A 
ATOM     42  C   UNL     1      -0.215  13.690  -2.875  1.00  0.00     0.051 A 
ATOM     43  C   UNL     1       0.996  13.269  -3.401  1.00  0.00     0.157 A 
BRANCH  41  44
ATOM     44  O   UNL     1       2.270  11.528  -4.475  1.00  0.00    -0.504 OA
ATOM     45  H   UNL     1       2.320  10.765  -5.111  1.00  0.00     0.293 HD
ENDBRANCH  41  44
BRANCH  43  46
ATOM     46  O   UNL     1       2.113  14.102  -3.406  1.00  0.00    -0.504 OA
ATOM     47  H   UNL     1       2.462  14.553  -4.222  1.00  0.00     0.293 HD
ENDBRANCH  43  46
ENDBRANCH  28  38
BRANCH  34  48
ATOM     48  O   UNL     1      -6.461   8.316  -5.782  1.00  0.00    -0.507 OA
ATOM     49  H   UNL     1      -6.624   7.716  -6.568  1.00  0.00     0.293 HD
ENDBRANCH  34  48
BRANCH  37  50
ATOM     50  O   UNL     1      -4.098   5.104  -3.121  1.00  0.00    -0.508 OA
ATOM     51  H   UNL     1      -4.202   4.318  -3.755  1.00  0.00     0.293 HD
ENDBRANCH  37  50
ENDBRANCH  26  27
ENDBRANCH   5  26
BRANCH   4  52
ATOM     52  O   UNL     1      -1.263  14.600  -6.008  1.00  0.00    -0.384 OA
ATOM     53  H   UNL     1      -1.602  14.942  -6.867  1.00  0.00     0.211 HD
ENDBRANCH   4  52
TORSDOF 16
ENDMDL
MODEL 8
REMARK VINA RESULT:    -3.998      1.686      2.601
REMARK INTER + INTRA:          -9.369
REMARK INTER:                  -8.303
REMARK INTRA:                  -1.066
REMARK UNBOUND:                -2.799
REMARK SMILES C[C@@H]1O[C@H](OC[C@H]2O[C@@H](Oc3c(-c4ccc(O)c(O)c4)oc4cc(O)cc(O)c4c3=O)[C@H](O)[C@@H](O)[C@@H]2O)[C@H](O)[C@H](O)[C@H]1O
REMARK SMILES IDX 7 1 36 2 34 3 32 4 9 5 8 6 6 7 5 8 4 9 1 10 2 11 42 12 3 13
REMARK SMILES IDX 40 14 38 15 43 16 41 18 39 20 37 22 35 24 10 26 11 27 12 28
REMARK SMILES IDX 30 29 21 30 29 31 31 32 22 33 27 34 23 35 26 36 24 37 13 38
REMARK SMILES IDX 20 39 14 40 18 41 15 42 16 43 19 44 17 46 28 48 25 50 33 52
REMARK H PARENT 43 17 41 19 39 21 37 23 35 25 19 45 17 47 28 49 25 51 33 53
REMARK Flexibility Score: inf
ROOT
ATOM      1  C   UNL     1      -4.841  10.046  -5.182  1.00  0.00     0.180 C 
ATOM      2  C   UNL     1      -5.995  10.633  -4.294  1.00  0.00     0.177 C 
ATOM      3  C   UNL     1      -6.199  12.151  -4.537  1.00  0.00     0.180 C 
ATOM      4  C   UNL     1      -4.833  12.911  -4.547  1.00  0.00     0.214 C 
ATOM      5  C   UNL     1      -3.706  12.098  -5.212  1.00  0.00     0.339 C 
ATOM      6  O   UNL     1      -4.288  11.054  -6.003  1.00  0.00    -0.332 OA
ENDROOT
BRANCH   1   7
ATOM      7  C   UNL     1      -5.335   8.868  -6.053  1.00  0.00     0.198 C 
BRANCH   7   8
ATOM      8  O   UNL     1      -6.347   8.137  -5.351  1.00  0.00    -0.347 OA
BRANCH   8   9
ATOM      9  C   UNL     1      -6.000   6.774  -5.111  1.00  0.00     0.281 C 
ATOM     10  C   UNL     1      -3.318   4.750  -6.580  1.00  0.00     0.041 C 
ATOM     11  C   UNL     1      -4.243   5.279  -5.468  1.00  0.00     0.150 C 
ATOM     12  C   UNL     1      -3.465   5.574  -4.182  1.00  0.00     0.174 C 
ATOM     13  O   UNL     1      -4.892   6.455  -5.932  1.00  0.00    -0.344 OA
ATOM     14  C   UNL     1      -4.196   6.669  -3.339  1.00  0.00     0.179 C 
ATOM     15  C   UNL     1      -5.703   6.583  -3.614  1.00  0.00     0.202 C 
BRANCH  12  16
ATOM     16  O   UNL     1      -3.212   4.418  -3.434  1.00  0.00    -0.388 OA
ATOM     17  H   UNL     1      -4.061   4.035  -3.176  1.00  0.00     0.211 HD
ENDBRANCH  12  16
BRANCH  14  18
ATOM     18  O   UNL     1      -3.725   7.970  -3.709  1.00  0.00    -0.387 OA
ATOM     19  H   UNL     1      -2.726   7.949  -3.684  1.00  0.00     0.211 HD
ENDBRANCH  14  18
BRANCH  15  20
ATOM     20  O   UNL     1      -6.373   7.582  -2.875  1.00  0.00    -0.385 OA
ATOM     21  H   UNL     1      -6.414   8.397  -3.462  1.00  0.00     0.211 HD
ENDBRANCH  15  20
ENDBRANCH   8   9
ENDBRANCH   7   8
ENDBRANCH   1   7
BRANCH   2  22
ATOM     22  O   UNL     1      -5.691  10.410  -2.937  1.00  0.00    -0.387 OA
ATOM     23  H   UNL     1      -6.316   9.698  -2.595  1.00  0.00     0.211 HD
ENDBRANCH   2  22
BRANCH   3  24
ATOM     24  O   UNL     1      -6.844  12.321  -5.762  1.00  0.00    -0.387 OA
ATOM     25  H   UNL     1      -6.845  13.290  -5.953  1.00  0.00     0.211 HD
ENDBRANCH   3  24
BRANCH   5  26
ATOM     26  O   UNL     1      -2.939  12.926  -6.080  1.00  0.00    -0.454 OA
BRANCH  26  27
ATOM     27  C   UNL     1      -1.740  12.481  -6.669  1.00  0.00     0.214 A 
ATOM     28  C   UNL     1      -1.754  11.881  -7.939  1.00  0.00     0.180 A 
ATOM     29  C   UNL     1      -0.512  12.581  -5.985  1.00  0.00     0.239 A 
ATOM     30  O   UNL     1      -0.628  11.476  -8.492  1.00  0.00    -0.452 OA
ATOM     31  C   UNL     1       0.607  11.878  -6.496  1.00  0.00     0.111 A 
ATOM     32  O   UNL     1      -0.453  13.247  -4.928  1.00  0.00    -0.285 OA
ATOM     33  C   UNL     1       0.518  11.429  -7.840  1.00  0.00     0.146 A 
ATOM     34  C   UNL     1       1.767  11.585  -5.743  1.00  0.00     0.134 A 
ATOM     35  C   UNL     1       1.646  10.891  -8.483  1.00  0.00     0.094 A 
ATOM     36  C   UNL     1       2.808  10.894  -6.355  1.00  0.00     0.093 A 
ATOM     37  C   UNL     1       2.794  10.614  -7.735  1.00  0.00     0.123 A 
BRANCH  28  38
ATOM     38  C   UNL     1      -3.031  11.624  -8.659  1.00  0.00     0.025 A 
ATOM     39  C   UNL     1      -3.290  10.366  -9.271  1.00  0.00     0.062 A 
ATOM     40  C   UNL     1      -4.005  12.605  -8.745  1.00  0.00     0.016 A 
ATOM     41  C   UNL     1      -4.551  10.110  -9.847  1.00  0.00     0.158 A 
ATOM     42  C   UNL     1      -5.230  12.330  -9.328  1.00  0.00     0.051 A 
ATOM     43  C   UNL     1      -5.526  11.086  -9.861  1.00  0.00     0.157 A 
BRANCH  41  44
ATOM     44  O   UNL     1      -4.789   8.854 -10.389  1.00  0.00    -0.504 OA
ATOM     45  H   UNL     1      -5.522   8.257 -10.078  1.00  0.00     0.293 HD
ENDBRANCH  41  44
BRANCH  43  46
ATOM     46  O   UNL     1      -6.789  10.801 -10.377  1.00  0.00    -0.504 OA
ATOM     47  H   UNL     1      -7.233  11.345 -11.083  1.00  0.00     0.293 HD
ENDBRANCH  43  46
ENDBRANCH  28  38
BRANCH  34  48
ATOM     48  O   UNL     1       1.906  11.819  -4.386  1.00  0.00    -0.507 OA
ATOM     49  H   UNL     1       2.330  11.174  -3.747  1.00  0.00     0.293 HD
ENDBRANCH  34  48
BRANCH  37  50
ATOM     50  O   UNL     1       3.906   9.999  -8.345  1.00  0.00    -0.508 OA
ATOM     51  H   UNL     1       4.842  10.038  -7.954  1.00  0.00     0.293 HD
ENDBRANCH  37  50
ENDBRANCH  26  27
ENDBRANCH   5  26
BRANCH   4  52
ATOM     52  O   UNL     1      -4.472  13.194  -3.200  1.00  0.00    -0.384 OA
ATOM     53  H   UNL     1      -4.300  12.327  -2.763  1.00  0.00     0.211 HD
ENDBRANCH   4  52
TORSDOF 16
ENDMDL
MODEL 9
REMARK VINA RESULT:    -3.960      2.372      5.873
REMARK INTER + INTRA:          -9.306
REMARK INTER:                  -8.664
REMARK INTRA:                  -0.643
REMARK UNBOUND:                -2.799
REMARK SMILES C[C@@H]1O[C@H](OC[C@H]2O[C@@H](Oc3c(-c4ccc(O)c(O)c4)oc4cc(O)cc(O)c4c3=O)[C@H](O)[C@@H](O)[C@@H]2O)[C@H](O)[C@H](O)[C@H]1O
REMARK SMILES IDX 7 1 36 2 34 3 32 4 9 5 8 6 6 7 5 8 4 9 1 10 2 11 42 12 3 13
REMARK SMILES IDX 40 14 38 15 43 16 41 18 39 20 37 22 35 24 10 26 11 27 12 28
REMARK SMILES IDX 30 29 21 30 29 31 31 32 22 33 27 34 23 35 26 36 24 37 13 38
REMARK SMILES IDX 20 39 14 40 18 41 15 42 16 43 19 44 17 46 28 48 25 50 33 52
REMARK H PARENT 43 17 41 19 39 21 37 23 35 25 19 45 17 47 28 49 25 51 33 53
REMARK Flexibility Score: inf
ROOT
ATOM      1  C   UNL     1      -4.795  12.318  -5.171  1.00  0.00     0.180 C 
ATOM      2  C   UNL     1      -4.877  12.729  -6.684  1.00  0.00     0.177 C 
ATOM      3  C   UNL     1      -3.492  12.665  -7.378  1.00  0.00     0.180 C 
ATOM      4  C   UNL     1      -2.387  13.341  -6.502  1.00  0.00     0.214 C 
ATOM      5  C   UNL     1      -2.585  13.083  -4.996  1.00  0.00     0.339 C 
ATOM      6  O   UNL     1      -3.470  11.969  -4.825  1.00  0.00    -0.332 OA
ENDROOT
BRANCH   1   7
ATOM      7  C   UNL     1      -5.751  11.148  -4.846  1.00  0.00     0.198 C 
BRANCH   7   8
ATOM      8  O   UNL     1      -5.784  10.228  -5.943  1.00  0.00    -0.347 OA
BRANCH   8   9
ATOM      9  C   UNL     1      -4.901   9.120  -5.783  1.00  0.00     0.281 C 
ATOM     10  C   UNL     1      -2.898   8.126  -2.876  1.00  0.00     0.041 C 
ATOM     11  C   UNL     1      -3.807   7.924  -4.103  1.00  0.00     0.150 C 
ATOM     12  C   UNL     1      -4.925   6.916  -3.815  1.00  0.00     0.174 C 
ATOM     13  O   UNL     1      -4.360   9.178  -4.477  1.00  0.00    -0.344 OA
ATOM     14  C   UNL     1      -6.159   7.191  -4.733  1.00  0.00     0.179 C 
ATOM     15  C   UNL     1      -5.672   7.815  -6.047  1.00  0.00     0.202 C 
BRANCH  12  16
ATOM     16  O   UNL     1      -4.485   5.590  -3.910  1.00  0.00    -0.388 OA
ATOM     17  H   UNL     1      -4.216   5.298  -3.028  1.00  0.00     0.211 HD
ENDBRANCH  12  16
BRANCH  14  18
ATOM     18  O   UNL     1      -7.059   8.100  -4.087  1.00  0.00    -0.387 OA
ATOM     19  H   UNL     1      -6.524   8.650  -3.446  1.00  0.00     0.211 HD
ENDBRANCH  14  18
BRANCH  15  20
ATOM     20  O   UNL     1      -6.781   8.089  -6.876  1.00  0.00    -0.385 OA
ATOM     21  H   UNL     1      -6.462   7.996  -7.825  1.00  0.00     0.211 HD
ENDBRANCH  15  20
ENDBRANCH   8   9
ENDBRANCH   7   8
ENDBRANCH   1   7
BRANCH   2  22
ATOM     22  O   UNL     1      -5.392  14.037  -6.779  1.00  0.00    -0.387 OA
ATOM     23  H   UNL     1      -6.396  13.973  -6.774  1.00  0.00     0.211 HD
ENDBRANCH   2  22
BRANCH   3  24
ATOM     24  O   UNL     1      -3.167  11.327  -7.599  1.00  0.00    -0.387 OA
ATOM     25  H   UNL     1      -2.229  11.307  -7.907  1.00  0.00     0.211 HD
ENDBRANCH   3  24
BRANCH   5  26
ATOM     26  O   UNL     1      -1.345  12.752  -4.379  1.00  0.00    -0.454 OA
BRANCH  26  27
ATOM     27  C   UNL     1      -0.232  12.321  -5.125  1.00  0.00     0.214 A 
ATOM     28  C   UNL     1       0.943  13.090  -5.155  1.00  0.00     0.180 A 
ATOM     29  C   UNL     1      -0.284  11.141  -5.894  1.00  0.00     0.239 A 
ATOM     30  O   UNL     1       1.987  12.678  -5.847  1.00  0.00    -0.452 OA
ATOM     31  C   UNL     1       0.750  10.899  -6.833  1.00  0.00     0.111 A 
ATOM     32  O   UNL     1      -1.256  10.365  -5.760  1.00  0.00    -0.285 OA
ATOM     33  C   UNL     1       1.940  11.657  -6.680  1.00  0.00     0.146 A 
ATOM     34  C   UNL     1       0.644   9.982  -7.904  1.00  0.00     0.134 A 
ATOM     35  C   UNL     1       3.078  11.350  -7.447  1.00  0.00     0.094 A 
ATOM     36  C   UNL     1       1.729   9.822  -8.760  1.00  0.00     0.093 A 
ATOM     37  C   UNL     1       2.969  10.434  -8.498  1.00  0.00     0.123 A 
BRANCH  28  38
ATOM     38  C   UNL     1       1.019  14.412  -4.475  1.00  0.00     0.025 A 
ATOM     39  C   UNL     1       2.268  14.962  -4.073  1.00  0.00     0.062 A 
ATOM     40  C   UNL     1      -0.128  15.145  -4.222  1.00  0.00     0.016 A 
ATOM     41  C   UNL     1       2.324  16.263  -3.535  1.00  0.00     0.158 A 
ATOM     42  C   UNL     1      -0.046  16.416  -3.680  1.00  0.00     0.051 A 
ATOM     43  C   UNL     1       1.169  16.996  -3.353  1.00  0.00     0.157 A 
BRANCH  41  44
ATOM     44  O   UNL     1       3.565  16.790  -3.202  1.00  0.00    -0.504 OA
ATOM     45  H   UNL     1       3.744  17.257  -2.342  1.00  0.00     0.293 HD
ENDBRANCH  41  44
BRANCH  43  46
ATOM     46  O   UNL     1       1.243  18.305  -2.879  1.00  0.00    -0.504 OA
ATOM     47  H   UNL     1       0.492  18.768  -2.417  1.00  0.00     0.293 HD
ENDBRANCH  43  46
ENDBRANCH  28  38
BRANCH  34  48
ATOM     48  O   UNL     1      -0.515   9.312  -8.257  1.00  0.00    -0.507 OA
ATOM     49  H   UNL     1      -0.573   8.319  -8.380  1.00  0.00     0.293 HD
ENDBRANCH  34  48
BRANCH  37  50
ATOM     50  O   UNL     1       4.078  10.175  -9.328  1.00  0.00    -0.508 OA
ATOM     51  H   UNL     1       4.079   9.451 -10.039  1.00  0.00     0.293 HD
ENDBRANCH  37  50
ENDBRANCH  26  27
ENDBRANCH   5  26
BRANCH   4  52
ATOM     52  O   UNL     1      -2.424  14.743  -6.743  1.00  0.00    -0.384 OA
ATOM     53  H   UNL     1      -3.372  15.012  -6.720  1.00  0.00     0.211 HD
ENDBRANCH   4  52
TORSDOF 16
ENDMDL
