MODEL 1
REMARK VINA RESULT:    21.966      0.000      0.000
REMARK INTER + INTRA:          33.534
REMARK INTER:                  33.523
REMARK INTRA:                   0.011
REMARK UNBOUND:                 0.011
REMARK SMILES CC1=CCC[C@@H](C)C(=O)C[C@H](C(C)C)C(=O)C1
REMARK SMILES IDX 8 1 9 2 6 3 7 4 5 5 4 6 3 7 2 8 1 9 10 11 11 12 15 13 16 14
REMARK SMILES IDX 17 15 12 17 13 18 14 19
REMARK H PARENT
REMARK Flexibility Score: 70.00
ROOT
ATOM      1  C   UNL     1      34.091  14.162  40.035  1.00  0.00     0.136 C 
ATOM      2  O   UNL     1      33.209  14.050  39.193  1.00  0.00    -0.299 OA
ENDROOT
BRANCH   1   3
ATOM      3  C   UNL     1      34.576  12.937  40.777  1.00  0.00     0.053 C 
ATOM      4  C   UNL     1      33.727  11.717  40.400  1.00  0.00     0.016 C 
BRANCH   3   5
ATOM      5  C   UNL     1      34.561  13.163  42.301  1.00  0.00     0.015 C 
BRANCH   5   6
ATOM      6  C   UNL     1      35.841  13.855  42.817  1.00  0.00     0.028 C 
BRANCH   6   7
ATOM      7  C   UNL     1      35.565  14.693  44.044  1.00  0.00    -0.028 C 
ATOM      8  C   UNL     1      35.346  16.029  44.093  1.00  0.00    -0.070 CG0
ATOM      9  C   UNL     1      35.138  16.648  45.454  1.00  0.00     0.039 C 
ATOM     10  G   UNL     1      35.271  16.939  42.878  1.00  0.00     0.000 G0
ENDBRANCH   6   7
ENDBRANCH   5   6
ENDBRANCH   3   5
ENDBRANCH   1   3
BRANCH   1  11
ATOM     11  C   UNL     1      34.744  15.502  40.284  1.00  0.00     0.087 C 
BRANCH  11  12
ATOM     12  C   UNL     1      33.754  16.593  40.760  1.00  0.00     0.066 C 
BRANCH  12  13
ATOM     13  C   UNL     1      33.961  17.015  42.209  1.00  0.00     0.140 C 
ATOM     14  O   UNL     1      33.001  17.459  42.822  1.00  0.00    -0.299 OA
BRANCH  13  15
ATOM     15  C   UNL     1      35.306  16.979  42.900  1.00  0.00     0.106 CG0
ATOM     16  G   UNL     1      35.299  16.000  44.063  1.00  0.00     0.000 G0
ENDBRANCH  13  15
ENDBRANCH  12  13
BRANCH  12  17
ATOM     17  C   UNL     1      33.692  17.802  39.776  1.00  0.00    -0.006 C 
ATOM     18  C   UNL     1      34.986  17.921  38.956  1.00  0.00     0.008 C 
ATOM     19  C   UNL     1      32.478  17.783  38.832  1.00  0.00     0.008 C 
ENDBRANCH  12  17
ENDBRANCH  11  12
ENDBRANCH   1  11
TORSDOF 1
ENDMDL
MODEL 2
REMARK VINA RESULT:    22.248      3.234      5.009
REMARK INTER + INTRA:          33.964
REMARK INTER:                  30.120
REMARK INTRA:                   3.844
REMARK UNBOUND:                 0.011
REMARK SMILES CC1=CCC[C@@H](C)C(=O)C[C@H](C(C)C)C(=O)C1
REMARK SMILES IDX 8 1 9 2 6 3 7 4 5 5 4 6 3 7 2 8 1 9 10 11 11 12 15 13 16 14
REMARK SMILES IDX 17 15 12 17 13 18 14 19
REMARK H PARENT
REMARK Flexibility Score: 70.00
ROOT
ATOM      1  C   UNL     1      35.065  12.576  40.394  1.00  0.00     0.136 C 
ATOM      2  O   UNL     1      34.198  12.891  39.589  1.00  0.00    -0.299 OA
ENDROOT
BRANCH   1   3
ATOM      3  C   UNL     1      35.619  11.169  40.386  1.00  0.00     0.053 C 
ATOM      4  C   UNL     1      37.100  11.185  39.987  1.00  0.00     0.016 C 
BRANCH   3   5
ATOM      5  C   UNL     1      34.810  10.255  39.446  1.00  0.00     0.015 C 
BRANCH   5   6
ATOM      6  C   UNL     1      33.926   9.244  40.209  1.00  0.00     0.028 C 
BRANCH   6   7
ATOM      7  C   UNL     1      32.710   9.910  40.810  1.00  0.00    -0.028 C 
ATOM      8  C   UNL     1      32.685  10.814  41.819  1.00  0.00    -0.070 CG0
ATOM      9  C   UNL     1      31.332  11.303  42.277  1.00  0.00     0.039 C 
ATOM     10  G   UNL     1      33.917  11.385  42.502  1.00  0.00     0.000 G0
ENDBRANCH   6   7
ENDBRANCH   5   6
ENDBRANCH   3   5
ENDBRANCH   1   3
BRANCH   1  11
ATOM     11  C   UNL     1      35.634  13.603  41.346  1.00  0.00     0.087 C 
BRANCH  11  12
ATOM     12  C   UNL     1      34.686  13.950  42.520  1.00  0.00     0.066 C 
BRANCH  12  13
ATOM     13  C   UNL     1      33.699  12.840  42.856  1.00  0.00     0.140 C 
ATOM     14  O   UNL     1      32.708  13.130  43.511  1.00  0.00    -0.299 OA
BRANCH  13  15
ATOM     15  C   UNL     1      33.920  11.391  42.483  1.00  0.00     0.106 CG0
ATOM     16  G   UNL     1      32.686  10.801  41.820  1.00  0.00     0.000 G0
ENDBRANCH  13  15
ENDBRANCH  12  13
BRANCH  12  17
ATOM     17  C   UNL     1      35.462  14.476  43.767  1.00  0.00    -0.006 C 
ATOM     18  C   UNL     1      36.816  13.767  43.922  1.00  0.00     0.008 C 
ATOM     19  C   UNL     1      35.667  16.000  43.784  1.00  0.00     0.008 C 
ENDBRANCH  12  17
ENDBRANCH  11  12
ENDBRANCH   1  11
TORSDOF 1
ENDMDL
MODEL 3
REMARK VINA RESULT:    22.264      1.921      4.796
REMARK INTER + INTRA:          33.989
REMARK INTER:                  33.142
REMARK INTRA:                   0.847
REMARK UNBOUND:                 0.011
REMARK SMILES CC1=CCC[C@@H](C)C(=O)C[C@H](C(C)C)C(=O)C1
REMARK SMILES IDX 8 1 9 2 6 3 7 4 5 5 4 6 3 7 2 8 1 9 10 11 11 12 15 13 16 14
REMARK SMILES IDX 17 15 12 17 13 18 14 19
REMARK H PARENT
REMARK Flexibility Score: 70.00
ROOT
ATOM      1  C   UNL     1      35.904  14.335  43.536  1.00  0.00     0.136 C 
ATOM      2  O   UNL     1      36.329  13.768  44.534  1.00  0.00    -0.299 OA
ENDROOT
BRANCH   1   3
ATOM      3  C   UNL     1      35.370  15.745  43.647  1.00  0.00     0.053 C 
ATOM      4  C   UNL     1      35.580  16.281  45.068  1.00  0.00     0.016 C 
BRANCH   3   5
ATOM      5  C   UNL     1      33.883  15.814  43.251  1.00  0.00     0.015 C 
BRANCH   5   6
ATOM      6  C   UNL     1      33.423  17.245  42.898  1.00  0.00     0.028 C 
BRANCH   6   7
ATOM      7  C   UNL     1      34.033  17.722  41.600  1.00  0.00    -0.028 C 
ATOM      8  C   UNL     1      34.098  17.047  40.427  1.00  0.00    -0.070 CG0
ATOM      9  C   UNL     1      34.804  17.722  39.277  1.00  0.00     0.039 C 
ATOM     10  G   UNL     1      33.493  15.674  40.184  1.00  0.00     0.000 G0
ENDBRANCH   6   7
ENDBRANCH   5   6
ENDBRANCH   3   5
ENDBRANCH   1   3
BRANCH   1  11
ATOM     11  C   UNL     1      35.975  13.660  42.186  1.00  0.00     0.087 C 
BRANCH  11  12
ATOM     12  C   UNL     1      34.613  13.598  41.452  1.00  0.00     0.066 C 
BRANCH  12  13
ATOM     13  C   UNL     1      34.527  14.524  40.245  1.00  0.00     0.140 C 
ATOM     14  O   UNL     1      35.354  14.389  39.356  1.00  0.00    -0.299 OA
BRANCH  13  15
ATOM     15  C   UNL     1      33.516  15.643  40.129  1.00  0.00     0.106 CG0
ATOM     16  G   UNL     1      34.149  16.989  40.442  1.00  0.00     0.000 G0
ENDBRANCH  13  15
ENDBRANCH  12  13
BRANCH  12  17
ATOM     17  C   UNL     1      34.184  12.133  41.129  1.00  0.00    -0.006 C 
ATOM     18  C   UNL     1      33.768  11.380  42.402  1.00  0.00     0.008 C 
ATOM     19  C   UNL     1      33.074  12.022  40.072  1.00  0.00     0.008 C 
ENDBRANCH  12  17
ENDBRANCH  11  12
ENDBRANCH   1  11
TORSDOF 1
ENDMDL
MODEL 4
REMARK VINA RESULT:    22.433      2.911      5.217
REMARK INTER + INTRA:          34.246
REMARK INTER:                  33.036
REMARK INTRA:                   1.211
REMARK UNBOUND:                 0.011
REMARK SMILES CC1=CCC[C@@H](C)C(=O)C[C@H](C(C)C)C(=O)C1
REMARK SMILES IDX 8 1 9 2 6 3 7 4 5 5 4 6 3 7 2 8 1 9 10 11 11 12 15 13 16 14
REMARK SMILES IDX 17 15 12 17 13 18 14 19
REMARK H PARENT
REMARK Flexibility Score: 70.00
ROOT
ATOM      1  C   UNL     1      33.661  11.564  43.018  1.00  0.00     0.136 C 
ATOM      2  O   UNL     1      34.189  10.671  43.667  1.00  0.00    -0.299 OA
ENDROOT
BRANCH   1   3
ATOM      3  C   UNL     1      32.616  11.218  41.981  1.00  0.00     0.053 C 
ATOM      4  C   UNL     1      31.218  11.233  42.611  1.00  0.00     0.016 C 
BRANCH   3   5
ATOM      5  C   UNL     1      32.906   9.853  41.328  1.00  0.00     0.015 C 
BRANCH   5   6
ATOM      6  C   UNL     1      33.215   9.965  39.819  1.00  0.00     0.028 C 
BRANCH   6   7
ATOM      7  C   UNL     1      32.753  11.288  39.253  1.00  0.00    -0.028 C 
ATOM      8  C   UNL     1      33.391  12.480  39.330  1.00  0.00    -0.070 CG0
ATOM      9  C   UNL     1      32.701  13.677  38.721  1.00  0.00     0.039 C 
ATOM     10  G   UNL     1      34.757  12.693  39.963  1.00  0.00     0.000 G0
ENDBRANCH   6   7
ENDBRANCH   5   6
ENDBRANCH   3   5
ENDBRANCH   1   3
BRANCH   1  11
ATOM     11  C   UNL     1      33.994  13.011  43.298  1.00  0.00     0.087 C 
BRANCH  11  12
ATOM     12  C   UNL     1      35.162  13.554  42.439  1.00  0.00     0.066 C 
BRANCH  12  13
ATOM     13  C   UNL     1      34.787  13.801  40.984  1.00  0.00     0.140 C 
ATOM     14  O   UNL     1      34.414  14.921  40.667  1.00  0.00    -0.299 OA
BRANCH  13  15
ATOM     15  C   UNL     1      34.786  12.714  39.931  1.00  0.00     0.106 CG0
ATOM     16  G   UNL     1      33.390  12.496  39.370  1.00  0.00     0.000 G0
ENDBRANCH  13  15
ENDBRANCH  12  13
BRANCH  12  17
ATOM     17  C   UNL     1      35.863  14.779  43.105  1.00  0.00    -0.006 C 
ATOM     18  C   UNL     1      34.886  15.566  43.992  1.00  0.00     0.008 C 
ATOM     19  C   UNL     1      37.124  14.422  43.908  1.00  0.00     0.008 C 
ENDBRANCH  12  17
ENDBRANCH  11  12
ENDBRANCH   1  11
TORSDOF 1
ENDMDL
MODEL 5
REMARK VINA RESULT:    23.446      1.879      4.967
REMARK INTER + INTRA:          35.793
REMARK INTER:                  33.863
REMARK INTRA:                   1.930
REMARK UNBOUND:                 0.011
REMARK SMILES CC1=CCC[C@@H](C)C(=O)C[C@H](C(C)C)C(=O)C1
REMARK SMILES IDX 8 1 9 2 6 3 7 4 5 5 4 6 3 7 2 8 1 9 10 11 11 12 15 13 16 14
REMARK SMILES IDX 17 15 12 17 13 18 14 19
REMARK H PARENT
REMARK Flexibility Score: 70.00
ROOT
ATOM      1  C   UNL     1      34.122  17.082  41.812  1.00  0.00     0.136 C 
ATOM      2  O   UNL     1      33.211  17.710  42.335  1.00  0.00    -0.299 OA
ENDROOT
BRANCH   1   3
ATOM      3  C   UNL     1      34.186  16.972  40.305  1.00  0.00     0.053 C 
ATOM      4  C   UNL     1      33.393  18.113  39.656  1.00  0.00     0.016 C 
BRANCH   3   5
ATOM      5  C   UNL     1      33.671  15.604  39.821  1.00  0.00     0.015 C 
BRANCH   5   6
ATOM      6  C   UNL     1      34.705  14.473  40.012  1.00  0.00     0.028 C 
BRANCH   6   7
ATOM      7  C   UNL     1      34.039  13.120  40.116  1.00  0.00    -0.028 C 
ATOM      8  C   UNL     1      34.000  12.306  41.198  1.00  0.00    -0.070 CG0
ATOM      9  C   UNL     1      33.307  10.975  41.040  1.00  0.00     0.039 C 
ATOM     10  G   UNL     1      34.584  12.648  42.560  1.00  0.00     0.000 G0
ENDBRANCH   6   7
ENDBRANCH   5   6
ENDBRANCH   3   5
ENDBRANCH   1   3
BRANCH   1  11
ATOM     11  C   UNL     1      35.219  16.479  42.659  1.00  0.00     0.087 C 
BRANCH  11  12
ATOM     12  C   UNL     1      34.809  15.156  43.351  1.00  0.00     0.066 C 
BRANCH  12  13
ATOM     13  C   UNL     1      35.335  13.911  42.650  1.00  0.00     0.140 C 
ATOM     14  O   UNL     1      36.395  13.994  42.046  1.00  0.00    -0.299 OA
BRANCH  13  15
ATOM     15  C   UNL     1      34.578  12.602  42.604  1.00  0.00     0.106 CG0
ATOM     16  G   UNL     1      34.032  12.332  41.211  1.00  0.00     0.000 G0
ENDBRANCH  13  15
ENDBRANCH  12  13
BRANCH  12  17
ATOM     17  C   UNL     1      35.118  15.172  44.880  1.00  0.00    -0.006 C 
ATOM     18  C   UNL     1      36.536  14.656  45.169  1.00  0.00     0.008 C 
ATOM     19  C   UNL     1      34.917  16.542  45.549  1.00  0.00     0.008 C 
ENDBRANCH  12  17
ENDBRANCH  11  12
ENDBRANCH   1  11
TORSDOF 1
ENDMDL
MODEL 6
REMARK VINA RESULT:    24.405      3.473      5.379
REMARK INTER + INTRA:          37.256
REMARK INTER:                  36.154
REMARK INTRA:                   1.103
REMARK UNBOUND:                 0.011
REMARK SMILES CC1=CCC[C@@H](C)C(=O)C[C@H](C(C)C)C(=O)C1
REMARK SMILES IDX 8 1 9 2 6 3 7 4 5 5 4 6 3 7 2 8 1 9 10 11 11 12 15 13 16 14
REMARK SMILES IDX 17 15 12 17 13 18 14 19
REMARK H PARENT
REMARK Flexibility Score: 70.00
ROOT
ATOM      1  C   UNL     1      33.447  12.488  40.304  1.00  0.00     0.136 C 
ATOM      2  O   UNL     1      33.383  13.207  39.315  1.00  0.00    -0.299 OA
ENDROOT
BRANCH   1   3
ATOM      3  C   UNL     1      33.271  10.994  40.156  1.00  0.00     0.053 C 
ATOM      4  C   UNL     1      31.932  10.683  39.477  1.00  0.00     0.016 C 
BRANCH   3   5
ATOM      5  C   UNL     1      33.372  10.281  41.517  1.00  0.00     0.015 C 
BRANCH   5   6
ATOM      6  C   UNL     1      34.752   9.629  41.751  1.00  0.00     0.028 C 
BRANCH   6   7
ATOM      7  C   UNL     1      35.534   9.505  40.464  1.00  0.00    -0.028 C 
ATOM      8  C   UNL     1      36.511  10.330  40.014  1.00  0.00    -0.070 CG0
ATOM      9  C   UNL     1      37.114  10.019  38.666  1.00  0.00     0.039 C 
ATOM     10  G   UNL     1      37.054  11.526  40.778  1.00  0.00     0.000 G0
ENDBRANCH   6   7
ENDBRANCH   5   6
ENDBRANCH   3   5
ENDBRANCH   1   3
BRANCH   1  11
ATOM     11  C   UNL     1      33.771  13.079  41.657  1.00  0.00     0.087 C 
BRANCH  11  12
ATOM     12  C   UNL     1      35.281  13.050  41.998  1.00  0.00     0.066 C 
BRANCH  12  13
ATOM     13  C   UNL     1      36.171  12.732  40.804  1.00  0.00     0.140 C 
ATOM     14  O   UNL     1      36.083  13.444  39.814  1.00  0.00    -0.299 OA
BRANCH  13  15
ATOM     15  C   UNL     1      37.104  11.542  40.758  1.00  0.00     0.106 CG0
ATOM     16  G   UNL     1      36.465  10.373  40.024  1.00  0.00     0.000 G0
ENDBRANCH  13  15
ENDBRANCH  12  13
BRANCH  12  17
ATOM     17  C   UNL     1      35.733  14.326  42.774  1.00  0.00    -0.006 C 
ATOM     18  C   UNL     1      34.538  15.032  43.432  1.00  0.00     0.008 C 
ATOM     19  C   UNL     1      36.828  14.069  43.823  1.00  0.00     0.008 C 
ENDBRANCH  12  17
ENDBRANCH  11  12
ENDBRANCH   1  11
TORSDOF 1
ENDMDL
MODEL 7
REMARK VINA RESULT:    24.469      6.075      8.764
REMARK INTER + INTRA:          37.354
REMARK INTER:                  36.286
REMARK INTRA:                   1.068
REMARK UNBOUND:                 0.011
REMARK SMILES CC1=CCC[C@@H](C)C(=O)C[C@H](C(C)C)C(=O)C1
REMARK SMILES IDX 8 1 9 2 6 3 7 4 5 5 4 6 3 7 2 8 1 9 10 11 11 12 15 13 16 14
REMARK SMILES IDX 17 15 12 17 13 18 14 19
REMARK H PARENT
REMARK Flexibility Score: 70.00
ROOT
ATOM      1  C   UNL     1      30.350   8.001  41.252  1.00  0.00     0.136 C 
ATOM      2  O   UNL     1      29.778   8.575  42.170  1.00  0.00    -0.299 OA
ENDROOT
BRANCH   1   3
ATOM      3  C   UNL     1      30.153   6.514  41.061  1.00  0.00     0.053 C 
ATOM      4  C   UNL     1      28.680   6.143  41.275  1.00  0.00     0.016 C 
BRANCH   3   5
ATOM      5  C   UNL     1      31.063   5.703  42.003  1.00  0.00     0.015 C 
BRANCH   5   6
ATOM      6  C   UNL     1      32.118   4.869  41.245  1.00  0.00     0.028 C 
BRANCH   6   7
ATOM      7  C   UNL     1      33.524   5.280  41.615  1.00  0.00    -0.028 C 
ATOM      8  C   UNL     1      34.287   6.226  41.016  1.00  0.00    -0.070 CG0
ATOM      9  C   UNL     1      35.688   6.423  41.543  1.00  0.00     0.039 C 
ATOM     10  G   UNL     1      33.825   7.114  39.872  1.00  0.00     0.000 G0
ENDBRANCH   6   7
ENDBRANCH   5   6
ENDBRANCH   3   5
ENDBRANCH   1   3
BRANCH   1  11
ATOM     11  C   UNL     1      31.192   8.781  40.269  1.00  0.00     0.087 C 
BRANCH  11  12
ATOM     12  C   UNL     1      32.535   9.274  40.860  1.00  0.00     0.066 C 
BRANCH  12  13
ATOM     13  C   UNL     1      33.756   8.596  40.251  1.00  0.00     0.140 C 
ATOM     14  O   UNL     1      34.739   9.284  40.015  1.00  0.00    -0.299 OA
BRANCH  13  15
ATOM     15  C   UNL     1      33.785   7.135  39.860  1.00  0.00     0.106 CG0
ATOM     16  G   UNL     1      34.302   6.273  41.000  1.00  0.00     0.000 G0
ENDBRANCH  13  15
ENDBRANCH  12  13
BRANCH  12  17
ATOM     17  C   UNL     1      32.641  10.831  40.866  1.00  0.00    -0.006 C 
ATOM     18  C   UNL     1      31.858  11.440  42.040  1.00  0.00     0.008 C 
ATOM     19  C   UNL     1      34.083  11.363  40.869  1.00  0.00     0.008 C 
ENDBRANCH  12  17
ENDBRANCH  11  12
ENDBRANCH   1  11
TORSDOF 1
ENDMDL
MODEL 8
REMARK VINA RESULT:    24.548      3.764      6.266
REMARK INTER + INTRA:          37.474
REMARK INTER:                  33.965
REMARK INTRA:                   3.510
REMARK UNBOUND:                 0.011
REMARK SMILES CC1=CCC[C@@H](C)C(=O)C[C@H](C(C)C)C(=O)C1
REMARK SMILES IDX 8 1 9 2 6 3 7 4 5 5 4 6 3 7 2 8 1 9 10 11 11 12 15 13 16 14
REMARK SMILES IDX 17 15 12 17 13 18 14 19
REMARK H PARENT
REMARK Flexibility Score: 70.00
ROOT
ATOM      1  C   UNL     1      34.899  13.667  41.097  1.00  0.00     0.136 C 
ATOM      2  O   UNL     1      34.512  14.584  40.384  1.00  0.00    -0.299 OA
ENDROOT
BRANCH   1   3
ATOM      3  C   UNL     1      34.583  13.684  42.576  1.00  0.00     0.053 C 
ATOM      4  C   UNL     1      35.878  13.771  43.393  1.00  0.00     0.016 C 
BRANCH   3   5
ATOM      5  C   UNL     1      33.759  12.449  42.986  1.00  0.00     0.015 C 
BRANCH   5   6
ATOM      6  C   UNL     1      32.438  12.322  42.198  1.00  0.00     0.028 C 
BRANCH   6   7
ATOM      7  C   UNL     1      31.892  10.913  42.249  1.00  0.00    -0.028 C 
ATOM      8  C   UNL     1      31.852  10.011  41.239  1.00  0.00    -0.070 CG0
ATOM      9  C   UNL     1      31.211   8.675  41.527  1.00  0.00     0.039 C 
ATOM     10  G   UNL     1      32.425  10.242  39.849  1.00  0.00     0.000 G0
ENDBRANCH   6   7
ENDBRANCH   5   6
ENDBRANCH   3   5
ENDBRANCH   1   3
BRANCH   1  11
ATOM     11  C   UNL     1      35.627  12.487  40.496  1.00  0.00     0.087 C 
BRANCH  11  12
ATOM     12  C   UNL     1      34.810  11.173  40.532  1.00  0.00     0.066 C 
BRANCH  12  13
ATOM     13  C   UNL     1      33.466  11.269  39.822  1.00  0.00     0.140 C 
ATOM     14  O   UNL     1      33.194  12.311  39.243  1.00  0.00    -0.299 OA
BRANCH  13  15
ATOM     15  C   UNL     1      32.426  10.171  39.860  1.00  0.00     0.106 CG0
ATOM     16  G   UNL     1      31.860  10.000  41.260  1.00  0.00     0.000 G0
ENDBRANCH  13  15
ENDBRANCH  12  13
BRANCH  12  17
ATOM     17  C   UNL     1      35.653   9.942  40.076  1.00  0.00    -0.006 C 
ATOM     18  C   UNL     1      34.937   9.153  38.968  1.00  0.00     0.008 C 
ATOM     19  C   UNL     1      37.081  10.291  39.625  1.00  0.00     0.008 C 
ENDBRANCH  12  17
ENDBRANCH  11  12
ENDBRANCH   1  11
TORSDOF 1
ENDMDL
MODEL 9
REMARK VINA RESULT:    24.636      3.560      5.613
REMARK INTER + INTRA:          37.609
REMARK INTER:                  36.729
REMARK INTRA:                   0.880
REMARK UNBOUND:                 0.011
REMARK SMILES CC1=CCC[C@@H](C)C(=O)C[C@H](C(C)C)C(=O)C1
REMARK SMILES IDX 8 1 9 2 6 3 7 4 5 5 4 6 3 7 2 8 1 9 10 11 11 12 15 13 16 14
REMARK SMILES IDX 17 15 12 17 13 18 14 19
REMARK H PARENT
REMARK Flexibility Score: 70.00
ROOT
ATOM      1  C   UNL     1      35.978  10.465  40.426  1.00  0.00     0.136 C 
ATOM      2  O   UNL     1      36.287  10.384  39.245  1.00  0.00    -0.299 OA
ENDROOT
BRANCH   1   3
ATOM      3  C   UNL     1      35.244   9.321  41.088  1.00  0.00     0.053 C 
ATOM      4  C   UNL     1      36.244   8.327  41.690  1.00  0.00     0.016 C 
BRANCH   3   5
ATOM      5  C   UNL     1      34.300   8.615  40.097  1.00  0.00     0.015 C 
BRANCH   5   6
ATOM      6  C   UNL     1      32.861   9.175  40.137  1.00  0.00     0.028 C 
BRANCH   6   7
ATOM      7  C   UNL     1      32.781  10.549  39.514  1.00  0.00    -0.028 C 
ATOM      8  C   UNL     1      32.667  11.736  40.156  1.00  0.00    -0.070 CG0
ATOM      9  C   UNL     1      32.558  12.978  39.305  1.00  0.00     0.039 C 
ATOM     10  G   UNL     1      32.663  11.906  41.667  1.00  0.00     0.000 G0
ENDBRANCH   6   7
ENDBRANCH   5   6
ENDBRANCH   3   5
ENDBRANCH   1   3
BRANCH   1  11
ATOM     11  C   UNL     1      36.389  11.669  41.242  1.00  0.00     0.087 C 
BRANCH  11  12
ATOM     12  C   UNL     1      35.214  12.622  41.574  1.00  0.00     0.066 C 
BRANCH  12  13
ATOM     13  C   UNL     1      34.033  11.926  42.237  1.00  0.00     0.140 C 
ATOM     14  O   UNL     1      34.242  11.280  43.254  1.00  0.00    -0.299 OA
BRANCH  13  15
ATOM     15  C   UNL     1      32.634  11.936  41.662  1.00  0.00     0.106 CG0
ATOM     16  G   UNL     1      32.656  11.698  40.161  1.00  0.00     0.000 G0
ENDBRANCH  13  15
ENDBRANCH  12  13
BRANCH  12  17
ATOM     17  C   UNL     1      35.686  13.892  42.346  1.00  0.00    -0.006 C 
ATOM     18  C   UNL     1      34.506  14.824  42.663  1.00  0.00     0.008 C 
ATOM     19  C   UNL     1      36.471  13.591  43.634  1.00  0.00     0.008 C 
ENDBRANCH  12  17
ENDBRANCH  11  12
ENDBRANCH   1  11
TORSDOF 1
ENDMDL
