MODEL 1
REMARK VINA RESULT:     1.623      0.000      0.000
REMARK INTER + INTRA:           3.649
REMARK INTER:                   2.287
REMARK INTRA:                   1.362
REMARK UNBOUND:                 1.362
REMARK SMILES CC1=CCC(=C(C)C)C(=O)CC(C)=CCC1
REMARK SMILES IDX 12 1 14 2 13 3 15 4 16 5 2 6 1 7 3 8 11 10 9 11 10 12 5 13
REMARK SMILES IDX 6 14 7 15 8 16 4 17
REMARK H PARENT
REMARK Flexibility Score: 60.00
ROOT
ATOM      1  C   UNL     1      24.214 -17.574   3.036  1.00  0.00    -0.070 C 
ATOM      2  C   UNL     1      25.438 -18.130   2.887  1.00  0.00    -0.027 C 
ATOM      3  C   UNL     1      23.169 -18.351   3.795  1.00  0.00     0.039 C 
ENDROOT
BRANCH   2   4
ATOM      4  C   UNL     1      26.635 -17.436   2.288  1.00  0.00     0.032 C 
BRANCH   4   5
ATOM      5  C   UNL     1      27.114 -18.203   1.050  1.00  0.00     0.034 C 
BRANCH   5   6
ATOM      6  C   UNL     1      25.995 -18.966   0.371  1.00  0.00    -0.077 C 
ATOM      7  C   UNL     1      26.029 -20.474   0.394  1.00  0.00     0.039 C 
ATOM      8  C   UNL     1      24.993 -18.369  -0.323  1.00  0.00    -0.023 CG0
ATOM      9  G   UNL     1      24.712 -16.882  -0.442  1.00  0.00     0.000 G0
ENDBRANCH   5   6
ENDBRANCH   4   5
ENDBRANCH   2   4
BRANCH   1  10
ATOM     10  C   UNL     1      23.836 -16.222   2.463  1.00  0.00     0.111 C 
BRANCH  10  11
ATOM     11  C   UNL     1      22.848 -16.346   1.329  1.00  0.00     0.163 C 
ATOM     12  O   UNL     1      21.625 -16.370   1.634  1.00  0.00    -0.294 OA
BRANCH  11  13
ATOM     13  C   UNL     1      23.243 -16.463  -0.114  1.00  0.00    -0.002 C 
ATOM     14  C   UNL     1      22.301 -16.372  -1.103  1.00  0.00    -0.069 C 
ATOM     15  C   UNL     1      20.902 -15.875  -0.817  1.00  0.00     0.039 C 
ATOM     16  C   UNL     1      22.614 -16.712  -2.542  1.00  0.00     0.039 C 
BRANCH  13  17
ATOM     17  C   UNL     1      24.680 -16.863  -0.429  1.00  0.00     0.066 CG0
ATOM     18  G   UNL     1      25.003 -18.344  -0.347  1.00  0.00     0.000 G0
ENDBRANCH  13  17
ENDBRANCH  11  13
ENDBRANCH  10  11
ENDBRANCH   1  10
TORSDOF 0
ENDMDL
MODEL 2
REMARK VINA RESULT:     1.658      1.638      3.889
REMARK INTER + INTRA:           3.699
REMARK INTER:                   2.244
REMARK INTRA:                   1.455
REMARK UNBOUND:                 1.362
REMARK SMILES CC1=CCC(=C(C)C)C(=O)CC(C)=CCC1
REMARK SMILES IDX 12 1 14 2 13 3 15 4 16 5 2 6 1 7 3 8 11 10 9 11 10 12 5 13
REMARK SMILES IDX 6 14 7 15 8 16 4 17
REMARK H PARENT
REMARK Flexibility Score: 60.00
ROOT
ATOM      1  C   UNL     1      23.167 -17.107   2.846  1.00  0.00    -0.070 C 
ATOM      2  C   UNL     1      22.020 -16.795   2.200  1.00  0.00    -0.027 C 
ATOM      3  C   UNL     1      23.114 -18.164   3.919  1.00  0.00     0.039 C 
ENDROOT
BRANCH   2   4
ATOM      4  C   UNL     1      21.920 -15.875   1.010  1.00  0.00     0.032 C 
BRANCH   4   5
ATOM      5  C   UNL     1      23.245 -15.879   0.238  1.00  0.00     0.034 C 
BRANCH   5   6
ATOM      6  C   UNL     1      23.212 -16.798  -0.965  1.00  0.00    -0.077 C 
ATOM      7  C   UNL     1      22.053 -16.694  -1.924  1.00  0.00     0.039 C 
ATOM      8  C   UNL     1      24.135 -17.767  -1.195  1.00  0.00    -0.023 CG0
ATOM      9  G   UNL     1      25.410 -18.030  -0.414  1.00  0.00     0.000 G0
ENDBRANCH   5   6
ENDBRANCH   4   5
ENDBRANCH   2   4
BRANCH   1  10
ATOM     10  C   UNL     1      24.495 -16.434   2.557  1.00  0.00     0.111 C 
BRANCH  10  11
ATOM     11  C   UNL     1      25.540 -17.424   2.101  1.00  0.00     0.163 C 
ATOM     12  O   UNL     1      26.680 -17.341   2.634  1.00  0.00    -0.294 OA
BRANCH  11  13
ATOM     13  C   UNL     1      25.300 -18.467   1.048  1.00  0.00    -0.002 C 
ATOM     14  C   UNL     1      25.130 -19.780   1.396  1.00  0.00    -0.069 C 
ATOM     15  C   UNL     1      24.890 -20.192   2.831  1.00  0.00     0.039 C 
ATOM     16  C   UNL     1      25.118 -20.886   0.367  1.00  0.00     0.039 C 
BRANCH  13  17
ATOM     17  C   UNL     1      25.435 -18.049  -0.412  1.00  0.00     0.066 CG0
ATOM     18  G   UNL     1      24.142 -17.780  -1.161  1.00  0.00     0.000 G0
ENDBRANCH  13  17
ENDBRANCH  11  13
ENDBRANCH  10  11
ENDBRANCH   1  10
TORSDOF 0
ENDMDL
MODEL 3
REMARK VINA RESULT:     2.877      1.312      1.855
REMARK INTER + INTRA:           5.417
REMARK INTER:                   4.167
REMARK INTRA:                   1.250
REMARK UNBOUND:                 1.362
REMARK SMILES CC1=CCC(=C(C)C)C(=O)CC(C)=CCC1
REMARK SMILES IDX 12 1 14 2 13 3 15 4 16 5 2 6 1 7 3 8 11 10 9 11 10 12 5 13
REMARK SMILES IDX 6 14 7 15 8 16 4 17
REMARK H PARENT
REMARK Flexibility Score: 60.00
ROOT
ATOM      1  C   UNL     1      24.124 -18.974   3.169  1.00  0.00    -0.070 C 
ATOM      2  C   UNL     1      24.753 -19.959   2.486  1.00  0.00    -0.027 C 
ATOM      3  C   UNL     1      22.812 -19.300   3.837  1.00  0.00     0.039 C 
ENDROOT
BRANCH   2   4
ATOM      4  C   UNL     1      26.131 -19.850   1.886  1.00  0.00     0.032 C 
BRANCH   4   5
ATOM      5  C   UNL     1      26.234 -18.569   1.051  1.00  0.00     0.034 C 
BRANCH   5   6
ATOM      6  C   UNL     1      25.237 -18.539  -0.090  1.00  0.00    -0.077 C 
ATOM      7  C   UNL     1      25.164 -19.725  -1.019  1.00  0.00     0.039 C 
ATOM      8  C   UNL     1      24.450 -17.469  -0.371  1.00  0.00    -0.023 CG0
ATOM      9  G   UNL     1      24.303 -16.194   0.439  1.00  0.00     0.000 G0
ENDBRANCH   5   6
ENDBRANCH   4   5
ENDBRANCH   2   4
BRANCH   1  10
ATOM     10  C   UNL     1      24.662 -17.561   3.279  1.00  0.00     0.111 C 
BRANCH  10  11
ATOM     11  C   UNL     1      23.614 -16.531   2.931  1.00  0.00     0.163 C 
ATOM     12  O   UNL     1      23.031 -15.959   3.892  1.00  0.00    -0.294 OA
BRANCH  11  13
ATOM     13  C   UNL     1      23.225 -16.177   1.525  1.00  0.00    -0.002 C 
ATOM     14  C   UNL     1      21.909 -16.004   1.190  1.00  0.00    -0.069 C 
ATOM     15  C   UNL     1      20.836 -15.877   2.247  1.00  0.00     0.039 C 
ATOM     16  C   UNL     1      21.459 -15.877  -0.247  1.00  0.00     0.039 C 
BRANCH  13  17
ATOM     17  C   UNL     1      24.315 -16.197   0.459  1.00  0.00     0.066 CG0
ATOM     18  G   UNL     1      24.438 -17.471  -0.358  1.00  0.00     0.000 G0
ENDBRANCH  13  17
ENDBRANCH  11  13
ENDBRANCH  10  11
ENDBRANCH   1  10
TORSDOF 0
ENDMDL
MODEL 4
REMARK VINA RESULT:     3.011      1.826      4.224
REMARK INTER + INTRA:           5.606
REMARK INTER:                   1.701
REMARK INTRA:                   3.904
REMARK UNBOUND:                 1.362
REMARK SMILES CC1=CCC(=C(C)C)C(=O)CC(C)=CCC1
REMARK SMILES IDX 12 1 14 2 13 3 15 4 16 5 2 6 1 7 3 8 11 10 9 11 10 12 5 13
REMARK SMILES IDX 6 14 7 15 8 16 4 17
REMARK H PARENT
REMARK Flexibility Score: 60.00
ROOT
ATOM      1  C   UNL     1      25.309 -19.998   0.788  1.00  0.00    -0.070 C 
ATOM      2  C   UNL     1      24.792 -19.246  -0.211  1.00  0.00    -0.027 C 
ATOM      3  C   UNL     1      24.938 -21.458   0.842  1.00  0.00     0.039 C 
ENDROOT
BRANCH   2   4
ATOM      4  C   UNL     1      25.169 -17.815  -0.501  1.00  0.00     0.032 C 
BRANCH   4   5
ATOM      5  C   UNL     1      24.105 -17.169  -1.396  1.00  0.00     0.034 C 
BRANCH   5   6
ATOM      6  C   UNL     1      23.032 -16.456  -0.599  1.00  0.00    -0.077 C 
ATOM      7  C   UNL     1      21.679 -16.246  -1.233  1.00  0.00     0.039 C 
ATOM      8  C   UNL     1      23.238 -15.928   0.634  1.00  0.00    -0.023 CG0
ATOM      9  G   UNL     1      24.482 -16.056   1.496  1.00  0.00     0.000 G0
ENDBRANCH   5   6
ENDBRANCH   4   5
ENDBRANCH   2   4
BRANCH   1  10
ATOM     10  C   UNL     1      26.223 -19.442   1.862  1.00  0.00     0.111 C 
BRANCH  10  11
ATOM     11  C   UNL     1      26.059 -17.950   2.025  1.00  0.00     0.163 C 
ATOM     12  O   UNL     1      27.105 -17.248   1.963  1.00  0.00    -0.294 OA
BRANCH  11  13
ATOM     13  C   UNL     1      24.741 -17.277   2.275  1.00  0.00    -0.002 C 
ATOM     14  C   UNL     1      23.779 -17.888   3.034  1.00  0.00    -0.069 C 
ATOM     15  C   UNL     1      24.093 -19.105   3.875  1.00  0.00     0.039 C 
ATOM     16  C   UNL     1      22.367 -17.357   3.118  1.00  0.00     0.039 C 
BRANCH  13  17
ATOM     17  C   UNL     1      24.444 -15.990   1.513  1.00  0.00     0.066 CG0
ATOM     18  G   UNL     1      23.223 -16.003   0.612  1.00  0.00     0.000 G0
ENDBRANCH  13  17
ENDBRANCH  11  13
ENDBRANCH  10  11
ENDBRANCH   1  10
TORSDOF 0
ENDMDL
