MODEL 1
REMARK VINA RESULT:    -3.421      0.000      0.000
REMARK INTER + INTRA:          -3.621
REMARK INTER:                  -3.621
REMARK INTRA:                   0.000
REMARK UNBOUND:                 0.000
REMARK SMILES O=c1ccc2cc(O)c(O)cc2o1
REMARK SMILES IDX 4 1 3 2 2 3 1 4 13 5 12 6 11 7 9 8 7 9 6 10 5 11 8 12 10 14
REMARK H PARENT 8 13 10 15
REMARK Flexibility Score: inf
ROOT
ATOM      1  C   UNL     1      -9.787   2.940  -5.148  1.00  0.00     0.019 A 
ATOM      2  C   UNL     1      -9.622   1.567  -5.332  1.00  0.00     0.094 A 
ATOM      3  C   UNL     1      -9.470   1.071  -6.630  1.00  0.00     0.336 A 
ATOM      4  O   UNL     1      -9.321  -0.165  -6.818  1.00  0.00    -0.246 OA
ATOM      5  O   UNL     1      -9.483   1.897  -7.673  1.00  0.00    -0.423 OA
ATOM      6  C   UNL     1      -9.638   3.213  -7.541  1.00  0.00     0.142 A 
ATOM      7  C   UNL     1      -9.643   4.033  -8.674  1.00  0.00     0.098 A 
ATOM      8  C   UNL     1      -9.804   5.417  -8.545  1.00  0.00     0.161 A 
ATOM      9  C   UNL     1      -9.963   5.990  -7.269  1.00  0.00     0.158 A 
ATOM     10  C   UNL     1      -9.958   5.171  -6.129  1.00  0.00     0.062 A 
ATOM     11  C   UNL     1      -9.796   3.785  -6.261  1.00  0.00     0.022 A 
ENDROOT
BRANCH   9  12
ATOM     12  O   UNL     1     -10.124   7.368  -7.138  1.00  0.00    -0.504 OA
ATOM     13  H   UNL     1      -9.823   7.861  -6.306  1.00  0.00     0.293 HD
ENDBRANCH   9  12
BRANCH   8  14
ATOM     14  O   UNL     1      -9.806   6.208  -9.693  1.00  0.00    -0.504 OA
ATOM     15  H   UNL     1     -10.379   5.987 -10.498  1.00  0.00     0.293 HD
ENDBRANCH   8  14
TORSDOF 2
ENDMDL
MODEL 2
REMARK VINA RESULT:    -3.400     13.530     16.492
REMARK INTER + INTRA:          -3.599
REMARK INTER:                  -3.599
REMARK INTRA:                   0.000
REMARK UNBOUND:                 0.000
REMARK SMILES O=c1ccc2cc(O)c(O)cc2o1
REMARK SMILES IDX 4 1 3 2 2 3 1 4 13 5 12 6 11 7 9 8 7 9 6 10 5 11 8 12 10 14
REMARK H PARENT 8 13 10 15
REMARK Flexibility Score: inf
ROOT
ATOM      1  C   UNL     1     -10.096  -4.162   4.047  1.00  0.00     0.019 A 
ATOM      2  C   UNL     1     -10.103  -2.768   4.045  1.00  0.00     0.094 A 
ATOM      3  C   UNL     1     -10.115  -2.089   5.268  1.00  0.00     0.336 A 
ATOM      4  O   UNL     1     -10.122  -0.830   5.288  1.00  0.00    -0.246 OA
ATOM      5  O   UNL     1     -10.121  -2.765   6.414  1.00  0.00    -0.423 OA
ATOM      6  C   UNL     1     -10.116  -4.095   6.460  1.00  0.00     0.142 A 
ATOM      7  C   UNL     1     -10.122  -4.752   7.694  1.00  0.00     0.098 A 
ATOM      8  C   UNL     1     -10.116  -6.150   7.751  1.00  0.00     0.161 A 
ATOM      9  C   UNL     1     -10.104  -6.903   6.562  1.00  0.00     0.158 A 
ATOM     10  C   UNL     1     -10.097  -6.248   5.320  1.00  0.00     0.062 A 
ATOM     11  C   UNL     1     -10.103  -4.848   5.265  1.00  0.00     0.022 A 
ENDROOT
BRANCH   9  12
ATOM     12  O   UNL     1     -10.098  -8.295   6.617  1.00  0.00    -0.504 OA
ATOM     13  H   UNL     1     -10.596  -8.800   7.341  1.00  0.00     0.293 HD
ENDBRANCH   9  12
BRANCH   8  14
ATOM     14  O   UNL     1     -10.124  -6.776   8.998  1.00  0.00    -0.504 OA
ATOM     15  H   UNL     1     -10.786  -7.506   9.229  1.00  0.00     0.293 HD
ENDBRANCH   8  14
TORSDOF 2
ENDMDL
MODEL 3
REMARK VINA RESULT:    -3.383     11.346     13.204
REMARK INTER + INTRA:          -3.581
REMARK INTER:                  -3.581
REMARK INTRA:                   0.000
REMARK UNBOUND:                 0.000
REMARK SMILES O=c1ccc2cc(O)c(O)cc2o1
REMARK SMILES IDX 4 1 3 2 2 3 1 4 13 5 12 6 11 7 9 8 7 9 6 10 5 11 8 12 10 14
REMARK H PARENT 8 13 10 15
REMARK Flexibility Score: inf
ROOT
ATOM      1  C   UNL     1     -10.046  -9.181  -2.812  1.00  0.00     0.019 A 
ATOM      2  C   UNL     1     -10.013  -8.603  -4.080  1.00  0.00     0.094 A 
ATOM      3  C   UNL     1      -9.987  -7.208  -4.189  1.00  0.00     0.336 A 
ATOM      4  O   UNL     1      -9.957  -6.667  -5.325  1.00  0.00    -0.246 OA
ATOM      5  O   UNL     1      -9.994  -6.448  -3.097  1.00  0.00    -0.423 OA
ATOM      6  C   UNL     1     -10.026  -6.959  -1.868  1.00  0.00     0.142 A 
ATOM      7  C   UNL     1     -10.032  -6.110  -0.758  1.00  0.00     0.098 A 
ATOM      8  C   UNL     1     -10.065  -6.639   0.537  1.00  0.00     0.161 A 
ATOM      9  C   UNL     1     -10.092  -8.033   0.726  1.00  0.00     0.158 A 
ATOM     10  C   UNL     1     -10.086  -8.890  -0.386  1.00  0.00     0.062 A 
ATOM     11  C   UNL     1     -10.053  -8.358  -1.682  1.00  0.00     0.022 A 
ENDROOT
BRANCH   9  12
ATOM     12  O   UNL     1     -10.125  -8.562   2.015  1.00  0.00    -0.504 OA
ATOM     13  H   UNL     1      -9.570  -8.168   2.766  1.00  0.00     0.293 HD
ENDBRANCH   9  12
BRANCH   8  14
ATOM     14  O   UNL     1     -10.071  -5.766   1.625  1.00  0.00    -0.504 OA
ATOM     15  H   UNL     1     -10.462  -4.834   1.565  1.00  0.00     0.293 HD
ENDBRANCH   8  14
TORSDOF 2
ENDMDL
MODEL 4
REMARK VINA RESULT:    -3.340     21.207     21.686
REMARK INTER + INTRA:          -3.535
REMARK INTER:                  -3.535
REMARK INTRA:                   0.000
REMARK UNBOUND:                 0.000
REMARK SMILES O=c1ccc2cc(O)c(O)cc2o1
REMARK SMILES IDX 4 1 3 2 2 3 1 4 13 5 12 6 11 7 9 8 7 9 6 10 5 11 8 12 10 14
REMARK H PARENT 8 13 10 15
REMARK Flexibility Score: inf
ROOT
ATOM      1  C   UNL     1       0.753  -7.122   7.773  1.00  0.00     0.019 A 
ATOM      2  C   UNL     1       1.478  -6.063   8.319  1.00  0.00     0.094 A 
ATOM      3  C   UNL     1       0.917  -5.327   9.368  1.00  0.00     0.336 A 
ATOM      4  O   UNL     1       1.555  -4.367   9.874  1.00  0.00    -0.246 OA
ATOM      5  O   UNL     1      -0.290  -5.635   9.836  1.00  0.00    -0.423 OA
ATOM      6  C   UNL     1      -1.016  -6.636   9.343  1.00  0.00     0.142 A 
ATOM      7  C   UNL     1      -2.278  -6.913   9.875  1.00  0.00     0.098 A 
ATOM      8  C   UNL     1      -3.047  -7.964   9.364  1.00  0.00     0.161 A 
ATOM      9  C   UNL     1      -2.549  -8.750   8.307  1.00  0.00     0.158 A 
ATOM     10  C   UNL     1      -1.281  -8.476   7.770  1.00  0.00     0.062 A 
ATOM     11  C   UNL     1      -0.514  -7.423   8.284  1.00  0.00     0.022 A 
ENDROOT
BRANCH   9  12
ATOM     12  O   UNL     1      -3.313  -9.797   7.796  1.00  0.00    -0.504 OA
ATOM     13  H   UNL     1      -3.964 -10.312   8.377  1.00  0.00     0.293 HD
ENDBRANCH   9  12
BRANCH   8  14
ATOM     14  O   UNL     1      -4.304  -8.215   9.915  1.00  0.00    -0.504 OA
ATOM     15  H   UNL     1      -5.002  -7.489  10.014  1.00  0.00     0.293 HD
ENDBRANCH   8  14
TORSDOF 2
ENDMDL
MODEL 5
REMARK VINA RESULT:    -3.300      2.088      4.060
REMARK INTER + INTRA:          -3.493
REMARK INTER:                  -3.493
REMARK INTRA:                   0.000
REMARK UNBOUND:                 0.000
REMARK SMILES O=c1ccc2cc(O)c(O)cc2o1
REMARK SMILES IDX 4 1 3 2 2 3 1 4 13 5 12 6 11 7 9 8 7 9 6 10 5 11 8 12 10 14
REMARK H PARENT 8 13 10 15
REMARK Flexibility Score: inf
ROOT
ATOM      1  C   UNL     1     -10.125   4.379  -4.588  1.00  0.00     0.019 A 
ATOM      2  C   UNL     1     -10.125   5.267  -3.513  1.00  0.00     0.094 A 
ATOM      3  C   UNL     1      -9.952   6.632  -3.761  1.00  0.00     0.336 A 
ATOM      4  O   UNL     1      -9.948   7.450  -2.804  1.00  0.00    -0.246 OA
ATOM      5  O   UNL     1      -9.788   7.075  -5.005  1.00  0.00    -0.423 OA
ATOM      6  C   UNL     1      -9.781   6.261  -6.059  1.00  0.00     0.142 A 
ATOM      7  C   UNL     1      -9.605   6.784  -7.344  1.00  0.00     0.098 A 
ATOM      8  C   UNL     1      -9.597   5.936  -8.457  1.00  0.00     0.161 A 
ATOM      9  C   UNL     1      -9.766   4.549  -8.286  1.00  0.00     0.158 A 
ATOM     10  C   UNL     1      -9.943   4.020  -6.998  1.00  0.00     0.062 A 
ATOM     11  C   UNL     1      -9.951   4.871  -5.885  1.00  0.00     0.022 A 
ENDROOT
BRANCH   9  12
ATOM     12  O   UNL     1      -9.757   3.703  -9.394  1.00  0.00    -0.504 OA
ATOM     13  H   UNL     1     -10.381   2.907  -9.459  1.00  0.00     0.293 HD
ENDBRANCH   9  12
BRANCH   8  14
ATOM     14  O   UNL     1      -9.418   6.487  -9.726  1.00  0.00    -0.504 OA
ATOM     15  H   UNL     1      -9.729   7.423  -9.955  1.00  0.00     0.293 HD
ENDBRANCH   8  14
TORSDOF 2
ENDMDL
MODEL 6
REMARK VINA RESULT:    -3.296     21.810     22.552
REMARK INTER + INTRA:          -3.489
REMARK INTER:                  -3.489
REMARK INTRA:                   0.000
REMARK UNBOUND:                 0.000
REMARK SMILES O=c1ccc2cc(O)c(O)cc2o1
REMARK SMILES IDX 4 1 3 2 2 3 1 4 13 5 12 6 11 7 9 8 7 9 6 10 5 11 8 12 10 14
REMARK H PARENT 8 13 10 15
REMARK Flexibility Score: inf
ROOT
ATOM      1  C   UNL     1       8.768  -8.861  -0.655  1.00  0.00     0.019 A 
ATOM      2  C   UNL     1       7.858  -9.030   0.388  1.00  0.00     0.094 A 
ATOM      3  C   UNL     1       6.574  -9.503   0.096  1.00  0.00     0.336 A 
ATOM      4  O   UNL     1       5.737  -9.662   1.023  1.00  0.00    -0.246 OA
ATOM      5  O   UNL     1       6.230  -9.787  -1.157  1.00  0.00    -0.423 OA
ATOM      6  C   UNL     1       7.068  -9.640  -2.181  1.00  0.00     0.142 A 
ATOM      7  C   UNL     1       6.650  -9.955  -3.477  1.00  0.00     0.098 A 
ATOM      8  C   UNL     1       7.525  -9.803  -4.559  1.00  0.00     0.161 A 
ATOM      9  C   UNL     1       8.833  -9.332  -4.344  1.00  0.00     0.158 A 
ATOM     10  C   UNL     1       9.258  -9.015  -3.044  1.00  0.00     0.062 A 
ATOM     11  C   UNL     1       8.380  -9.167  -1.963  1.00  0.00     0.022 A 
ENDROOT
BRANCH   9  12
ATOM     12  O   UNL     1       9.706  -9.180  -5.420  1.00  0.00    -0.504 OA
ATOM     13  H   UNL     1       9.402  -9.327  -6.376  1.00  0.00     0.293 HD
ENDBRANCH   9  12
BRANCH   8  14
ATOM     14  O   UNL     1       7.078 -10.125  -5.841  1.00  0.00    -0.504 OA
ATOM     15  H   UNL     1       7.595 -10.747  -6.450  1.00  0.00     0.293 HD
ENDBRANCH   8  14
TORSDOF 2
ENDMDL
MODEL 7
REMARK VINA RESULT:    -3.217     19.277     20.287
REMARK INTER + INTRA:          -3.405
REMARK INTER:                  -3.405
REMARK INTRA:                   0.000
REMARK UNBOUND:                 0.000
REMARK SMILES O=c1ccc2cc(O)c(O)cc2o1
REMARK SMILES IDX 4 1 3 2 2 3 1 4 13 5 12 6 11 7 9 8 7 9 6 10 5 11 8 12 10 14
REMARK H PARENT 8 13 10 15
REMARK Flexibility Score: inf
ROOT
ATOM      1  C   UNL     1      -0.342   6.790   8.159  1.00  0.00     0.019 A 
ATOM      2  C   UNL     1      -0.926   5.631   8.671  1.00  0.00     0.094 A 
ATOM      3  C   UNL     1      -0.239   4.898   9.643  1.00  0.00     0.336 A 
ATOM      4  O   UNL     1      -0.749   3.849  10.117  1.00  0.00    -0.246 OA
ATOM      5  O   UNL     1       0.955   5.301  10.072  1.00  0.00    -0.423 OA
ATOM      6  C   UNL     1       1.548   6.399   9.610  1.00  0.00     0.142 A 
ATOM      7  C   UNL     1       2.803   6.774  10.098  1.00  0.00     0.098 A 
ATOM      8  C   UNL     1       3.433   7.928   9.619  1.00  0.00     0.161 A 
ATOM      9  C   UNL     1       2.803   8.718   8.639  1.00  0.00     0.158 A 
ATOM     10  C   UNL     1       1.542   8.346   8.146  1.00  0.00     0.062 A 
ATOM     11  C   UNL     1       0.913   7.190   8.628  1.00  0.00     0.022 A 
ENDROOT
BRANCH   9  12
ATOM     12  O   UNL     1       3.429   9.867   8.160  1.00  0.00    -0.504 OA
ATOM     13  H   UNL     1       4.308   9.823   7.658  1.00  0.00     0.293 HD
ENDBRANCH   9  12
BRANCH   8  14
ATOM     14  O   UNL     1       4.686   8.275  10.125  1.00  0.00    -0.504 OA
ATOM     15  H   UNL     1       4.816   9.067  10.742  1.00  0.00     0.293 HD
ENDBRANCH   8  14
TORSDOF 2
ENDMDL
MODEL 8
REMARK VINA RESULT:    -3.181      6.894      8.686
REMARK INTER + INTRA:          -3.367
REMARK INTER:                  -3.367
REMARK INTRA:                   0.000
REMARK UNBOUND:                 0.000
REMARK SMILES O=c1ccc2cc(O)c(O)cc2o1
REMARK SMILES IDX 4 1 3 2 2 3 1 4 13 5 12 6 11 7 9 8 7 9 6 10 5 11 8 12 10 14
REMARK H PARENT 8 13 10 15
REMARK Flexibility Score: inf
ROOT
ATOM      1  C   UNL     1     -10.125   9.081  -0.179  1.00  0.00     0.019 A 
ATOM      2  C   UNL     1     -10.120   9.390   1.181  1.00  0.00     0.094 A 
ATOM      3  C   UNL     1     -10.107   8.347   2.112  1.00  0.00     0.336 A 
ATOM      4  O   UNL     1     -10.103   8.606   3.345  1.00  0.00    -0.246 OA
ATOM      5  O   UNL     1     -10.101   7.081   1.705  1.00  0.00    -0.423 OA
ATOM      6  C   UNL     1     -10.107   6.743   0.418  1.00  0.00     0.142 A 
ATOM      7  C   UNL     1     -10.099   5.394   0.049  1.00  0.00     0.098 A 
ATOM      8  C   UNL     1     -10.104   5.030  -1.302  1.00  0.00     0.161 A 
ATOM      9  C   UNL     1     -10.116   6.024  -2.298  1.00  0.00     0.158 A 
ATOM     10  C   UNL     1     -10.123   7.380  -1.933  1.00  0.00     0.062 A 
ATOM     11  C   UNL     1     -10.119   7.742  -0.579  1.00  0.00     0.022 A 
ENDROOT
BRANCH   9  12
ATOM     12  O   UNL     1     -10.121   5.663  -3.644  1.00  0.00    -0.504 OA
ATOM     13  H   UNL     1      -9.361   5.134  -4.055  1.00  0.00     0.293 HD
ENDBRANCH   9  12
BRANCH   8  14
ATOM     14  O   UNL     1     -10.097   3.676  -1.638  1.00  0.00    -0.504 OA
ATOM     15  H   UNL     1      -9.237   3.155  -1.754  1.00  0.00     0.293 HD
ENDBRANCH   8  14
TORSDOF 2
ENDMDL
MODEL 9
REMARK VINA RESULT:    -1.072     20.577     21.567
REMARK INTER + INTRA:          -1.134
REMARK INTER:                  -1.134
REMARK INTRA:                   0.000
REMARK UNBOUND:                 0.000
REMARK SMILES O=c1ccc2cc(O)c(O)cc2o1
REMARK SMILES IDX 4 1 3 2 2 3 1 4 13 5 12 6 11 7 9 8 7 9 6 10 5 11 8 12 10 14
REMARK H PARENT 8 13 10 15
REMARK Flexibility Score: inf
ROOT
ATOM      1  C   UNL     1       6.820   0.607   3.264  1.00  0.00     0.019 A 
ATOM      2  C   UNL     1       7.760  -0.309   2.794  1.00  0.00     0.094 A 
ATOM      3  C   UNL     1       9.021  -0.356   3.398  1.00  0.00     0.336 A 
ATOM      4  O   UNL     1       9.884  -1.176   2.988  1.00  0.00    -0.246 OA
ATOM      5  O   UNL     1       9.317   0.463   4.404  1.00  0.00    -0.423 OA
ATOM      6  C   UNL     1       8.449   1.352   4.882  1.00  0.00     0.142 A 
ATOM      7  C   UNL     1       8.816   2.187   5.942  1.00  0.00     0.098 A 
ATOM      8  C   UNL     1       7.909   3.124   6.451  1.00  0.00     0.161 A 
ATOM      9  C   UNL     1       6.621   3.229   5.895  1.00  0.00     0.158 A 
ATOM     10  C   UNL     1       6.248   2.393   4.830  1.00  0.00     0.062 A 
ATOM     11  C   UNL     1       7.157   1.456   4.323  1.00  0.00     0.022 A 
ENDROOT
BRANCH   9  12
ATOM     12  O   UNL     1       5.717   4.162   6.400  1.00  0.00    -0.504 OA
ATOM     13  H   UNL     1       4.904   3.879   6.935  1.00  0.00     0.293 HD
ENDBRANCH   9  12
BRANCH   8  14
ATOM     14  O   UNL     1       8.305   3.943   7.509  1.00  0.00    -0.504 OA
ATOM     15  H   UNL     1       7.649   4.280   8.202  1.00  0.00     0.293 HD
ENDBRANCH   8  14
TORSDOF 2
ENDMDL
