MODEL 1
REMARK VINA RESULT:     9.756      0.000      0.000
REMARK INTER + INTRA:          16.512
REMARK INTER:                  17.170
REMARK INTRA:                  -0.658
REMARK UNBOUND:                -0.658
REMARK SMILES CCCCCCC=CCCCCCCCC(=O)[O-]
REMARK SMILES IDX 10 1 11 2 12 3 13 4 14 5 15 6 16 7 17 8 18 9 9 10 8 11 7 12
REMARK SMILES IDX 6 13 5 14 4 15 3 16 2 17 1 18
REMARK H PARENT
REMARK Flexibility Score: inf
ROOT
ATOM      1  C   UNL     1       4.086  41.402  11.796  1.00  0.00     0.004 C 
ENDROOT
BRANCH   1   2
ATOM      2  C   UNL     1       4.767  42.527  10.995  1.00  0.00     0.000 C 
BRANCH   2   3
ATOM      3  C   UNL     1       4.200  42.671   9.573  1.00  0.00     0.000 C 
BRANCH   3   4
ATOM      4  C   UNL     1       5.161  43.407   8.626  1.00  0.00     0.000 C 
BRANCH   4   5
ATOM      5  C   UNL     1       6.466  42.633   8.383  1.00  0.00     0.006 C 
BRANCH   5   6
ATOM      6  C   UNL     1       6.862  42.679   6.904  1.00  0.00     0.053 C 
BRANCH   6   7
ATOM      7  C   UNL     1       8.242  42.132   6.714  1.00  0.00     0.041 C 
ATOM      8  O   UNL     1       8.422  41.091   6.030  1.00  0.00    -0.550 OA
ATOM      9  O   UNL     1       9.335  42.801   7.250  1.00  0.00    -0.550 OA
ENDBRANCH   6   7
ENDBRANCH   5   6
ENDBRANCH   4   5
ENDBRANCH   3   4
ENDBRANCH   2   3
ENDBRANCH   1   2
BRANCH   1  10
ATOM     10  C   UNL     1       4.226  41.536  13.323  1.00  0.00     0.027 C 
BRANCH  10  11
ATOM     11  C   UNL     1       4.558  40.228  13.991  1.00  0.00    -0.031 C 
ATOM     12  C   UNL     1       4.300  40.014  15.290  1.00  0.00    -0.031 C 
BRANCH  12  13
ATOM     13  C   UNL     1       4.622  38.704  15.951  1.00  0.00     0.027 C 
BRANCH  13  14
ATOM     14  C   UNL     1       5.745  37.968  15.208  1.00  0.00     0.004 C 
BRANCH  14  15
ATOM     15  C   UNL     1       7.075  38.091  15.963  1.00  0.00     0.000 C 
BRANCH  15  16
ATOM     16  C   UNL     1       7.677  39.505  15.891  1.00  0.00    -0.000 C 
BRANCH  16  17
ATOM     17  C   UNL     1       8.841  39.631  14.887  1.00  0.00    -0.003 C 
ATOM     18  C   UNL     1       9.759  38.409  14.901  1.00  0.00     0.004 C 
ENDBRANCH  16  17
ENDBRANCH  15  16
ENDBRANCH  14  15
ENDBRANCH  13  14
ENDBRANCH  12  13
ENDBRANCH  10  11
ENDBRANCH   1  10
TORSDOF 13
ENDMDL
MODEL 2
REMARK VINA RESULT:    10.435      1.174      2.286
REMARK INTER + INTRA:          17.708
REMARK INTER:                  18.459
REMARK INTRA:                  -0.751
REMARK UNBOUND:                -0.658
REMARK SMILES CCCCCCC=CCCCCCCCC(=O)[O-]
REMARK SMILES IDX 10 1 11 2 12 3 13 4 14 5 15 6 16 7 17 8 18 9 9 10 8 11 7 12
REMARK SMILES IDX 6 13 5 14 4 15 3 16 2 17 1 18
REMARK H PARENT
REMARK Flexibility Score: inf
ROOT
ATOM      1  C   UNL     1       4.188  42.860  10.055  1.00  0.00     0.004 C 
ENDROOT
BRANCH   1   2
ATOM      2  C   UNL     1       4.959  43.295   8.796  1.00  0.00     0.000 C 
BRANCH   2   3
ATOM      3  C   UNL     1       6.257  42.495   8.587  1.00  0.00     0.000 C 
BRANCH   3   4
ATOM      4  C   UNL     1       6.894  42.753   7.213  1.00  0.00     0.000 C 
BRANCH   4   5
ATOM      5  C   UNL     1       8.268  42.082   7.059  1.00  0.00     0.006 C 
BRANCH   5   6
ATOM      6  C   UNL     1       8.824  42.292   5.648  1.00  0.00     0.053 C 
BRANCH   6   7
ATOM      7  C   UNL     1       9.030  40.977   4.964  1.00  0.00     0.041 C 
ATOM      8  O   UNL     1       8.672  39.908   5.526  1.00  0.00    -0.550 OA
ATOM      9  O   UNL     1       9.570  40.935   3.685  1.00  0.00    -0.550 OA
ENDBRANCH   6   7
ENDBRANCH   5   6
ENDBRANCH   4   5
ENDBRANCH   3   4
ENDBRANCH   2   3
ENDBRANCH   1   2
BRANCH   1  10
ATOM     10  C   UNL     1       4.998  41.981  11.024  1.00  0.00     0.027 C 
BRANCH  10  11
ATOM     11  C   UNL     1       4.207  41.581  12.242  1.00  0.00    -0.031 C 
ATOM     12  C   UNL     1       4.780  40.950  13.278  1.00  0.00    -0.031 C 
BRANCH  12  13
ATOM     13  C   UNL     1       3.991  40.562  14.497  1.00  0.00     0.027 C 
BRANCH  13  14
ATOM     14  C   UNL     1       4.592  39.326  15.177  1.00  0.00     0.004 C 
BRANCH  14  15
ATOM     15  C   UNL     1       5.845  39.695  15.982  1.00  0.00     0.000 C 
BRANCH  15  16
ATOM     16  C   UNL     1       6.953  38.634  15.886  1.00  0.00    -0.000 C 
BRANCH  16  17
ATOM     17  C   UNL     1       8.270  39.166  15.285  1.00  0.00    -0.003 C 
ATOM     18  C   UNL     1       8.137  40.597  14.765  1.00  0.00     0.004 C 
ENDBRANCH  16  17
ENDBRANCH  15  16
ENDBRANCH  14  15
ENDBRANCH  13  14
ENDBRANCH  12  13
ENDBRANCH  10  11
ENDBRANCH   1  10
TORSDOF 13
ENDMDL
MODEL 3
REMARK VINA RESULT:    10.715      3.716      8.430
REMARK INTER + INTRA:          18.201
REMARK INTER:                  18.708
REMARK INTRA:                  -0.507
REMARK UNBOUND:                -0.658
REMARK SMILES CCCCCCC=CCCCCCCCC(=O)[O-]
REMARK SMILES IDX 10 1 11 2 12 3 13 4 14 5 15 6 16 7 17 8 18 9 9 10 8 11 7 12
REMARK SMILES IDX 6 13 5 14 4 15 3 16 2 17 1 18
REMARK H PARENT
REMARK Flexibility Score: inf
ROOT
ATOM      1  C   UNL     1       7.277  40.423  13.470  1.00  0.00     0.004 C 
ENDROOT
BRANCH   1   2
ATOM      2  C   UNL     1       7.906  40.856  14.807  1.00  0.00     0.000 C 
BRANCH   2   3
ATOM      3  C   UNL     1       7.380  40.043  16.002  1.00  0.00     0.000 C 
BRANCH   3   4
ATOM      4  C   UNL     1       7.448  38.527  15.759  1.00  0.00     0.000 C 
BRANCH   4   5
ATOM      5  C   UNL     1       6.095  37.932  15.336  1.00  0.00     0.006 C 
BRANCH   5   6
ATOM      6  C   UNL     1       4.947  38.568  16.125  1.00  0.00     0.053 C 
BRANCH   6   7
ATOM      7  C   UNL     1       3.942  39.169  15.194  1.00  0.00     0.041 C 
ATOM      8  O   UNL     1       4.271  40.115  14.431  1.00  0.00    -0.550 OA
ATOM      9  O   UNL     1       2.654  38.653  15.134  1.00  0.00    -0.550 OA
ENDBRANCH   6   7
ENDBRANCH   5   6
ENDBRANCH   4   5
ENDBRANCH   3   4
ENDBRANCH   2   3
ENDBRANCH   1   2
BRANCH   1  10
ATOM     10  C   UNL     1       7.886  41.103  12.231  1.00  0.00     0.027 C 
BRANCH  10  11
ATOM     11  C   UNL     1       6.841  41.660  11.303  1.00  0.00    -0.031 C 
ATOM     12  C   UNL     1       7.134  42.014  10.042  1.00  0.00    -0.031 C 
BRANCH  12  13
ATOM     13  C   UNL     1       6.085  42.559   9.114  1.00  0.00     0.027 C 
BRANCH  13  14
ATOM     14  C   UNL     1       6.612  42.655   7.676  1.00  0.00     0.004 C 
BRANCH  14  15
ATOM     15  C   UNL     1       7.861  41.783   7.490  1.00  0.00     0.000 C 
BRANCH  15  16
ATOM     16  C   UNL     1       8.815  42.326   6.412  1.00  0.00    -0.000 C 
BRANCH  16  17
ATOM     17  C   UNL     1       8.514  41.796   4.995  1.00  0.00    -0.003 C 
ATOM     18  C   UNL     1       9.461  40.671   4.580  1.00  0.00     0.004 C 
ENDBRANCH  16  17
ENDBRANCH  15  16
ENDBRANCH  14  15
ENDBRANCH  13  14
ENDBRANCH  12  13
ENDBRANCH  10  11
ENDBRANCH   1  10
TORSDOF 13
ENDMDL
MODEL 4
REMARK VINA RESULT:    10.910      3.014      7.930
REMARK INTER + INTRA:          18.543
REMARK INTER:                  19.080
REMARK INTRA:                  -0.537
REMARK UNBOUND:                -0.658
REMARK SMILES CCCCCCC=CCCCCCCCC(=O)[O-]
REMARK SMILES IDX 10 1 11 2 12 3 13 4 14 5 15 6 16 7 17 8 18 9 9 10 8 11 7 12
REMARK SMILES IDX 6 13 5 14 4 15 3 16 2 17 1 18
REMARK H PARENT
REMARK Flexibility Score: inf
ROOT
ATOM      1  C   UNL     1       5.724  40.888  13.108  1.00  0.00     0.004 C 
ENDROOT
BRANCH   1   2
ATOM      2  C   UNL     1       5.309  40.897  14.591  1.00  0.00     0.000 C 
BRANCH   2   3
ATOM      3  C   UNL     1       4.805  39.527  15.076  1.00  0.00     0.000 C 
BRANCH   3   4
ATOM      4  C   UNL     1       5.752  38.878  16.097  1.00  0.00     0.000 C 
BRANCH   4   5
ATOM      5  C   UNL     1       6.838  38.015  15.435  1.00  0.00     0.006 C 
BRANCH   5   6
ATOM      6  C   UNL     1       8.194  38.225  16.116  1.00  0.00     0.053 C 
BRANCH   6   7
ATOM      7  C   UNL     1       9.000  39.246  15.376  1.00  0.00     0.041 C 
ATOM      8  O   UNL     1       8.512  40.380  15.128  1.00  0.00    -0.550 OA
ATOM      9  O   UNL     1      10.307  38.963  15.004  1.00  0.00    -0.550 OA
ENDBRANCH   6   7
ENDBRANCH   5   6
ENDBRANCH   4   5
ENDBRANCH   3   4
ENDBRANCH   2   3
ENDBRANCH   1   2
BRANCH   1  10
ATOM     10  C   UNL     1       4.658  41.442  12.147  1.00  0.00     0.027 C 
BRANCH  10  11
ATOM     11  C   UNL     1       5.255  42.010  10.886  1.00  0.00    -0.031 C 
ATOM     12  C   UNL     1       4.517  42.709  10.010  1.00  0.00    -0.031 C 
BRANCH  12  13
ATOM     13  C   UNL     1       5.118  43.284   8.758  1.00  0.00     0.027 C 
BRANCH  13  14
ATOM     14  C   UNL     1       6.501  42.683   8.479  1.00  0.00     0.004 C 
BRANCH  14  15
ATOM     15  C   UNL     1       6.784  42.631   6.972  1.00  0.00     0.000 C 
BRANCH  15  16
ATOM     16  C   UNL     1       8.262  42.350   6.649  1.00  0.00    -0.000 C 
BRANCH  16  17
ATOM     17  C   UNL     1       8.525  40.912   6.157  1.00  0.00    -0.003 C 
ATOM     18  C   UNL     1       9.181  40.879   4.777  1.00  0.00     0.004 C 
ENDBRANCH  16  17
ENDBRANCH  15  16
ENDBRANCH  14  15
ENDBRANCH  13  14
ENDBRANCH  12  13
ENDBRANCH  10  11
ENDBRANCH   1  10
TORSDOF 13
ENDMDL
MODEL 5
REMARK VINA RESULT:    11.031      4.024      8.748
REMARK INTER + INTRA:          18.756
REMARK INTER:                  19.104
REMARK INTRA:                  -0.348
REMARK UNBOUND:                -0.658
REMARK SMILES CCCCCCC=CCCCCCCCC(=O)[O-]
REMARK SMILES IDX 10 1 11 2 12 3 13 4 14 5 15 6 16 7 17 8 18 9 9 10 8 11 7 12
REMARK SMILES IDX 6 13 5 14 4 15 3 16 2 17 1 18
REMARK H PARENT
REMARK Flexibility Score: inf
ROOT
ATOM      1  C   UNL     1       7.668  40.834  12.349  1.00  0.00     0.004 C 
ENDROOT
BRANCH   1   2
ATOM      2  C   UNL     1       7.567  41.004  13.876  1.00  0.00     0.000 C 
BRANCH   2   3
ATOM      3  C   UNL     1       7.903  39.712  14.641  1.00  0.00     0.000 C 
BRANCH   3   4
ATOM      4  C   UNL     1       6.787  39.295  15.612  1.00  0.00     0.000 C 
BRANCH   4   5
ATOM      5  C   UNL     1       5.918  38.152  15.063  1.00  0.00     0.006 C 
BRANCH   5   6
ATOM      6  C   UNL     1       4.730  37.875  15.990  1.00  0.00     0.053 C 
BRANCH   6   7
ATOM      7  C   UNL     1       3.588  38.786  15.665  1.00  0.00     0.041 C 
ATOM      8  O   UNL     1       2.415  38.334  15.603  1.00  0.00    -0.550 OA
ATOM      9  O   UNL     1       3.813  40.144  15.479  1.00  0.00    -0.550 OA
ENDBRANCH   6   7
ENDBRANCH   5   6
ENDBRANCH   4   5
ENDBRANCH   3   4
ENDBRANCH   2   3
ENDBRANCH   1   2
BRANCH   1  10
ATOM     10  C   UNL     1       6.427  41.311  11.574  1.00  0.00     0.027 C 
BRANCH  10  11
ATOM     11  C   UNL     1       6.759  41.785  10.184  1.00  0.00    -0.031 C 
ATOM     12  C   UNL     1       5.936  42.595   9.500  1.00  0.00    -0.031 C 
BRANCH  12  13
ATOM     13  C   UNL     1       6.275  43.076   8.118  1.00  0.00     0.027 C 
BRANCH  13  14
ATOM     14  C   UNL     1       7.265  42.129   7.428  1.00  0.00     0.004 C 
BRANCH  14  15
ATOM     15  C   UNL     1       7.990  42.836   6.275  1.00  0.00     0.000 C 
BRANCH  15  16
ATOM     16  C   UNL     1       9.189  42.035   5.740  1.00  0.00    -0.000 C 
BRANCH  16  17
ATOM     17  C   UNL     1       8.796  40.916   4.754  1.00  0.00    -0.003 C 
ATOM     18  C   UNL     1       9.856  40.689   3.676  1.00  0.00     0.004 C 
ENDBRANCH  16  17
ENDBRANCH  15  16
ENDBRANCH  14  15
ENDBRANCH  13  14
ENDBRANCH  12  13
ENDBRANCH  10  11
ENDBRANCH   1  10
TORSDOF 13
ENDMDL
MODEL 6
REMARK VINA RESULT:    11.134      1.620      3.127
REMARK INTER + INTRA:          18.939
REMARK INTER:                  19.484
REMARK INTRA:                  -0.546
REMARK UNBOUND:                -0.658
REMARK SMILES CCCCCCC=CCCCCCCCC(=O)[O-]
REMARK SMILES IDX 10 1 11 2 12 3 13 4 14 5 15 6 16 7 17 8 18 9 9 10 8 11 7 12
REMARK SMILES IDX 6 13 5 14 4 15 3 16 2 17 1 18
REMARK H PARENT
REMARK Flexibility Score: inf
ROOT
ATOM      1  C   UNL     1       6.603  41.327  11.583  1.00  0.00     0.004 C 
ENDROOT
BRANCH   1   2
ATOM      2  C   UNL     1       7.092  41.792  10.199  1.00  0.00     0.000 C 
BRANCH   2   3
ATOM      3  C   UNL     1       6.106  42.753   9.512  1.00  0.00     0.000 C 
BRANCH   3   4
ATOM      4  C   UNL     1       6.145  42.643   7.980  1.00  0.00     0.000 C 
BRANCH   4   5
ATOM      5  C   UNL     1       7.561  42.817   7.408  1.00  0.00     0.006 C 
BRANCH   5   6
ATOM      6  C   UNL     1       7.626  42.340   5.954  1.00  0.00     0.053 C 
BRANCH   6   7
ATOM      7  C   UNL     1       8.662  41.271   5.799  1.00  0.00     0.041 C 
ATOM      8  O   UNL     1       9.269  41.131   4.705  1.00  0.00    -0.550 OA
ATOM      9  O   UNL     1       8.993  40.462   6.878  1.00  0.00    -0.550 OA
ENDBRANCH   6   7
ENDBRANCH   5   6
ENDBRANCH   4   5
ENDBRANCH   3   4
ENDBRANCH   2   3
ENDBRANCH   1   2
BRANCH   1  10
ATOM     10  C   UNL     1       7.725  41.120  12.616  1.00  0.00     0.027 C 
BRANCH  10  11
ATOM     11  C   UNL     1       7.199  40.731  13.971  1.00  0.00    -0.031 C 
ATOM     12  C   UNL     1       7.779  39.767  14.703  1.00  0.00    -0.031 C 
BRANCH  12  13
ATOM     13  C   UNL     1       7.259  39.389  16.061  1.00  0.00     0.027 C 
BRANCH  13  14
ATOM     14  C   UNL     1       6.750  37.942  16.077  1.00  0.00     0.004 C 
BRANCH  14  15
ATOM     15  C   UNL     1       5.247  37.884  15.774  1.00  0.00     0.000 C 
BRANCH  15  16
ATOM     16  C   UNL     1       4.580  39.270  15.786  1.00  0.00    -0.000 C 
BRANCH  16  17
ATOM     17  C   UNL     1       3.061  39.227  15.523  1.00  0.00    -0.003 C 
ATOM     18  C   UNL     1       2.445  37.875  15.882  1.00  0.00     0.004 C 
ENDBRANCH  16  17
ENDBRANCH  15  16
ENDBRANCH  14  15
ENDBRANCH  13  14
ENDBRANCH  12  13
ENDBRANCH  10  11
ENDBRANCH   1  10
TORSDOF 13
ENDMDL
MODEL 7
REMARK VINA RESULT:    11.654      3.352      8.270
REMARK INTER + INTRA:          19.854
REMARK INTER:                  20.350
REMARK INTRA:                  -0.497
REMARK UNBOUND:                -0.658
REMARK SMILES CCCCCCC=CCCCCCCCC(=O)[O-]
REMARK SMILES IDX 10 1 11 2 12 3 13 4 14 5 15 6 16 7 17 8 18 9 9 10 8 11 7 12
REMARK SMILES IDX 6 13 5 14 4 15 3 16 2 17 1 18
REMARK H PARENT
REMARK Flexibility Score: inf
ROOT
ATOM      1  C   UNL     1       4.949  41.965  11.426  1.00  0.00     0.004 C 
ENDROOT
BRANCH   1   2
ATOM      2  C   UNL     1       4.286  41.346  12.670  1.00  0.00     0.000 C 
BRANCH   2   3
ATOM      3  C   UNL     1       5.310  40.855  13.707  1.00  0.00     0.000 C 
BRANCH   3   4
ATOM      4  C   UNL     1       4.648  40.162  14.908  1.00  0.00     0.000 C 
BRANCH   4   5
ATOM      5  C   UNL     1       5.667  39.666  15.945  1.00  0.00     0.006 C 
BRANCH   5   6
ATOM      6  C   UNL     1       7.052  40.265  15.682  1.00  0.00     0.053 C 
BRANCH   6   7
ATOM      7  C   UNL     1       8.036  39.188  15.353  1.00  0.00     0.041 C 
ATOM      8  O   UNL     1       9.108  39.469  14.755  1.00  0.00    -0.550 OA
ATOM      9  O   UNL     1       7.793  37.879  15.751  1.00  0.00    -0.550 OA
ENDBRANCH   6   7
ENDBRANCH   5   6
ENDBRANCH   4   5
ENDBRANCH   3   4
ENDBRANCH   2   3
ENDBRANCH   1   2
BRANCH   1  10
ATOM     10  C   UNL     1       3.964  42.607  10.434  1.00  0.00     0.027 C 
BRANCH  10  11
ATOM     11  C   UNL     1       4.613  42.971   9.126  1.00  0.00    -0.031 C 
ATOM     12  C   UNL     1       5.882  42.632   8.850  1.00  0.00    -0.031 C 
BRANCH  12  13
ATOM     13  C   UNL     1       6.525  42.988   7.539  1.00  0.00     0.027 C 
BRANCH  13  14
ATOM     14  C   UNL     1       7.634  41.993   7.177  1.00  0.00     0.004 C 
BRANCH  14  15
ATOM     15  C   UNL     1       8.753  42.682   6.384  1.00  0.00     0.000 C 
BRANCH  15  16
ATOM     16  C   UNL     1       9.671  41.686   5.654  1.00  0.00    -0.000 C 
BRANCH  16  17
ATOM     17  C   UNL     1       8.948  40.856   4.574  1.00  0.00    -0.003 C 
ATOM     18  C   UNL     1       9.857  40.517   3.393  1.00  0.00     0.004 C 
ENDBRANCH  16  17
ENDBRANCH  15  16
ENDBRANCH  14  15
ENDBRANCH  13  14
ENDBRANCH  12  13
ENDBRANCH  10  11
ENDBRANCH   1  10
TORSDOF 13
ENDMDL
MODEL 8
REMARK VINA RESULT:    12.273      3.879      8.697
REMARK INTER + INTRA:          20.943
REMARK INTER:                  21.666
REMARK INTRA:                  -0.722
REMARK UNBOUND:                -0.658
REMARK SMILES CCCCCCC=CCCCCCCCC(=O)[O-]
REMARK SMILES IDX 10 1 11 2 12 3 13 4 14 5 15 6 16 7 17 8 18 9 9 10 8 11 7 12
REMARK SMILES IDX 6 13 5 14 4 15 3 16 2 17 1 18
REMARK H PARENT
REMARK Flexibility Score: inf
ROOT
ATOM      1  C   UNL     1       6.465  41.725  10.493  1.00  0.00     0.004 C 
ENDROOT
BRANCH   1   2
ATOM      2  C   UNL     1       6.312  41.587  12.019  1.00  0.00     0.000 C 
BRANCH   2   3
ATOM      3  C   UNL     1       7.262  40.537  12.619  1.00  0.00     0.000 C 
BRANCH   3   4
ATOM      4  C   UNL     1       7.725  40.903  14.038  1.00  0.00     0.000 C 
BRANCH   4   5
ATOM      5  C   UNL     1       7.907  39.672  14.940  1.00  0.00     0.006 C 
BRANCH   5   6
ATOM      6  C   UNL     1       6.854  39.648  16.052  1.00  0.00     0.053 C 
BRANCH   6   7
ATOM      7  C   UNL     1       5.561  39.097  15.538  1.00  0.00     0.041 C 
ATOM      8  O   UNL     1       5.555  38.073  14.806  1.00  0.00    -0.550 OA
ATOM      9  O   UNL     1       4.359  39.685  15.908  1.00  0.00    -0.550 OA
ENDBRANCH   6   7
ENDBRANCH   5   6
ENDBRANCH   4   5
ENDBRANCH   3   4
ENDBRANCH   2   3
ENDBRANCH   1   2
BRANCH   1  10
ATOM     10  C   UNL     1       5.408  42.623   9.828  1.00  0.00     0.027 C 
BRANCH  10  11
ATOM     11  C   UNL     1       5.742  42.948   8.396  1.00  0.00    -0.031 C 
ATOM     12  C   UNL     1       6.915  42.596   7.849  1.00  0.00    -0.031 C 
BRANCH  12  13
ATOM     13  C   UNL     1       7.242  42.911   6.416  1.00  0.00     0.027 C 
BRANCH  13  14
ATOM     14  C   UNL     1       8.739  42.734   6.136  1.00  0.00     0.004 C 
BRANCH  14  15
ATOM     15  C   UNL     1       9.192  41.302   6.451  1.00  0.00     0.000 C 
BRANCH  15  16
ATOM     16  C   UNL     1       9.068  40.355   5.245  1.00  0.00    -0.000 C 
BRANCH  16  17
ATOM     17  C   UNL     1       9.540  40.981   3.917  1.00  0.00    -0.003 C 
ATOM     18  C   UNL     1      10.408  40.026   3.098  1.00  0.00     0.004 C 
ENDBRANCH  16  17
ENDBRANCH  15  16
ENDBRANCH  14  15
ENDBRANCH  13  14
ENDBRANCH  12  13
ENDBRANCH  10  11
ENDBRANCH   1  10
TORSDOF 13
ENDMDL
