MODEL 1
REMARK VINA RESULT:    -3.604      0.000      0.000
REMARK INTER + INTRA:          -4.650
REMARK INTER:                  -4.446
REMARK INTRA:                  -0.203
REMARK UNBOUND:                -0.203
REMARK SMILES CCCCCC(=O)[O-]
REMARK SMILES IDX 4 1 5 2 6 3 7 4 8 5 3 6 2 7 1 8
REMARK H PARENT
REMARK Flexibility Score: inf
ROOT
ATOM      1  C   UNL     1       4.925  26.148  14.512  1.00  0.00     0.006 C 
ENDROOT
BRANCH   1   2
ATOM      2  C   UNL     1       4.599  27.646  14.385  1.00  0.00     0.053 C 
BRANCH   2   3
ATOM      3  C   UNL     1       4.900  28.187  13.020  1.00  0.00     0.041 C 
ATOM      4  O   UNL     1       5.729  29.123  12.878  1.00  0.00    -0.550 OA
ATOM      5  O   UNL     1       4.291  27.633  11.899  1.00  0.00    -0.550 OA
ENDBRANCH   2   3
ENDBRANCH   1   2
BRANCH   1   6
ATOM      6  C   UNL     1       6.424  25.823  14.394  1.00  0.00     0.000 C 
BRANCH   6   7
ATOM      7  C   UNL     1       7.265  26.441  15.519  1.00  0.00    -0.003 C 
ATOM      8  C   UNL     1       6.843  25.903  16.883  1.00  0.00     0.004 C 
ENDBRANCH   6   7
ENDBRANCH   1   6
TORSDOF 4
ENDMDL
MODEL 2
REMARK VINA RESULT:    -3.572      1.039      1.629
REMARK INTER + INTRA:          -4.611
REMARK INTER:                  -4.430
REMARK INTRA:                  -0.181
REMARK UNBOUND:                -0.203
REMARK SMILES CCCCCC(=O)[O-]
REMARK SMILES IDX 4 1 5 2 6 3 7 4 8 5 3 6 2 7 1 8
REMARK H PARENT
REMARK Flexibility Score: inf
ROOT
ATOM      1  C   UNL     1       5.512  25.826  13.678  1.00  0.00     0.006 C 
ENDROOT
BRANCH   1   2
ATOM      2  C   UNL     1       4.358  26.447  12.873  1.00  0.00     0.053 C 
BRANCH   2   3
ATOM      3  C   UNL     1       4.535  27.919  12.656  1.00  0.00     0.041 C 
ATOM      4  O   UNL     1       3.628  28.591  12.098  1.00  0.00    -0.550 OA
ATOM      5  O   UNL     1       5.688  28.557  13.099  1.00  0.00    -0.550 OA
ENDBRANCH   2   3
ENDBRANCH   1   2
BRANCH   1   6
ATOM      6  C   UNL     1       5.145  25.484  15.133  1.00  0.00     0.000 C 
BRANCH   6   7
ATOM      7  C   UNL     1       6.084  26.134  16.159  1.00  0.00    -0.003 C 
ATOM      8  C   UNL     1       7.495  26.284  15.597  1.00  0.00     0.004 C 
ENDBRANCH   6   7
ENDBRANCH   1   6
TORSDOF 4
ENDMDL
MODEL 3
REMARK VINA RESULT:    -3.566      1.042      1.335
REMARK INTER + INTRA:          -4.603
REMARK INTER:                  -4.394
REMARK INTRA:                  -0.209
REMARK UNBOUND:                -0.203
REMARK SMILES CCCCCC(=O)[O-]
REMARK SMILES IDX 4 1 5 2 6 3 7 4 8 5 3 6 2 7 1 8
REMARK H PARENT
REMARK Flexibility Score: inf
ROOT
ATOM      1  C   UNL     1       5.461  25.766  13.771  1.00  0.00     0.006 C 
ENDROOT
BRANCH   1   2
ATOM      2  C   UNL     1       4.437  26.444  12.846  1.00  0.00     0.053 C 
BRANCH   2   3
ATOM      3  C   UNL     1       4.619  27.930  12.777  1.00  0.00     0.041 C 
ATOM      4  O   UNL     1       5.681  28.459  13.197  1.00  0.00    -0.550 OA
ATOM      5  O   UNL     1       3.630  28.730  12.216  1.00  0.00    -0.550 OA
ENDBRANCH   2   3
ENDBRANCH   1   2
BRANCH   1   6
ATOM      6  C   UNL     1       4.985  25.617  15.227  1.00  0.00     0.000 C 
BRANCH   6   7
ATOM      7  C   UNL     1       5.973  26.199  16.247  1.00  0.00    -0.003 C 
ATOM      8  C   UNL     1       7.386  26.260  15.672  1.00  0.00     0.004 C 
ENDBRANCH   6   7
ENDBRANCH   1   6
TORSDOF 4
ENDMDL
MODEL 4
REMARK VINA RESULT:    -3.545      2.652      3.986
REMARK INTER + INTRA:          -4.577
REMARK INTER:                  -4.459
REMARK INTRA:                  -0.119
REMARK UNBOUND:                -0.203
REMARK SMILES CCCCCC(=O)[O-]
REMARK SMILES IDX 4 1 5 2 6 3 7 4 8 5 3 6 2 7 1 8
REMARK H PARENT
REMARK Flexibility Score: inf
ROOT
ATOM      1  C   UNL     1       5.585  25.984  13.709  1.00  0.00     0.006 C 
ENDROOT
BRANCH   1   2
ATOM      2  C   UNL     1       5.486  25.619  15.200  1.00  0.00     0.053 C 
BRANCH   2   3
ATOM      3  C   UNL     1       6.542  26.287  16.028  1.00  0.00     0.041 C 
ATOM      4  O   UNL     1       6.238  26.837  17.119  1.00  0.00    -0.550 OA
ATOM      5  O   UNL     1       7.868  26.274  15.612  1.00  0.00    -0.550 OA
ENDBRANCH   2   3
ENDBRANCH   1   2
BRANCH   1   6
ATOM      6  C   UNL     1       4.260  26.473  13.097  1.00  0.00     0.000 C 
BRANCH   6   7
ATOM      7  C   UNL     1       4.419  27.749  12.258  1.00  0.00    -0.003 C 
ATOM      8  C   UNL     1       5.275  28.782  12.985  1.00  0.00     0.004 C 
ENDBRANCH   6   7
ENDBRANCH   1   6
TORSDOF 4
ENDMDL
MODEL 5
REMARK VINA RESULT:    -3.522      1.466      2.089
REMARK INTER + INTRA:          -4.548
REMARK INTER:                  -4.444
REMARK INTRA:                  -0.104
REMARK UNBOUND:                -0.203
REMARK SMILES CCCCCC(=O)[O-]
REMARK SMILES IDX 4 1 5 2 6 3 7 4 8 5 3 6 2 7 1 8
REMARK H PARENT
REMARK Flexibility Score: inf
ROOT
ATOM      1  C   UNL     1       5.085  25.598  14.719  1.00  0.00     0.006 C 
ENDROOT
BRANCH   1   2
ATOM      2  C   UNL     1       4.513  25.098  13.381  1.00  0.00     0.053 C 
BRANCH   2   3
ATOM      3  C   UNL     1       3.778  26.169  12.634  1.00  0.00     0.041 C 
ATOM      4  O   UNL     1       2.560  26.022  12.349  1.00  0.00    -0.550 OA
ATOM      5  O   UNL     1       4.427  27.347  12.281  1.00  0.00    -0.550 OA
ENDBRANCH   2   3
ENDBRANCH   1   2
BRANCH   1   6
ATOM      6  C   UNL     1       6.590  25.919  14.673  1.00  0.00     0.000 C 
BRANCH   6   7
ATOM      7  C   UNL     1       7.188  26.200  16.058  1.00  0.00    -0.003 C 
ATOM      8  C   UNL     1       6.094  26.467  17.088  1.00  0.00     0.004 C 
ENDBRANCH   6   7
ENDBRANCH   1   6
TORSDOF 4
ENDMDL
MODEL 6
REMARK VINA RESULT:    -3.502      2.538      3.891
REMARK INTER + INTRA:          -4.524
REMARK INTER:                  -4.364
REMARK INTRA:                  -0.160
REMARK UNBOUND:                -0.203
REMARK SMILES CCCCCC(=O)[O-]
REMARK SMILES IDX 4 1 5 2 6 3 7 4 8 5 3 6 2 7 1 8
REMARK H PARENT
REMARK Flexibility Score: inf
ROOT
ATOM      1  C   UNL     1       4.674  25.749  13.503  1.00  0.00     0.006 C 
ENDROOT
BRANCH   1   2
ATOM      2  C   UNL     1       6.110  25.839  14.047  1.00  0.00     0.053 C 
BRANCH   2   3
ATOM      3  C   UNL     1       6.155  25.924  15.543  1.00  0.00     0.041 C 
ATOM      4  O   UNL     1       7.258  25.875  16.148  1.00  0.00    -0.550 OA
ATOM      5  O   UNL     1       4.981  26.093  16.268  1.00  0.00    -0.550 OA
ENDBRANCH   2   3
ENDBRANCH   1   2
BRANCH   1   6
ATOM      6  C   UNL     1       4.241  26.973  12.678  1.00  0.00     0.000 C 
BRANCH   6   7
ATOM      7  C   UNL     1       4.386  28.296  13.442  1.00  0.00    -0.003 C 
ATOM      8  C   UNL     1       5.353  29.240  12.732  1.00  0.00     0.004 C 
ENDBRANCH   6   7
ENDBRANCH   1   6
TORSDOF 4
ENDMDL
MODEL 7
REMARK VINA RESULT:    -3.182      1.926      2.476
REMARK INTER + INTRA:          -4.130
REMARK INTER:                  -3.975
REMARK INTRA:                  -0.155
REMARK UNBOUND:                -0.203
REMARK SMILES CCCCCC(=O)[O-]
REMARK SMILES IDX 4 1 5 2 6 3 7 4 8 5 3 6 2 7 1 8
REMARK H PARENT
REMARK Flexibility Score: inf
ROOT
ATOM      1  C   UNL     1       5.636  27.356  14.130  1.00  0.00     0.006 C 
ENDROOT
BRANCH   1   2
ATOM      2  C   UNL     1       5.159  28.176  12.919  1.00  0.00     0.053 C 
BRANCH   2   3
ATOM      3  C   UNL     1       3.680  28.419  12.935  1.00  0.00     0.041 C 
ATOM      4  O   UNL     1       3.067  28.665  11.863  1.00  0.00    -0.550 OA
ATOM      5  O   UNL     1       2.972  28.338  14.128  1.00  0.00    -0.550 OA
ENDBRANCH   2   3
ENDBRANCH   1   2
BRANCH   1   6
ATOM      6  C   UNL     1       5.947  25.885  13.803  1.00  0.00     0.000 C 
BRANCH   6   7
ATOM      7  C   UNL     1       4.690  25.052  13.520  1.00  0.00    -0.003 C 
ATOM      8  C   UNL     1       3.999  24.639  14.817  1.00  0.00     0.004 C 
ENDBRANCH   6   7
ENDBRANCH   1   6
TORSDOF 4
ENDMDL
MODEL 8
REMARK VINA RESULT:    -3.106      2.345      4.201
REMARK INTER + INTRA:          -4.036
REMARK INTER:                  -3.842
REMARK INTRA:                  -0.194
REMARK UNBOUND:                -0.203
REMARK SMILES CCCCCC(=O)[O-]
REMARK SMILES IDX 4 1 5 2 6 3 7 4 8 5 3 6 2 7 1 8
REMARK H PARENT
REMARK Flexibility Score: inf
ROOT
ATOM      1  C   UNL     1       4.769  28.299  13.467  1.00  0.00     0.006 C 
ENDROOT
BRANCH   1   2
ATOM      2  C   UNL     1       4.682  27.094  14.419  1.00  0.00     0.053 C 
BRANCH   2   3
ATOM      3  C   UNL     1       5.333  25.867  13.856  1.00  0.00     0.041 C 
ATOM      4  O   UNL     1       6.581  25.721  13.932  1.00  0.00    -0.550 OA
ATOM      5  O   UNL     1       4.559  24.868  13.277  1.00  0.00    -0.550 OA
ENDBRANCH   2   3
ENDBRANCH   1   2
BRANCH   1   6
ATOM      6  C   UNL     1       4.323  27.990  12.027  1.00  0.00     0.000 C 
BRANCH   6   7
ATOM      7  C   UNL     1       2.808  28.134  11.822  1.00  0.00    -0.003 C 
ATOM      8  C   UNL     1       2.217  26.876  11.191  1.00  0.00     0.004 C 
ENDBRANCH   6   7
ENDBRANCH   1   6
TORSDOF 4
ENDMDL
MODEL 9
REMARK VINA RESULT:    -3.036      1.978      2.611
REMARK INTER + INTRA:          -3.950
REMARK INTER:                  -3.846
REMARK INTRA:                  -0.104
REMARK UNBOUND:                -0.203
REMARK SMILES CCCCCC(=O)[O-]
REMARK SMILES IDX 4 1 5 2 6 3 7 4 8 5 3 6 2 7 1 8
REMARK H PARENT
REMARK Flexibility Score: inf
ROOT
ATOM      1  C   UNL     1       5.226  27.420  13.242  1.00  0.00     0.006 C 
ENDROOT
BRANCH   1   2
ATOM      2  C   UNL     1       4.111  27.759  12.238  1.00  0.00     0.053 C 
BRANCH   2   3
ATOM      3  C   UNL     1       3.196  26.600  11.981  1.00  0.00     0.041 C 
ATOM      4  O   UNL     1       2.294  26.686  11.107  1.00  0.00    -0.550 OA
ATOM      5  O   UNL     1       3.361  25.410  12.682  1.00  0.00    -0.550 OA
ENDBRANCH   2   3
ENDBRANCH   1   2
BRANCH   1   6
ATOM      6  C   UNL     1       4.834  27.652  14.712  1.00  0.00     0.000 C 
BRANCH   6   7
ATOM      7  C   UNL     1       5.221  26.484  15.630  1.00  0.00    -0.003 C 
ATOM      8  C   UNL     1       6.645  26.012  15.351  1.00  0.00     0.004 C 
ENDBRANCH   6   7
ENDBRANCH   1   6
TORSDOF 4
ENDMDL
