MODEL 1
REMARK VINA RESULT:    24.194      0.000      0.000
REMARK INTER + INTRA:          30.107
REMARK INTER:                  29.852
REMARK INTRA:                   0.255
REMARK UNBOUND:                 0.255
REMARK SMILES C=C1[C@H]2CC[C@@H]3[C@@H]2C(C)(C)CCC[C@]13C
REMARK SMILES IDX 14 1 6 2 7 3 3 4 2 5 1 6 4 7 5 8 15 9 8 10 9 11 10 12 11 13
REMARK SMILES IDX 13 15 12 16
REMARK H PARENT
REMARK Flexibility Score: 80.00
ROOT
ATOM      1  C   UNL     1     146.390 145.288 161.698  1.00  0.00    -0.008 C 
ATOM      2  C   UNL     1     146.161 145.608 160.223  1.00  0.00     0.003 C 
ATOM      3  C   UNL     1     144.639 145.397 160.199  1.00  0.00     0.006 C 
ATOM      4  C   UNL     1     144.351 146.594 161.093  1.00  0.00     0.019 C 
ATOM      5  C   UNL     1     145.272 146.183 162.267  1.00  0.00    -0.068 C 
ATOM      6  C   UNL     1     145.076 146.492 163.552  1.00  0.00     0.009 C 
ATOM      7  C   UNL     1     145.029 147.748 160.375  1.00  0.00     0.008 C 
ATOM      8  C   UNL     1     146.303 147.102 159.833  1.00  0.00     0.005 C 
ATOM      9  C   UNL     1     147.790 145.694 162.198  1.00  0.00     0.016 C 
ENDROOT
BRANCH   3  10
ATOM     10  C   UNL     1     144.217 144.378 159.119  1.00  0.00    -0.032 C 
ATOM     11  C   UNL     1     142.675 144.384 158.978  1.00  0.00     0.011 C 
ATOM     12  C   UNL     1     144.805 144.705 157.724  1.00  0.00     0.011 C 
BRANCH  10  13
ATOM     13  C   UNL     1     144.718 142.942 159.626  1.00  0.00     0.007 CG0
ATOM     14  G   UNL     1     146.001 142.840 160.567  1.00  0.00     0.000 G0
ENDBRANCH  10  13
ENDBRANCH   3  10
BRANCH   1  15
ATOM     15  C   UNL     1     146.127 143.716 161.886  1.00  0.00     0.011 C 
BRANCH  15  16
ATOM     16  C   UNL     1     145.996 142.824 160.569  1.00  0.00     0.001 CG0
ATOM     17  G   UNL     1     144.719 142.945 159.622  1.00  0.00     0.000 G0
ENDBRANCH  15  16
ENDBRANCH   1  15
TORSDOF 0
ENDMDL
MODEL 2
REMARK VINA RESULT:    24.474      1.167      3.746
REMARK INTER + INTRA:          30.452
REMARK INTER:                  30.184
REMARK INTRA:                   0.269
REMARK UNBOUND:                 0.255
REMARK SMILES C=C1[C@H]2CC[C@@H]3[C@@H]2C(C)(C)CCC[C@]13C
REMARK SMILES IDX 14 1 6 2 7 3 3 4 2 5 1 6 4 7 5 8 15 9 8 10 9 11 10 12 11 13
REMARK SMILES IDX 13 15 12 16
REMARK H PARENT
REMARK Flexibility Score: 80.00
ROOT
ATOM      1  C   UNL     1     145.057 144.991 159.185  1.00  0.00    -0.008 C 
ATOM      2  C   UNL     1     144.854 145.938 160.365  1.00  0.00     0.003 C 
ATOM      3  C   UNL     1     146.294 145.913 160.901  1.00  0.00     0.006 C 
ATOM      4  C   UNL     1     146.872 146.629 159.690  1.00  0.00     0.019 C 
ATOM      5  C   UNL     1     146.322 145.660 158.614  1.00  0.00    -0.068 C 
ATOM      6  C   UNL     1     146.897 145.402 157.436  1.00  0.00     0.009 C 
ATOM      7  C   UNL     1     146.051 147.904 159.603  1.00  0.00     0.008 C 
ATOM      8  C   UNL     1     144.653 147.430 159.998  1.00  0.00     0.005 C 
ATOM      9  C   UNL     1     143.880 144.997 158.191  1.00  0.00     0.016 C 
ENDROOT
BRANCH   3  10
ATOM     10  C   UNL     1     146.346 145.509 162.390  1.00  0.00    -0.032 C 
ATOM     11  C   UNL     1     147.773 145.749 162.940  1.00  0.00     0.011 C 
ATOM     12  C   UNL     1     145.372 146.332 163.270  1.00  0.00     0.011 C 
BRANCH  10  13
ATOM     13  C   UNL     1     145.989 143.947 162.452  1.00  0.00     0.007 CG0
ATOM     14  G   UNL     1     145.012 143.317 161.360  1.00  0.00     0.000 G0
ENDBRANCH  10  13
ENDBRANCH   3  10
BRANCH   1  15
ATOM     15  C   UNL     1     145.311 143.528 159.793  1.00  0.00     0.011 C 
BRANCH  15  16
ATOM     16  C   UNL     1     145.030 143.312 161.350  1.00  0.00     0.001 CG0
ATOM     17  G   UNL     1     145.985 143.958 162.451  1.00  0.00     0.000 G0
ENDBRANCH  15  16
ENDBRANCH   1  15
TORSDOF 0
ENDMDL
MODEL 3
REMARK VINA RESULT:    24.545      2.111      3.872
REMARK INTER + INTRA:          30.539
REMARK INTER:                  30.270
REMARK INTRA:                   0.269
REMARK UNBOUND:                 0.255
REMARK SMILES C=C1[C@H]2CC[C@@H]3[C@@H]2C(C)(C)CCC[C@]13C
REMARK SMILES IDX 14 1 6 2 7 3 3 4 2 5 1 6 4 7 5 8 15 9 8 10 9 11 10 12 11 13
REMARK SMILES IDX 13 15 12 16
REMARK H PARENT
REMARK Flexibility Score: 80.00
ROOT
ATOM      1  C   UNL     1     144.386 145.439 161.667  1.00  0.00    -0.008 C 
ATOM      2  C   UNL     1     144.600 145.161 160.182  1.00  0.00     0.003 C 
ATOM      3  C   UNL     1     146.118 145.395 160.144  1.00  0.00     0.006 C 
ATOM      4  C   UNL     1     146.436 144.181 161.002  1.00  0.00     0.019 C 
ATOM      5  C   UNL     1     145.524 144.547 162.199  1.00  0.00    -0.068 C 
ATOM      6  C   UNL     1     145.742 144.209 163.473  1.00  0.00     0.009 C 
ATOM      7  C   UNL     1     145.765 143.035 160.264  1.00  0.00     0.008 C 
ATOM      8  C   UNL     1     144.475 143.676 159.755  1.00  0.00     0.005 C 
ATOM      9  C   UNL     1     142.999 145.000 162.174  1.00  0.00     0.016 C 
ENDROOT
BRANCH   3  10
ATOM     10  C   UNL     1     146.510 146.448 159.085  1.00  0.00    -0.032 C 
ATOM     11  C   UNL     1     148.049 146.461 158.915  1.00  0.00     0.011 C 
ATOM     12  C   UNL     1     145.900 146.155 157.692  1.00  0.00     0.011 C 
BRANCH  10  13
ATOM     13  C   UNL     1     146.007 147.865 159.641  1.00  0.00     0.007 CG0
ATOM     14  G   UNL     1     144.723 147.932 160.584  1.00  0.00     0.000 G0
ENDBRANCH  10  13
ENDBRANCH   3  10
BRANCH   1  15
ATOM     15  C   UNL     1     144.628 147.010 161.893  1.00  0.00     0.011 C 
BRANCH  15  16
ATOM     16  C   UNL     1     144.739 147.936 160.597  1.00  0.00     0.001 CG0
ATOM     17  G   UNL     1     146.014 147.858 159.642  1.00  0.00     0.000 G0
ENDBRANCH  15  16
ENDBRANCH   1  15
TORSDOF 0
ENDMDL
MODEL 4
REMARK VINA RESULT:    24.614      1.998      4.149
REMARK INTER + INTRA:          30.625
REMARK INTER:                  30.339
REMARK INTRA:                   0.287
REMARK UNBOUND:                 0.255
REMARK SMILES C=C1[C@H]2CC[C@@H]3[C@@H]2C(C)(C)CCC[C@]13C
REMARK SMILES IDX 14 1 6 2 7 3 3 4 2 5 1 6 4 7 5 8 15 9 8 10 9 11 10 12 11 13
REMARK SMILES IDX 13 15 12 16
REMARK H PARENT
REMARK Flexibility Score: 80.00
ROOT
ATOM      1  C   UNL     1     145.709 145.763 159.245  1.00  0.00    -0.008 C 
ATOM      2  C   UNL     1     145.904 144.802 160.414  1.00  0.00     0.003 C 
ATOM      3  C   UNL     1     144.463 144.826 160.946  1.00  0.00     0.006 C 
ATOM      4  C   UNL     1     143.885 144.129 159.725  1.00  0.00     0.019 C 
ATOM      5  C   UNL     1     144.442 145.107 158.663  1.00  0.00    -0.068 C 
ATOM      6  C   UNL     1     143.871 145.383 157.486  1.00  0.00     0.009 C 
ATOM      7  C   UNL     1     144.699 142.850 159.624  1.00  0.00     0.008 C 
ATOM      8  C   UNL     1     146.098 143.312 160.029  1.00  0.00     0.005 C 
ATOM      9  C   UNL     1     146.888 145.764 158.254  1.00  0.00     0.016 C 
ENDROOT
BRANCH   3  10
ATOM     10  C   UNL     1     144.409 145.212 162.440  1.00  0.00    -0.032 C 
ATOM     11  C   UNL     1     142.981 144.965 162.985  1.00  0.00     0.011 C 
ATOM     12  C   UNL     1     145.381 144.379 163.311  1.00  0.00     0.011 C 
BRANCH  10  13
ATOM     13  C   UNL     1     144.766 146.773 162.521  1.00  0.00     0.007 CG0
ATOM     14  G   UNL     1     145.744 147.417 161.438  1.00  0.00     0.000 G0
ENDBRANCH  10  13
ENDBRANCH   3  10
BRANCH   1  15
ATOM     15  C   UNL     1     145.460 147.221 159.870  1.00  0.00     0.011 C 
BRANCH  15  16
ATOM     16  C   UNL     1     145.726 147.412 161.433  1.00  0.00     0.001 CG0
ATOM     17  G   UNL     1     144.760 146.750 162.515  1.00  0.00     0.000 G0
ENDBRANCH  15  16
ENDBRANCH   1  15
TORSDOF 0
ENDMDL
MODEL 5
REMARK VINA RESULT:    25.416      1.149      3.280
REMARK INTER + INTRA:          31.614
REMARK INTER:                  31.376
REMARK INTRA:                   0.238
REMARK UNBOUND:                 0.255
REMARK SMILES C=C1[C@H]2CC[C@@H]3[C@@H]2C(C)(C)CCC[C@]13C
REMARK SMILES IDX 14 1 6 2 7 3 3 4 2 5 1 6 4 7 5 8 15 9 8 10 9 11 10 12 11 13
REMARK SMILES IDX 13 15 12 16
REMARK H PARENT
REMARK Flexibility Score: 80.00
ROOT
ATOM      1  C   UNL     1     144.943 145.957 160.241  1.00  0.00    -0.008 C 
ATOM      2  C   UNL     1     145.156 144.809 161.224  1.00  0.00     0.003 C 
ATOM      3  C   UNL     1     146.124 143.979 160.366  1.00  0.00     0.006 C 
ATOM      4  C   UNL     1     147.242 145.007 160.440  1.00  0.00     0.019 C 
ATOM      5  C   UNL     1     146.427 146.215 159.917  1.00  0.00    -0.068 C 
ATOM      6  C   UNL     1     146.925 147.252 159.238  1.00  0.00     0.009 C 
ATOM      7  C   UNL     1     147.441 145.214 161.931  1.00  0.00     0.008 C 
ATOM      8  C   UNL     1     146.013 145.148 162.471  1.00  0.00     0.005 C 
ATOM      9  C   UNL     1     144.250 147.179 160.874  1.00  0.00     0.016 C 
ENDROOT
BRANCH   3  10
ATOM     10  C   UNL     1     145.623 142.532 160.173  1.00  0.00    -0.032 C 
ATOM     11  C   UNL     1     146.729 141.689 159.492  1.00  0.00     0.011 C 
ATOM     12  C   UNL     1     145.275 141.833 161.511  1.00  0.00     0.011 C 
BRANCH  10  13
ATOM     13  C   UNL     1     144.334 142.618 159.223  1.00  0.00     0.007 CG0
ATOM     14  G   UNL     1     143.460 143.951 159.198  1.00  0.00     0.000 G0
ENDBRANCH  10  13
ENDBRANCH   3  10
BRANCH   1  15
ATOM     15  C   UNL     1     144.098 145.371 159.008  1.00  0.00     0.011 C 
BRANCH  15  16
ATOM     16  C   UNL     1     143.426 143.934 159.187  1.00  0.00     0.001 CG0
ATOM     17  G   UNL     1     144.319 142.613 159.245  1.00  0.00     0.000 G0
ENDBRANCH  15  16
ENDBRANCH   1  15
TORSDOF 0
ENDMDL
MODEL 6
REMARK VINA RESULT:    25.478      2.068      3.909
REMARK INTER + INTRA:          31.691
REMARK INTER:                  31.423
REMARK INTRA:                   0.268
REMARK UNBOUND:                 0.255
REMARK SMILES C=C1[C@H]2CC[C@@H]3[C@@H]2C(C)(C)CCC[C@]13C
REMARK SMILES IDX 14 1 6 2 7 3 3 4 2 5 1 6 4 7 5 8 15 9 8 10 9 11 10 12 11 13
REMARK SMILES IDX 13 15 12 16
REMARK H PARENT
REMARK Flexibility Score: 80.00
ROOT
ATOM      1  C   UNL     1     145.894 144.833 160.161  1.00  0.00    -0.008 C 
ATOM      2  C   UNL     1     145.674 146.036 161.073  1.00  0.00     0.003 C 
ATOM      3  C   UNL     1     144.776 146.851 160.128  1.00  0.00     0.006 C 
ATOM      4  C   UNL     1     143.622 145.864 160.199  1.00  0.00     0.019 C 
ATOM      5  C   UNL     1     144.419 144.605 159.779  1.00  0.00    -0.068 C 
ATOM      6  C   UNL     1     143.918 143.550 159.131  1.00  0.00     0.009 C 
ATOM      7  C   UNL     1     143.346 145.742 161.688  1.00  0.00     0.008 C 
ATOM      8  C   UNL     1     144.749 145.791 162.293  1.00  0.00     0.005 C 
ATOM      9  C   UNL     1     146.514 143.624 160.888  1.00  0.00     0.016 C 
ENDROOT
BRANCH   3  10
ATOM     10  C   UNL     1     145.335 148.269 159.886  1.00  0.00    -0.032 C 
ATOM     11  C   UNL     1     144.279 149.120 159.140  1.00  0.00     0.011 C 
ATOM     12  C   UNL     1     145.675 149.013 161.202  1.00  0.00     0.011 C 
BRANCH  10  13
ATOM     13  C   UNL     1     146.644 148.096 158.976  1.00  0.00     0.007 CG0
ATOM     14  G   UNL     1     147.518 146.767 159.095  1.00  0.00     0.000 G0
ENDBRANCH  10  13
ENDBRANCH   3  10
BRANCH   1  15
ATOM     15  C   UNL     1     146.815 145.326 158.943  1.00  0.00     0.011 C 
BRANCH  15  16
ATOM     16  C   UNL     1     147.509 146.759 159.071  1.00  0.00     0.001 CG0
ATOM     17  G   UNL     1     146.646 148.097 158.975  1.00  0.00     0.000 G0
ENDBRANCH  15  16
ENDBRANCH   1  15
TORSDOF 0
ENDMDL
MODEL 7
REMARK VINA RESULT:    25.718      2.524      4.311
REMARK INTER + INTRA:          31.987
REMARK INTER:                  31.717
REMARK INTRA:                   0.270
REMARK UNBOUND:                 0.255
REMARK SMILES C=C1[C@H]2CC[C@@H]3[C@@H]2C(C)(C)CCC[C@]13C
REMARK SMILES IDX 14 1 6 2 7 3 3 4 2 5 1 6 4 7 5 8 15 9 8 10 9 11 10 12 11 13
REMARK SMILES IDX 13 15 12 16
REMARK H PARENT
REMARK Flexibility Score: 80.00
ROOT
ATOM      1  C   UNL     1     144.814 145.800 161.898  1.00  0.00    -0.008 C 
ATOM      2  C   UNL     1     144.232 146.416 160.629  1.00  0.00     0.003 C 
ATOM      3  C   UNL     1     145.522 147.065 160.102  1.00  0.00     0.006 C 
ATOM      4  C   UNL     1     146.207 145.736 159.827  1.00  0.00     0.019 C 
ATOM      5  C   UNL     1     146.044 145.139 161.246  1.00  0.00    -0.068 C 
ATOM      6  C   UNL     1     146.876 144.265 161.821  1.00  0.00     0.009 C 
ATOM      7  C   UNL     1     145.227 145.009 158.922  1.00  0.00     0.008 C 
ATOM      8  C   UNL     1     143.873 145.413 159.503  1.00  0.00     0.005 C 
ATOM      9  C   UNL     1     143.873 144.780 162.566  1.00  0.00     0.016 C 
ENDROOT
BRANCH   3  10
ATOM     10  C   UNL     1     145.340 148.576 159.845  1.00  0.00    -0.032 C 
ATOM     11  C   UNL     1     146.569 149.120 159.076  1.00  0.00     0.011 C 
ATOM     12  C   UNL     1     144.089 148.893 158.988  1.00  0.00     0.011 C 
BRANCH  10  13
ATOM     13  C   UNL     1     145.238 149.277 161.284  1.00  0.00     0.007 CG0
ATOM     14  G   UNL     1     144.628 148.466 162.514  1.00  0.00     0.000 G0
ENDBRANCH  10  13
ENDBRANCH   3  10
BRANCH   1  15
ATOM     15  C   UNL     1     145.173 147.011 162.888  1.00  0.00     0.011 C 
BRANCH  15  16
ATOM     16  C   UNL     1     144.625 148.463 162.512  1.00  0.00     0.001 CG0
ATOM     17  G   UNL     1     145.242 149.279 161.289  1.00  0.00     0.000 G0
ENDBRANCH  15  16
ENDBRANCH   1  15
TORSDOF 0
ENDMDL
