MODEL 1
REMARK VINA RESULT:    -6.480      0.000      0.000
REMARK INTER + INTRA:          -8.775
REMARK INTER:                  -8.563
REMARK INTRA:                  -0.211
REMARK UNBOUND:                -0.211
REMARK SMILES CCCCC=CC=CCO
REMARK SMILES IDX 5 1 6 2 4 3 3 4 2 5 1 6 7 7 8 8 9 9 10 10
REMARK H PARENT 10 11
REMARK Flexibility Score: inf
ROOT
ATOM      1  C   UNL     1      17.129   4.245  12.905  1.00  0.00    -0.027 C 
ATOM      2  C   UNL     1      17.648   3.139  12.354  1.00  0.00    -0.005 C 
ENDROOT
BRANCH   1   3
ATOM      3  C   UNL     1      16.840   4.418  14.372  1.00  0.00     0.027 C 
BRANCH   3   4
ATOM      4  C   UNL     1      17.257   5.810  14.862  1.00  0.00     0.004 C 
BRANCH   4   5
ATOM      5  C   UNL     1      17.780   5.752  16.301  1.00  0.00    -0.003 C 
ATOM      6  C   UNL     1      17.525   7.066  17.034  1.00  0.00     0.004 C 
ENDBRANCH   4   5
ENDBRANCH   3   4
ENDBRANCH   1   3
BRANCH   2   7
ATOM      7  C   UNL     1      18.031   1.934  13.118  1.00  0.00    -0.002 C 
ATOM      8  C   UNL     1      19.150   1.267  12.825  1.00  0.00     0.001 C 
BRANCH   8   9
ATOM      9  C   UNL     1      19.547   0.036  13.585  1.00  0.00     0.183 C 
BRANCH   9  10
ATOM     10  O   UNL     1      18.492  -0.886  13.605  1.00  0.00    -0.392 OA
ATOM     11  H   UNL     1      17.701  -0.427  13.221  1.00  0.00     0.210 HD
ENDBRANCH   9  10
ENDBRANCH   8   9
ENDBRANCH   2   7
TORSDOF 6
ENDMDL
MODEL 2
REMARK VINA RESULT:    -6.375      3.245      7.115
REMARK INTER + INTRA:          -8.636
REMARK INTER:                  -8.431
REMARK INTRA:                  -0.205
REMARK UNBOUND:                -0.211
REMARK SMILES CCCCC=CC=CCO
REMARK SMILES IDX 5 1 6 2 4 3 3 4 2 5 1 6 7 7 8 8 9 9 10 10
REMARK H PARENT 10 11
REMARK Flexibility Score: inf
ROOT
ATOM      1  C   UNL     1      20.793  -0.189  12.547  1.00  0.00    -0.027 C 
ATOM      2  C   UNL     1      20.086   0.654  13.312  1.00  0.00    -0.005 C 
ENDROOT
BRANCH   1   3
ATOM      3  C   UNL     1      20.254  -0.905  11.337  1.00  0.00     0.027 C 
BRANCH   3   4
ATOM      4  C   UNL     1      21.370  -1.215  10.331  1.00  0.00     0.004 C 
BRANCH   4   5
ATOM      5  C   UNL     1      20.818  -1.279   8.904  1.00  0.00    -0.003 C 
ATOM      6  C   UNL     1      21.895  -1.720   7.915  1.00  0.00     0.004 C 
ENDBRANCH   4   5
ENDBRANCH   3   4
ENDBRANCH   1   3
BRANCH   2   7
ATOM      7  C   UNL     1      18.676   1.018  13.061  1.00  0.00    -0.002 C 
ATOM      8  C   UNL     1      18.332   2.284  12.817  1.00  0.00     0.001 C 
BRANCH   8   9
ATOM      9  C   UNL     1      16.904   2.671  12.570  1.00  0.00     0.183 C 
BRANCH   9  10
ATOM     10  O   UNL     1      16.038   1.776  13.212  1.00  0.00    -0.392 OA
ATOM     11  H   UNL     1      16.192   1.877  14.187  1.00  0.00     0.210 HD
ENDBRANCH   9  10
ENDBRANCH   8   9
ENDBRANCH   2   7
TORSDOF 6
ENDMDL
MODEL 3
REMARK VINA RESULT:    -6.286      2.340      3.843
REMARK INTER + INTRA:          -8.518
REMARK INTER:                  -8.301
REMARK INTRA:                  -0.217
REMARK UNBOUND:                -0.211
REMARK SMILES CCCCC=CC=CCO
REMARK SMILES IDX 5 1 6 2 4 3 3 4 2 5 1 6 7 7 8 8 9 9 10 10
REMARK H PARENT 10 11
REMARK Flexibility Score: inf
ROOT
ATOM      1  C   UNL     1      18.734   1.083  13.525  1.00  0.00    -0.027 C 
ATOM      2  C   UNL     1      19.737   0.195  13.546  1.00  0.00    -0.005 C 
ENDROOT
BRANCH   1   3
ATOM      3  C   UNL     1      18.470   2.052  12.404  1.00  0.00     0.027 C 
BRANCH   3   4
ATOM      4  C   UNL     1      17.169   2.832  12.637  1.00  0.00     0.004 C 
BRANCH   4   5
ATOM      5  C   UNL     1      17.381   4.332  12.407  1.00  0.00    -0.003 C 
ATOM      6  C   UNL     1      17.011   5.139  13.649  1.00  0.00     0.004 C 
ENDBRANCH   4   5
ENDBRANCH   3   4
ENDBRANCH   1   3
BRANCH   2   7
ATOM      7  C   UNL     1      20.719   0.028  12.454  1.00  0.00    -0.002 C 
ATOM      8  C   UNL     1      20.646  -1.017  11.626  1.00  0.00     0.001 C 
BRANCH   8   9
ATOM      9  C   UNL     1      21.640  -1.206  10.519  1.00  0.00     0.183 C 
BRANCH   9  10
ATOM     10  O   UNL     1      22.713  -1.995  10.957  1.00  0.00    -0.392 OA
ATOM     11  H   UNL     1      23.510  -1.708  10.441  1.00  0.00     0.210 HD
ENDBRANCH   9  10
ENDBRANCH   8   9
ENDBRANCH   2   7
TORSDOF 6
ENDMDL
MODEL 4
REMARK VINA RESULT:    -6.267      5.026      8.701
REMARK INTER + INTRA:          -8.493
REMARK INTER:                  -8.205
REMARK INTRA:                  -0.288
REMARK UNBOUND:                -0.211
REMARK SMILES CCCCC=CC=CCO
REMARK SMILES IDX 5 1 6 2 4 3 3 4 2 5 1 6 7 7 8 8 9 9 10 10
REMARK H PARENT 10 11
REMARK Flexibility Score: inf
ROOT
ATOM      1  C   UNL     1      21.882  -1.561   9.537  1.00  0.00    -0.027 C 
ATOM      2  C   UNL     1      21.861  -1.411  10.869  1.00  0.00    -0.005 C 
ENDROOT
BRANCH   1   3
ATOM      3  C   UNL     1      20.727  -1.255   8.621  1.00  0.00     0.027 C 
BRANCH   3   4
ATOM      4  C   UNL     1      20.840  -2.033   7.304  1.00  0.00     0.004 C 
BRANCH   4   5
ATOM      5  C   UNL     1      22.302  -2.358   6.982  1.00  0.00    -0.003 C 
ATOM      6  C   UNL     1      22.630  -2.041   5.526  1.00  0.00     0.004 C 
ENDBRANCH   4   5
ENDBRANCH   3   4
ENDBRANCH   1   3
BRANCH   2   7
ATOM      7  C   UNL     1      20.701  -0.899  11.626  1.00  0.00    -0.002 C 
ATOM      8  C   UNL     1      20.859   0.035  12.568  1.00  0.00     0.001 C 
BRANCH   8   9
ATOM      9  C   UNL     1      19.693   0.557  13.353  1.00  0.00     0.183 C 
BRANCH   9  10
ATOM     10  O   UNL     1      18.771  -0.469  13.599  1.00  0.00    -0.392 OA
ATOM     11  H   UNL     1      17.892  -0.153  13.267  1.00  0.00     0.210 HD
ENDBRANCH   9  10
ENDBRANCH   8   9
ENDBRANCH   2   7
TORSDOF 6
ENDMDL
MODEL 5
REMARK VINA RESULT:    -6.248      4.682      6.897
REMARK INTER + INTRA:          -8.469
REMARK INTER:                  -8.267
REMARK INTRA:                  -0.201
REMARK UNBOUND:                -0.211
REMARK SMILES CCCCC=CC=CCO
REMARK SMILES IDX 5 1 6 2 4 3 3 4 2 5 1 6 7 7 8 8 9 9 10 10
REMARK H PARENT 10 11
REMARK Flexibility Score: inf
ROOT
ATOM      1  C   UNL     1      21.724  -1.358  11.135  1.00  0.00    -0.027 C 
ATOM      2  C   UNL     1      21.945  -1.551   9.827  1.00  0.00    -0.005 C 
ENDROOT
BRANCH   1   3
ATOM      3  C   UNL     1      20.435  -0.847  11.720  1.00  0.00     0.027 C 
BRANCH   3   4
ATOM      4  C   UNL     1      20.694   0.220  12.792  1.00  0.00     0.004 C 
BRANCH   4   5
ATOM      5  C   UNL     1      19.423   0.506  13.599  1.00  0.00    -0.003 C 
ATOM      6  C   UNL     1      18.586   1.599  12.940  1.00  0.00     0.004 C 
ENDBRANCH   4   5
ENDBRANCH   3   4
ENDBRANCH   1   3
BRANCH   2   7
ATOM      7  C   UNL     1      20.940  -1.308   8.772  1.00  0.00    -0.002 C 
ATOM      8  C   UNL     1      21.236  -1.517   7.487  1.00  0.00     0.001 C 
BRANCH   8   9
ATOM      9  C   UNL     1      20.230  -1.265   6.404  1.00  0.00     0.183 C 
BRANCH   9  10
ATOM     10  O   UNL     1      20.210   0.094   6.063  1.00  0.00    -0.392 OA
ATOM     11  H   UNL     1      21.033   0.498   6.442  1.00  0.00     0.210 HD
ENDBRANCH   9  10
ENDBRANCH   8   9
ENDBRANCH   2   7
TORSDOF 6
ENDMDL
MODEL 6
REMARK VINA RESULT:    -6.196      1.896      3.132
REMARK INTER + INTRA:          -8.400
REMARK INTER:                  -8.089
REMARK INTRA:                  -0.311
REMARK UNBOUND:                -0.211
REMARK SMILES CCCCC=CC=CCO
REMARK SMILES IDX 5 1 6 2 4 3 3 4 2 5 1 6 7 7 8 8 9 9 10 10
REMARK H PARENT 10 11
REMARK Flexibility Score: inf
ROOT
ATOM      1  C   UNL     1      17.201   6.474  15.389  1.00  0.00    -0.027 C 
ATOM      2  C   UNL     1      16.767   6.059  14.190  1.00  0.00    -0.005 C 
ENDROOT
BRANCH   1   3
ATOM      3  C   UNL     1      17.698   5.566  16.481  1.00  0.00     0.027 C 
BRANCH   3   4
ATOM      4  C   UNL     1      17.837   6.319  17.811  1.00  0.00     0.004 C 
BRANCH   4   5
ATOM      5  C   UNL     1      17.434   7.789  17.653  1.00  0.00    -0.003 C 
ATOM      6  C   UNL     1      18.385   8.706  18.416  1.00  0.00     0.004 C 
ENDBRANCH   4   5
ENDBRANCH   3   4
ENDBRANCH   1   3
BRANCH   2   7
ATOM      7  C   UNL     1      16.736   4.645  13.764  1.00  0.00    -0.002 C 
ATOM      8  C   UNL     1      17.423   4.241  12.693  1.00  0.00     0.001 C 
BRANCH   8   9
ATOM      9  C   UNL     1      17.394   2.811  12.241  1.00  0.00     0.183 C 
BRANCH   9  10
ATOM     10  O   UNL     1      16.747   2.012  13.193  1.00  0.00    -0.392 OA
ATOM     11  H   UNL     1      17.122   2.257  14.078  1.00  0.00     0.210 HD
ENDBRANCH   9  10
ENDBRANCH   8   9
ENDBRANCH   2   7
TORSDOF 6
ENDMDL
MODEL 7
REMARK VINA RESULT:    -6.183      3.743      6.069
REMARK INTER + INTRA:          -8.383
REMARK INTER:                  -8.169
REMARK INTRA:                  -0.214
REMARK UNBOUND:                -0.211
REMARK SMILES CCCCC=CC=CCO
REMARK SMILES IDX 5 1 6 2 4 3 3 4 2 5 1 6 7 7 8 8 9 9 10 10
REMARK H PARENT 10 11
REMARK Flexibility Score: inf
ROOT
ATOM      1  C   UNL     1      17.692   5.830  17.181  1.00  0.00    -0.027 C 
ATOM      2  C   UNL     1      18.736   6.148  17.960  1.00  0.00    -0.005 C 
ENDROOT
BRANCH   1   3
ATOM      3  C   UNL     1      17.563   6.198  15.727  1.00  0.00     0.027 C 
BRANCH   3   4
ATOM      4  C   UNL     1      17.124   4.994  14.885  1.00  0.00     0.004 C 
BRANCH   4   5
ATOM      5  C   UNL     1      16.787   5.421  13.452  1.00  0.00    -0.003 C 
ATOM      6  C   UNL     1      17.507   4.543  12.432  1.00  0.00     0.004 C 
ENDBRANCH   4   5
ENDBRANCH   3   4
ENDBRANCH   1   3
BRANCH   2   7
ATOM      7  C   UNL     1      19.922   6.892  17.490  1.00  0.00    -0.002 C 
ATOM      8  C   UNL     1      21.154   6.449  17.754  1.00  0.00     0.001 C 
BRANCH   8   9
ATOM      9  C   UNL     1      22.369   7.198  17.294  1.00  0.00     0.183 C 
BRANCH   9  10
ATOM     10  O   UNL     1      22.388   7.283  15.895  1.00  0.00    -0.392 OA
ATOM     11  H   UNL     1      23.044   6.611  15.575  1.00  0.00     0.210 HD
ENDBRANCH   9  10
ENDBRANCH   8   9
ENDBRANCH   2   7
TORSDOF 6
ENDMDL
MODEL 8
REMARK VINA RESULT:    -6.173      2.799      5.894
REMARK INTER + INTRA:          -8.369
REMARK INTER:                  -8.147
REMARK INTRA:                  -0.222
REMARK UNBOUND:                -0.211
REMARK SMILES CCCCC=CC=CCO
REMARK SMILES IDX 5 1 6 2 4 3 3 4 2 5 1 6 7 7 8 8 9 9 10 10
REMARK H PARENT 10 11
REMARK Flexibility Score: inf
ROOT
ATOM      1  C   UNL     1      17.776   1.988  12.362  1.00  0.00    -0.027 C 
ATOM      2  C   UNL     1      17.134   3.153  12.197  1.00  0.00    -0.005 C 
ENDROOT
BRANCH   1   3
ATOM      3  C   UNL     1      18.940   1.773  13.291  1.00  0.00     0.027 C 
BRANCH   3   4
ATOM      4  C   UNL     1      19.389   0.306  13.291  1.00  0.00     0.004 C 
BRANCH   4   5
ATOM      5  C   UNL     1      20.810   0.169  12.733  1.00  0.00    -0.003 C 
ATOM      6  C   UNL     1      20.870  -0.885  11.631  1.00  0.00     0.004 C 
ENDBRANCH   4   5
ENDBRANCH   3   4
ENDBRANCH   1   3
BRANCH   2   7
ATOM      7  C   UNL     1      17.470   4.393  12.927  1.00  0.00    -0.002 C 
ATOM      8  C   UNL     1      16.851   4.701  14.069  1.00  0.00     0.001 C 
BRANCH   8   9
ATOM      9  C   UNL     1      17.173   5.961  14.817  1.00  0.00     0.183 C 
BRANCH   9  10
ATOM     10  O   UNL     1      16.422   7.032  14.314  1.00  0.00    -0.392 OA
ATOM     11  H   UNL     1      15.479   6.727  14.271  1.00  0.00     0.210 HD
ENDBRANCH   9  10
ENDBRANCH   8   9
ENDBRANCH   2   7
TORSDOF 6
ENDMDL
MODEL 9
REMARK VINA RESULT:    -6.045      3.660      6.435
REMARK INTER + INTRA:          -8.200
REMARK INTER:                  -7.927
REMARK INTRA:                  -0.273
REMARK UNBOUND:                -0.211
REMARK SMILES CCCCC=CC=CCO
REMARK SMILES IDX 5 1 6 2 4 3 3 4 2 5 1 6 7 7 8 8 9 9 10 10
REMARK H PARENT 10 11
REMARK Flexibility Score: inf
ROOT
ATOM      1  C   UNL     1      17.163   4.961  15.175  1.00  0.00    -0.027 C 
ATOM      2  C   UNL     1      17.520   5.486  16.356  1.00  0.00    -0.005 C 
ENDROOT
BRANCH   1   3
ATOM      3  C   UNL     1      17.026   5.743  13.896  1.00  0.00     0.027 C 
BRANCH   3   4
ATOM      4  C   UNL     1      17.585   4.959  12.702  1.00  0.00     0.004 C 
BRANCH   4   5
ATOM      5  C   UNL     1      16.936   3.574  12.603  1.00  0.00    -0.003 C 
ATOM      6  C   UNL     1      17.985   2.468  12.671  1.00  0.00     0.004 C 
ENDBRANCH   4   5
ENDBRANCH   3   4
ENDBRANCH   1   3
BRANCH   2   7
ATOM      7  C   UNL     1      17.852   6.910  16.563  1.00  0.00    -0.002 C 
ATOM      8  C   UNL     1      17.744   7.467  17.772  1.00  0.00     0.001 C 
BRANCH   8   9
ATOM      9  C   UNL     1      18.067   8.914  17.997  1.00  0.00     0.183 C 
BRANCH   9  10
ATOM     10  O   UNL     1      18.629   9.473  16.842  1.00  0.00    -0.392 OA
ATOM     11  H   UNL     1      18.605   8.772  16.140  1.00  0.00     0.210 HD
ENDBRANCH   9  10
ENDBRANCH   8   9
ENDBRANCH   2   7
TORSDOF 6
ENDMDL
