MODEL 1
REMARK VINA RESULT:    -3.129      0.000      0.000
REMARK INTER + INTRA:          -3.454
REMARK INTER:                  -4.409
REMARK INTRA:                   0.955
REMARK UNBOUND:                 0.955
REMARK SMILES CC1=CCC(=C(C)C)C(=O)CC(C)=CCC1
REMARK SMILES IDX 12 1 14 2 13 3 15 4 16 5 2 6 1 7 3 8 11 10 9 11 10 12 5 13
REMARK SMILES IDX 6 14 7 15 8 16 4 17
REMARK H PARENT
REMARK Flexibility Score: 60.00
ROOT
ATOM      1  C   UNL     1      -2.512 -12.842  -7.520  1.00  0.00    -0.070 C 
ATOM      2  C   UNL     1      -3.004 -13.275  -8.704  1.00  0.00    -0.027 C 
ATOM      3  C   UNL     1      -2.534 -11.361  -7.241  1.00  0.00     0.039 C 
ENDROOT
BRANCH   2   4
ATOM      4  C   UNL     1      -3.116 -14.723  -9.125  1.00  0.00     0.032 C 
BRANCH   4   5
ATOM      5  C   UNL     1      -4.534 -15.269  -8.905  1.00  0.00     0.034 C 
BRANCH   5   6
ATOM      6  C   UNL     1      -5.442 -14.315  -8.141  1.00  0.00    -0.077 C 
ATOM      7  C   UNL     1      -6.027 -13.129  -8.869  1.00  0.00     0.039 C 
ATOM      8  C   UNL     1      -5.770 -14.481  -6.841  1.00  0.00    -0.023 CG0
ATOM      9  G   UNL     1      -5.231 -15.561  -5.931  1.00  0.00     0.000 G0
ENDBRANCH   5   6
ENDBRANCH   4   5
ENDBRANCH   2   4
BRANCH   1  10
ATOM     10  C   UNL     1      -1.941 -13.779  -6.472  1.00  0.00     0.111 C 
BRANCH  10  11
ATOM     11  C   UNL     1      -3.014 -14.265  -5.539  1.00  0.00     0.163 C 
ATOM     12  O   UNL     1      -3.335 -13.560  -4.544  1.00  0.00    -0.294 OA
BRANCH  11  13
ATOM     13  C   UNL     1      -3.719 -15.550  -5.777  1.00  0.00    -0.002 C 
ATOM     14  C   UNL     1      -3.017 -16.713  -5.866  1.00  0.00    -0.069 C 
ATOM     15  C   UNL     1      -1.523 -16.744  -5.633  1.00  0.00     0.039 C 
ATOM     16  C   UNL     1      -3.711 -18.023  -6.160  1.00  0.00     0.039 C 
BRANCH  13  17
ATOM     17  C   UNL     1      -5.237 -15.548  -5.920  1.00  0.00     0.066 CG0
ATOM     18  G   UNL     1      -5.760 -14.478  -6.850  1.00  0.00     0.000 G0
ENDBRANCH  13  17
ENDBRANCH  11  13
ENDBRANCH  10  11
ENDBRANCH   1  10
TORSDOF 0
ENDMDL
MODEL 2
REMARK VINA RESULT:    -3.052      2.140      3.634
REMARK INTER + INTRA:          -3.346
REMARK INTER:                  -3.993
REMARK INTRA:                   0.647
REMARK UNBOUND:                 0.955
REMARK SMILES CC1=CCC(=C(C)C)C(=O)CC(C)=CCC1
REMARK SMILES IDX 12 1 14 2 13 3 15 4 16 5 2 6 1 7 3 8 11 10 9 11 10 12 5 13
REMARK SMILES IDX 6 14 7 15 8 16 4 17
REMARK H PARENT
REMARK Flexibility Score: 60.00
ROOT
ATOM      1  C   UNL     1      -5.781 -13.083  -6.661  1.00  0.00    -0.070 C 
ATOM      2  C   UNL     1      -5.349 -11.986  -7.328  1.00  0.00    -0.027 C 
ATOM      3  C   UNL     1      -6.058 -12.952  -5.185  1.00  0.00     0.039 C 
ENDROOT
BRANCH   2   4
ATOM      4  C   UNL     1      -5.081 -11.920  -8.814  1.00  0.00     0.032 C 
BRANCH   4   5
ATOM      5  C   UNL     1      -3.583 -11.761  -9.113  1.00  0.00     0.034 C 
BRANCH   5   6
ATOM      6  C   UNL     1      -2.722 -11.649  -7.863  1.00  0.00    -0.077 C 
ATOM      7  C   UNL     1      -2.471 -10.282  -7.273  1.00  0.00     0.039 C 
ATOM      8  C   UNL     1      -2.178 -12.715  -7.235  1.00  0.00    -0.023 CG0
ATOM      9  G   UNL     1      -2.259 -14.147  -7.712  1.00  0.00     0.000 G0
ENDBRANCH   5   6
ENDBRANCH   4   5
ENDBRANCH   2   4
BRANCH   1  10
ATOM     10  C   UNL     1      -5.993 -14.427  -7.332  1.00  0.00     0.111 C 
BRANCH  10  11
ATOM     11  C   UNL     1      -4.712 -14.942  -7.926  1.00  0.00     0.163 C 
ATOM     12  O   UNL     1      -4.709 -15.370  -9.112  1.00  0.00    -0.294 OA
BRANCH  11  13
ATOM     13  C   UNL     1      -3.445 -14.937  -7.151  1.00  0.00    -0.002 C 
ATOM     14  C   UNL     1      -3.357 -15.614  -5.974  1.00  0.00    -0.069 C 
ATOM     15  C   UNL     1      -4.505 -16.461  -5.471  1.00  0.00     0.039 C 
ATOM     16  C   UNL     1      -2.093 -15.578  -5.146  1.00  0.00     0.039 C 
BRANCH  13  17
ATOM     17  C   UNL     1      -2.247 -14.164  -7.692  1.00  0.00     0.066 CG0
ATOM     18  G   UNL     1      -2.188 -12.728  -7.227  1.00  0.00     0.000 G0
ENDBRANCH  13  17
ENDBRANCH  11  13
ENDBRANCH  10  11
ENDBRANCH   1  10
TORSDOF 0
ENDMDL
MODEL 3
REMARK VINA RESULT:    -2.804      1.779      2.379
REMARK INTER + INTRA:          -2.996
REMARK INTER:                  -4.821
REMARK INTRA:                   1.825
REMARK UNBOUND:                 0.955
REMARK SMILES CC1=CCC(=C(C)C)C(=O)CC(C)=CCC1
REMARK SMILES IDX 12 1 14 2 13 3 15 4 16 5 2 6 1 7 3 8 11 10 9 11 10 12 5 13
REMARK SMILES IDX 6 14 7 15 8 16 4 17
REMARK H PARENT
REMARK Flexibility Score: 60.00
ROOT
ATOM      1  C   UNL     1      -2.917 -11.586  -8.536  1.00  0.00    -0.070 C 
ATOM      2  C   UNL     1      -4.158 -11.600  -9.078  1.00  0.00    -0.027 C 
ATOM      3  C   UNL     1      -1.896 -10.647  -9.125  1.00  0.00     0.039 C 
ENDROOT
BRANCH   2   4
ATOM      4  C   UNL     1      -5.318 -12.431  -8.579  1.00  0.00     0.032 C 
BRANCH   4   5
ATOM      5  C   UNL     1      -5.913 -11.854  -7.286  1.00  0.00     0.034 C 
BRANCH   5   6
ATOM      6  C   UNL     1      -6.089 -12.888  -6.184  1.00  0.00    -0.077 C 
ATOM      7  C   UNL     1      -6.762 -12.474  -4.898  1.00  0.00     0.039 C 
ATOM      8  C   UNL     1      -5.688 -14.175  -6.299  1.00  0.00    -0.023 CG0
ATOM      9  G   UNL     1      -4.937 -14.757  -7.474  1.00  0.00     0.000 G0
ENDBRANCH   5   6
ENDBRANCH   4   5
ENDBRANCH   2   4
BRANCH   1  10
ATOM     10  C   UNL     1      -2.515 -12.472  -7.372  1.00  0.00     0.111 C 
BRANCH  10  11
ATOM     11  C   UNL     1      -2.488 -13.919  -7.778  1.00  0.00     0.163 C 
ATOM     12  O   UNL     1      -1.641 -14.307  -8.628  1.00  0.00    -0.294 OA
BRANCH  11  13
ATOM     13  C   UNL     1      -3.425 -14.905  -7.181  1.00  0.00    -0.002 C 
ATOM     14  C   UNL     1      -2.954 -15.913  -6.398  1.00  0.00    -0.069 C 
ATOM     15  C   UNL     1      -1.488 -16.004  -6.038  1.00  0.00     0.039 C 
ATOM     16  C   UNL     1      -3.886 -16.955  -5.824  1.00  0.00     0.039 C 
BRANCH  13  17
ATOM     17  C   UNL     1      -4.919 -14.770  -7.457  1.00  0.00     0.066 CG0
ATOM     18  G   UNL     1      -5.700 -14.178  -6.307  1.00  0.00     0.000 G0
ENDBRANCH  13  17
ENDBRANCH  11  13
ENDBRANCH  10  11
ENDBRANCH   1  10
TORSDOF 0
ENDMDL
MODEL 4
REMARK VINA RESULT:    -2.503      1.871      4.225
REMARK INTER + INTRA:          -2.571
REMARK INTER:                  -4.656
REMARK INTRA:                   2.085
REMARK UNBOUND:                 0.955
REMARK SMILES CC1=CCC(=C(C)C)C(=O)CC(C)=CCC1
REMARK SMILES IDX 12 1 14 2 13 3 15 4 16 5 2 6 1 7 3 8 11 10 9 11 10 12 5 13
REMARK SMILES IDX 6 14 7 15 8 16 4 17
REMARK H PARENT
REMARK Flexibility Score: 60.00
ROOT
ATOM      1  C   UNL     1      -3.020 -15.980  -6.472  1.00  0.00    -0.070 C 
ATOM      2  C   UNL     1      -2.134 -14.991  -6.208  1.00  0.00    -0.027 C 
ATOM      3  C   UNL     1      -2.777 -17.333  -5.854  1.00  0.00     0.039 C 
ENDROOT
BRANCH   2   4
ATOM      4  C   UNL     1      -2.251 -13.563  -6.690  1.00  0.00     0.032 C 
BRANCH   4   5
ATOM      5  C   UNL     1      -2.107 -13.467  -8.216  1.00  0.00     0.034 C 
BRANCH   5   6
ATOM      6  C   UNL     1      -2.786 -12.243  -8.815  1.00  0.00    -0.077 C 
ATOM      7  C   UNL     1      -1.953 -11.017  -9.101  1.00  0.00     0.039 C 
ATOM      8  C   UNL     1      -4.101 -12.198  -9.125  1.00  0.00    -0.023 CG0
ATOM      9  G   UNL     1      -5.104 -13.295  -8.850  1.00  0.00     0.000 G0
ENDBRANCH   5   6
ENDBRANCH   4   5
ENDBRANCH   2   4
BRANCH   1  10
ATOM     10  C   UNL     1      -4.234 -15.785  -7.359  1.00  0.00     0.111 C 
BRANCH  10  11
ATOM     11  C   UNL     1      -5.192 -14.796  -6.755  1.00  0.00     0.163 C 
ATOM     12  O   UNL     1      -5.784 -15.087  -5.680  1.00  0.00    -0.294 OA
BRANCH  11  13
ATOM     13  C   UNL     1      -5.438 -13.475  -7.387  1.00  0.00    -0.002 C 
ATOM     14  C   UNL     1      -5.945 -12.447  -6.654  1.00  0.00    -0.069 C 
ATOM     15  C   UNL     1      -6.183 -12.589  -5.167  1.00  0.00     0.039 C 
ATOM     16  C   UNL     1      -6.250 -11.111  -7.291  1.00  0.00     0.039 C 
BRANCH  13  17
ATOM     17  C   UNL     1      -5.113 -13.287  -8.865  1.00  0.00     0.066 CG0
ATOM     18  G   UNL     1      -4.092 -12.206  -9.131  1.00  0.00     0.000 G0
ENDBRANCH  13  17
ENDBRANCH  11  13
ENDBRANCH  10  11
ENDBRANCH   1  10
TORSDOF 0
ENDMDL
MODEL 5
REMARK VINA RESULT:    -2.190      1.624      3.773
REMARK INTER + INTRA:          -2.130
REMARK INTER:                  -3.236
REMARK INTRA:                   1.106
REMARK UNBOUND:                 0.955
REMARK SMILES CC1=CCC(=C(C)C)C(=O)CC(C)=CCC1
REMARK SMILES IDX 12 1 14 2 13 3 15 4 16 5 2 6 1 7 3 8 11 10 9 11 10 12 5 13
REMARK SMILES IDX 6 14 7 15 8 16 4 17
REMARK H PARENT
REMARK Flexibility Score: 60.00
ROOT
ATOM      1  C   UNL     1      -3.566 -15.215  -5.556  1.00  0.00    -0.070 C 
ATOM      2  C   UNL     1      -2.963 -15.706  -6.664  1.00  0.00    -0.027 C 
ATOM      3  C   UNL     1      -4.144 -16.196  -4.569  1.00  0.00     0.039 C 
ENDROOT
BRANCH   2   4
ATOM      4  C   UNL     1      -2.279 -14.875  -7.725  1.00  0.00     0.032 C 
BRANCH   4   5
ATOM      5  C   UNL     1      -3.117 -14.792  -9.009  1.00  0.00     0.034 C 
BRANCH   5   6
ATOM      6  C   UNL     1      -4.498 -15.419  -8.874  1.00  0.00    -0.077 C 
ATOM      7  C   UNL     1      -4.640 -16.911  -9.054  1.00  0.00     0.039 C 
ATOM      8  C   UNL     1      -5.612 -14.710  -8.583  1.00  0.00    -0.023 CG0
ATOM      9  G   UNL     1      -5.681 -13.207  -8.438  1.00  0.00     0.000 G0
ENDBRANCH   5   6
ENDBRANCH   4   5
ENDBRANCH   2   4
BRANCH   1  10
ATOM     10  C   UNL     1      -3.686 -13.730  -5.272  1.00  0.00     0.111 C 
BRANCH  10  11
ATOM     11  C   UNL     1      -4.871 -13.137  -5.982  1.00  0.00     0.163 C 
ATOM     12  O   UNL     1      -5.971 -13.038  -5.373  1.00  0.00    -0.294 OA
BRANCH  11  13
ATOM     13  C   UNL     1      -4.765 -12.644  -7.379  1.00  0.00    -0.002 C 
ATOM     14  C   UNL     1      -3.845 -11.696  -7.705  1.00  0.00    -0.069 C 
ATOM     15  C   UNL     1      -2.848 -11.190  -6.686  1.00  0.00     0.039 C 
ATOM     16  C   UNL     1      -3.757 -11.145  -9.109  1.00  0.00     0.039 C 
BRANCH  13  17
ATOM     17  C   UNL     1      -5.700 -13.214  -8.439  1.00  0.00     0.066 CG0
ATOM     18  G   UNL     1      -5.622 -14.718  -8.575  1.00  0.00     0.000 G0
ENDBRANCH  13  17
ENDBRANCH  11  13
ENDBRANCH  10  11
ENDBRANCH   1  10
TORSDOF 0
ENDMDL
MODEL 6
REMARK VINA RESULT:    -1.911      1.948      4.621
REMARK INTER + INTRA:          -1.737
REMARK INTER:                  -2.391
REMARK INTRA:                   0.653
REMARK UNBOUND:                 0.955
REMARK SMILES CC1=CCC(=C(C)C)C(=O)CC(C)=CCC1
REMARK SMILES IDX 12 1 14 2 13 3 15 4 16 5 2 6 1 7 3 8 11 10 9 11 10 12 5 13
REMARK SMILES IDX 6 14 7 15 8 16 4 17
REMARK H PARENT
REMARK Flexibility Score: 60.00
ROOT
ATOM      1  C   UNL     1      -5.331 -13.606  -8.021  1.00  0.00    -0.070 C 
ATOM      2  C   UNL     1      -5.497 -14.535  -7.051  1.00  0.00    -0.027 C 
ATOM      3  C   UNL     1      -6.219 -12.388  -7.998  1.00  0.00     0.039 C 
ENDROOT
BRANCH   2   4
ATOM      4  C   UNL     1      -4.659 -15.782  -6.885  1.00  0.00     0.032 C 
BRANCH   4   5
ATOM      5  C   UNL     1      -3.859 -15.756  -5.574  1.00  0.00     0.034 C 
BRANCH   5   6
ATOM      6  C   UNL     1      -2.354 -15.660  -5.782  1.00  0.00    -0.077 C 
ATOM      7  C   UNL     1      -1.528 -16.921  -5.707  1.00  0.00     0.039 C 
ATOM      8  C   UNL     1      -1.713 -14.501  -6.050  1.00  0.00    -0.023 CG0
ATOM      9  G   UNL     1      -2.355 -13.134  -6.095  1.00  0.00     0.000 G0
ENDBRANCH   5   6
ENDBRANCH   4   5
ENDBRANCH   2   4
BRANCH   1  10
ATOM     10  C   UNL     1      -4.298 -13.740  -9.124  1.00  0.00     0.111 C 
BRANCH  10  11
ATOM     11  C   UNL     1      -2.906 -13.557  -8.586  1.00  0.00     0.163 C 
ATOM     12  O   UNL     1      -1.959 -14.228  -9.080  1.00  0.00    -0.294 OA
BRANCH  11  13
ATOM     13  C   UNL     1      -2.620 -12.585  -7.500  1.00  0.00    -0.002 C 
ATOM     14  C   UNL     1      -2.619 -11.249  -7.757  1.00  0.00    -0.069 C 
ATOM     15  C   UNL     1      -2.998 -10.714  -9.121  1.00  0.00     0.039 C 
ATOM     16  C   UNL     1      -2.280 -10.247  -6.678  1.00  0.00     0.039 C 
BRANCH  13  17
ATOM     17  C   UNL     1      -2.330 -13.105  -6.097  1.00  0.00     0.066 CG0
ATOM     18  G   UNL     1      -1.714 -14.485  -6.074  1.00  0.00     0.000 G0
ENDBRANCH  13  17
ENDBRANCH  11  13
ENDBRANCH  10  11
ENDBRANCH   1  10
TORSDOF 0
ENDMDL
MODEL 7
REMARK VINA RESULT:    -1.482      1.760      2.399
REMARK INTER + INTRA:          -1.134
REMARK INTER:                  -2.006
REMARK INTRA:                   0.872
REMARK UNBOUND:                 0.955
REMARK SMILES CC1=CCC(=C(C)C)C(=O)CC(C)=CCC1
REMARK SMILES IDX 12 1 14 2 13 3 15 4 16 5 2 6 1 7 3 8 11 10 9 11 10 12 5 13
REMARK SMILES IDX 6 14 7 15 8 16 4 17
REMARK H PARENT
REMARK Flexibility Score: 60.00
ROOT
ATOM      1  C   UNL     1      -2.710 -12.919  -6.043  1.00  0.00    -0.070 C 
ATOM      2  C   UNL     1      -3.409 -11.962  -6.698  1.00  0.00    -0.027 C 
ATOM      3  C   UNL     1      -3.132 -13.271  -4.640  1.00  0.00     0.039 C 
ENDROOT
BRANCH   2   4
ATOM      4  C   UNL     1      -3.165 -11.527  -8.125  1.00  0.00     0.032 C 
BRANCH   4   5
ATOM      5  C   UNL     1      -4.148 -12.195  -9.097  1.00  0.00     0.034 C 
BRANCH   5   6
ATOM      6  C   UNL     1      -5.283 -12.934  -8.403  1.00  0.00    -0.077 C 
ATOM      7  C   UNL     1      -6.428 -12.135  -7.829  1.00  0.00     0.039 C 
ATOM      8  C   UNL     1      -5.333 -14.280  -8.285  1.00  0.00    -0.023 CG0
ATOM      9  G   UNL     1      -4.254 -15.239  -8.732  1.00  0.00     0.000 G0
ENDBRANCH   5   6
ENDBRANCH   4   5
ENDBRANCH   2   4
BRANCH   1  10
ATOM     10  C   UNL     1      -1.527 -13.643  -6.658  1.00  0.00     0.111 C 
BRANCH  10  11
ATOM     11  C   UNL     1      -1.953 -14.475  -7.835  1.00  0.00     0.163 C 
ATOM     12  O   UNL     1      -1.309 -14.392  -8.916  1.00  0.00    -0.294 OA
BRANCH  11  13
ATOM     13  C   UNL     1      -3.104 -15.409  -7.743  1.00  0.00    -0.002 C 
ATOM     14  C   UNL     1      -3.126 -16.380  -6.791  1.00  0.00    -0.069 C 
ATOM     15  C   UNL     1      -2.033 -16.479  -5.749  1.00  0.00     0.039 C 
ATOM     16  C   UNL     1      -4.263 -17.372  -6.714  1.00  0.00     0.039 C 
BRANCH  13  17
ATOM     17  C   UNL     1      -4.260 -15.262  -8.727  1.00  0.00     0.066 CG0
ATOM     18  G   UNL     1      -5.321 -14.283  -8.278  1.00  0.00     0.000 G0
ENDBRANCH  13  17
ENDBRANCH  11  13
ENDBRANCH  10  11
ENDBRANCH   1  10
TORSDOF 0
ENDMDL
MODEL 8
REMARK VINA RESULT:    -1.437      1.860      4.232
REMARK INTER + INTRA:          -1.070
REMARK INTER:                  -2.789
REMARK INTRA:                   1.719
REMARK UNBOUND:                 0.955
REMARK SMILES CC1=CCC(=C(C)C)C(=O)CC(C)=CCC1
REMARK SMILES IDX 12 1 14 2 13 3 15 4 16 5 2 6 1 7 3 8 11 10 9 11 10 12 5 13
REMARK SMILES IDX 6 14 7 15 8 16 4 17
REMARK H PARENT
REMARK Flexibility Score: 60.00
ROOT
ATOM      1  C   UNL     1      -2.584 -15.993  -6.038  1.00  0.00    -0.070 C 
ATOM      2  C   UNL     1      -1.598 -15.098  -6.281  1.00  0.00    -0.027 C 
ATOM      3  C   UNL     1      -2.197 -17.430  -5.804  1.00  0.00     0.039 C 
ENDROOT
BRANCH   2   4
ATOM      4  C   UNL     1      -1.797 -13.613  -6.476  1.00  0.00     0.032 C 
BRANCH   4   5
ATOM      5  C   UNL     1      -1.872 -13.242  -7.965  1.00  0.00     0.034 C 
BRANCH   5   6
ATOM      6  C   UNL     1      -2.650 -11.962  -8.234  1.00  0.00    -0.077 C 
ATOM      7  C   UNL     1      -2.006 -10.881  -9.067  1.00  0.00     0.039 C 
ATOM      8  C   UNL     1      -3.905 -11.745  -7.780  1.00  0.00    -0.023 CG0
ATOM      9  G   UNL     1      -4.684 -12.674  -6.878  1.00  0.00     0.000 G0
ENDBRANCH   5   6
ENDBRANCH   4   5
ENDBRANCH   2   4
BRANCH   1  10
ATOM     10  C   UNL     1      -4.052 -15.611  -5.995  1.00  0.00     0.111 C 
BRANCH  10  11
ATOM     11  C   UNL     1      -4.551 -15.230  -7.361  1.00  0.00     0.163 C 
ATOM     12  O   UNL     1      -4.427 -16.045  -8.315  1.00  0.00    -0.294 OA
BRANCH  11  13
ATOM     13  C   UNL     1      -5.209 -13.920  -7.603  1.00  0.00    -0.002 C 
ATOM     14  C   UNL     1      -6.257 -13.827  -8.466  1.00  0.00    -0.069 C 
ATOM     15  C   UNL     1      -6.839 -15.058  -9.125  1.00  0.00     0.039 C 
ATOM     16  C   UNL     1      -6.906 -12.496  -8.764  1.00  0.00     0.039 C 
BRANCH  13  17
ATOM     17  C   UNL     1      -4.694 -12.685  -6.872  1.00  0.00     0.066 CG0
ATOM     18  G   UNL     1      -3.897 -11.747  -7.749  1.00  0.00     0.000 G0
ENDBRANCH  13  17
ENDBRANCH  11  13
ENDBRANCH  10  11
ENDBRANCH   1  10
TORSDOF 0
ENDMDL
MODEL 9
REMARK VINA RESULT:    -1.123      1.713      3.244
REMARK INTER + INTRA:          -0.627
REMARK INTER:                  -4.161
REMARK INTRA:                   3.534
REMARK UNBOUND:                 0.955
REMARK SMILES CC1=CCC(=C(C)C)C(=O)CC(C)=CCC1
REMARK SMILES IDX 12 1 14 2 13 3 15 4 16 5 2 6 1 7 3 8 11 10 9 11 10 12 5 13
REMARK SMILES IDX 6 14 7 15 8 16 4 17
REMARK H PARENT
REMARK Flexibility Score: 60.00
ROOT
ATOM      1  C   UNL     1      -5.361 -14.353  -8.538  1.00  0.00    -0.070 C 
ATOM      2  C   UNL     1      -4.215 -14.928  -8.972  1.00  0.00    -0.027 C 
ATOM      3  C   UNL     1      -6.666 -14.873  -9.084  1.00  0.00     0.039 C 
ENDROOT
BRANCH   2   4
ATOM      4  C   UNL     1      -2.826 -14.577  -8.489  1.00  0.00     0.032 C 
BRANCH   4   5
ATOM      5  C   UNL     1      -2.325 -13.265  -9.110  1.00  0.00     0.034 C 
BRANCH   5   6
ATOM      6  C   UNL     1      -2.685 -12.030  -8.298  1.00  0.00    -0.077 C 
ATOM      7  C   UNL     1      -2.973 -10.739  -9.025  1.00  0.00     0.039 C 
ATOM      8  C   UNL     1      -2.781 -12.028  -6.949  1.00  0.00    -0.023 CG0
ATOM      9  G   UNL     1      -2.463 -13.199  -6.047  1.00  0.00     0.000 G0
ENDBRANCH   5   6
ENDBRANCH   4   5
ENDBRANCH   2   4
BRANCH   1  10
ATOM     10  C   UNL     1      -5.385 -13.216  -7.535  1.00  0.00     0.111 C 
BRANCH  10  11
ATOM     11  C   UNL     1      -5.025 -13.700  -6.158  1.00  0.00     0.163 C 
ATOM     12  O   UNL     1      -5.913 -13.738  -5.264  1.00  0.00    -0.294 OA
BRANCH  11  13
ATOM     13  C   UNL     1      -3.649 -14.158  -5.837  1.00  0.00    -0.002 C 
ATOM     14  C   UNL     1      -3.433 -15.424  -5.389  1.00  0.00    -0.069 C 
ATOM     15  C   UNL     1      -4.565 -16.424  -5.293  1.00  0.00     0.039 C 
ATOM     16  C   UNL     1      -2.048 -15.892  -5.008  1.00  0.00     0.039 C 
BRANCH  13  17
ATOM     17  C   UNL     1      -2.484 -13.191  -6.019  1.00  0.00     0.066 CG0
ATOM     18  G   UNL     1      -2.791 -12.036  -6.944  1.00  0.00     0.000 G0
ENDBRANCH  13  17
ENDBRANCH  11  13
ENDBRANCH  10  11
ENDBRANCH   1  10
TORSDOF 0
ENDMDL
