MODEL 1
REMARK VINA RESULT:    -4.314      0.000      0.000
REMARK INTER + INTRA:          -5.467
REMARK INTER:                  -5.323
REMARK INTRA:                  -0.144
REMARK UNBOUND:                -0.144
REMARK SMILES CCCCC=CC(C)=O
REMARK SMILES IDX 4 1 3 2 2 3 1 4 5 5 6 6 7 7 9 8 8 9
REMARK H PARENT
REMARK Flexibility Score: inf
ROOT
ATOM      1  C   UNL     1     -13.095 -38.221  37.737  1.00  0.00     0.027 C 
ENDROOT
BRANCH   1   2
ATOM      2  C   UNL     1     -13.905 -37.078  38.366  1.00  0.00     0.004 C 
BRANCH   2   3
ATOM      3  C   UNL     1     -14.273 -35.998  37.338  1.00  0.00    -0.003 C 
ATOM      4  C   UNL     1     -13.118 -35.737  36.376  1.00  0.00     0.004 C 
ENDBRANCH   2   3
ENDBRANCH   1   2
BRANCH   1   5
ATOM      5  C   UNL     1     -13.257 -39.516  38.484  1.00  0.00    -0.023 C 
ATOM      6  C   UNL     1     -12.368 -39.909  39.404  1.00  0.00     0.042 C 
BRANCH   6   7
ATOM      7  C   UNL     1     -12.512 -41.172  40.151  1.00  0.00     0.152 C 
ATOM      8  O   UNL     1     -11.861 -42.199  39.815  1.00  0.00    -0.295 OA
ATOM      9  C   UNL     1     -13.435 -41.236  41.324  1.00  0.00     0.093 C 
ENDBRANCH   6   7
ENDBRANCH   1   5
TORSDOF 4
ENDMDL
MODEL 2
REMARK VINA RESULT:    -4.312      2.113      5.146
REMARK INTER + INTRA:          -5.464
REMARK INTER:                  -5.280
REMARK INTRA:                  -0.184
REMARK UNBOUND:                -0.144
REMARK SMILES CCCCC=CC(C)=O
REMARK SMILES IDX 4 1 3 2 2 3 1 4 5 5 6 6 7 7 9 8 8 9
REMARK H PARENT
REMARK Flexibility Score: inf
ROOT
ATOM      1  C   UNL     1     -13.484 -41.098  39.434  1.00  0.00     0.027 C 
ENDROOT
BRANCH   1   2
ATOM      2  C   UNL     1     -13.588 -41.116  40.966  1.00  0.00     0.004 C 
BRANCH   2   3
ATOM      3  C   UNL     1     -12.261 -41.512  41.631  1.00  0.00    -0.003 C 
ATOM      4  C   UNL     1     -11.384 -42.314  40.674  1.00  0.00     0.004 C 
ENDBRANCH   2   3
ENDBRANCH   1   2
BRANCH   1   5
ATOM      5  C   UNL     1     -13.204 -39.723  38.894  1.00  0.00    -0.023 C 
ATOM      6  C   UNL     1     -13.008 -39.511  37.588  1.00  0.00     0.042 C 
BRANCH   6   7
ATOM      7  C   UNL     1     -12.738 -38.170  37.038  1.00  0.00     0.152 C 
ATOM      8  O   UNL     1     -11.874 -38.003  36.135  1.00  0.00    -0.295 OA
ATOM      9  C   UNL     1     -13.502 -36.992  37.553  1.00  0.00     0.093 C 
ENDBRANCH   6   7
ENDBRANCH   1   5
TORSDOF 4
ENDMDL
MODEL 3
REMARK VINA RESULT:    -4.276      2.214      5.027
REMARK INTER + INTRA:          -5.420
REMARK INTER:                  -5.158
REMARK INTRA:                  -0.262
REMARK UNBOUND:                -0.144
REMARK SMILES CCCCC=CC(C)=O
REMARK SMILES IDX 4 1 3 2 2 3 1 4 5 5 6 6 7 7 9 8 8 9
REMARK H PARENT
REMARK Flexibility Score: inf
ROOT
ATOM      1  C   UNL     1     -13.540 -40.548  38.306  1.00  0.00     0.027 C 
ENDROOT
BRANCH   1   2
ATOM      2  C   UNL     1     -12.691 -41.087  39.466  1.00  0.00     0.004 C 
BRANCH   2   3
ATOM      3  C   UNL     1     -13.488 -41.170  40.776  1.00  0.00    -0.003 C 
ATOM      4  C   UNL     1     -13.104 -40.039  41.726  1.00  0.00     0.004 C 
ENDBRANCH   2   3
ENDBRANCH   1   2
BRANCH   1   5
ATOM      5  C   UNL     1     -13.062 -39.209  37.819  1.00  0.00    -0.023 C 
ATOM      6  C   UNL     1     -13.505 -38.069  38.361  1.00  0.00     0.042 C 
BRANCH   6   7
ATOM      7  C   UNL     1     -13.043 -36.746  37.901  1.00  0.00     0.152 C 
ATOM      8  O   UNL     1     -11.996 -36.226  38.375  1.00  0.00    -0.295 OA
ATOM      9  C   UNL     1     -13.822 -36.012  36.857  1.00  0.00     0.093 C 
ENDBRANCH   6   7
ENDBRANCH   1   5
TORSDOF 4
ENDMDL
MODEL 4
REMARK VINA RESULT:    -4.244      1.355      1.743
REMARK INTER + INTRA:          -5.380
REMARK INTER:                  -5.198
REMARK INTRA:                  -0.182
REMARK UNBOUND:                -0.144
REMARK SMILES CCCCC=CC(C)=O
REMARK SMILES IDX 4 1 3 2 2 3 1 4 5 5 6 6 7 7 9 8 8 9
REMARK H PARENT
REMARK Flexibility Score: inf
ROOT
ATOM      1  C   UNL     1     -14.258 -36.478  39.162  1.00  0.00     0.027 C 
ENDROOT
BRANCH   1   2
ATOM      2  C   UNL     1     -14.587 -35.987  37.745  1.00  0.00     0.004 C 
BRANCH   2   3
ATOM      3  C   UNL     1     -13.327 -35.594  36.962  1.00  0.00    -0.003 C 
ATOM      4  C   UNL     1     -12.555 -34.490  37.680  1.00  0.00     0.004 C 
ENDBRANCH   2   3
ENDBRANCH   1   2
BRANCH   1   5
ATOM      5  C   UNL     1     -13.599 -37.829  39.163  1.00  0.00    -0.023 C 
ATOM      6  C   UNL     1     -13.438 -38.528  40.292  1.00  0.00     0.042 C 
BRANCH   6   7
ATOM      7  C   UNL     1     -12.799 -39.857  40.312  1.00  0.00     0.152 C 
ATOM      8  O   UNL     1     -11.639 -40.024  39.846  1.00  0.00    -0.295 OA
ATOM      9  C   UNL     1     -13.532 -41.021  40.896  1.00  0.00     0.093 C 
ENDBRANCH   6   7
ENDBRANCH   1   5
TORSDOF 4
ENDMDL
MODEL 5
REMARK VINA RESULT:    -4.214      3.153      5.474
REMARK INTER + INTRA:          -5.343
REMARK INTER:                  -5.127
REMARK INTRA:                  -0.216
REMARK UNBOUND:                -0.144
REMARK SMILES CCCCC=CC(C)=O
REMARK SMILES IDX 4 1 3 2 2 3 1 4 5 5 6 6 7 7 9 8 8 9
REMARK H PARENT
REMARK Flexibility Score: inf
ROOT
ATOM      1  C   UNL     1     -13.287 -38.450  41.491  1.00  0.00     0.027 C 
ENDROOT
BRANCH   1   2
ATOM      2  C   UNL     1     -12.553 -39.748  41.127  1.00  0.00     0.004 C 
BRANCH   2   3
ATOM      3  C   UNL     1     -13.527 -40.898  40.829  1.00  0.00    -0.003 C 
ATOM      4  C   UNL     1     -13.546 -41.230  39.339  1.00  0.00     0.004 C 
ENDBRANCH   2   3
ENDBRANCH   1   2
BRANCH   1   5
ATOM      5  C   UNL     1     -13.296 -37.460  40.360  1.00  0.00    -0.023 C 
ATOM      6  C   UNL     1     -14.393 -36.757  40.054  1.00  0.00     0.042 C 
BRANCH   6   7
ATOM      7  C   UNL     1     -14.420 -35.777  38.953  1.00  0.00     0.152 C 
ATOM      8  O   UNL     1     -14.771 -34.583  39.159  1.00  0.00    -0.295 OA
ATOM      9  C   UNL     1     -14.023 -36.201  37.576  1.00  0.00     0.093 C 
ENDBRANCH   6   7
ENDBRANCH   1   5
TORSDOF 4
ENDMDL
MODEL 6
REMARK VINA RESULT:    -4.173      2.752      5.506
REMARK INTER + INTRA:          -5.293
REMARK INTER:                  -5.095
REMARK INTRA:                  -0.198
REMARK UNBOUND:                -0.144
REMARK SMILES CCCCC=CC(C)=O
REMARK SMILES IDX 4 1 3 2 2 3 1 4 5 5 6 6 7 7 9 8 8 9
REMARK H PARENT
REMARK Flexibility Score: inf
ROOT
ATOM      1  C   UNL     1     -13.191 -38.768  40.341  1.00  0.00     0.027 C 
ENDROOT
BRANCH   1   2
ATOM      2  C   UNL     1     -13.111 -39.846  39.251  1.00  0.00     0.004 C 
BRANCH   2   3
ATOM      3  C   UNL     1     -13.329 -41.257  39.816  1.00  0.00    -0.003 C 
ATOM      4  C   UNL     1     -13.513 -41.221  41.331  1.00  0.00     0.004 C 
ENDBRANCH   2   3
ENDBRANCH   1   2
BRANCH   1   5
ATOM      5  C   UNL     1     -13.337 -37.385  39.771  1.00  0.00    -0.023 C 
ATOM      6  C   UNL     1     -13.689 -37.188  38.495  1.00  0.00     0.042 C 
BRANCH   6   7
ATOM      7  C   UNL     1     -13.843 -35.840  37.918  1.00  0.00     0.152 C 
ATOM      8  O   UNL     1     -14.251 -34.877  38.625  1.00  0.00    -0.295 OA
ATOM      9  C   UNL     1     -13.508 -35.607  36.481  1.00  0.00     0.093 C 
ENDBRANCH   6   7
ENDBRANCH   1   5
TORSDOF 4
ENDMDL
MODEL 7
REMARK VINA RESULT:    -4.042      2.759      3.108
REMARK INTER + INTRA:          -5.131
REMARK INTER:                  -4.919
REMARK INTRA:                  -0.212
REMARK UNBOUND:                -0.144
REMARK SMILES CCCCC=CC(C)=O
REMARK SMILES IDX 4 1 3 2 2 3 1 4 5 5 6 6 7 7 9 8 8 9
REMARK H PARENT
REMARK Flexibility Score: inf
ROOT
ATOM      1  C   UNL     1     -14.979 -36.338  39.827  1.00  0.00     0.027 C 
ENDROOT
BRANCH   1   2
ATOM      2  C   UNL     1     -14.707 -35.063  39.016  1.00  0.00     0.004 C 
BRANCH   2   3
ATOM      3  C   UNL     1     -13.451 -35.192  38.141  1.00  0.00    -0.003 C 
ATOM      4  C   UNL     1     -13.785 -35.813  36.788  1.00  0.00     0.004 C 
ENDBRANCH   2   3
ENDBRANCH   1   2
BRANCH   1   5
ATOM      5  C   UNL     1     -13.717 -37.073  40.182  1.00  0.00    -0.023 C 
ATOM      6  C   UNL     1     -13.470 -37.475  41.434  1.00  0.00     0.042 C 
BRANCH   6   7
ATOM      7  C   UNL     1     -12.240 -38.202  41.800  1.00  0.00     0.152 C 
ATOM      8  O   UNL     1     -11.980 -38.465  43.006  1.00  0.00    -0.295 OA
ATOM      9  C   UNL     1     -11.293 -38.640  40.730  1.00  0.00     0.093 C 
ENDBRANCH   6   7
ENDBRANCH   1   5
TORSDOF 4
ENDMDL
MODEL 8
REMARK VINA RESULT:    -4.039      2.965      5.037
REMARK INTER + INTRA:          -5.128
REMARK INTER:                  -4.844
REMARK INTRA:                  -0.284
REMARK UNBOUND:                -0.144
REMARK SMILES CCCCC=CC(C)=O
REMARK SMILES IDX 4 1 3 2 2 3 1 4 5 5 6 6 7 7 9 8 8 9
REMARK H PARENT
REMARK Flexibility Score: inf
ROOT
ATOM      1  C   UNL     1     -13.231 -38.818  39.660  1.00  0.00     0.027 C 
ENDROOT
BRANCH   1   2
ATOM      2  C   UNL     1     -13.093 -39.455  41.051  1.00  0.00     0.004 C 
BRANCH   2   3
ATOM      3  C   UNL     1     -13.261 -40.981  41.007  1.00  0.00    -0.003 C 
ATOM      4  C   UNL     1     -11.927 -41.674  40.751  1.00  0.00     0.004 C 
ENDBRANCH   2   3
ENDBRANCH   1   2
BRANCH   1   5
ATOM      5  C   UNL     1     -12.098 -37.882  39.344  1.00  0.00    -0.023 C 
ATOM      6  C   UNL     1     -10.841 -38.154  39.714  1.00  0.00     0.042 C 
BRANCH   6   7
ATOM      7  C   UNL     1      -9.716 -37.251  39.407  1.00  0.00     0.152 C 
ATOM      8  O   UNL     1      -8.684 -37.235  40.132  1.00  0.00    -0.295 OA
ATOM      9  C   UNL     1      -9.796 -36.346  38.221  1.00  0.00     0.093 C 
ENDBRANCH   6   7
ENDBRANCH   1   5
TORSDOF 4
ENDMDL
MODEL 9
REMARK VINA RESULT:    -4.024      2.317      2.886
REMARK INTER + INTRA:          -5.109
REMARK INTER:                  -4.863
REMARK INTRA:                  -0.246
REMARK UNBOUND:                -0.144
REMARK SMILES CCCCC=CC(C)=O
REMARK SMILES IDX 4 1 3 2 2 3 1 4 5 5 6 6 7 7 9 8 8 9
REMARK H PARENT
REMARK Flexibility Score: inf
ROOT
ATOM      1  C   UNL     1     -10.751 -35.992  37.781  1.00  0.00     0.027 C 
ENDROOT
BRANCH   1   2
ATOM      2  C   UNL     1     -12.120 -35.321  37.967  1.00  0.00     0.004 C 
BRANCH   2   3
ATOM      3  C   UNL     1     -13.104 -35.697  36.849  1.00  0.00    -0.003 C 
ATOM      4  C   UNL     1     -14.482 -36.022  37.417  1.00  0.00     0.004 C 
ENDBRANCH   2   3
ENDBRANCH   1   2
BRANCH   1   5
ATOM      5  C   UNL     1     -10.409 -36.920  38.913  1.00  0.00    -0.023 C 
ATOM      6  C   UNL     1     -11.164 -37.987  39.196  1.00  0.00     0.042 C 
BRANCH   6   7
ATOM      7  C   UNL     1     -10.842 -38.912  40.298  1.00  0.00     0.152 C 
ATOM      8  O   UNL     1     -11.352 -40.065  40.344  1.00  0.00    -0.295 OA
ATOM      9  C   UNL     1      -9.895 -38.483  41.371  1.00  0.00     0.093 C 
ENDBRANCH   6   7
ENDBRANCH   1   5
TORSDOF 4
ENDMDL
