MODEL 1
REMARK VINA RESULT:    -5.505      0.000      0.000
REMARK INTER + INTRA:         -18.704
REMARK INTER:                 -14.517
REMARK INTRA:                  -4.187
REMARK UNBOUND:                -4.187
REMARK SMILES CCCCCCCCCCCCCCCCCCCCCCCCCCCCCC(=O)[O-]
REMARK SMILES IDX 16 1 17 2 18 3 19 4 20 5 21 6 22 7 23 8 24 9 25 10 26 11
REMARK SMILES IDX 27 12 28 13 29 14 30 15 31 16 32 17 15 18 14 19 13 20 12 21
REMARK SMILES IDX 11 22 10 23 9 24 8 25 7 26 6 27 5 28 4 29 3 30 2 31 1 32
REMARK H PARENT
REMARK Flexibility Score: inf
ROOT
ATOM      1  C   UNL     1      -6.774 -14.509  31.692  1.00  0.00     0.000 C 
ENDROOT
BRANCH   1   2
ATOM      2  C   UNL     1      -6.089 -13.743  32.840  1.00  0.00     0.000 C 
BRANCH   2   3
ATOM      3  C   UNL     1      -4.662 -13.251  32.530  1.00  0.00     0.000 C 
BRANCH   3   4
ATOM      4  C   UNL     1      -4.373 -11.793  32.941  1.00  0.00     0.000 C 
BRANCH   4   5
ATOM      5  C   UNL     1      -4.269 -10.774  31.784  1.00  0.00     0.000 C 
BRANCH   5   6
ATOM      6  C   UNL     1      -5.401 -10.832  30.733  1.00  0.00     0.000 C 
BRANCH   6   7
ATOM      7  C   UNL     1      -4.928 -11.149  29.302  1.00  0.00     0.000 C 
BRANCH   7   8
ATOM      8  C   UNL     1      -3.398 -11.259  29.180  1.00  0.00     0.000 C 
BRANCH   8   9
ATOM      9  C   UNL     1      -2.897 -12.715  29.214  1.00  0.00     0.000 C 
BRANCH   9  10
ATOM     10  C   UNL     1      -1.711 -12.947  30.171  1.00  0.00     0.000 C 
BRANCH  10  11
ATOM     11  C   UNL     1      -1.483 -14.435  30.485  1.00  0.00     0.000 C 
BRANCH  11  12
ATOM     12  C   UNL     1      -0.861 -14.615  31.878  1.00  0.00     0.000 C 
BRANCH  12  13
ATOM     13  C   UNL     1      -1.020 -13.367  32.761  1.00  0.00     0.006 C 
BRANCH  13  14
ATOM     14  C   UNL     1       0.315 -12.873  33.338  1.00  0.00     0.053 C 
BRANCH  14  15
ATOM     15  C   UNL     1       0.969 -13.940  34.159  1.00  0.00     0.041 C 
ATOM     16  O   UNL     1       0.410 -14.371  35.204  1.00  0.00    -0.550 OA
ATOM     17  O   UNL     1       2.196 -14.464  33.770  1.00  0.00    -0.550 OA
ENDBRANCH  14  15
ENDBRANCH  13  14
ENDBRANCH  12  13
ENDBRANCH  11  12
ENDBRANCH  10  11
ENDBRANCH   9  10
ENDBRANCH   8   9
ENDBRANCH   7   8
ENDBRANCH   6   7
ENDBRANCH   5   6
ENDBRANCH   4   5
ENDBRANCH   3   4
ENDBRANCH   2   3
ENDBRANCH   1   2
BRANCH   1  18
ATOM     18  C   UNL     1      -5.961 -14.590  30.387  1.00  0.00     0.000 C 
BRANCH  18  19
ATOM     19  C   UNL     1      -6.779 -14.204  29.144  1.00  0.00     0.000 C 
BRANCH  19  20
ATOM     20  C   UNL     1      -5.963 -14.419  27.863  1.00  0.00     0.000 C 
BRANCH  20  21
ATOM     21  C   UNL     1      -6.883 -14.602  26.644  1.00  0.00     0.000 C 
BRANCH  21  22
ATOM     22  C   UNL     1      -8.321 -14.984  27.030  1.00  0.00     0.000 C 
BRANCH  22  23
ATOM     23  C   UNL     1      -9.374 -14.354  26.102  1.00  0.00     0.000 C 
BRANCH  23  24
ATOM     24  C   UNL     1     -10.720 -15.101  26.130  1.00  0.00    -0.000 C 
BRANCH  24  25
ATOM     25  C   UNL     1     -10.930 -16.024  27.347  1.00  0.00    -0.000 C 
BRANCH  25  26
ATOM     26  C   UNL     1     -12.400 -16.323  27.703  1.00  0.00    -0.000 C 
BRANCH  26  27
ATOM     27  C   UNL     1     -12.743 -16.211  29.199  1.00  0.00    -0.000 C 
BRANCH  27  28
ATOM     28  C   UNL     1     -13.390 -17.490  29.759  1.00  0.00    -0.000 C 
BRANCH  28  29
ATOM     29  C   UNL     1     -12.438 -18.254  30.706  1.00  0.00    -0.000 C 
BRANCH  29  30
ATOM     30  C   UNL     1     -11.090 -18.625  30.056  1.00  0.00    -0.000 C 
BRANCH  30  31
ATOM     31  C   UNL     1      -9.857 -18.226  30.880  1.00  0.00    -0.003 C 
ATOM     32  C   UNL     1      -9.469 -16.760  30.695  1.00  0.00     0.004 C 
ENDBRANCH  30  31
ENDBRANCH  29  30
ENDBRANCH  28  29
ENDBRANCH  27  28
ENDBRANCH  26  27
ENDBRANCH  25  26
ENDBRANCH  24  25
ENDBRANCH  23  24
ENDBRANCH  22  23
ENDBRANCH  21  22
ENDBRANCH  20  21
ENDBRANCH  19  20
ENDBRANCH  18  19
ENDBRANCH   1  18
TORSDOF 28
ENDMDL
MODEL 2
REMARK VINA RESULT:    -5.413      1.944      3.083
REMARK INTER + INTRA:         -18.462
REMARK INTER:                 -15.559
REMARK INTRA:                  -2.902
REMARK UNBOUND:                -4.187
REMARK SMILES CCCCCCCCCCCCCCCCCCCCCCCCCCCCCC(=O)[O-]
REMARK SMILES IDX 16 1 17 2 18 3 19 4 20 5 21 6 22 7 23 8 24 9 25 10 26 11
REMARK SMILES IDX 27 12 28 13 29 14 30 15 31 16 32 17 15 18 14 19 13 20 12 21
REMARK SMILES IDX 11 22 10 23 9 24 8 25 7 26 6 27 5 28 4 29 3 30 2 31 1 32
REMARK H PARENT
REMARK Flexibility Score: inf
ROOT
ATOM      1  C   UNL     1      -7.104 -14.172  29.220  1.00  0.00     0.000 C 
ENDROOT
BRANCH   1   2
ATOM      2  C   UNL     1      -6.332 -14.885  30.347  1.00  0.00     0.000 C 
BRANCH   2   3
ATOM      3  C   UNL     1      -6.150 -14.056  31.633  1.00  0.00     0.000 C 
BRANCH   3   4
ATOM      4  C   UNL     1      -6.869 -12.692  31.635  1.00  0.00     0.000 C 
BRANCH   4   5
ATOM      5  C   UNL     1      -5.969 -11.456  31.858  1.00  0.00     0.000 C 
BRANCH   5   6
ATOM      6  C   UNL     1      -5.652 -10.618  30.597  1.00  0.00     0.000 C 
BRANCH   6   7
ATOM      7  C   UNL     1      -4.860 -11.371  29.513  1.00  0.00     0.000 C 
BRANCH   7   8
ATOM      8  C   UNL     1      -3.398 -11.641  29.908  1.00  0.00     0.000 C 
BRANCH   8   9
ATOM      9  C   UNL     1      -3.033 -13.137  29.873  1.00  0.00     0.000 C 
BRANCH   9  10
ATOM     10  C   UNL     1      -2.486 -13.680  31.208  1.00  0.00     0.000 C 
BRANCH  10  11
ATOM     11  C   UNL     1      -2.582 -12.655  32.350  1.00  0.00     0.000 C 
BRANCH  11  12
ATOM     12  C   UNL     1      -1.211 -12.430  33.004  1.00  0.00     0.000 C 
BRANCH  12  13
ATOM     13  C   UNL     1      -0.801 -13.587  33.930  1.00  0.00     0.006 C 
BRANCH  13  14
ATOM     14  C   UNL     1       0.693 -13.927  33.830  1.00  0.00     0.053 C 
BRANCH  14  15
ATOM     15  C   UNL     1       0.945 -15.347  34.230  1.00  0.00     0.041 C 
ATOM     16  O   UNL     1       1.054 -16.245  33.352  1.00  0.00    -0.550 OA
ATOM     17  O   UNL     1       1.063 -15.682  35.574  1.00  0.00    -0.550 OA
ENDBRANCH  14  15
ENDBRANCH  13  14
ENDBRANCH  12  13
ENDBRANCH  11  12
ENDBRANCH  10  11
ENDBRANCH   9  10
ENDBRANCH   8   9
ENDBRANCH   7   8
ENDBRANCH   6   7
ENDBRANCH   5   6
ENDBRANCH   4   5
ENDBRANCH   3   4
ENDBRANCH   2   3
ENDBRANCH   1   2
BRANCH   1  18
ATOM     18  C   UNL     1      -6.391 -14.151  27.855  1.00  0.00     0.000 C 
BRANCH  18  19
ATOM     19  C   UNL     1      -7.308 -14.563  26.692  1.00  0.00     0.000 C 
BRANCH  19  20
ATOM     20  C   UNL     1      -8.620 -15.162  27.215  1.00  0.00     0.000 C 
BRANCH  20  21
ATOM     21  C   UNL     1      -9.761 -14.964  26.203  1.00  0.00     0.000 C 
BRANCH  21  22
ATOM     22  C   UNL     1     -11.086 -15.595  26.662  1.00  0.00     0.000 C 
BRANCH  22  23
ATOM     23  C   UNL     1     -10.969 -16.295  28.028  1.00  0.00     0.000 C 
BRANCH  23  24
ATOM     24  C   UNL     1     -12.005 -17.418  28.214  1.00  0.00    -0.000 C 
BRANCH  24  25
ATOM     25  C   UNL     1     -13.113 -17.121  29.246  1.00  0.00    -0.000 C 
BRANCH  25  26
ATOM     26  C   UNL     1     -13.201 -18.113  30.423  1.00  0.00    -0.000 C 
BRANCH  26  27
ATOM     27  C   UNL     1     -12.574 -17.618  31.738  1.00  0.00    -0.000 C 
BRANCH  27  28
ATOM     28  C   UNL     1     -13.128 -18.348  32.974  1.00  0.00    -0.000 C 
BRANCH  28  29
ATOM     29  C   UNL     1     -12.527 -19.762  33.129  1.00  0.00    -0.000 C 
BRANCH  29  30
ATOM     30  C   UNL     1     -13.589 -20.876  33.225  1.00  0.00    -0.000 C 
BRANCH  30  31
ATOM     31  C   UNL     1     -13.862 -21.372  34.653  1.00  0.00    -0.003 C 
ATOM     32  C   UNL     1     -15.124 -20.763  35.261  1.00  0.00     0.004 C 
ENDBRANCH  30  31
ENDBRANCH  29  30
ENDBRANCH  28  29
ENDBRANCH  27  28
ENDBRANCH  26  27
ENDBRANCH  25  26
ENDBRANCH  24  25
ENDBRANCH  23  24
ENDBRANCH  22  23
ENDBRANCH  21  22
ENDBRANCH  20  21
ENDBRANCH  19  20
ENDBRANCH  18  19
ENDBRANCH   1  18
TORSDOF 28
ENDMDL
MODEL 3
REMARK VINA RESULT:    -5.397      1.443      5.804
REMARK INTER + INTRA:         -18.419
REMARK INTER:                 -15.052
REMARK INTRA:                  -3.368
REMARK UNBOUND:                -4.187
REMARK SMILES CCCCCCCCCCCCCCCCCCCCCCCCCCCCCC(=O)[O-]
REMARK SMILES IDX 16 1 17 2 18 3 19 4 20 5 21 6 22 7 23 8 24 9 25 10 26 11
REMARK SMILES IDX 27 12 28 13 29 14 30 15 31 16 32 17 15 18 14 19 13 20 12 21
REMARK SMILES IDX 11 22 10 23 9 24 8 25 7 26 6 27 5 28 4 29 3 30 2 31 1 32
REMARK H PARENT
REMARK Flexibility Score: inf
ROOT
ATOM      1  C   UNL     1     -10.078 -14.778  25.932  1.00  0.00     0.000 C 
ENDROOT
BRANCH   1   2
ATOM      2  C   UNL     1      -8.755 -14.033  26.193  1.00  0.00     0.000 C 
BRANCH   2   3
ATOM      3  C   UNL     1      -7.701 -14.839  26.975  1.00  0.00     0.000 C 
BRANCH   3   4
ATOM      4  C   UNL     1      -6.631 -13.990  27.690  1.00  0.00     0.000 C 
BRANCH   4   5
ATOM      5  C   UNL     1      -5.183 -14.527  27.616  1.00  0.00     0.000 C 
BRANCH   5   6
ATOM      6  C   UNL     1      -4.290 -14.226  28.841  1.00  0.00     0.000 C 
BRANCH   6   7
ATOM      7  C   UNL     1      -2.944 -13.562  28.502  1.00  0.00     0.000 C 
BRANCH   7   8
ATOM      8  C   UNL     1      -1.830 -13.900  29.507  1.00  0.00     0.000 C 
BRANCH   8   9
ATOM      9  C   UNL     1      -2.077 -15.225  30.253  1.00  0.00     0.000 C 
BRANCH   9  10
ATOM     10  C   UNL     1      -0.823 -15.800  30.942  1.00  0.00     0.000 C 
BRANCH  10  11
ATOM     11  C   UNL     1      -0.482 -15.074  32.255  1.00  0.00     0.000 C 
BRANCH  11  12
ATOM     12  C   UNL     1       0.792 -15.650  32.888  1.00  0.00     0.000 C 
BRANCH  12  13
ATOM     13  C   UNL     1       1.482 -14.657  33.837  1.00  0.00     0.006 C 
BRANCH  13  14
ATOM     14  C   UNL     1       0.579 -14.224  35.002  1.00  0.00     0.053 C 
BRANCH  14  15
ATOM     15  C   UNL     1       0.950 -14.945  36.261  1.00  0.00     0.041 C 
ATOM     16  O   UNL     1       1.105 -16.196  36.255  1.00  0.00    -0.550 OA
ATOM     17  O   UNL     1       1.128 -14.235  37.443  1.00  0.00    -0.550 OA
ENDBRANCH  14  15
ENDBRANCH  13  14
ENDBRANCH  12  13
ENDBRANCH  11  12
ENDBRANCH  10  11
ENDBRANCH   9  10
ENDBRANCH   8   9
ENDBRANCH   7   8
ENDBRANCH   6   7
ENDBRANCH   5   6
ENDBRANCH   4   5
ENDBRANCH   3   4
ENDBRANCH   2   3
ENDBRANCH   1   2
BRANCH   1  18
ATOM     18  C   UNL     1     -10.539 -15.705  27.072  1.00  0.00     0.000 C 
BRANCH  18  19
ATOM     19  C   UNL     1     -12.050 -15.991  27.040  1.00  0.00     0.000 C 
BRANCH  19  20
ATOM     20  C   UNL     1     -12.557 -16.413  28.425  1.00  0.00     0.000 C 
BRANCH  20  21
ATOM     21  C   UNL     1     -11.918 -17.740  28.868  1.00  0.00     0.000 C 
BRANCH  21  22
ATOM     22  C   UNL     1     -11.560 -17.764  30.363  1.00  0.00     0.000 C 
BRANCH  22  23
ATOM     23  C   UNL     1     -10.043 -17.825  30.610  1.00  0.00     0.000 C 
BRANCH  23  24
ATOM     24  C   UNL     1      -9.349 -16.465  30.412  1.00  0.00    -0.000 C 
BRANCH  24  25
ATOM     25  C   UNL     1      -8.159 -16.195  31.355  1.00  0.00    -0.000 C 
BRANCH  25  26
ATOM     26  C   UNL     1      -7.255 -15.013  30.954  1.00  0.00    -0.000 C 
BRANCH  26  27
ATOM     27  C   UNL     1      -6.683 -14.203  32.132  1.00  0.00    -0.000 C 
BRANCH  27  28
ATOM     28  C   UNL     1      -6.666 -12.689  31.861  1.00  0.00    -0.000 C 
BRANCH  28  29
ATOM     29  C   UNL     1      -5.253 -12.087  32.029  1.00  0.00    -0.000 C 
BRANCH  29  30
ATOM     30  C   UNL     1      -4.186 -13.123  32.434  1.00  0.00    -0.000 C 
BRANCH  30  31
ATOM     31  C   UNL     1      -2.909 -12.518  33.037  1.00  0.00    -0.003 C 
ATOM     32  C   UNL     1      -2.340 -11.377  32.196  1.00  0.00     0.004 C 
ENDBRANCH  30  31
ENDBRANCH  29  30
ENDBRANCH  28  29
ENDBRANCH  27  28
ENDBRANCH  26  27
ENDBRANCH  25  26
ENDBRANCH  24  25
ENDBRANCH  23  24
ENDBRANCH  22  23
ENDBRANCH  21  22
ENDBRANCH  20  21
ENDBRANCH  19  20
ENDBRANCH  18  19
ENDBRANCH   1  18
TORSDOF 28
ENDMDL
MODEL 4
REMARK VINA RESULT:    -5.381      4.585     10.435
REMARK INTER + INTRA:         -18.376
REMARK INTER:                 -15.176
REMARK INTRA:                  -3.200
REMARK UNBOUND:                -4.187
REMARK SMILES CCCCCCCCCCCCCCCCCCCCCCCCCCCCCC(=O)[O-]
REMARK SMILES IDX 16 1 17 2 18 3 19 4 20 5 21 6 22 7 23 8 24 9 25 10 26 11
REMARK SMILES IDX 27 12 28 13 29 14 30 15 31 16 32 17 15 18 14 19 13 20 12 21
REMARK SMILES IDX 11 22 10 23 9 24 8 25 7 26 6 27 5 28 4 29 3 30 2 31 1 32
REMARK H PARENT
REMARK Flexibility Score: inf
ROOT
ATOM      1  C   UNL     1      -5.988 -14.861  27.709  1.00  0.00     0.000 C 
ENDROOT
BRANCH   1   2
ATOM      2  C   UNL     1      -7.089 -14.161  26.891  1.00  0.00     0.000 C 
BRANCH   2   3
ATOM      3  C   UNL     1      -8.142 -15.106  26.280  1.00  0.00     0.000 C 
BRANCH   3   4
ATOM      4  C   UNL     1      -9.584 -14.559  26.278  1.00  0.00     0.000 C 
BRANCH   4   5
ATOM      5  C   UNL     1     -10.707 -15.621  26.269  1.00  0.00     0.000 C 
BRANCH   5   6
ATOM      6  C   UNL     1     -11.256 -16.031  27.655  1.00  0.00     0.000 C 
BRANCH   6   7
ATOM      7  C   UNL     1     -10.176 -16.418  28.681  1.00  0.00     0.000 C 
BRANCH   7   8
ATOM      8  C   UNL     1     -10.532 -17.675  29.492  1.00  0.00     0.000 C 
BRANCH   8   9
ATOM      9  C   UNL     1     -11.889 -18.283  29.091  1.00  0.00     0.000 C 
BRANCH   9  10
ATOM     10  C   UNL     1     -13.062 -17.847  29.991  1.00  0.00     0.000 C 
BRANCH  10  11
ATOM     11  C   UNL     1     -12.651 -17.682  31.464  1.00  0.00     0.000 C 
BRANCH  11  12
ATOM     12  C   UNL     1     -12.347 -19.043  32.107  1.00  0.00     0.000 C 
BRANCH  12  13
ATOM     13  C   UNL     1     -13.378 -19.435  33.177  1.00  0.00     0.006 C 
BRANCH  13  14
ATOM     14  C   UNL     1     -13.776 -20.917  33.106  1.00  0.00     0.053 C 
BRANCH  14  15
ATOM     15  C   UNL     1     -13.890 -21.505  34.478  1.00  0.00     0.041 C 
ATOM     16  O   UNL     1     -14.522 -20.894  35.381  1.00  0.00    -0.550 OA
ATOM     17  O   UNL     1     -13.301 -22.732  34.760  1.00  0.00    -0.550 OA
ENDBRANCH  14  15
ENDBRANCH  13  14
ENDBRANCH  12  13
ENDBRANCH  11  12
ENDBRANCH  10  11
ENDBRANCH   9  10
ENDBRANCH   8   9
ENDBRANCH   7   8
ENDBRANCH   6   7
ENDBRANCH   5   6
ENDBRANCH   4   5
ENDBRANCH   3   4
ENDBRANCH   2   3
ENDBRANCH   1   2
BRANCH   1  18
ATOM     18  C   UNL     1      -5.879 -14.406  29.177  1.00  0.00     0.000 C 
BRANCH  18  19
ATOM     19  C   UNL     1      -7.246 -14.275  29.868  1.00  0.00     0.000 C 
BRANCH  19  20
ATOM     20  C   UNL     1      -7.143 -13.403  31.126  1.00  0.00     0.000 C 
BRANCH  20  21
ATOM     21  C   UNL     1      -6.381 -14.133  32.246  1.00  0.00     0.000 C 
BRANCH  21  22
ATOM     22  C   UNL     1      -5.388 -13.225  32.987  1.00  0.00     0.000 C 
BRANCH  22  23
ATOM     23  C   UNL     1      -4.168 -12.851  32.128  1.00  0.00     0.000 C 
BRANCH  23  24
ATOM     24  C   UNL     1      -4.017 -11.332  31.931  1.00  0.00    -0.000 C 
BRANCH  24  25
ATOM     25  C   UNL     1      -4.754 -10.756  30.704  1.00  0.00    -0.000 C 
BRANCH  25  26
ATOM     26  C   UNL     1      -4.204 -11.203  29.335  1.00  0.00    -0.000 C 
BRANCH  26  27
ATOM     27  C   UNL     1      -2.767 -10.743  29.029  1.00  0.00    -0.000 C 
BRANCH  27  28
ATOM     28  C   UNL     1      -1.865 -11.890  28.542  1.00  0.00    -0.000 C 
BRANCH  28  29
ATOM     29  C   UNL     1      -2.347 -13.265  29.056  1.00  0.00    -0.000 C 
BRANCH  29  30
ATOM     30  C   UNL     1      -2.258 -14.384  28.000  1.00  0.00    -0.000 C 
BRANCH  30  31
ATOM     31  C   UNL     1      -2.628 -13.945  26.575  1.00  0.00    -0.003 C 
ATOM     32  C   UNL     1      -2.109 -14.903  25.506  1.00  0.00     0.004 C 
ENDBRANCH  30  31
ENDBRANCH  29  30
ENDBRANCH  28  29
ENDBRANCH  27  28
ENDBRANCH  26  27
ENDBRANCH  25  26
ENDBRANCH  24  25
ENDBRANCH  23  24
ENDBRANCH  22  23
ENDBRANCH  21  22
ENDBRANCH  20  21
ENDBRANCH  19  20
ENDBRANCH  18  19
ENDBRANCH   1  18
TORSDOF 28
ENDMDL
MODEL 5
REMARK VINA RESULT:    -5.375      1.716      2.404
REMARK INTER + INTRA:         -18.362
REMARK INTER:                 -14.418
REMARK INTRA:                  -3.944
REMARK UNBOUND:                -4.187
REMARK SMILES CCCCCCCCCCCCCCCCCCCCCCCCCCCCCC(=O)[O-]
REMARK SMILES IDX 16 1 17 2 18 3 19 4 20 5 21 6 22 7 23 8 24 9 25 10 26 11
REMARK SMILES IDX 27 12 28 13 29 14 30 15 31 16 32 17 15 18 14 19 13 20 12 21
REMARK SMILES IDX 11 22 10 23 9 24 8 25 7 26 6 27 5 28 4 29 3 30 2 31 1 32
REMARK H PARENT
REMARK Flexibility Score: inf
ROOT
ATOM      1  C   UNL     1      -5.535 -14.466  31.459  1.00  0.00     0.000 C 
ENDROOT
BRANCH   1   2
ATOM      2  C   UNL     1      -5.738 -13.450  32.600  1.00  0.00     0.000 C 
BRANCH   2   3
ATOM      3  C   UNL     1      -5.156 -12.049  32.331  1.00  0.00     0.000 C 
BRANCH   3   4
ATOM      4  C   UNL     1      -6.022 -11.148  31.428  1.00  0.00     0.000 C 
BRANCH   4   5
ATOM      5  C   UNL     1      -5.445 -10.844  30.027  1.00  0.00     0.000 C 
BRANCH   5   6
ATOM      6  C   UNL     1      -3.939 -11.138  29.841  1.00  0.00     0.000 C 
BRANCH   6   7
ATOM      7  C   UNL     1      -3.079  -9.899  29.532  1.00  0.00     0.000 C 
BRANCH   7   8
ATOM      8  C   UNL     1      -1.904  -9.717  30.507  1.00  0.00     0.000 C 
BRANCH   8   9
ATOM      9  C   UNL     1      -2.321  -9.863  31.983  1.00  0.00     0.000 C 
BRANCH   9  10
ATOM     10  C   UNL     1      -1.134  -9.981  32.961  1.00  0.00     0.000 C 
BRANCH  10  11
ATOM     11  C   UNL     1      -0.547 -11.401  33.014  1.00  0.00     0.000 C 
BRANCH  11  12
ATOM     12  C   UNL     1      -1.552 -12.433  32.481  1.00  0.00     0.000 C 
BRANCH  12  13
ATOM     13  C   UNL     1      -0.976 -13.281  31.336  1.00  0.00     0.006 C 
BRANCH  13  14
ATOM     14  C   UNL     1      -1.923 -14.408  30.897  1.00  0.00     0.053 C 
BRANCH  14  15
ATOM     15  C   UNL     1      -1.178 -15.696  30.731  1.00  0.00     0.041 C 
ATOM     16  O   UNL     1      -0.191 -15.960  31.469  1.00  0.00    -0.550 OA
ATOM     17  O   UNL     1      -1.575 -16.609  29.760  1.00  0.00    -0.550 OA
ENDBRANCH  14  15
ENDBRANCH  13  14
ENDBRANCH  12  13
ENDBRANCH  11  12
ENDBRANCH  10  11
ENDBRANCH   9  10
ENDBRANCH   8   9
ENDBRANCH   7   8
ENDBRANCH   6   7
ENDBRANCH   5   6
ENDBRANCH   4   5
ENDBRANCH   3   4
ENDBRANCH   2   3
ENDBRANCH   1   2
BRANCH   1  18
ATOM     18  C   UNL     1      -6.827 -14.914  30.750  1.00  0.00     0.000 C 
BRANCH  18  19
ATOM     19  C   UNL     1      -7.107 -14.126  29.459  1.00  0.00     0.000 C 
BRANCH  19  20
ATOM     20  C   UNL     1      -6.015 -14.384  28.413  1.00  0.00     0.000 C 
BRANCH  20  21
ATOM     21  C   UNL     1      -6.567 -14.224  26.986  1.00  0.00     0.000 C 
BRANCH  21  22
ATOM     22  C   UNL     1      -7.799 -15.101  26.717  1.00  0.00     0.000 C 
BRANCH  22  23
ATOM     23  C   UNL     1      -9.000 -14.295  26.191  1.00  0.00     0.000 C 
BRANCH  23  24
ATOM     24  C   UNL     1     -10.329 -15.066  26.295  1.00  0.00    -0.000 C 
BRANCH  24  25
ATOM     25  C   UNL     1     -10.499 -15.905  27.577  1.00  0.00    -0.000 C 
BRANCH  25  26
ATOM     26  C   UNL     1     -11.713 -16.856  27.587  1.00  0.00    -0.000 C 
BRANCH  26  27
ATOM     27  C   UNL     1     -13.024 -16.233  28.099  1.00  0.00    -0.000 C 
BRANCH  27  28
ATOM     28  C   UNL     1     -13.500 -16.852  29.424  1.00  0.00    -0.000 C 
BRANCH  28  29
ATOM     29  C   UNL     1     -12.393 -17.689  30.103  1.00  0.00    -0.000 C 
BRANCH  29  30
ATOM     30  C   UNL     1     -11.501 -16.872  31.058  1.00  0.00    -0.000 C 
BRANCH  30  31
ATOM     31  C   UNL     1     -10.010 -17.240  31.006  1.00  0.00    -0.003 C 
ATOM     32  C   UNL     1      -9.776 -18.738  30.827  1.00  0.00     0.004 C 
ENDBRANCH  30  31
ENDBRANCH  29  30
ENDBRANCH  28  29
ENDBRANCH  27  28
ENDBRANCH  26  27
ENDBRANCH  25  26
ENDBRANCH  24  25
ENDBRANCH  23  24
ENDBRANCH  22  23
ENDBRANCH  21  22
ENDBRANCH  20  21
ENDBRANCH  19  20
ENDBRANCH  18  19
ENDBRANCH   1  18
TORSDOF 28
ENDMDL
MODEL 6
REMARK VINA RESULT:    -5.370      3.860      9.860
REMARK INTER + INTRA:         -18.346
REMARK INTER:                 -14.479
REMARK INTRA:                  -3.868
REMARK UNBOUND:                -4.187
REMARK SMILES CCCCCCCCCCCCCCCCCCCCCCCCCCCCCC(=O)[O-]
REMARK SMILES IDX 16 1 17 2 18 3 19 4 20 5 21 6 22 7 23 8 24 9 25 10 26 11
REMARK SMILES IDX 27 12 28 13 29 14 30 15 31 16 32 17 15 18 14 19 13 20 12 21
REMARK SMILES IDX 11 22 10 23 9 24 8 25 7 26 6 27 5 28 4 29 3 30 2 31 1 32
REMARK H PARENT
REMARK Flexibility Score: inf
ROOT
ATOM      1  C   UNL     1      -7.507 -14.904  29.990  1.00  0.00     0.000 C 
ENDROOT
BRANCH   1   2
ATOM      2  C   UNL     1      -6.862 -13.871  29.047  1.00  0.00     0.000 C 
BRANCH   2   3
ATOM      3  C   UNL     1      -6.213 -14.464  27.782  1.00  0.00     0.000 C 
BRANCH   3   4
ATOM      4  C   UNL     1      -7.207 -14.978  26.721  1.00  0.00     0.000 C 
BRANCH   4   5
ATOM      5  C   UNL     1      -8.542 -14.205  26.618  1.00  0.00     0.000 C 
BRANCH   5   6
ATOM      6  C   UNL     1      -9.567 -14.765  25.605  1.00  0.00     0.000 C 
BRANCH   6   7
ATOM      7  C   UNL     1     -10.851 -15.327  26.241  1.00  0.00     0.000 C 
BRANCH   7   8
ATOM      8  C   UNL     1     -10.616 -15.964  27.621  1.00  0.00     0.000 C 
BRANCH   8   9
ATOM      9  C   UNL     1     -11.756 -16.907  28.048  1.00  0.00     0.000 C 
BRANCH   9  10
ATOM     10  C   UNL     1     -12.473 -16.477  29.344  1.00  0.00     0.000 C 
BRANCH  10  11
ATOM     11  C   UNL     1     -11.576 -16.600  30.587  1.00  0.00     0.000 C 
BRANCH  11  12
ATOM     12  C   UNL     1     -11.492 -18.057  31.064  1.00  0.00     0.000 C 
BRANCH  12  13
ATOM     13  C   UNL     1     -12.855 -18.614  31.507  1.00  0.00     0.006 C 
BRANCH  13  14
ATOM     14  C   UNL     1     -13.185 -18.280  32.969  1.00  0.00     0.053 C 
BRANCH  14  15
ATOM     15  C   UNL     1     -13.154 -19.513  33.818  1.00  0.00     0.041 C 
ATOM     16  O   UNL     1     -14.089 -19.752  34.628  1.00  0.00    -0.550 OA
ATOM     17  O   UNL     1     -12.090 -20.403  33.714  1.00  0.00    -0.550 OA
ENDBRANCH  14  15
ENDBRANCH  13  14
ENDBRANCH  12  13
ENDBRANCH  11  12
ENDBRANCH  10  11
ENDBRANCH   9  10
ENDBRANCH   8   9
ENDBRANCH   7   8
ENDBRANCH   6   7
ENDBRANCH   5   6
ENDBRANCH   4   5
ENDBRANCH   3   4
ENDBRANCH   2   3
ENDBRANCH   1   2
BRANCH   1  18
ATOM     18  C   UNL     1      -6.924 -14.938  31.415  1.00  0.00     0.000 C 
BRANCH  18  19
ATOM     19  C   UNL     1      -6.724 -13.536  32.015  1.00  0.00     0.000 C 
BRANCH  19  20
ATOM     20  C   UNL     1      -5.285 -13.355  32.516  1.00  0.00     0.000 C 
BRANCH  20  21
ATOM     21  C   UNL     1      -4.922 -11.865  32.632  1.00  0.00     0.000 C 
BRANCH  21  22
ATOM     22  C   UNL     1      -5.000 -11.123  31.288  1.00  0.00     0.000 C 
BRANCH  22  23
ATOM     23  C   UNL     1      -3.693 -10.389  30.938  1.00  0.00     0.000 C 
BRANCH  23  24
ATOM     24  C   UNL     1      -3.097 -10.840  29.591  1.00  0.00    -0.000 C 
BRANCH  24  25
ATOM     25  C   UNL     1      -3.646 -12.175  29.048  1.00  0.00    -0.000 C 
BRANCH  25  26
ATOM     26  C   UNL     1      -2.661 -13.361  29.095  1.00  0.00    -0.000 C 
BRANCH  26  27
ATOM     27  C   UNL     1      -3.091 -14.528  30.002  1.00  0.00    -0.000 C 
BRANCH  27  28
ATOM     28  C   UNL     1      -1.900 -15.226  30.680  1.00  0.00    -0.000 C 
BRANCH  28  29
ATOM     29  C   UNL     1      -0.768 -14.233  31.027  1.00  0.00    -0.000 C 
BRANCH  29  30
ATOM     30  C   UNL     1      -0.726 -13.844  32.518  1.00  0.00    -0.000 C 
BRANCH  30  31
ATOM     31  C   UNL     1      -1.456 -12.535  32.854  1.00  0.00    -0.003 C 
ATOM     32  C   UNL     1      -0.515 -11.333  32.925  1.00  0.00     0.004 C 
ENDBRANCH  30  31
ENDBRANCH  29  30
ENDBRANCH  28  29
ENDBRANCH  27  28
ENDBRANCH  26  27
ENDBRANCH  25  26
ENDBRANCH  24  25
ENDBRANCH  23  24
ENDBRANCH  22  23
ENDBRANCH  21  22
ENDBRANCH  20  21
ENDBRANCH  19  20
ENDBRANCH  18  19
ENDBRANCH   1  18
TORSDOF 28
ENDMDL
MODEL 7
REMARK VINA RESULT:    -5.343      3.792     10.034
REMARK INTER + INTRA:         -18.276
REMARK INTER:                 -14.504
REMARK INTRA:                  -3.772
REMARK UNBOUND:                -4.187
REMARK SMILES CCCCCCCCCCCCCCCCCCCCCCCCCCCCCC(=O)[O-]
REMARK SMILES IDX 16 1 17 2 18 3 19 4 20 5 21 6 22 7 23 8 24 9 25 10 26 11
REMARK SMILES IDX 27 12 28 13 29 14 30 15 31 16 32 17 15 18 14 19 13 20 12 21
REMARK SMILES IDX 11 22 10 23 9 24 8 25 7 26 6 27 5 28 4 29 3 30 2 31 1 32
REMARK H PARENT
REMARK Flexibility Score: inf
ROOT
ATOM      1  C   UNL     1      -5.652 -14.334  31.475  1.00  0.00     0.000 C 
ENDROOT
BRANCH   1   2
ATOM      2  C   UNL     1      -7.024 -14.935  31.114  1.00  0.00     0.000 C 
BRANCH   2   3
ATOM      3  C   UNL     1      -7.484 -14.676  29.667  1.00  0.00     0.000 C 
BRANCH   3   4
ATOM      4  C   UNL     1      -6.405 -14.087  28.736  1.00  0.00     0.000 C 
BRANCH   4   5
ATOM      5  C   UNL     1      -6.553 -14.424  27.235  1.00  0.00     0.000 C 
BRANCH   5   6
ATOM      6  C   UNL     1      -7.911 -14.058  26.594  1.00  0.00     0.000 C 
BRANCH   6   7
ATOM      7  C   UNL     1      -8.824 -15.263  26.304  1.00  0.00     0.000 C 
BRANCH   7   8
ATOM      8  C   UNL     1     -10.316 -14.893  26.242  1.00  0.00     0.000 C 
BRANCH   8   9
ATOM      9  C   UNL     1     -11.214 -15.894  26.992  1.00  0.00     0.000 C 
BRANCH   9  10
ATOM     10  C   UNL     1     -10.622 -16.390  28.326  1.00  0.00     0.000 C 
BRANCH  10  11
ATOM     11  C   UNL     1     -11.294 -17.676  28.834  1.00  0.00     0.000 C 
BRANCH  11  12
ATOM     12  C   UNL     1     -12.643 -17.367  29.500  1.00  0.00     0.000 C 
BRANCH  12  13
ATOM     13  C   UNL     1     -13.046 -18.427  30.538  1.00  0.00     0.006 C 
BRANCH  13  14
ATOM     14  C   UNL     1     -13.062 -17.880  31.972  1.00  0.00     0.053 C 
BRANCH  14  15
ATOM     15  C   UNL     1     -13.001 -18.995  32.970  1.00  0.00     0.041 C 
ATOM     16  O   UNL     1     -13.888 -19.101  33.859  1.00  0.00    -0.550 OA
ATOM     17  O   UNL     1     -11.966 -19.920  32.916  1.00  0.00    -0.550 OA
ENDBRANCH  14  15
ENDBRANCH  13  14
ENDBRANCH  12  13
ENDBRANCH  11  12
ENDBRANCH  10  11
ENDBRANCH   9  10
ENDBRANCH   8   9
ENDBRANCH   7   8
ENDBRANCH   6   7
ENDBRANCH   5   6
ENDBRANCH   4   5
ENDBRANCH   3   4
ENDBRANCH   2   3
ENDBRANCH   1   2
BRANCH   1  18
ATOM     18  C   UNL     1      -5.642 -13.442  32.730  1.00  0.00     0.000 C 
BRANCH  18  19
ATOM     19  C   UNL     1      -5.324 -11.970  32.419  1.00  0.00     0.000 C 
BRANCH  19  20
ATOM     20  C   UNL     1      -6.290 -11.412  31.366  1.00  0.00     0.000 C 
BRANCH  20  21
ATOM     21  C   UNL     1      -5.557 -10.495  30.372  1.00  0.00     0.000 C 
BRANCH  21  22
ATOM     22  C   UNL     1      -4.028 -10.567  30.505  1.00  0.00     0.000 C 
BRANCH  22  23
ATOM     23  C   UNL     1      -3.346 -11.119  29.241  1.00  0.00     0.000 C 
BRANCH  23  24
ATOM     24  C   UNL     1      -3.022 -12.621  29.344  1.00  0.00    -0.000 C 
BRANCH  24  25
ATOM     25  C   UNL     1      -1.807 -12.969  30.228  1.00  0.00    -0.000 C 
BRANCH  25  26
ATOM     26  C   UNL     1      -2.136 -13.715  31.537  1.00  0.00    -0.000 C 
BRANCH  26  27
ATOM     27  C   UNL     1      -1.827 -12.933  32.826  1.00  0.00    -0.000 C 
BRANCH  27  28
ATOM     28  C   UNL     1      -0.859 -11.760  32.595  1.00  0.00    -0.000 C 
BRANCH  28  29
ATOM     29  C   UNL     1       0.464 -11.940  33.370  1.00  0.00    -0.000 C 
BRANCH  29  30
ATOM     30  C   UNL     1       0.649 -13.355  33.953  1.00  0.00    -0.000 C 
BRANCH  30  31
ATOM     31  C   UNL     1       1.332 -14.350  33.003  1.00  0.00    -0.003 C 
ATOM     32  C   UNL     1       0.868 -15.789  33.219  1.00  0.00     0.004 C 
ENDBRANCH  30  31
ENDBRANCH  29  30
ENDBRANCH  28  29
ENDBRANCH  27  28
ENDBRANCH  26  27
ENDBRANCH  25  26
ENDBRANCH  24  25
ENDBRANCH  23  24
ENDBRANCH  22  23
ENDBRANCH  21  22
ENDBRANCH  20  21
ENDBRANCH  19  20
ENDBRANCH  18  19
ENDBRANCH   1  18
TORSDOF 28
ENDMDL
MODEL 8
REMARK VINA RESULT:    -5.336      2.725      8.123
REMARK INTER + INTRA:         -18.257
REMARK INTER:                 -14.250
REMARK INTRA:                  -4.007
REMARK UNBOUND:                -4.187
REMARK SMILES CCCCCCCCCCCCCCCCCCCCCCCCCCCCCC(=O)[O-]
REMARK SMILES IDX 16 1 17 2 18 3 19 4 20 5 21 6 22 7 23 8 24 9 25 10 26 11
REMARK SMILES IDX 27 12 28 13 29 14 30 15 31 16 32 17 15 18 14 19 13 20 12 21
REMARK SMILES IDX 11 22 10 23 9 24 8 25 7 26 6 27 5 28 4 29 3 30 2 31 1 32
REMARK H PARENT
REMARK Flexibility Score: inf
ROOT
ATOM      1  C   UNL     1     -11.747 -17.354  30.507  1.00  0.00     0.000 C 
ENDROOT
BRANCH   1   2
ATOM      2  C   UNL     1     -12.062 -16.109  29.657  1.00  0.00     0.000 C 
BRANCH   2   3
ATOM      3  C   UNL     1     -12.977 -16.367  28.445  1.00  0.00     0.000 C 
BRANCH   3   4
ATOM      4  C   UNL     1     -12.352 -16.035  27.075  1.00  0.00     0.000 C 
BRANCH   4   5
ATOM      5  C   UNL     1     -10.832 -15.754  27.078  1.00  0.00     0.000 C 
BRANCH   5   6
ATOM      6  C   UNL     1     -10.306 -14.886  25.912  1.00  0.00     0.000 C 
BRANCH   6   7
ATOM      7  C   UNL     1      -8.996 -14.136  26.215  1.00  0.00     0.000 C 
BRANCH   7   8
ATOM      8  C   UNL     1      -7.950 -15.008  26.932  1.00  0.00     0.000 C 
BRANCH   8   9
ATOM      9  C   UNL     1      -6.929 -14.180  27.735  1.00  0.00     0.000 C 
BRANCH   9  10
ATOM     10  C   UNL     1      -5.468 -14.380  27.283  1.00  0.00     0.000 C 
BRANCH  10  11
ATOM     11  C   UNL     1      -4.494 -14.511  28.465  1.00  0.00     0.000 C 
BRANCH  11  12
ATOM     12  C   UNL     1      -3.061 -14.761  27.973  1.00  0.00     0.000 C 
BRANCH  12  13
ATOM     13  C   UNL     1      -2.723 -13.960  26.705  1.00  0.00     0.006 C 
BRANCH  13  14
ATOM     14  C   UNL     1      -2.248 -14.850  25.549  1.00  0.00     0.053 C 
BRANCH  14  15
ATOM     15  C   UNL     1      -0.766 -14.737  25.362  1.00  0.00     0.041 C 
ATOM     16  O   UNL     1      -0.094 -15.737  24.993  1.00  0.00    -0.550 OA
ATOM     17  O   UNL     1      -0.126 -13.525  25.595  1.00  0.00    -0.550 OA
ENDBRANCH  14  15
ENDBRANCH  13  14
ENDBRANCH  12  13
ENDBRANCH  11  12
ENDBRANCH  10  11
ENDBRANCH   9  10
ENDBRANCH   8   9
ENDBRANCH   7   8
ENDBRANCH   6   7
ENDBRANCH   5   6
ENDBRANCH   4   5
ENDBRANCH   3   4
ENDBRANCH   2   3
ENDBRANCH   1   2
BRANCH   1  18
ATOM     18  C   UNL     1     -10.247 -17.650  30.697  1.00  0.00     0.000 C 
BRANCH  18  19
ATOM     19  C   UNL     1      -9.355 -16.427  30.429  1.00  0.00     0.000 C 
BRANCH  19  20
ATOM     20  C   UNL     1      -8.239 -16.323  31.476  1.00  0.00     0.000 C 
BRANCH  20  21
ATOM     21  C   UNL     1      -7.209 -15.250  31.084  1.00  0.00     0.000 C 
BRANCH  21  22
ATOM     22  C   UNL     1      -6.686 -14.452  32.289  1.00  0.00     0.000 C 
BRANCH  22  23
ATOM     23  C   UNL     1      -5.358 -13.733  31.995  1.00  0.00     0.000 C 
BRANCH  23  24
ATOM     24  C   UNL     1      -5.520 -12.207  31.864  1.00  0.00    -0.000 C 
BRANCH  24  25
ATOM     25  C   UNL     1      -6.051 -11.722  30.500  1.00  0.00    -0.000 C 
BRANCH  25  26
ATOM     26  C   UNL     1      -5.011 -11.030  29.596  1.00  0.00    -0.000 C 
BRANCH  26  27
ATOM     27  C   UNL     1      -3.636 -10.796  30.247  1.00  0.00    -0.000 C 
BRANCH  27  28
ATOM     28  C   UNL     1      -2.470 -11.279  29.368  1.00  0.00    -0.000 C 
BRANCH  28  29
ATOM     29  C   UNL     1      -1.531 -12.241  30.130  1.00  0.00    -0.000 C 
BRANCH  29  30
ATOM     30  C   UNL     1      -1.310 -11.847  31.604  1.00  0.00    -0.000 C 
BRANCH  30  31
ATOM     31  C   UNL     1      -1.812 -12.883  32.621  1.00  0.00    -0.003 C 
ATOM     32  C   UNL     1      -0.736 -13.299  33.623  1.00  0.00     0.004 C 
ENDBRANCH  30  31
ENDBRANCH  29  30
ENDBRANCH  28  29
ENDBRANCH  27  28
ENDBRANCH  26  27
ENDBRANCH  25  26
ENDBRANCH  24  25
ENDBRANCH  23  24
ENDBRANCH  22  23
ENDBRANCH  21  22
ENDBRANCH  20  21
ENDBRANCH  19  20
ENDBRANCH  18  19
ENDBRANCH   1  18
TORSDOF 28
ENDMDL
MODEL 9
REMARK VINA RESULT:    -5.322      2.620      4.082
REMARK INTER + INTRA:         -18.220
REMARK INTER:                 -13.850
REMARK INTRA:                  -4.370
REMARK UNBOUND:                -4.187
REMARK SMILES CCCCCCCCCCCCCCCCCCCCCCCCCCCCCC(=O)[O-]
REMARK SMILES IDX 16 1 17 2 18 3 19 4 20 5 21 6 22 7 23 8 24 9 25 10 26 11
REMARK SMILES IDX 27 12 28 13 29 14 30 15 31 16 32 17 15 18 14 19 13 20 12 21
REMARK SMILES IDX 11 22 10 23 9 24 8 25 7 26 6 27 5 28 4 29 3 30 2 31 1 32
REMARK H PARENT
REMARK Flexibility Score: inf
ROOT
ATOM      1  C   UNL     1      -6.753 -12.520  31.868  1.00  0.00     0.000 C 
ENDROOT
BRANCH   1   2
ATOM      2  C   UNL     1      -5.966 -11.206  31.701  1.00  0.00     0.000 C 
BRANCH   2   3
ATOM      3  C   UNL     1      -4.946 -11.203  30.546  1.00  0.00     0.000 C 
BRANCH   3   4
ATOM      4  C   UNL     1      -3.727 -10.283  30.757  1.00  0.00     0.000 C 
BRANCH   4   5
ATOM      5  C   UNL     1      -2.587 -10.428  29.724  1.00  0.00     0.000 C 
BRANCH   5   6
ATOM      6  C   UNL     1      -1.154 -10.468  30.304  1.00  0.00     0.000 C 
BRANCH   6   7
ATOM      7  C   UNL     1      -1.074 -10.236  31.823  1.00  0.00     0.000 C 
BRANCH   7   8
ATOM      8  C   UNL     1      -0.540 -11.454  32.596  1.00  0.00     0.000 C 
BRANCH   8   9
ATOM      9  C   UNL     1      -1.602 -12.553  32.791  1.00  0.00     0.000 C 
BRANCH   9  10
ATOM     10  C   UNL     1      -1.402 -13.783  31.883  1.00  0.00     0.000 C 
BRANCH  10  11
ATOM     11  C   UNL     1      -2.595 -14.028  30.943  1.00  0.00     0.000 C 
BRANCH  11  12
ATOM     12  C   UNL     1      -2.136 -14.109  29.480  1.00  0.00     0.000 C 
BRANCH  12  13
ATOM     13  C   UNL     1      -3.267 -13.796  28.488  1.00  0.00     0.006 C 
BRANCH  13  14
ATOM     14  C   UNL     1      -3.064 -14.471  27.123  1.00  0.00     0.053 C 
BRANCH  14  15
ATOM     15  C   UNL     1      -2.106 -13.690  26.278  1.00  0.00     0.041 C 
ATOM     16  O   UNL     1      -1.732 -14.139  25.162  1.00  0.00    -0.550 OA
ATOM     17  O   UNL     1      -1.628 -12.462  26.722  1.00  0.00    -0.550 OA
ENDBRANCH  14  15
ENDBRANCH  13  14
ENDBRANCH  12  13
ENDBRANCH  11  12
ENDBRANCH  10  11
ENDBRANCH   9  10
ENDBRANCH   8   9
ENDBRANCH   7   8
ENDBRANCH   6   7
ENDBRANCH   5   6
ENDBRANCH   4   5
ENDBRANCH   3   4
ENDBRANCH   2   3
ENDBRANCH   1   2
BRANCH   1  18
ATOM     18  C   UNL     1      -5.890 -13.763  32.155  1.00  0.00     0.000 C 
BRANCH  18  19
ATOM     19  C   UNL     1      -6.077 -14.878  31.113  1.00  0.00     0.000 C 
BRANCH  19  20
ATOM     20  C   UNL     1      -7.566 -15.121  30.834  1.00  0.00     0.000 C 
BRANCH  20  21
ATOM     21  C   UNL     1      -7.863 -15.064  29.325  1.00  0.00     0.000 C 
BRANCH  21  22
ATOM     22  C   UNL     1      -6.886 -14.163  28.555  1.00  0.00     0.000 C 
BRANCH  22  23
ATOM     23  C   UNL     1      -6.934 -14.396  27.035  1.00  0.00     0.000 C 
BRANCH  23  24
ATOM     24  C   UNL     1      -8.154 -15.227  26.595  1.00  0.00    -0.000 C 
BRANCH  24  25
ATOM     25  C   UNL     1      -9.315 -14.413  25.990  1.00  0.00    -0.000 C 
BRANCH  25  26
ATOM     26  C   UNL     1     -10.713 -15.044  26.143  1.00  0.00    -0.000 C 
BRANCH  26  27
ATOM     27  C   UNL     1     -10.897 -15.922  27.394  1.00  0.00    -0.000 C 
BRANCH  27  28
ATOM     28  C   UNL     1     -12.360 -16.340  27.619  1.00  0.00    -0.000 C 
BRANCH  28  29
ATOM     29  C   UNL     1     -12.663 -16.608  29.110  1.00  0.00    -0.000 C 
BRANCH  29  30
ATOM     30  C   UNL     1     -11.405 -16.905  29.950  1.00  0.00    -0.000 C 
BRANCH  30  31
ATOM     31  C   UNL     1     -11.042 -18.395  30.045  1.00  0.00    -0.003 C 
ATOM     32  C   UNL     1      -9.797 -18.648  30.893  1.00  0.00     0.004 C 
ENDBRANCH  30  31
ENDBRANCH  29  30
ENDBRANCH  28  29
ENDBRANCH  27  28
ENDBRANCH  26  27
ENDBRANCH  25  26
ENDBRANCH  24  25
ENDBRANCH  23  24
ENDBRANCH  22  23
ENDBRANCH  21  22
ENDBRANCH  20  21
ENDBRANCH  19  20
ENDBRANCH  18  19
ENDBRANCH   1  18
TORSDOF 28
ENDMDL
