MODEL 1
REMARK VINA RESULT:    -2.893      0.000      0.000
REMARK INTER + INTRA:          -6.789
REMARK INTER:                  -5.429
REMARK INTRA:                  -1.360
REMARK UNBOUND:                -1.360
REMARK SMILES O=C([O-])CCCCCCCCCCCCCCC(=O)[O-]
REMARK SMILES IDX 10 1 9 2 8 3 7 4 6 5 5 6 4 7 2 8 1 9 3 10 11 11 12 12 13 13
REMARK SMILES IDX 14 14 15 15 16 16 17 17 18 18 19 19 20 20
REMARK H PARENT
REMARK Flexibility Score: inf
ROOT
ATOM      1  C   UNL     1      75.425  91.233  75.139  1.00  0.00     0.000 C 
ENDROOT
BRANCH   1   2
ATOM      2  C   UNL     1      76.235  91.327  73.838  1.00  0.00     0.000 C 
BRANCH   2   3
ATOM      3  C   UNL     1      75.859  90.190  72.876  1.00  0.00     0.000 C 
BRANCH   3   4
ATOM      4  C   UNL     1      74.470  89.601  73.171  1.00  0.00     0.000 C 
BRANCH   4   5
ATOM      5  C   UNL     1      74.395  88.091  72.886  1.00  0.00     0.000 C 
BRANCH   5   6
ATOM      6  C   UNL     1      75.711  87.354  73.194  1.00  0.00     0.006 C 
BRANCH   6   7
ATOM      7  C   UNL     1      75.733  86.665  74.570  1.00  0.00     0.053 C 
BRANCH   7   8
ATOM      8  C   UNL     1      74.638  85.654  74.728  1.00  0.00     0.041 C 
ATOM      9  O   UNL     1      74.525  84.706  73.907  1.00  0.00    -0.550 OA
ATOM     10  O   UNL     1      73.722  85.776  75.765  1.00  0.00    -0.550 OA
ENDBRANCH   7   8
ENDBRANCH   6   7
ENDBRANCH   5   6
ENDBRANCH   4   5
ENDBRANCH   3   4
ENDBRANCH   2   3
ENDBRANCH   1   2
BRANCH   1  11
ATOM     11  C   UNL     1      76.308  90.961  76.370  1.00  0.00     0.000 C 
BRANCH  11  12
ATOM     12  C   UNL     1      75.930  89.655  77.089  1.00  0.00     0.000 C 
BRANCH  12  13
ATOM     13  C   UNL     1      76.539  89.560  78.498  1.00  0.00     0.000 C 
BRANCH  13  14
ATOM     14  C   UNL     1      75.497  89.185  79.566  1.00  0.00     0.000 C 
BRANCH  14  15
ATOM     15  C   UNL     1      75.104  90.373  80.462  1.00  0.00     0.000 C 
BRANCH  15  16
ATOM     16  C   UNL     1      74.040  91.320  79.874  1.00  0.00     0.006 C 
BRANCH  16  17
ATOM     17  C   UNL     1      72.705  91.322  80.644  1.00  0.00     0.053 C 
BRANCH  17  18
ATOM     18  C   UNL     1      72.374  89.982  81.229  1.00  0.00     0.041 C 
ATOM     19  O   UNL     1      71.876  89.078  80.507  1.00  0.00    -0.550 OA
ATOM     20  O   UNL     1      72.576  89.744  82.582  1.00  0.00    -0.550 OA
ENDBRANCH  17  18
ENDBRANCH  16  17
ENDBRANCH  15  16
ENDBRANCH  14  15
ENDBRANCH  13  14
ENDBRANCH  12  13
ENDBRANCH  11  12
ENDBRANCH   1  11
TORSDOF 15
ENDMDL
MODEL 2
REMARK VINA RESULT:    -2.836      1.518      2.139
REMARK INTER + INTRA:          -6.683
REMARK INTER:                  -5.064
REMARK INTRA:                  -1.618
REMARK UNBOUND:                -1.360
REMARK SMILES O=C([O-])CCCCCCCCCCCCCCC(=O)[O-]
REMARK SMILES IDX 10 1 9 2 8 3 7 4 6 5 5 6 4 7 2 8 1 9 3 10 11 11 12 12 13 13
REMARK SMILES IDX 14 14 15 15 16 16 17 17 18 18 19 19 20 20
REMARK H PARENT
REMARK Flexibility Score: inf
ROOT
ATOM      1  C   UNL     1      75.939  90.732  76.493  1.00  0.00     0.000 C 
ENDROOT
BRANCH   1   2
ATOM      2  C   UNL     1      75.743  92.125  75.878  1.00  0.00     0.000 C 
BRANCH   2   3
ATOM      3  C   UNL     1      75.448  92.022  74.374  1.00  0.00     0.000 C 
BRANCH   3   4
ATOM      4  C   UNL     1      73.978  91.681  74.082  1.00  0.00     0.000 C 
BRANCH   4   5
ATOM      5  C   UNL     1      73.827  90.537  73.066  1.00  0.00     0.000 C 
BRANCH   5   6
ATOM      6  C   UNL     1      74.951  89.489  73.166  1.00  0.00     0.006 C 
BRANCH   6   7
ATOM      7  C   UNL     1      74.447  88.035  73.193  1.00  0.00     0.053 C 
BRANCH   7   8
ATOM      8  C   UNL     1      75.210  87.176  74.156  1.00  0.00     0.041 C 
ATOM      9  O   UNL     1      76.120  86.411  73.742  1.00  0.00    -0.550 OA
ATOM     10  O   UNL     1      74.893  87.197  75.509  1.00  0.00    -0.550 OA
ENDBRANCH   7   8
ENDBRANCH   6   7
ENDBRANCH   5   6
ENDBRANCH   4   5
ENDBRANCH   3   4
ENDBRANCH   2   3
ENDBRANCH   1   2
BRANCH   1  11
ATOM     11  C   UNL     1      77.315  90.125  76.166  1.00  0.00     0.000 C 
BRANCH  11  12
ATOM     12  C   UNL     1      78.112  89.756  77.429  1.00  0.00     0.000 C 
BRANCH  12  13
ATOM     13  C   UNL     1      78.070  90.861  78.497  1.00  0.00     0.000 C 
BRANCH  13  14
ATOM     14  C   UNL     1      78.177  90.303  79.927  1.00  0.00     0.000 C 
BRANCH  14  15
ATOM     15  C   UNL     1      76.960  90.655  80.800  1.00  0.00     0.000 C 
BRANCH  15  16
ATOM     16  C   UNL     1      75.756  91.252  80.045  1.00  0.00     0.006 C 
BRANCH  16  17
ATOM     17  C   UNL     1      74.591  90.265  79.836  1.00  0.00     0.053 C 
BRANCH  17  18
ATOM     18  C   UNL     1      73.517  90.415  80.871  1.00  0.00     0.041 C 
ATOM     19  O   UNL     1      73.546  89.725  81.924  1.00  0.00    -0.550 OA
ATOM     20  O   UNL     1      72.458  91.288  80.653  1.00  0.00    -0.550 OA
ENDBRANCH  17  18
ENDBRANCH  16  17
ENDBRANCH  15  16
ENDBRANCH  14  15
ENDBRANCH  13  14
ENDBRANCH  12  13
ENDBRANCH  11  12
ENDBRANCH   1  11
TORSDOF 15
ENDMDL
MODEL 3
REMARK VINA RESULT:    -2.799      1.710      6.302
REMARK INTER + INTRA:          -6.613
REMARK INTER:                  -4.599
REMARK INTRA:                  -2.014
REMARK UNBOUND:                -1.360
REMARK SMILES O=C([O-])CCCCCCCCCCCCCCC(=O)[O-]
REMARK SMILES IDX 10 1 9 2 8 3 7 4 6 5 5 6 4 7 2 8 1 9 3 10 11 11 12 12 13 13
REMARK SMILES IDX 14 14 15 15 16 16 17 17 18 18 19 19 20 20
REMARK H PARENT
REMARK Flexibility Score: inf
ROOT
ATOM      1  C   UNL     1      78.295  87.991  74.977  1.00  0.00     0.000 C 
ENDROOT
BRANCH   1   2
ATOM      2  C   UNL     1      78.034  88.385  76.438  1.00  0.00     0.000 C 
BRANCH   2   3
ATOM      3  C   UNL     1      77.681  89.876  76.549  1.00  0.00     0.000 C 
BRANCH   3   4
ATOM      4  C   UNL     1      76.265  90.110  77.100  1.00  0.00     0.000 C 
BRANCH   4   5
ATOM      5  C   UNL     1      75.992  91.589  77.420  1.00  0.00     0.000 C 
BRANCH   5   6
ATOM      6  C   UNL     1      75.066  91.781  78.635  1.00  0.00     0.006 C 
BRANCH   6   7
ATOM      7  C   UNL     1      75.068  90.595  79.616  1.00  0.00     0.053 C 
BRANCH   7   8
ATOM      8  C   UNL     1      73.785  90.473  80.379  1.00  0.00     0.041 C 
ATOM      9  O   UNL     1      73.506  89.407  80.990  1.00  0.00    -0.550 OA
ATOM     10  O   UNL     1      72.878  91.526  80.389  1.00  0.00    -0.550 OA
ENDBRANCH   7   8
ENDBRANCH   6   7
ENDBRANCH   5   6
ENDBRANCH   4   5
ENDBRANCH   3   4
ENDBRANCH   2   3
ENDBRANCH   1   2
BRANCH   1  11
ATOM     11  C   UNL     1      78.308  89.202  74.028  1.00  0.00     0.000 C 
BRANCH  11  12
ATOM     12  C   UNL     1      77.226  89.109  72.939  1.00  0.00     0.000 C 
BRANCH  12  13
ATOM     13  C   UNL     1      76.036  90.044  73.209  1.00  0.00     0.000 C 
BRANCH  13  14
ATOM     14  C   UNL     1      74.814  89.296  73.772  1.00  0.00     0.000 C 
BRANCH  14  15
ATOM     15  C   UNL     1      74.546  87.962  73.055  1.00  0.00     0.000 C 
BRANCH  15  16
ATOM     16  C   UNL     1      74.654  86.704  73.938  1.00  0.00     0.006 C 
BRANCH  16  17
ATOM     17  C   UNL     1      74.879  87.002  75.433  1.00  0.00     0.053 C 
BRANCH  17  18
ATOM     18  C   UNL     1      74.687  85.792  76.297  1.00  0.00     0.041 C 
ATOM     19  O   UNL     1      75.682  85.196  76.789  1.00  0.00    -0.550 OA
ATOM     20  O   UNL     1      73.410  85.295  76.526  1.00  0.00    -0.550 OA
ENDBRANCH  17  18
ENDBRANCH  16  17
ENDBRANCH  15  16
ENDBRANCH  14  15
ENDBRANCH  13  14
ENDBRANCH  12  13
ENDBRANCH  11  12
ENDBRANCH   1  11
TORSDOF 15
ENDMDL
MODEL 4
REMARK VINA RESULT:    -2.739     12.511     15.191
REMARK INTER + INTRA:          -6.501
REMARK INTER:                  -4.591
REMARK INTRA:                  -1.910
REMARK UNBOUND:                -1.360
REMARK SMILES O=C([O-])CCCCCCCCCCCCCCC(=O)[O-]
REMARK SMILES IDX 10 1 9 2 8 3 7 4 6 5 5 6 4 7 2 8 1 9 3 10 11 11 12 12 13 13
REMARK SMILES IDX 14 14 15 15 16 16 17 17 18 18 19 19 20 20
REMARK H PARENT
REMARK Flexibility Score: inf
ROOT
ATOM      1  C   UNL     1      76.864  90.895  91.758  1.00  0.00     0.000 C 
ENDROOT
BRANCH   1   2
ATOM      2  C   UNL     1      77.498  89.538  91.422  1.00  0.00     0.000 C 
BRANCH   2   3
ATOM      3  C   UNL     1      76.900  88.958  90.131  1.00  0.00     0.000 C 
BRANCH   3   4
ATOM      4  C   UNL     1      77.171  87.453  89.978  1.00  0.00     0.000 C 
BRANCH   4   5
ATOM      5  C   UNL     1      76.582  86.625  91.132  1.00  0.00     0.000 C 
BRANCH   5   6
ATOM      6  C   UNL     1      77.653  85.879  91.947  1.00  0.00     0.006 C 
BRANCH   6   7
ATOM      7  C   UNL     1      78.397  84.791  91.152  1.00  0.00     0.053 C 
BRANCH   7   8
ATOM      8  C   UNL     1      78.378  83.459  91.838  1.00  0.00     0.041 C 
ATOM      9  O   UNL     1      79.216  83.196  92.741  1.00  0.00    -0.550 OA
ATOM     10  O   UNL     1      77.455  82.493  91.457  1.00  0.00    -0.550 OA
ENDBRANCH   7   8
ENDBRANCH   6   7
ENDBRANCH   5   6
ENDBRANCH   4   5
ENDBRANCH   3   4
ENDBRANCH   2   3
ENDBRANCH   1   2
BRANCH   1  11
ATOM     11  C   UNL     1      76.135  90.893  93.112  1.00  0.00     0.000 C 
BRANCH  11  12
ATOM     12  C   UNL     1      74.614  90.710  92.963  1.00  0.00     0.000 C 
BRANCH  12  13
ATOM     13  C   UNL     1      74.178  89.244  93.119  1.00  0.00     0.000 C 
BRANCH  13  14
ATOM     14  C   UNL     1      73.595  88.661  91.820  1.00  0.00     0.000 C 
BRANCH  14  15
ATOM     15  C   UNL     1      72.848  87.334  92.041  1.00  0.00     0.000 C 
BRANCH  15  16
ATOM     16  C   UNL     1      72.580  86.507  90.769  1.00  0.00     0.006 C 
BRANCH  16  17
ATOM     17  C   UNL     1      72.818  87.277  89.456  1.00  0.00     0.053 C 
BRANCH  17  18
ATOM     18  C   UNL     1      73.835  86.614  88.575  1.00  0.00     0.041 C 
ATOM     19  O   UNL     1      74.181  85.423  88.789  1.00  0.00    -0.550 OA
ATOM     20  O   UNL     1      74.432  87.327  87.543  1.00  0.00    -0.550 OA
ENDBRANCH  17  18
ENDBRANCH  16  17
ENDBRANCH  15  16
ENDBRANCH  14  15
ENDBRANCH  13  14
ENDBRANCH  12  13
ENDBRANCH  11  12
ENDBRANCH   1  11
TORSDOF 15
ENDMDL
MODEL 5
REMARK VINA RESULT:    -2.664      1.783      6.905
REMARK INTER + INTRA:          -6.360
REMARK INTER:                  -4.514
REMARK INTRA:                  -1.846
REMARK UNBOUND:                -1.360
REMARK SMILES O=C([O-])CCCCCCCCCCCCCCC(=O)[O-]
REMARK SMILES IDX 10 1 9 2 8 3 7 4 6 5 5 6 4 7 2 8 1 9 3 10 11 11 12 12 13 13
REMARK SMILES IDX 14 14 15 15 16 16 17 17 18 18 19 19 20 20
REMARK H PARENT
REMARK Flexibility Score: inf
ROOT
ATOM      1  C   UNL     1      76.128  90.427  76.675  1.00  0.00     0.000 C 
ENDROOT
BRANCH   1   2
ATOM      2  C   UNL     1      77.566  90.443  77.212  1.00  0.00     0.000 C 
BRANCH   2   3
ATOM      3  C   UNL     1      77.837  89.211  78.089  1.00  0.00     0.000 C 
BRANCH   3   4
ATOM      4  C   UNL     1      77.940  89.559  79.582  1.00  0.00     0.000 C 
BRANCH   4   5
ATOM      5  C   UNL     1      77.959  91.075  79.836  1.00  0.00     0.000 C 
BRANCH   5   6
ATOM      6  C   UNL     1      76.781  91.556  80.704  1.00  0.00     0.006 C 
BRANCH   6   7
ATOM      7  C   UNL     1      75.560  92.025  79.893  1.00  0.00     0.053 C 
BRANCH   7   8
ATOM      8  C   UNL     1      74.373  91.126  80.063  1.00  0.00     0.041 C 
ATOM      9  O   UNL     1      73.257  91.602  80.399  1.00  0.00    -0.550 OA
ATOM     10  O   UNL     1      74.507  89.755  79.881  1.00  0.00    -0.550 OA
ENDBRANCH   7   8
ENDBRANCH   6   7
ENDBRANCH   5   6
ENDBRANCH   4   5
ENDBRANCH   3   4
ENDBRANCH   2   3
ENDBRANCH   1   2
BRANCH   1  11
ATOM     11  C   UNL     1      75.608  91.833  76.327  1.00  0.00     0.000 C 
BRANCH  11  12
ATOM     12  C   UNL     1      75.448  92.044  74.811  1.00  0.00     0.000 C 
BRANCH  12  13
ATOM     13  C   UNL     1      74.170  91.393  74.256  1.00  0.00     0.000 C 
BRANCH  13  14
ATOM     14  C   UNL     1      74.388  90.748  72.876  1.00  0.00     0.000 C 
BRANCH  14  15
ATOM     15  C   UNL     1      74.275  89.214  72.907  1.00  0.00     0.000 C 
BRANCH  15  16
ATOM     16  C   UNL     1      75.452  88.479  73.577  1.00  0.00     0.006 C 
BRANCH  16  17
ATOM     17  C   UNL     1      75.031  87.512  74.700  1.00  0.00     0.053 C 
BRANCH  17  18
ATOM     18  C   UNL     1      76.112  86.535  75.055  1.00  0.00     0.041 C 
ATOM     19  O   UNL     1      77.232  86.944  75.459  1.00  0.00    -0.550 OA
ATOM     20  O   UNL     1      75.897  85.171  74.898  1.00  0.00    -0.550 OA
ENDBRANCH  17  18
ENDBRANCH  16  17
ENDBRANCH  15  16
ENDBRANCH  14  15
ENDBRANCH  13  14
ENDBRANCH  12  13
ENDBRANCH  11  12
ENDBRANCH   1  11
TORSDOF 15
ENDMDL
MODEL 6
REMARK VINA RESULT:    -2.638     16.747     18.917
REMARK INTER + INTRA:          -6.311
REMARK INTER:                  -3.962
REMARK INTRA:                  -2.348
REMARK UNBOUND:                -1.360
REMARK SMILES O=C([O-])CCCCCCCCCCCCCCC(=O)[O-]
REMARK SMILES IDX 10 1 9 2 8 3 7 4 6 5 5 6 4 7 2 8 1 9 3 10 11 11 12 12 13 13
REMARK SMILES IDX 14 14 15 15 16 16 17 17 18 18 19 19 20 20
REMARK H PARENT
REMARK Flexibility Score: inf
ROOT
ATOM      1  C   UNL     1      85.615  76.967  75.954  1.00  0.00     0.000 C 
ENDROOT
BRANCH   1   2
ATOM      2  C   UNL     1      86.000  78.443  75.783  1.00  0.00     0.000 C 
BRANCH   2   3
ATOM      3  C   UNL     1      87.351  78.738  76.452  1.00  0.00     0.000 C 
BRANCH   3   4
ATOM      4  C   UNL     1      88.507  78.815  75.442  1.00  0.00     0.000 C 
BRANCH   4   5
ATOM      5  C   UNL     1      88.049  79.298  74.055  1.00  0.00     0.000 C 
BRANCH   5   6
ATOM      6  C   UNL     1      88.487  80.742  73.746  1.00  0.00     0.006 C 
BRANCH   6   7
ATOM      7  C   UNL     1      89.752  80.837  72.875  1.00  0.00     0.053 C 
BRANCH   7   8
ATOM      8  C   UNL     1      90.947  81.316  73.642  1.00  0.00     0.041 C 
ATOM      9  O   UNL     1      90.894  81.433  74.895  1.00  0.00    -0.550 OA
ATOM     10  O   UNL     1      92.112  81.664  72.970  1.00  0.00    -0.550 OA
ENDBRANCH   7   8
ENDBRANCH   6   7
ENDBRANCH   5   6
ENDBRANCH   4   5
ENDBRANCH   3   4
ENDBRANCH   2   3
ENDBRANCH   1   2
BRANCH   1  11
ATOM     11  C   UNL     1      85.078  76.337  74.658  1.00  0.00     0.000 C 
BRANCH  11  12
ATOM     12  C   UNL     1      86.082  75.364  74.014  1.00  0.00     0.000 C 
BRANCH  12  13
ATOM     13  C   UNL     1      86.900  76.020  72.890  1.00  0.00     0.000 C 
BRANCH  13  14
ATOM     14  C   UNL     1      88.393  75.651  72.956  1.00  0.00     0.000 C 
BRANCH  14  15
ATOM     15  C   UNL     1      88.736  74.752  74.156  1.00  0.00     0.000 C 
BRANCH  15  16
ATOM     16  C   UNL     1      89.499  75.443  75.302  1.00  0.00     0.006 C 
BRANCH  16  17
ATOM     17  C   UNL     1      88.853  75.259  76.689  1.00  0.00     0.053 C 
BRANCH  17  18
ATOM     18  C   UNL     1      89.626  75.938  77.780  1.00  0.00     0.041 C 
ATOM     19  O   UNL     1      89.112  76.101  78.918  1.00  0.00    -0.550 OA
ATOM     20  O   UNL     1      90.901  76.429  77.528  1.00  0.00    -0.550 OA
ENDBRANCH  17  18
ENDBRANCH  16  17
ENDBRANCH  15  16
ENDBRANCH  14  15
ENDBRANCH  13  14
ENDBRANCH  12  13
ENDBRANCH  11  12
ENDBRANCH   1  11
TORSDOF 15
ENDMDL
MODEL 7
REMARK VINA RESULT:    -2.622     12.296     15.778
REMARK INTER + INTRA:          -6.281
REMARK INTER:                  -4.321
REMARK INTRA:                  -1.961
REMARK UNBOUND:                -1.360
REMARK SMILES O=C([O-])CCCCCCCCCCCCCCC(=O)[O-]
REMARK SMILES IDX 10 1 9 2 8 3 7 4 6 5 5 6 4 7 2 8 1 9 3 10 11 11 12 12 13 13
REMARK SMILES IDX 14 14 15 15 16 16 17 17 18 18 19 19 20 20
REMARK H PARENT
REMARK Flexibility Score: inf
ROOT
ATOM      1  C   UNL     1      76.825  90.247  91.873  1.00  0.00     0.000 C 
ENDROOT
BRANCH   1   2
ATOM      2  C   UNL     1      75.866  91.002  92.805  1.00  0.00     0.000 C 
BRANCH   2   3
ATOM      3  C   UNL     1      74.461  90.382  92.763  1.00  0.00     0.000 C 
BRANCH   3   4
ATOM      4  C   UNL     1      74.492  88.859  92.553  1.00  0.00     0.000 C 
BRANCH   4   5
ATOM      5  C   UNL     1      73.574  88.401  91.408  1.00  0.00     0.000 C 
BRANCH   5   6
ATOM      6  C   UNL     1      74.242  87.377  90.473  1.00  0.00     0.006 C 
BRANCH   6   7
ATOM      7  C   UNL     1      75.201  88.003  89.445  1.00  0.00     0.053 C 
BRANCH   7   8
ATOM      8  C   UNL     1      75.690  87.013  88.432  1.00  0.00     0.041 C 
ATOM      9  O   UNL     1      74.972  86.708  87.443  1.00  0.00    -0.550 OA
ATOM     10  O   UNL     1      76.926  86.401  88.597  1.00  0.00    -0.550 OA
ENDBRANCH   7   8
ENDBRANCH   6   7
ENDBRANCH   5   6
ENDBRANCH   4   5
ENDBRANCH   3   4
ENDBRANCH   2   3
ENDBRANCH   1   2
BRANCH   1  11
ATOM     11  C   UNL     1      78.222  90.051  92.487  1.00  0.00     0.000 C 
BRANCH  11  12
ATOM     12  C   UNL     1      78.397  88.661  93.123  1.00  0.00     0.000 C 
BRANCH  12  13
ATOM     13  C   UNL     1      77.996  87.523  92.171  1.00  0.00     0.000 C 
BRANCH  13  14
ATOM     14  C   UNL     1      77.085  86.483  92.847  1.00  0.00     0.000 C 
BRANCH  14  15
ATOM     15  C   UNL     1      76.799  85.265  91.951  1.00  0.00     0.000 C 
BRANCH  15  16
ATOM     16  C   UNL     1      77.209  83.901  92.539  1.00  0.00     0.006 C 
BRANCH  16  17
ATOM     17  C   UNL     1      78.730  83.723  92.714  1.00  0.00     0.053 C 
BRANCH  17  18
ATOM     18  C   UNL     1      79.329  82.827  91.672  1.00  0.00     0.041 C 
ATOM     19  O   UNL     1      79.208  83.103  90.449  1.00  0.00    -0.550 OA
ATOM     20  O   UNL     1      79.985  81.662  92.049  1.00  0.00    -0.550 OA
ENDBRANCH  17  18
ENDBRANCH  16  17
ENDBRANCH  15  16
ENDBRANCH  14  15
ENDBRANCH  13  14
ENDBRANCH  12  13
ENDBRANCH  11  12
ENDBRANCH   1  11
TORSDOF 15
ENDMDL
MODEL 8
REMARK VINA RESULT:    -2.615     16.568     19.022
REMARK INTER + INTRA:          -6.268
REMARK INTER:                  -4.214
REMARK INTRA:                  -2.054
REMARK UNBOUND:                -1.360
REMARK SMILES O=C([O-])CCCCCCCCCCCCCCC(=O)[O-]
REMARK SMILES IDX 10 1 9 2 8 3 7 4 6 5 5 6 4 7 2 8 1 9 3 10 11 11 12 12 13 13
REMARK SMILES IDX 14 14 15 15 16 16 17 17 18 18 19 19 20 20
REMARK H PARENT
REMARK Flexibility Score: inf
ROOT
ATOM      1  C   UNL     1      87.571  77.636  73.130  1.00  0.00     0.000 C 
ENDROOT
BRANCH   1   2
ATOM      2  C   UNL     1      88.881  76.843  73.248  1.00  0.00     0.000 C 
BRANCH   2   3
ATOM      3  C   UNL     1      88.604  75.333  73.289  1.00  0.00     0.000 C 
BRANCH   3   4
ATOM      4  C   UNL     1      88.796  74.735  74.692  1.00  0.00     0.000 C 
BRANCH   4   5
ATOM      5  C   UNL     1      89.541  75.686  75.644  1.00  0.00     0.000 C 
BRANCH   5   6
ATOM      6  C   UNL     1      89.351  75.325  77.128  1.00  0.00     0.006 C 
BRANCH   6   7
ATOM      7  C   UNL     1      90.606  75.550  77.991  1.00  0.00     0.053 C 
BRANCH   7   8
ATOM      8  C   UNL     1      90.471  74.977  79.369  1.00  0.00     0.041 C 
ATOM      9  O   UNL     1      90.930  73.835  79.631  1.00  0.00    -0.550 OA
ATOM     10  O   UNL     1      89.807  75.693  80.358  1.00  0.00    -0.550 OA
ENDBRANCH   7   8
ENDBRANCH   6   7
ENDBRANCH   5   6
ENDBRANCH   4   5
ENDBRANCH   3   4
ENDBRANCH   2   3
ENDBRANCH   1   2
BRANCH   1  11
ATOM     11  C   UNL     1      87.190  78.352  74.438  1.00  0.00     0.000 C 
BRANCH  11  12
ATOM     12  C   UNL     1      85.855  77.851  75.017  1.00  0.00     0.000 C 
BRANCH  12  13
ATOM     13  C   UNL     1      86.048  76.949  76.246  1.00  0.00     0.000 C 
BRANCH  13  14
ATOM     14  C   UNL     1      85.528  75.519  76.016  1.00  0.00     0.000 C 
BRANCH  14  15
ATOM     15  C   UNL     1      85.078  75.272  74.566  1.00  0.00     0.000 C 
BRANCH  15  16
ATOM     16  C   UNL     1      83.554  75.232  74.345  1.00  0.00     0.006 C 
BRANCH  16  17
ATOM     17  C   UNL     1      82.742  74.896  75.611  1.00  0.00     0.053 C 
BRANCH  17  18
ATOM     18  C   UNL     1      82.243  73.482  75.617  1.00  0.00     0.041 C 
ATOM     19  O   UNL     1      82.679  72.657  76.462  1.00  0.00    -0.550 OA
ATOM     20  O   UNL     1      81.325  73.064  74.662  1.00  0.00    -0.550 OA
ENDBRANCH  17  18
ENDBRANCH  16  17
ENDBRANCH  15  16
ENDBRANCH  14  15
ENDBRANCH  13  14
ENDBRANCH  12  13
ENDBRANCH  11  12
ENDBRANCH   1  11
TORSDOF 15
ENDMDL
