MODEL 1
REMARK VINA RESULT:    -5.739      0.000      0.000
REMARK INTER + INTRA:          -8.593
REMARK INTER:                  -7.752
REMARK INTRA:                  -0.840
REMARK UNBOUND:                -0.840
REMARK SMILES CC(=O)CCC=C(C)CCC=C(C)C
REMARK SMILES IDX 7 1 6 2 8 3 9 4 10 5 11 6 13 7 12 8 14 9 5 10 4 11 2 12 3 13
REMARK SMILES IDX 1 14
REMARK H PARENT
REMARK Flexibility Score: inf
ROOT
ATOM      1  C   UNL     1     -12.843 -35.037  28.307  1.00  0.00    -0.077 C 
ATOM      2  C   UNL     1     -13.593 -36.110  28.651  1.00  0.00    -0.028 C 
ATOM      3  C   UNL     1     -11.345 -35.015  28.501  1.00  0.00     0.039 C 
ENDROOT
BRANCH   1   4
ATOM      4  C   UNL     1     -13.523 -33.834  27.690  1.00  0.00     0.034 C 
BRANCH   4   5
ATOM      5  C   UNL     1     -13.305 -32.585  28.551  1.00  0.00     0.032 C 
BRANCH   5   6
ATOM      6  C   UNL     1     -14.497 -31.664  28.467  1.00  0.00    -0.028 C 
ATOM      7  C   UNL     1     -15.081 -31.937  30.888  1.00  0.00     0.039 C 
ATOM      8  C   UNL     1     -15.319 -31.383  29.502  1.00  0.00    -0.080 C 
ATOM      9  C   UNL     1     -16.495 -30.473  29.259  1.00  0.00     0.039 C 
ENDBRANCH   5   6
ENDBRANCH   4   5
ENDBRANCH   1   4
BRANCH   2  10
ATOM     10  C   UNL     1     -13.050 -37.356  29.305  1.00  0.00     0.035 C 
BRANCH  10  11
ATOM     11  C   UNL     1     -13.532 -37.463  30.755  1.00  0.00     0.079 C 
BRANCH  11  12
ATOM     12  C   UNL     1     -12.805 -36.478  31.631  1.00  0.00     0.130 C 
ATOM     13  O   UNL     1     -11.672 -36.735  32.013  1.00  0.00    -0.300 OA
ATOM     14  C   UNL     1     -13.444 -35.189  32.055  1.00  0.00     0.087 C 
ENDBRANCH  11  12
ENDBRANCH  10  11
ENDBRANCH   2  10
TORSDOF 6
ENDMDL
MODEL 2
REMARK VINA RESULT:    -5.694      2.176      4.450
REMARK INTER + INTRA:          -8.532
REMARK INTER:                  -7.377
REMARK INTRA:                  -1.155
REMARK UNBOUND:                -0.840
REMARK SMILES CC(=O)CCC=C(C)CCC=C(C)C
REMARK SMILES IDX 7 1 6 2 8 3 9 4 10 5 11 6 13 7 12 8 14 9 5 10 4 11 2 12 3 13
REMARK SMILES IDX 1 14
REMARK H PARENT
REMARK Flexibility Score: inf
ROOT
ATOM      1  C   UNL     1     -13.152 -36.976  29.443  1.00  0.00    -0.077 C 
ATOM      2  C   UNL     1     -12.178 -36.118  29.063  1.00  0.00    -0.028 C 
ATOM      3  C   UNL     1     -14.321 -37.305  28.544  1.00  0.00     0.039 C 
ENDROOT
BRANCH   1   4
ATOM      4  C   UNL     1     -13.057 -37.640  30.800  1.00  0.00     0.034 C 
BRANCH   4   5
ATOM      5  C   UNL     1     -12.623 -36.634  31.870  1.00  0.00     0.032 C 
BRANCH   5   6
ATOM      6  C   UNL     1     -13.652 -35.542  32.025  1.00  0.00    -0.028 C 
ATOM      7  C   UNL     1     -11.961 -33.702  31.838  1.00  0.00     0.039 C 
ATOM      8  C   UNL     1     -13.367 -34.221  32.038  1.00  0.00    -0.080 C 
ATOM      9  C   UNL     1     -14.496 -33.244  32.241  1.00  0.00     0.039 C 
ENDBRANCH   5   6
ENDBRANCH   4   5
ENDBRANCH   1   4
BRANCH   2  10
ATOM     10  C   UNL     1     -12.167 -35.362  27.757  1.00  0.00     0.035 C 
BRANCH  10  11
ATOM     11  C   UNL     1     -12.145 -33.851  28.004  1.00  0.00     0.079 C 
BRANCH  11  12
ATOM     12  C   UNL     1     -13.477 -33.237  27.664  1.00  0.00     0.130 C 
ATOM     13  O   UNL     1     -14.081 -33.621  26.672  1.00  0.00    -0.300 OA
ATOM     14  C   UNL     1     -14.078 -32.155  28.511  1.00  0.00     0.087 C 
ENDBRANCH  11  12
ENDBRANCH  10  11
ENDBRANCH   2  10
TORSDOF 6
ENDMDL
MODEL 3
REMARK VINA RESULT:    -5.657      1.196      1.899
REMARK INTER + INTRA:          -8.482
REMARK INTER:                  -7.826
REMARK INTRA:                  -0.655
REMARK UNBOUND:                -0.840
REMARK SMILES CC(=O)CCC=C(C)CCC=C(C)C
REMARK SMILES IDX 7 1 6 2 8 3 9 4 10 5 11 6 13 7 12 8 14 9 5 10 4 11 2 12 3 13
REMARK SMILES IDX 1 14
REMARK H PARENT
REMARK Flexibility Score: inf
ROOT
ATOM      1  C   UNL     1     -12.929 -34.869  27.895  1.00  0.00    -0.077 C 
ATOM      2  C   UNL     1     -13.629 -35.826  28.547  1.00  0.00    -0.028 C 
ATOM      3  C   UNL     1     -11.485 -35.067  27.498  1.00  0.00     0.039 C 
ENDROOT
BRANCH   1   4
ATOM      4  C   UNL     1     -13.620 -33.572  27.534  1.00  0.00     0.034 C 
BRANCH   4   5
ATOM      5  C   UNL     1     -13.440 -32.531  28.644  1.00  0.00     0.032 C 
BRANCH   5   6
ATOM      6  C   UNL     1     -13.343 -33.200  29.992  1.00  0.00    -0.028 C 
ATOM      7  C   UNL     1     -15.263 -31.905  30.950  1.00  0.00     0.039 C 
ATOM      8  C   UNL     1     -14.139 -32.912  31.046  1.00  0.00    -0.080 C 
ATOM      9  C   UNL     1     -13.900 -33.635  32.346  1.00  0.00     0.039 C 
ENDBRANCH   5   6
ENDBRANCH   4   5
ENDBRANCH   1   4
BRANCH   2  10
ATOM     10  C   UNL     1     -13.054 -37.147  28.996  1.00  0.00     0.035 C 
BRANCH  10  11
ATOM     11  C   UNL     1     -13.593 -37.531  30.377  1.00  0.00     0.079 C 
BRANCH  11  12
ATOM     12  C   UNL     1     -12.486 -37.532  31.398  1.00  0.00     0.130 C 
ATOM     13  O   UNL     1     -12.381 -38.472  32.172  1.00  0.00    -0.300 OA
ATOM     14  C   UNL     1     -11.511 -36.395  31.494  1.00  0.00     0.087 C 
ENDBRANCH  11  12
ENDBRANCH  10  11
ENDBRANCH   2  10
TORSDOF 6
ENDMDL
MODEL 4
REMARK VINA RESULT:    -5.638      1.657      5.256
REMARK INTER + INTRA:          -8.456
REMARK INTER:                  -7.680
REMARK INTRA:                  -0.776
REMARK UNBOUND:                -0.840
REMARK SMILES CC(=O)CCC=C(C)CCC=C(C)C
REMARK SMILES IDX 7 1 6 2 8 3 9 4 10 5 11 6 13 7 12 8 14 9 5 10 4 11 2 12 3 13
REMARK SMILES IDX 1 14
REMARK H PARENT
REMARK Flexibility Score: inf
ROOT
ATOM      1  C   UNL     1     -14.348 -32.774  30.887  1.00  0.00    -0.077 C 
ATOM      2  C   UNL     1     -13.530 -33.176  29.887  1.00  0.00    -0.028 C 
ATOM      3  C   UNL     1     -15.324 -31.635  30.710  1.00  0.00     0.039 C 
ENDROOT
BRANCH   1   4
ATOM      4  C   UNL     1     -14.296 -33.499  32.215  1.00  0.00     0.034 C 
BRANCH   4   5
ATOM      5  C   UNL     1     -13.030 -34.356  32.319  1.00  0.00     0.032 C 
BRANCH   5   6
ATOM      6  C   UNL     1     -13.337 -35.801  32.014  1.00  0.00    -0.028 C 
ATOM      7  C   UNL     1     -11.164 -36.178  30.825  1.00  0.00     0.039 C 
ATOM      8  C   UNL     1     -12.519 -36.626  31.322  1.00  0.00    -0.080 C 
ATOM      9  C   UNL     1     -12.976 -38.037  31.061  1.00  0.00     0.039 C 
ENDBRANCH   5   6
ENDBRANCH   4   5
ENDBRANCH   1   4
BRANCH   2  10
ATOM     10  C   UNL     1     -13.454 -32.521  28.531  1.00  0.00     0.035 C 
BRANCH  10  11
ATOM     11  C   UNL     1     -13.752 -33.532  27.421  1.00  0.00     0.079 C 
BRANCH  11  12
ATOM     12  C   UNL     1     -12.961 -34.796  27.627  1.00  0.00     0.130 C 
ATOM     13  O   UNL     1     -13.516 -35.788  28.077  1.00  0.00    -0.300 OA
ATOM     14  C   UNL     1     -11.498 -34.864  27.300  1.00  0.00     0.087 C 
ENDBRANCH  11  12
ENDBRANCH  10  11
ENDBRANCH   2  10
TORSDOF 6
ENDMDL
MODEL 5
REMARK VINA RESULT:    -5.631      2.885      5.396
REMARK INTER + INTRA:          -8.447
REMARK INTER:                  -7.359
REMARK INTRA:                  -1.088
REMARK UNBOUND:                -0.840
REMARK SMILES CC(=O)CCC=C(C)CCC=C(C)C
REMARK SMILES IDX 7 1 6 2 8 3 9 4 10 5 11 6 13 7 12 8 14 9 5 10 4 11 2 12 3 13
REMARK SMILES IDX 1 14
REMARK H PARENT
REMARK Flexibility Score: inf
ROOT
ATOM      1  C   UNL     1     -11.935 -33.583  31.213  1.00  0.00    -0.077 C 
ATOM      2  C   UNL     1     -12.315 -33.473  29.920  1.00  0.00    -0.028 C 
ATOM      3  C   UNL     1     -10.482 -33.531  31.625  1.00  0.00     0.039 C 
ENDROOT
BRANCH   1   4
ATOM      4  C   UNL     1     -12.997 -33.742  32.280  1.00  0.00     0.034 C 
BRANCH   4   5
ATOM      5  C   UNL     1     -13.973 -34.864  31.913  1.00  0.00     0.032 C 
BRANCH   5   6
ATOM      6  C   UNL     1     -13.350 -36.216  32.160  1.00  0.00    -0.028 C 
ATOM      7  C   UNL     1     -13.577 -36.936  29.771  1.00  0.00     0.039 C 
ATOM      8  C   UNL     1     -13.189 -37.167  31.214  1.00  0.00    -0.080 C 
ATOM      9  C   UNL     1     -12.585 -38.487  31.617  1.00  0.00     0.039 C 
ENDBRANCH   5   6
ENDBRANCH   4   5
ENDBRANCH   1   4
BRANCH   2  10
ATOM     10  C   UNL     1     -11.362 -33.346  28.757  1.00  0.00     0.035 C 
BRANCH  10  11
ATOM     11  C   UNL     1     -11.262 -34.667  27.989  1.00  0.00     0.079 C 
BRANCH  11  12
ATOM     12  C   UNL     1     -11.951 -34.559  26.655  1.00  0.00     0.130 C 
ATOM     13  O   UNL     1     -11.350 -34.879  25.640  1.00  0.00    -0.300 OA
ATOM     14  C   UNL     1     -13.360 -34.056  26.541  1.00  0.00     0.087 C 
ENDBRANCH  11  12
ENDBRANCH  10  11
ENDBRANCH   2  10
TORSDOF 6
ENDMDL
MODEL 6
REMARK VINA RESULT:    -5.507      2.474      4.211
REMARK INTER + INTRA:          -8.279
REMARK INTER:                  -7.193
REMARK INTRA:                  -1.086
REMARK UNBOUND:                -0.840
REMARK SMILES CC(=O)CCC=C(C)CCC=C(C)C
REMARK SMILES IDX 7 1 6 2 8 3 9 4 10 5 11 6 13 7 12 8 14 9 5 10 4 11 2 12 3 13
REMARK SMILES IDX 1 14
REMARK H PARENT
REMARK Flexibility Score: inf
ROOT
ATOM      1  C   UNL     1     -12.293 -35.928  31.098  1.00  0.00    -0.077 C 
ATOM      2  C   UNL     1     -12.003 -35.550  29.831  1.00  0.00    -0.028 C 
ATOM      3  C   UNL     1     -13.256 -37.054  31.394  1.00  0.00     0.039 C 
ENDROOT
BRANCH   1   4
ATOM      4  C   UNL     1     -11.617 -35.216  32.250  1.00  0.00     0.034 C 
BRANCH   4   5
ATOM      5  C   UNL     1     -11.939 -33.718  32.228  1.00  0.00     0.032 C 
BRANCH   5   6
ATOM      6  C   UNL     1     -13.319 -33.460  32.778  1.00  0.00    -0.028 C 
ATOM      7  C   UNL     1     -14.230 -32.697  30.572  1.00  0.00     0.039 C 
ATOM      8  C   UNL     1     -14.353 -32.977  32.053  1.00  0.00    -0.080 C 
ATOM      9  C   UNL     1     -15.667 -32.733  32.748  1.00  0.00     0.039 C 
ENDBRANCH   5   6
ENDBRANCH   4   5
ENDBRANCH   1   4
BRANCH   2  10
ATOM     10  C   UNL     1     -12.629 -36.150  28.597  1.00  0.00     0.035 C 
BRANCH  10  11
ATOM     11  C   UNL     1     -13.713 -35.225  28.034  1.00  0.00     0.079 C 
BRANCH  11  12
ATOM     12  C   UNL     1     -13.166 -34.391  26.907  1.00  0.00     0.130 C 
ATOM     13  O   UNL     1     -13.852 -33.498  26.431  1.00  0.00    -0.300 OA
ATOM     14  C   UNL     1     -11.797 -34.638  26.344  1.00  0.00     0.087 C 
ENDBRANCH  11  12
ENDBRANCH  10  11
ENDBRANCH   2  10
TORSDOF 6
ENDMDL
MODEL 7
REMARK VINA RESULT:    -5.477      2.049      4.675
REMARK INTER + INTRA:          -8.238
REMARK INTER:                  -7.389
REMARK INTRA:                  -0.849
REMARK UNBOUND:                -0.840
REMARK SMILES CC(=O)CCC=C(C)CCC=C(C)C
REMARK SMILES IDX 7 1 6 2 8 3 9 4 10 5 11 6 13 7 12 8 14 9 5 10 4 11 2 12 3 13
REMARK SMILES IDX 1 14
REMARK H PARENT
REMARK Flexibility Score: inf
ROOT
ATOM      1  C   UNL     1     -12.729 -35.923  31.610  1.00  0.00    -0.077 C 
ATOM      2  C   UNL     1     -13.445 -34.801  31.855  1.00  0.00    -0.028 C 
ATOM      3  C   UNL     1     -11.273 -36.040  31.996  1.00  0.00     0.039 C 
ENDROOT
BRANCH   1   4
ATOM      4  C   UNL     1     -13.412 -37.101  30.950  1.00  0.00     0.034 C 
BRANCH   4   5
ATOM      5  C   UNL     1     -12.919 -37.280  29.510  1.00  0.00     0.032 C 
BRANCH   5   6
ATOM      6  C   UNL     1     -13.531 -36.243  28.602  1.00  0.00    -0.028 C 
ATOM      7  C   UNL     1     -11.380 -34.988  28.322  1.00  0.00     0.039 C 
ATOM      8  C   UNL     1     -12.859 -35.193  28.081  1.00  0.00    -0.080 C 
ATOM      9  C   UNL     1     -13.613 -34.213  27.220  1.00  0.00     0.039 C 
ENDBRANCH   5   6
ENDBRANCH   4   5
ENDBRANCH   1   4
BRANCH   2  10
ATOM     10  C   UNL     1     -12.881 -33.546  32.472  1.00  0.00     0.035 C 
BRANCH  10  11
ATOM     11  C   UNL     1     -13.960 -32.793  33.255  1.00  0.00     0.079 C 
BRANCH  11  12
ATOM     12  C   UNL     1     -15.198 -32.616  32.417  1.00  0.00     0.130 C 
ATOM     13  O   UNL     1     -16.271 -33.029  32.833  1.00  0.00    -0.300 OA
ATOM     14  C   UNL     1     -15.144 -31.950  31.074  1.00  0.00     0.087 C 
ENDBRANCH  11  12
ENDBRANCH  10  11
ENDBRANCH   2  10
TORSDOF 6
ENDMDL
MODEL 8
REMARK VINA RESULT:    -5.440      2.049      4.084
REMARK INTER + INTRA:          -8.188
REMARK INTER:                  -7.355
REMARK INTRA:                  -0.834
REMARK UNBOUND:                -0.840
REMARK SMILES CC(=O)CCC=C(C)CCC=C(C)C
REMARK SMILES IDX 7 1 6 2 8 3 9 4 10 5 11 6 13 7 12 8 14 9 5 10 4 11 2 12 3 13
REMARK SMILES IDX 1 14
REMARK H PARENT
REMARK Flexibility Score: inf
ROOT
ATOM      1  C   UNL     1     -12.564 -36.224  30.740  1.00  0.00    -0.077 C 
ATOM      2  C   UNL     1     -12.844 -35.006  31.258  1.00  0.00    -0.028 C 
ATOM      3  C   UNL     1     -13.279 -37.472  31.204  1.00  0.00     0.039 C 
ENDROOT
BRANCH   1   4
ATOM      4  C   UNL     1     -11.520 -36.337  29.651  1.00  0.00     0.034 C 
BRANCH   4   5
ATOM      5  C   UNL     1     -11.294 -34.983  28.971  1.00  0.00     0.032 C 
BRANCH   5   6
ATOM      6  C   UNL     1     -12.196 -34.830  27.772  1.00  0.00    -0.028 C 
ATOM      7  C   UNL     1     -13.255 -32.730  28.636  1.00  0.00     0.039 C 
ATOM      8  C   UNL     1     -13.100 -33.837  27.618  1.00  0.00    -0.080 C 
ATOM      9  C   UNL     1     -13.962 -33.835  26.382  1.00  0.00     0.039 C 
ENDBRANCH   5   6
ENDBRANCH   4   5
ENDBRANCH   1   4
BRANCH   2  10
ATOM     10  C   UNL     1     -13.834 -34.758  32.369  1.00  0.00     0.035 C 
BRANCH  10  11
ATOM     11  C   UNL     1     -13.925 -33.263  32.691  1.00  0.00     0.079 C 
BRANCH  11  12
ATOM     12  C   UNL     1     -15.300 -32.735  32.376  1.00  0.00     0.130 C 
ATOM     13  O   UNL     1     -16.255 -33.109  33.040  1.00  0.00    -0.300 OA
ATOM     14  C   UNL     1     -15.525 -31.764  31.254  1.00  0.00     0.087 C 
ENDBRANCH  11  12
ENDBRANCH  10  11
ENDBRANCH   2  10
TORSDOF 6
ENDMDL
MODEL 9
REMARK VINA RESULT:    -5.411      2.595      4.433
REMARK INTER + INTRA:          -8.150
REMARK INTER:                  -6.778
REMARK INTRA:                  -1.372
REMARK UNBOUND:                -0.840
REMARK SMILES CC(=O)CCC=C(C)CCC=C(C)C
REMARK SMILES IDX 7 1 6 2 8 3 9 4 10 5 11 6 13 7 12 8 14 9 5 10 4 11 2 12 3 13
REMARK SMILES IDX 1 14
REMARK H PARENT
REMARK Flexibility Score: inf
ROOT
ATOM      1  C   UNL     1     -10.185 -33.650  30.558  1.00  0.00    -0.077 C 
ATOM      2  C   UNL     1     -10.697 -34.770  29.998  1.00  0.00    -0.028 C 
ATOM      3  C   UNL     1      -9.923 -32.401  29.749  1.00  0.00     0.039 C 
ENDROOT
BRANCH   1   4
ATOM      4  C   UNL     1      -9.886 -33.642  32.042  1.00  0.00     0.034 C 
BRANCH   4   5
ATOM      5  C   UNL     1     -11.041 -34.262  32.834  1.00  0.00     0.032 C 
BRANCH   5   6
ATOM      6  C   UNL     1     -12.279 -33.407  32.731  1.00  0.00    -0.028 C 
ATOM      7  C   UNL     1     -13.722 -35.306  31.963  1.00  0.00     0.039 C 
ATOM      8  C   UNL     1     -13.485 -33.855  32.317  1.00  0.00    -0.080 C 
ATOM      9  C   UNL     1     -14.625 -32.874  32.227  1.00  0.00     0.039 C 
ENDBRANCH   5   6
ENDBRANCH   4   5
ENDBRANCH   1   4
BRANCH   2  10
ATOM     10  C   UNL     1     -11.007 -34.926  28.530  1.00  0.00     0.035 C 
BRANCH  10  11
ATOM     11  C   UNL     1     -12.507 -35.140  28.311  1.00  0.00     0.079 C 
BRANCH  11  12
ATOM     12  C   UNL     1     -13.144 -33.900  27.744  1.00  0.00     0.130 C 
ATOM     13  O   UNL     1     -13.421 -33.855  26.554  1.00  0.00    -0.300 OA
ATOM     14  C   UNL     1     -13.438 -32.708  28.607  1.00  0.00     0.087 C 
ENDBRANCH  11  12
ENDBRANCH  10  11
ENDBRANCH   2  10
TORSDOF 6
ENDMDL
