MODEL 1
REMARK VINA RESULT:    -7.436      0.000      0.000
REMARK INTER + INTRA:          -8.521
REMARK INTER:                  -8.740
REMARK INTRA:                   0.220
REMARK UNBOUND:                 0.220
REMARK SMILES C=C(C)[C@H]1CC[C@@]2(CO)CC[C@@]3(C)[C@@H](CC[C@@H]4[C@]5(C)CC[C@H](O)C(C)(C)[C@H]5CC[C@@]43C)[C@H]12
REMARK SMILES IDX 4 1 5 2 6 3 7 4 32 5 14 6 15 7 16 8 17 9 18 10 20 11 21 12
REMARK SMILES IDX 22 13 24 14 27 15 28 16 29 17 30 18 12 19 11 20 10 21 13 22
REMARK SMILES IDX 31 23 25 24 26 25 19 26 2 27 3 28 1 29 8 30 9 31 23 33
REMARK H PARENT 9 32 23 34
REMARK Flexibility Score: inf
ROOT
ATOM      1  C   UNL     1      21.753  29.720  29.448  1.00  0.00     0.018 C 
ATOM      2  C   UNL     1      20.247  29.785  29.824  1.00  0.00     0.009 C 
ATOM      3  C   UNL     1      20.080  30.976  30.798  1.00  0.00     0.010 C 
ATOM      4  C   UNL     1      21.406  31.753  30.737  1.00  0.00    -0.003 C 
ATOM      5  C   UNL     1      22.416  30.614  30.506  1.00  0.00     0.008 C 
ATOM      6  C   UNL     1      23.885  31.135  30.364  1.00  0.00    -0.000 C 
ATOM      7  C   UNL     1      24.857  30.000  30.028  1.00  0.00     0.005 C 
ATOM      8  C   UNL     1      26.334  30.429  30.018  1.00  0.00     0.005 C 
ATOM      9  C   UNL     1      26.598  31.967  30.138  1.00  0.00     0.002 C 
ATOM     10  C   UNL     1      28.159  32.365  29.969  1.00  0.00    -0.026 C 
ATOM     11  C   UNL     1      28.871  31.420  28.945  1.00  0.00     0.010 C 
ATOM     12  C   UNL     1      30.393  31.620  28.773  1.00  0.00     0.033 C 
ATOM     13  C   UNL     1      31.082  32.520  29.814  1.00  0.00     0.120 C 
ATOM     14  C   UNL     1      30.515  32.379  31.278  1.00  0.00    -0.006 C 
ATOM     15  C   UNL     1      28.924  32.163  31.322  1.00  0.00     0.003 C 
ATOM     16  C   UNL     1      28.220  32.889  32.488  1.00  0.00     0.005 C 
ATOM     17  C   UNL     1      26.779  32.421  32.662  1.00  0.00     0.008 C 
ATOM     18  C   UNL     1      25.848  32.587  31.408  1.00  0.00    -0.024 C 
ATOM     19  C   UNL     1      24.360  31.910  31.663  1.00  0.00    -0.024 C 
ATOM     20  C   UNL     1      23.237  32.972  32.027  1.00  0.00     0.008 C 
ATOM     21  C   UNL     1      21.785  32.443  32.065  1.00  0.00     0.010 C 
ATOM     22  C   UNL     1      24.399  30.916  32.885  1.00  0.00     0.012 C 
ATOM     23  C   UNL     1      25.687  34.125  31.181  1.00  0.00     0.012 C 
ATOM     24  C   UNL     1      30.961  33.647  32.073  1.00  0.00     0.014 C 
ATOM     25  C   UNL     1      31.186  31.160  31.968  1.00  0.00     0.014 C 
ATOM     26  C   UNL     1      28.274  33.826  29.416  1.00  0.00     0.012 C 
ENDROOT
BRANCH   1  27
ATOM     27  C   UNL     1      22.265  28.281  29.412  1.00  0.00    -0.077 C 
ATOM     28  C   UNL     1      23.506  27.894  28.628  1.00  0.00     0.039 C 
ATOM     29  C   UNL     1      21.627  27.322  30.100  1.00  0.00     0.008 C 
ENDBRANCH   1  27
BRANCH   4  30
ATOM     30  C   UNL     1      21.318  32.835  29.594  1.00  0.00     0.163 C 
BRANCH  30  31
ATOM     31  O   UNL     1      20.016  32.946  29.075  1.00  0.00    -0.396 OA
ATOM     32  H   UNL     1      19.825  33.917  28.985  1.00  0.00     0.210 HD
ENDBRANCH  30  31
ENDBRANCH   4  30
BRANCH  13  33
ATOM     33  O   UNL     1      32.462  32.234  29.750  1.00  0.00    -0.393 OA
ATOM     34  H   UNL     1      32.843  32.261  30.665  1.00  0.00     0.210 HD
ENDBRANCH  13  33
TORSDOF 4
ENDMDL
MODEL 2
REMARK VINA RESULT:    -6.725      1.572      7.830
REMARK INTER + INTRA:          -7.685
REMARK INTER:                  -7.917
REMARK INTRA:                   0.233
REMARK UNBOUND:                 0.220
REMARK SMILES C=C(C)[C@H]1CC[C@@]2(CO)CC[C@@]3(C)[C@@H](CC[C@@H]4[C@]5(C)CC[C@H](O)C(C)(C)[C@H]5CC[C@@]43C)[C@H]12
REMARK SMILES IDX 4 1 5 2 6 3 7 4 32 5 14 6 15 7 16 8 17 9 18 10 20 11 21 12
REMARK SMILES IDX 22 13 24 14 27 15 28 16 29 17 30 18 12 19 11 20 10 21 13 22
REMARK SMILES IDX 31 23 25 24 26 25 19 26 2 27 3 28 1 29 8 30 9 31 23 33
REMARK H PARENT 9 32 23 34
REMARK Flexibility Score: inf
ROOT
ATOM      1  C   UNL     1      29.886  31.243  29.834  1.00  0.00     0.018 C 
ATOM      2  C   UNL     1      31.199  32.035  30.088  1.00  0.00     0.009 C 
ATOM      3  C   UNL     1      30.856  33.157  31.097  1.00  0.00     0.010 C 
ATOM      4  C   UNL     1      29.455  32.820  31.635  1.00  0.00    -0.003 C 
ATOM      5  C   UNL     1      28.802  32.172  30.400  1.00  0.00     0.008 C 
ATOM      6  C   UNL     1      27.341  31.686  30.679  1.00  0.00    -0.000 C 
ATOM      7  C   UNL     1      26.750  30.949  29.474  1.00  0.00     0.005 C 
ATOM      8  C   UNL     1      25.267  30.574  29.639  1.00  0.00     0.005 C 
ATOM      9  C   UNL     1      24.662  30.805  31.063  1.00  0.00     0.002 C 
ATOM     10  C   UNL     1      23.147  30.251  31.213  1.00  0.00    -0.026 C 
ATOM     11  C   UNL     1      22.936  28.958  30.358  1.00  0.00     0.010 C 
ATOM     12  C   UNL     1      21.500  28.388  30.323  1.00  0.00     0.033 C 
ATOM     13  C   UNL     1      20.395  29.294  30.892  1.00  0.00     0.120 C 
ATOM     14  C   UNL     1      20.588  30.829  30.593  1.00  0.00    -0.006 C 
ATOM     15  C   UNL     1      22.124  31.295  30.647  1.00  0.00     0.003 C 
ATOM     16  C   UNL     1      22.339  32.695  31.263  1.00  0.00     0.005 C 
ATOM     17  C   UNL     1      23.754  33.210  31.024  1.00  0.00     0.008 C 
ATOM     18  C   UNL     1      24.916  32.302  31.566  1.00  0.00    -0.024 C 
ATOM     19  C   UNL     1      26.399  32.882  31.119  1.00  0.00    -0.024 C 
ATOM     20  C   UNL     1      27.141  33.679  32.275  1.00  0.00     0.008 C 
ATOM     21  C   UNL     1      28.614  34.061  32.004  1.00  0.00     0.010 C 
ATOM     22  C   UNL     1      26.264  33.909  29.931  1.00  0.00     0.012 C 
ATOM     23  C   UNL     1      24.798  32.323  33.125  1.00  0.00     0.012 C 
ATOM     24  C   UNL     1      19.696  31.617  31.604  1.00  0.00     0.014 C 
ATOM     25  C   UNL     1      20.039  31.144  29.173  1.00  0.00     0.014 C 
ATOM     26  C   UNL     1      22.868  29.875  32.708  1.00  0.00     0.012 C 
ENDROOT
BRANCH   1  27
ATOM     27  C   UNL     1      29.717  30.884  28.358  1.00  0.00    -0.077 C 
ATOM     28  C   UNL     1      28.909  29.678  27.917  1.00  0.00     0.039 C 
ATOM     29  C   UNL     1      30.275  31.653  27.411  1.00  0.00     0.008 C 
ENDBRANCH   1  27
BRANCH   4  30
ATOM     30  C   UNL     1      29.598  31.892  32.901  1.00  0.00     0.163 C 
BRANCH  30  31
ATOM     31  O   UNL     1      30.932  31.509  33.123  1.00  0.00    -0.396 OA
ATOM     32  H   UNL     1      31.062  31.481  34.108  1.00  0.00     0.210 HD
ENDBRANCH  30  31
ENDBRANCH   4  30
BRANCH  13  33
ATOM     33  O   UNL     1      19.169  28.807  30.391  1.00  0.00    -0.393 OA
ATOM     34  H   UNL     1      19.012  27.895  30.745  1.00  0.00     0.210 HD
ENDBRANCH  13  33
TORSDOF 4
ENDMDL
MODEL 3
REMARK VINA RESULT:    -5.606      2.218      4.707
REMARK INTER + INTRA:          -6.370
REMARK INTER:                  -7.011
REMARK INTRA:                   0.641
REMARK UNBOUND:                 0.220
REMARK SMILES C=C(C)[C@H]1CC[C@@]2(CO)CC[C@@]3(C)[C@@H](CC[C@@H]4[C@]5(C)CC[C@H](O)C(C)(C)[C@H]5CC[C@@]43C)[C@H]12
REMARK SMILES IDX 4 1 5 2 6 3 7 4 32 5 14 6 15 7 16 8 17 9 18 10 20 11 21 12
REMARK SMILES IDX 22 13 24 14 27 15 28 16 29 17 30 18 12 19 11 20 10 21 13 22
REMARK SMILES IDX 31 23 25 24 26 25 19 26 2 27 3 28 1 29 8 30 9 31 23 33
REMARK H PARENT 9 32 23 34
REMARK Flexibility Score: inf
ROOT
ATOM      1  C   UNL     1      18.093  31.949  30.483  1.00  0.00     0.018 C 
ATOM      2  C   UNL     1      16.777  31.137  30.330  1.00  0.00     0.009 C 
ATOM      3  C   UNL     1      17.151  29.645  30.492  1.00  0.00     0.010 C 
ATOM      4  C   UNL     1      18.593  29.631  31.025  1.00  0.00    -0.003 C 
ATOM      5  C   UNL     1      19.183  30.877  30.339  1.00  0.00     0.008 C 
ATOM      6  C   UNL     1      20.673  31.135  30.743  1.00  0.00    -0.000 C 
ATOM      7  C   UNL     1      21.207  32.436  30.136  1.00  0.00     0.005 C 
ATOM      8  C   UNL     1      22.707  32.668  30.381  1.00  0.00     0.005 C 
ATOM      9  C   UNL     1      23.397  31.672  31.372  1.00  0.00     0.002 C 
ATOM     10  C   UNL     1      24.934  32.060  31.703  1.00  0.00    -0.026 C 
ATOM     11  C   UNL     1      25.128  33.612  31.728  1.00  0.00     0.010 C 
ATOM     12  C   UNL     1      26.575  34.118  31.924  1.00  0.00     0.033 C 
ATOM     13  C   UNL     1      27.687  33.063  31.794  1.00  0.00     0.120 C 
ATOM     14  C   UNL     1      27.429  31.973  30.686  1.00  0.00    -0.006 C 
ATOM     15  C   UNL     1      25.887  31.540  30.572  1.00  0.00     0.003 C 
ATOM     16  C   UNL     1      25.671  30.037  30.292  1.00  0.00     0.005 C 
ATOM     17  C   UNL     1      24.228  29.733  29.901  1.00  0.00     0.008 C 
ATOM     18  C   UNL     1      23.132  30.153  30.945  1.00  0.00    -0.024 C 
ATOM     19  C   UNL     1      21.606  29.914  30.352  1.00  0.00    -0.024 C 
ATOM     20  C   UNL     1      20.917  28.590  30.896  1.00  0.00     0.008 C 
ATOM     21  C   UNL     1      19.419  28.413  30.559  1.00  0.00     0.010 C 
ATOM     22  C   UNL     1      21.633  29.752  28.785  1.00  0.00     0.012 C 
ATOM     23  C   UNL     1      23.350  29.246  32.200  1.00  0.00     0.012 C 
ATOM     24  C   UNL     1      28.361  30.759  31.000  1.00  0.00     0.014 C 
ATOM     25  C   UNL     1      27.875  32.533  29.307  1.00  0.00     0.014 C 
ATOM     26  C   UNL     1      25.321  31.517  33.121  1.00  0.00     0.012 C 
ENDROOT
BRANCH   1  27
ATOM     27  C   UNL     1      18.176  33.089  29.469  1.00  0.00    -0.077 C 
ATOM     28  C   UNL     1      19.299  34.110  29.506  1.00  0.00     0.039 C 
ATOM     29  C   UNL     1      17.253  33.198  28.502  1.00  0.00     0.008 C 
ENDBRANCH   1  27
BRANCH   4  30
ATOM     30  C   UNL     1      18.561  29.666  32.601  1.00  0.00     0.163 C 
BRANCH  30  31
ATOM     31  O   UNL     1      17.568  28.819  33.124  1.00  0.00    -0.396 OA
ATOM     32  H   UNL     1      17.566  27.999  32.563  1.00  0.00     0.210 HD
ENDBRANCH  30  31
ENDBRANCH   4  30
BRANCH  13  33
ATOM     33  O   UNL     1      28.891  33.765  31.576  1.00  0.00    -0.393 OA
ATOM     34  H   UNL     1      29.059  33.830  30.601  1.00  0.00     0.210 HD
ENDBRANCH  13  33
TORSDOF 4
ENDMDL
MODEL 4
REMARK VINA RESULT:    -5.430      1.728      7.887
REMARK INTER + INTRA:          -6.162
REMARK INTER:                  -6.278
REMARK INTRA:                   0.117
REMARK UNBOUND:                 0.220
REMARK SMILES C=C(C)[C@H]1CC[C@@]2(CO)CC[C@@]3(C)[C@@H](CC[C@@H]4[C@]5(C)CC[C@H](O)C(C)(C)[C@H]5CC[C@@]43C)[C@H]12
REMARK SMILES IDX 4 1 5 2 6 3 7 4 32 5 14 6 15 7 16 8 17 9 18 10 20 11 21 12
REMARK SMILES IDX 22 13 24 14 27 15 28 16 29 17 30 18 12 19 11 20 10 21 13 22
REMARK SMILES IDX 31 23 25 24 26 25 19 26 2 27 3 28 1 29 8 30 9 31 23 33
REMARK H PARENT 9 32 23 34
REMARK Flexibility Score: inf
ROOT
ATOM      1  C   UNL     1      28.692  30.737  29.660  1.00  0.00     0.018 C 
ATOM      2  C   UNL     1      30.057  31.450  29.866  1.00  0.00     0.009 C 
ATOM      3  C   UNL     1      29.817  32.589  30.885  1.00  0.00     0.010 C 
ATOM      4  C   UNL     1      28.418  32.336  31.472  1.00  0.00    -0.003 C 
ATOM      5  C   UNL     1      27.686  31.728  30.262  1.00  0.00     0.008 C 
ATOM      6  C   UNL     1      26.209  31.329  30.593  1.00  0.00    -0.000 C 
ATOM      7  C   UNL     1      25.533  30.629  29.410  1.00  0.00     0.005 C 
ATOM      8  C   UNL     1      24.038  30.342  29.627  1.00  0.00     0.005 C 
ATOM      9  C   UNL     1      23.497  30.608  31.072  1.00  0.00     0.002 C 
ATOM     10  C   UNL     1      21.958  30.145  31.275  1.00  0.00    -0.026 C 
ATOM     11  C   UNL     1      21.641  28.867  30.430  1.00  0.00     0.010 C 
ATOM     12  C   UNL     1      20.174  28.383  30.446  1.00  0.00     0.033 C 
ATOM     13  C   UNL     1      19.145  29.353  31.053  1.00  0.00     0.120 C 
ATOM     14  C   UNL     1      19.418  30.874  30.744  1.00  0.00    -0.006 C 
ATOM     15  C   UNL     1      20.980  31.248  30.743  1.00  0.00     0.003 C 
ATOM     16  C   UNL     1      21.298  32.632  31.349  1.00  0.00     0.005 C 
ATOM     17  C   UNL     1      22.732  33.063  31.060  1.00  0.00     0.008 C 
ATOM     18  C   UNL     1      23.857  32.088  31.563  1.00  0.00    -0.024 C 
ATOM     19  C   UNL     1      25.355  32.579  31.063  1.00  0.00    -0.024 C 
ATOM     20  C   UNL     1      26.183  33.330  32.191  1.00  0.00     0.008 C 
ATOM     21  C   UNL     1      27.666  33.624  31.868  1.00  0.00     0.010 C 
ATOM     22  C   UNL     1      25.239  33.613  29.879  1.00  0.00     0.012 C 
ATOM     23  C   UNL     1      23.795  32.115  33.125  1.00  0.00     0.012 C 
ATOM     24  C   UNL     1      18.610  31.713  31.785  1.00  0.00     0.014 C 
ATOM     25  C   UNL     1      18.839  31.221  29.344  1.00  0.00     0.014 C 
ATOM     26  C   UNL     1      21.710  29.785  32.780  1.00  0.00     0.012 C 
ENDROOT
BRANCH   1  27
ATOM     27  C   UNL     1      28.451  30.389  28.191  1.00  0.00    -0.077 C 
ATOM     28  C   UNL     1      28.947  31.281  27.068  1.00  0.00     0.039 C 
ATOM     29  C   UNL     1      27.801  29.262  27.865  1.00  0.00     0.008 C 
ENDBRANCH   1  27
BRANCH   4  30
ATOM     30  C   UNL     1      28.550  31.401  32.734  1.00  0.00     0.163 C 
BRANCH  30  31
ATOM     31  O   UNL     1      29.863  30.925  32.900  1.00  0.00    -0.396 OA
ATOM     32  H   UNL     1      29.804  30.119  33.479  1.00  0.00     0.210 HD
ENDBRANCH  30  31
ENDBRANCH   4  30
BRANCH  13  33
ATOM     33  O   UNL     1      17.876  28.940  30.595  1.00  0.00    -0.393 OA
ATOM     34  H   UNL     1      17.589  28.142  31.108  1.00  0.00     0.210 HD
ENDBRANCH  13  33
TORSDOF 4
ENDMDL
MODEL 5
REMARK VINA RESULT:    -5.266      2.718      8.667
REMARK INTER + INTRA:          -5.969
REMARK INTER:                  -6.828
REMARK INTRA:                   0.858
REMARK UNBOUND:                 0.220
REMARK SMILES C=C(C)[C@H]1CC[C@@]2(CO)CC[C@@]3(C)[C@@H](CC[C@@H]4[C@]5(C)CC[C@H](O)C(C)(C)[C@H]5CC[C@@]43C)[C@H]12
REMARK SMILES IDX 4 1 5 2 6 3 7 4 32 5 14 6 15 7 16 8 17 9 18 10 20 11 21 12
REMARK SMILES IDX 22 13 24 14 27 15 28 16 29 17 30 18 12 19 11 20 10 21 13 22
REMARK SMILES IDX 31 23 25 24 26 25 19 26 2 27 3 28 1 29 8 30 9 31 23 33
REMARK H PARENT 9 32 23 34
REMARK Flexibility Score: inf
ROOT
ATOM      1  C   UNL     1      25.847  30.053  30.299  1.00  0.00     0.018 C 
ATOM      2  C   UNL     1      27.275  30.661  30.355  1.00  0.00     0.009 C 
ATOM      3  C   UNL     1      27.133  32.082  30.952  1.00  0.00     0.010 C 
ATOM      4  C   UNL     1      25.699  32.162  31.502  1.00  0.00    -0.003 C 
ATOM      5  C   UNL     1      24.938  31.275  30.499  1.00  0.00     0.008 C 
ATOM      6  C   UNL     1      23.418  31.144  30.846  1.00  0.00    -0.000 C 
ATOM      7  C   UNL     1      22.703  30.173  29.901  1.00  0.00     0.005 C 
ATOM      8  C   UNL     1      21.180  30.114  30.105  1.00  0.00     0.005 C 
ATOM      9  C   UNL     1      20.631  30.873  31.359  1.00  0.00     0.002 C 
ATOM     10  C   UNL     1      19.046  30.647  31.602  1.00  0.00    -0.026 C 
ATOM     11  C   UNL     1      18.614  29.203  31.179  1.00  0.00     0.010 C 
ATOM     12  C   UNL     1      17.103  28.891  31.255  1.00  0.00     0.033 C 
ATOM     13  C   UNL     1      16.170  30.097  31.465  1.00  0.00     0.120 C 
ATOM     14  C   UNL     1      16.617  31.409  30.715  1.00  0.00    -0.006 C 
ATOM     15  C   UNL     1      18.210  31.613  30.694  1.00  0.00     0.003 C 
ATOM     16  C   UNL     1      18.661  33.081  30.857  1.00  0.00     0.005 C 
ATOM     17  C   UNL     1      20.141  33.259  30.536  1.00  0.00     0.008 C 
ATOM     18  C   UNL     1      21.137  32.391  31.386  1.00  0.00    -0.024 C 
ATOM     19  C   UNL     1      22.693  32.553  30.850  1.00  0.00    -0.024 C 
ATOM     20  C   UNL     1      23.567  33.540  31.737  1.00  0.00     0.008 C 
ATOM     21  C   UNL     1      25.081  33.574  31.430  1.00  0.00     0.010 C 
ATOM     22  C   UNL     1      22.725  33.166  29.399  1.00  0.00     0.012 C 
ATOM     23  C   UNL     1      21.035  32.916  32.855  1.00  0.00     0.012 C 
ATOM     24  C   UNL     1      15.877  32.607  31.391  1.00  0.00     0.014 C 
ATOM     25  C   UNL     1      16.119  31.349  29.244  1.00  0.00     0.014 C 
ATOM     26  C   UNL     1      18.717  30.807  33.125  1.00  0.00     0.012 C 
ENDROOT
BRANCH   1  27
ATOM     27  C   UNL     1      25.610  29.284  28.999  1.00  0.00    -0.077 C 
ATOM     28  C   UNL     1      24.526  28.228  28.882  1.00  0.00     0.039 C 
ATOM     29  C   UNL     1      26.357  29.546  27.917  1.00  0.00     0.008 C 
ENDBRANCH   1  27
BRANCH   4  30
ATOM     30  C   UNL     1      25.692  31.665  32.998  1.00  0.00     0.163 C 
BRANCH  30  31
ATOM     31  O   UNL     1      25.408  30.291  33.094  1.00  0.00    -0.396 OA
ATOM     32  H   UNL     1      26.194  29.810  32.722  1.00  0.00     0.210 HD
ENDBRANCH  30  31
ENDBRANCH   4  30
BRANCH  13  33
ATOM     33  O   UNL     1      14.877  29.683  31.082  1.00  0.00    -0.393 OA
ATOM     34  H   UNL     1      14.227  30.400  31.297  1.00  0.00     0.210 HD
ENDBRANCH  13  33
TORSDOF 4
ENDMDL
MODEL 6
REMARK VINA RESULT:    -4.576      2.473      4.464
REMARK INTER + INTRA:          -5.158
REMARK INTER:                  -4.685
REMARK INTRA:                  -0.473
REMARK UNBOUND:                 0.220
REMARK SMILES C=C(C)[C@H]1CC[C@@]2(CO)CC[C@@]3(C)[C@@H](CC[C@@H]4[C@]5(C)CC[C@H](O)C(C)(C)[C@H]5CC[C@@]43C)[C@H]12
REMARK SMILES IDX 4 1 5 2 6 3 7 4 32 5 14 6 15 7 16 8 17 9 18 10 20 11 21 12
REMARK SMILES IDX 22 13 24 14 27 15 28 16 29 17 30 18 12 19 11 20 10 21 13 22
REMARK SMILES IDX 31 23 25 24 26 25 19 26 2 27 3 28 1 29 8 30 9 31 23 33
REMARK H PARENT 9 32 23 34
REMARK Flexibility Score: inf
ROOT
ATOM      1  C   UNL     1      17.261  30.338  30.612  1.00  0.00     0.018 C 
ATOM      2  C   UNL     1      15.812  30.892  30.688  1.00  0.00     0.009 C 
ATOM      3  C   UNL     1      15.928  32.431  30.808  1.00  0.00     0.010 C 
ATOM      4  C   UNL     1      17.398  32.763  30.503  1.00  0.00    -0.003 C 
ATOM      5  C   UNL     1      18.115  31.527  31.075  1.00  0.00     0.008 C 
ATOM      6  C   UNL     1      19.665  31.581  30.863  1.00  0.00    -0.000 C 
ATOM      7  C   UNL     1      20.347  30.296  31.341  1.00  0.00     0.005 C 
ATOM      8  C   UNL     1      21.883  30.349  31.289  1.00  0.00     0.005 C 
ATOM      9  C   UNL     1      22.497  31.597  30.571  1.00  0.00     0.002 C 
ATOM     10  C   UNL     1      24.107  31.520  30.417  1.00  0.00    -0.026 C 
ATOM     11  C   UNL     1      24.578  30.045  30.190  1.00  0.00     0.010 C 
ATOM     12  C   UNL     1      26.106  29.815  30.137  1.00  0.00     0.033 C 
ATOM     13  C   UNL     1      26.986  30.995  30.586  1.00  0.00     0.120 C 
ATOM     14  C   UNL     1      26.404  31.823  31.794  1.00  0.00    -0.006 C 
ATOM     15  C   UNL     1      24.807  31.981  31.741  1.00  0.00     0.003 C 
ATOM     16  C   UNL     1      24.292  33.360  32.207  1.00  0.00     0.005 C 
ATOM     17  C   UNL     1      22.782  33.361  32.421  1.00  0.00     0.008 C 
ATOM     18  C   UNL     1      21.913  32.959  31.175  1.00  0.00    -0.024 C 
ATOM     19  C   UNL     1      20.309  32.848  31.564  1.00  0.00    -0.024 C 
ATOM     20  C   UNL     1      19.464  34.120  31.129  1.00  0.00     0.008 C 
ATOM     21  C   UNL     1      17.929  33.998  31.262  1.00  0.00     0.010 C 
ATOM     22  C   UNL     1      20.118  32.740  33.125  1.00  0.00     0.012 C 
ATOM     23  C   UNL     1      22.114  34.091  30.116  1.00  0.00     0.012 C 
ATOM     24  C   UNL     1      27.134  33.204  31.806  1.00  0.00     0.014 C 
ATOM     25  C   UNL     1      26.774  31.112  33.125  1.00  0.00     0.014 C 
ATOM     26  C   UNL     1      24.558  32.353  29.169  1.00  0.00     0.012 C 
ENDROOT
BRANCH   1  27
ATOM     27  C   UNL     1      17.425  29.067  31.446  1.00  0.00    -0.077 C 
ATOM     28  C   UNL     1      17.217  29.066  32.950  1.00  0.00     0.039 C 
ATOM     29  C   UNL     1      17.744  27.909  30.851  1.00  0.00     0.008 C 
ENDBRANCH   1  27
BRANCH   4  30
ATOM     30  C   UNL     1      17.562  32.995  28.952  1.00  0.00     0.163 C 
BRANCH  30  31
ATOM     31  O   UNL     1      16.325  32.970  28.284  1.00  0.00    -0.396 OA
ATOM     32  H   UNL     1      16.039  33.916  28.176  1.00  0.00     0.210 HD
ENDBRANCH  30  31
ENDBRANCH   4  30
BRANCH  13  33
ATOM     33  O   UNL     1      28.262  30.465  30.873  1.00  0.00    -0.393 OA
ATOM     34  H   UNL     1      28.880  31.206  31.098  1.00  0.00     0.210 HD
ENDBRANCH  13  33
TORSDOF 4
ENDMDL
