MODEL 1
REMARK VINA RESULT:    -5.760      0.000      0.000
REMARK INTER + INTRA:          -6.197
REMARK INTER:                  -6.097
REMARK INTRA:                  -0.100
REMARK UNBOUND:                -0.100
REMARK SMILES C=C(C)[C@@H]1CC=C(C)C(=O)C1
REMARK SMILES IDX 8 1 7 2 6 3 5 4 4 5 11 6 9 7 10 8 2 9 1 10 3 11
REMARK H PARENT
REMARK Flexibility Score: inf
ROOT
ATOM      1  C   UNL     1     -11.412 -17.337  26.203  1.00  0.00     0.048 C 
ATOM      2  C   UNL     1     -11.857 -16.808  27.539  1.00  0.00    -0.012 C 
ATOM      3  C   UNL     1     -11.063 -16.953  28.614  1.00  0.00    -0.019 C 
ATOM      4  C   UNL     1     -11.452 -16.427  29.971  1.00  0.00     0.036 C 
ATOM      5  C   UNL     1     -12.979 -16.485  30.171  1.00  0.00     0.025 C 
ATOM      6  C   UNL     1     -13.697 -15.743  29.030  1.00  0.00     0.089 C 
ATOM      7  C   UNL     1     -13.220 -16.241  27.693  1.00  0.00     0.158 C 
ATOM      8  O   UNL     1     -13.980 -16.137  26.693  1.00  0.00    -0.295 OA
ENDROOT
BRANCH   5   9
ATOM      9  C   UNL     1     -13.388 -15.953  31.535  1.00  0.00    -0.077 C 
ATOM     10  C   UNL     1     -14.494 -15.203  31.693  1.00  0.00     0.008 C 
ATOM     11  C   UNL     1     -12.525 -16.280  32.726  1.00  0.00     0.039 C 
ENDBRANCH   5   9
TORSDOF 1
ENDMDL
MODEL 2
REMARK VINA RESULT:    -5.648      2.315      2.989
REMARK INTER + INTRA:          -6.079
REMARK INTER:                  -5.985
REMARK INTRA:                  -0.094
REMARK UNBOUND:                -0.100
REMARK SMILES C=C(C)[C@@H]1CC=C(C)C(=O)C1
REMARK SMILES IDX 8 1 7 2 6 3 5 4 4 5 11 6 9 7 10 8 2 9 1 10 3 11
REMARK H PARENT
REMARK Flexibility Score: inf
ROOT
ATOM      1  C   UNL     1     -14.001 -20.402  28.627  1.00  0.00     0.048 C 
ATOM      2  C   UNL     1     -13.585 -19.374  29.643  1.00  0.00    -0.012 C 
ATOM      3  C   UNL     1     -13.486 -19.716  30.939  1.00  0.00    -0.019 C 
ATOM      4  C   UNL     1     -13.056 -18.731  31.994  1.00  0.00     0.036 C 
ATOM      5  C   UNL     1     -13.524 -17.305  31.644  1.00  0.00     0.025 C 
ATOM      6  C   UNL     1     -13.028 -16.909  30.241  1.00  0.00     0.089 C 
ATOM      7  C   UNL     1     -13.407 -17.959  29.232  1.00  0.00     0.158 C 
ATOM      8  O   UNL     1     -13.534 -17.629  28.022  1.00  0.00    -0.295 OA
ENDROOT
BRANCH   5   9
ATOM      9  C   UNL     1     -13.094 -16.297  32.698  1.00  0.00    -0.077 C 
ATOM     10  C   UNL     1     -11.816 -16.212  33.109  1.00  0.00     0.008 C 
ATOM     11  C   UNL     1     -14.135 -15.381  33.286  1.00  0.00     0.039 C 
ENDBRANCH   5   9
TORSDOF 1
ENDMDL
MODEL 3
REMARK VINA RESULT:    -5.622      1.758      2.170
REMARK INTER + INTRA:          -6.051
REMARK INTER:                  -5.954
REMARK INTRA:                  -0.098
REMARK UNBOUND:                -0.100
REMARK SMILES C=C(C)[C@@H]1CC=C(C)C(=O)C1
REMARK SMILES IDX 8 1 7 2 6 3 5 4 4 5 11 6 9 7 10 8 2 9 1 10 3 11
REMARK H PARENT
REMARK Flexibility Score: inf
ROOT
ATOM      1  C   UNL     1     -11.384 -17.392  27.232  1.00  0.00     0.048 C 
ATOM      2  C   UNL     1     -12.298 -17.025  28.368  1.00  0.00    -0.012 C 
ATOM      3  C   UNL     1     -12.752 -15.765  28.482  1.00  0.00    -0.019 C 
ATOM      4  C   UNL     1     -13.683 -15.348  29.589  1.00  0.00     0.036 C 
ATOM      5  C   UNL     1     -13.407 -16.149  30.876  1.00  0.00     0.025 C 
ATOM      6  C   UNL     1     -13.478 -17.660  30.592  1.00  0.00     0.089 C 
ATOM      7  C   UNL     1     -12.597 -18.021  29.428  1.00  0.00     0.158 C 
ATOM      8  O   UNL     1     -12.143 -19.194  29.341  1.00  0.00    -0.295 OA
ENDROOT
BRANCH   5   9
ATOM      9  C   UNL     1     -14.343 -15.744  32.004  1.00  0.00    -0.077 C 
ATOM     10  C   UNL     1     -15.062 -14.609  31.946  1.00  0.00     0.008 C 
ATOM     11  C   UNL     1     -14.453 -16.643  33.208  1.00  0.00     0.039 C 
ENDBRANCH   5   9
TORSDOF 1
ENDMDL
MODEL 4
REMARK VINA RESULT:    -5.593      2.859      4.732
REMARK INTER + INTRA:          -6.021
REMARK INTER:                  -5.927
REMARK INTRA:                  -0.094
REMARK UNBOUND:                -0.100
REMARK SMILES C=C(C)[C@@H]1CC=C(C)C(=O)C1
REMARK SMILES IDX 8 1 7 2 6 3 5 4 4 5 11 6 9 7 10 8 2 9 1 10 3 11
REMARK H PARENT
REMARK Flexibility Score: inf
ROOT
ATOM      1  C   UNL     1     -12.730 -20.291  32.016  1.00  0.00     0.048 C 
ATOM      2  C   UNL     1     -12.850 -19.399  30.812  1.00  0.00    -0.012 C 
ATOM      3  C   UNL     1     -13.557 -19.808  29.744  1.00  0.00    -0.019 C 
ATOM      4  C   UNL     1     -13.724 -18.948  28.519  1.00  0.00     0.036 C 
ATOM      5  C   UNL     1     -12.479 -18.070  28.285  1.00  0.00     0.025 C 
ATOM      6  C   UNL     1     -12.166 -17.240  29.543  1.00  0.00     0.089 C 
ATOM      7  C   UNL     1     -12.089 -18.126  30.755  1.00  0.00     0.158 C 
ATOM      8  O   UNL     1     -11.397 -17.757  31.743  1.00  0.00    -0.295 OA
ENDROOT
BRANCH   5   9
ATOM      9  C   UNL     1     -12.634 -17.191  27.054  1.00  0.00    -0.077 C 
ATOM     10  C   UNL     1     -13.725 -16.427  26.869  1.00  0.00     0.008 C 
ATOM     11  C   UNL     1     -11.532 -17.189  26.026  1.00  0.00     0.039 C 
ENDBRANCH   5   9
TORSDOF 1
ENDMDL
MODEL 5
REMARK VINA RESULT:    -5.541      2.112      4.305
REMARK INTER + INTRA:          -5.966
REMARK INTER:                  -5.869
REMARK INTRA:                  -0.096
REMARK UNBOUND:                -0.100
REMARK SMILES C=C(C)[C@@H]1CC=C(C)C(=O)C1
REMARK SMILES IDX 8 1 7 2 6 3 5 4 4 5 11 6 9 7 10 8 2 9 1 10 3 11
REMARK H PARENT
REMARK Flexibility Score: inf
ROOT
ATOM      1  C   UNL     1     -11.436 -16.415  33.019  1.00  0.00     0.048 C 
ATOM      2  C   UNL     1     -11.698 -16.632  31.554  1.00  0.00    -0.012 C 
ATOM      3  C   UNL     1     -10.906 -16.048  30.639  1.00  0.00    -0.019 C 
ATOM      4  C   UNL     1     -11.113 -16.247  29.160  1.00  0.00     0.036 C 
ATOM      5  C   UNL     1     -12.607 -16.432  28.830  1.00  0.00     0.025 C 
ATOM      6  C   UNL     1     -13.201 -17.583  29.661  1.00  0.00     0.089 C 
ATOM      7  C   UNL     1     -12.901 -17.388  31.123  1.00  0.00     0.158 C 
ATOM      8  O   UNL     1     -13.665 -17.907  31.981  1.00  0.00    -0.295 OA
ENDROOT
BRANCH   5   9
ATOM      9  C   UNL     1     -12.833 -16.639  27.340  1.00  0.00    -0.077 C 
ATOM     10  C   UNL     1     -13.989 -16.288  26.749  1.00  0.00     0.008 C 
ATOM     11  C   UNL     1     -11.727 -17.255  26.522  1.00  0.00     0.039 C 
ENDBRANCH   5   9
TORSDOF 1
ENDMDL
MODEL 6
REMARK VINA RESULT:    -5.446      2.196      4.639
REMARK INTER + INTRA:          -5.864
REMARK INTER:                  -5.771
REMARK INTRA:                  -0.093
REMARK UNBOUND:                -0.100
REMARK SMILES C=C(C)[C@@H]1CC=C(C)C(=O)C1
REMARK SMILES IDX 8 1 7 2 6 3 5 4 4 5 11 6 9 7 10 8 2 9 1 10 3 11
REMARK H PARENT
REMARK Flexibility Score: inf
ROOT
ATOM      1  C   UNL     1     -14.204 -16.885  33.106  1.00  0.00     0.048 C 
ATOM      2  C   UNL     1     -13.697 -16.895  31.691  1.00  0.00    -0.012 C 
ATOM      3  C   UNL     1     -13.697 -15.759  30.972  1.00  0.00    -0.019 C 
ATOM      4  C   UNL     1     -13.184 -15.709  29.557  1.00  0.00     0.036 C 
ATOM      5  C   UNL     1     -13.443 -17.042  28.827  1.00  0.00     0.025 C 
ATOM      6  C   UNL     1     -12.843 -18.214  29.624  1.00  0.00     0.089 C 
ATOM      7  C   UNL     1     -13.316 -18.179  31.051  1.00  0.00     0.158 C 
ATOM      8  O   UNL     1     -13.349 -19.251  31.713  1.00  0.00    -0.295 OA
ENDROOT
BRANCH   5   9
ATOM      9  C   UNL     1     -12.926 -17.010  27.397  1.00  0.00    -0.077 C 
ATOM     10  C   UNL     1     -13.651 -16.473  26.400  1.00  0.00     0.008 C 
ATOM     11  C   UNL     1     -11.570 -17.600  27.107  1.00  0.00     0.039 C 
ENDBRANCH   5   9
TORSDOF 1
ENDMDL
MODEL 7
REMARK VINA RESULT:    -5.372      2.030      4.563
REMARK INTER + INTRA:          -5.786
REMARK INTER:                  -5.689
REMARK INTRA:                  -0.098
REMARK UNBOUND:                -0.100
REMARK SMILES C=C(C)[C@@H]1CC=C(C)C(=O)C1
REMARK SMILES IDX 8 1 7 2 6 3 5 4 4 5 11 6 9 7 10 8 2 9 1 10 3 11
REMARK H PARENT
REMARK Flexibility Score: inf
ROOT
ATOM      1  C   UNL     1     -11.970 -16.481  33.053  1.00  0.00     0.048 C 
ATOM      2  C   UNL     1     -12.141 -16.378  31.562  1.00  0.00    -0.012 C 
ATOM      3  C   UNL     1     -13.351 -16.107  31.045  1.00  0.00    -0.019 C 
ATOM      4  C   UNL     1     -13.574 -15.974  29.561  1.00  0.00     0.036 C 
ATOM      5  C   UNL     1     -12.628 -16.903  28.774  1.00  0.00     0.025 C 
ATOM      6  C   UNL     1     -11.165 -16.637  29.170  1.00  0.00     0.089 C 
ATOM      7  C   UNL     1     -11.003 -16.697  30.664  1.00  0.00     0.158 C 
ATOM      8  O   UNL     1      -9.875 -16.986  31.148  1.00  0.00    -0.295 OA
ENDROOT
BRANCH   5   9
ATOM      9  C   UNL     1     -12.837 -16.778  27.273  1.00  0.00    -0.077 C 
ATOM     10  C   UNL     1     -13.979 -16.285  26.761  1.00  0.00     0.008 C 
ATOM     11  C   UNL     1     -11.731 -17.223  26.352  1.00  0.00     0.039 C 
ENDBRANCH   5   9
TORSDOF 1
ENDMDL
MODEL 8
REMARK VINA RESULT:    -5.275      2.405      3.454
REMARK INTER + INTRA:          -5.684
REMARK INTER:                  -5.591
REMARK INTRA:                  -0.094
REMARK UNBOUND:                -0.100
REMARK SMILES C=C(C)[C@@H]1CC=C(C)C(=O)C1
REMARK SMILES IDX 8 1 7 2 6 3 5 4 4 5 11 6 9 7 10 8 2 9 1 10 3 11
REMARK H PARENT
REMARK Flexibility Score: inf
ROOT
ATOM      1  C   UNL     1     -14.372 -14.252  28.566  1.00  0.00     0.048 C 
ATOM      2  C   UNL     1     -13.667 -15.286  29.400  1.00  0.00    -0.012 C 
ATOM      3  C   UNL     1     -12.796 -16.131  28.822  1.00  0.00    -0.019 C 
ATOM      4  C   UNL     1     -12.050 -17.173  29.613  1.00  0.00     0.036 C 
ATOM      5  C   UNL     1     -12.898 -17.685  30.793  1.00  0.00     0.025 C 
ATOM      6  C   UNL     1     -13.361 -16.508  31.670  1.00  0.00     0.089 C 
ATOM      7  C   UNL     1     -14.027 -15.453  30.830  1.00  0.00     0.158 C 
ATOM      8  O   UNL     1     -14.871 -14.684  31.366  1.00  0.00    -0.295 OA
ENDROOT
BRANCH   5   9
ATOM      9  C   UNL     1     -12.157 -18.736  31.605  1.00  0.00    -0.077 C 
ATOM     10  C   UNL     1     -10.987 -18.461  32.208  1.00  0.00     0.008 C 
ATOM     11  C   UNL     1     -12.760 -20.112  31.725  1.00  0.00     0.039 C 
ENDBRANCH   5   9
TORSDOF 1
ENDMDL
MODEL 9
REMARK VINA RESULT:    -5.172      1.693      2.276
REMARK INTER + INTRA:          -5.575
REMARK INTER:                  -5.481
REMARK INTRA:                  -0.094
REMARK UNBOUND:                -0.100
REMARK SMILES C=C(C)[C@@H]1CC=C(C)C(=O)C1
REMARK SMILES IDX 8 1 7 2 6 3 5 4 4 5 11 6 9 7 10 8 2 9 1 10 3 11
REMARK H PARENT
REMARK Flexibility Score: inf
ROOT
ATOM      1  C   UNL     1     -11.222 -17.461  26.818  1.00  0.00     0.048 C 
ATOM      2  C   UNL     1     -11.844 -17.296  28.177  1.00  0.00    -0.012 C 
ATOM      3  C   UNL     1     -12.993 -17.929  28.468  1.00  0.00    -0.019 C 
ATOM      4  C   UNL     1     -13.649 -17.814  29.818  1.00  0.00     0.036 C 
ATOM      5  C   UNL     1     -13.395 -16.426  30.441  1.00  0.00     0.025 C 
ATOM      6  C   UNL     1     -11.885 -16.134  30.499  1.00  0.00     0.089 C 
ATOM      7  C   UNL     1     -11.255 -16.341  29.149  1.00  0.00     0.158 C 
ATOM      8  O   UNL     1     -10.196 -15.720  28.864  1.00  0.00    -0.295 OA
ENDROOT
BRANCH   5   9
ATOM      9  C   UNL     1     -14.047 -16.295  31.808  1.00  0.00    -0.077 C 
ATOM     10  C   UNL     1     -13.955 -17.272  32.727  1.00  0.00     0.008 C 
ATOM     11  C   UNL     1     -14.812 -15.036  32.124  1.00  0.00     0.039 C 
ENDBRANCH   5   9
TORSDOF 1
ENDMDL
