MODEL 1
REMARK VINA RESULT:    -4.089      0.000      0.000
REMARK INTER + INTRA:          -4.750
REMARK INTER:                  -4.567
REMARK INTRA:                  -0.183
REMARK UNBOUND:                -0.183
REMARK SMILES C=CCc1ccc2c(c1)OCO2
REMARK SMILES IDX 3 1 2 2 1 3 4 4 9 5 5 6 8 7 6 8 7 9 10 10 12 11 11 12
REMARK H PARENT
REMARK Flexibility Score: inf
ROOT
ATOM      1  C   UNL     1     -16.668   7.227 -22.495  1.00  0.00     0.062 C 
ENDROOT
BRANCH   1   2
ATOM      2  C   UNL     1     -16.738   6.849 -23.947  1.00  0.00    -0.030 C 
ATOM      3  C   UNL     1     -16.136   5.751 -24.417  1.00  0.00     0.004 C 
ENDBRANCH   1   2
BRANCH   1   4
ATOM      4  C   UNL     1     -15.952   8.540 -22.321  1.00  0.00    -0.040 A 
ATOM      5  C   UNL     1     -16.670   9.756 -22.377  1.00  0.00     0.054 A 
ATOM      6  C   UNL     1     -14.544   8.564 -22.143  1.00  0.00     0.008 A 
ATOM      7  C   UNL     1     -15.957  10.943 -22.239  1.00  0.00     0.166 A 
ATOM      8  C   UNL     1     -13.863   9.787 -22.006  1.00  0.00     0.051 A 
ATOM      9  C   UNL     1     -14.612  10.958 -22.061  1.00  0.00     0.165 A 
ATOM     10  O   UNL     1     -16.434  12.240 -22.257  1.00  0.00    -0.454 OA
ATOM     11  O   UNL     1     -14.176  12.265 -21.957  1.00  0.00    -0.454 OA
ATOM     12  C   UNL     1     -15.319  13.124 -22.078  1.00  0.00     0.468 C 
ENDBRANCH   1   4
TORSDOF 2
ENDMDL
MODEL 2
REMARK VINA RESULT:    -3.917     21.984     23.551
REMARK INTER + INTRA:          -4.558
REMARK INTER:                  -4.381
REMARK INTRA:                  -0.177
REMARK UNBOUND:                -0.183
REMARK SMILES C=CCc1ccc2c(c1)OCO2
REMARK SMILES IDX 3 1 2 2 1 3 4 4 9 5 5 6 8 7 6 8 7 9 10 10 12 11 11 12
REMARK H PARENT
REMARK Flexibility Score: inf
ROOT
ATOM      1  C   UNL     1       2.666   7.287  -6.848  1.00  0.00     0.062 C 
ENDROOT
BRANCH   1   2
ATOM      2  C   UNL     1       2.888   6.911  -5.411  1.00  0.00    -0.030 C 
ATOM      3  C   UNL     1       2.353   5.805  -4.883  1.00  0.00     0.004 C 
ENDBRANCH   1   2
BRANCH   1   4
ATOM      4  C   UNL     1       1.967   8.617  -6.949  1.00  0.00    -0.040 A 
ATOM      5  C   UNL     1       2.705   9.818  -6.850  1.00  0.00     0.054 A 
ATOM      6  C   UNL     1       0.557   8.670  -7.101  1.00  0.00     0.008 A 
ATOM      7  C   UNL     1       2.008  11.020  -6.921  1.00  0.00     0.166 A 
ATOM      8  C   UNL     1      -0.108   9.908  -7.170  1.00  0.00     0.051 A 
ATOM      9  C   UNL     1       0.661  11.063  -7.075  1.00  0.00     0.165 A 
ATOM     10  O   UNL     1       2.505  12.308  -6.852  1.00  0.00    -0.454 OA
ATOM     11  O   UNL     1       0.243  12.380  -7.111  1.00  0.00    -0.454 OA
ATOM     12  C   UNL     1       1.400  13.216  -6.971  1.00  0.00     0.468 C 
ENDBRANCH   1   4
TORSDOF 2
ENDMDL
MODEL 3
REMARK VINA RESULT:    -3.781     19.837     21.462
REMARK INTER + INTRA:          -4.406
REMARK INTER:                  -4.209
REMARK INTRA:                  -0.196
REMARK UNBOUND:                -0.183
REMARK SMILES C=CCc1ccc2c(c1)OCO2
REMARK SMILES IDX 3 1 2 2 1 3 4 4 9 5 5 6 8 7 6 8 7 9 10 10 12 11 11 12
REMARK H PARENT
REMARK Flexibility Score: inf
ROOT
ATOM      1  C   UNL     1      -3.556  13.037  -8.626  1.00  0.00     0.062 C 
ENDROOT
BRANCH   1   2
ATOM      2  C   UNL     1      -4.348  12.073  -7.789  1.00  0.00    -0.030 C 
ATOM      3  C   UNL     1      -5.407  12.468  -7.075  1.00  0.00     0.004 C 
ENDBRANCH   1   2
BRANCH   1   4
ATOM      4  C   UNL     1      -2.240  13.356  -7.969  1.00  0.00    -0.040 A 
ATOM      5  C   UNL     1      -1.128  12.502  -8.152  1.00  0.00     0.054 A 
ATOM      6  C   UNL     1      -2.121  14.493  -7.129  1.00  0.00     0.008 A 
ATOM      7  C   UNL     1       0.057  12.826  -7.499  1.00  0.00     0.166 A 
ATOM      8  C   UNL     1      -0.902  14.784  -6.489  1.00  0.00     0.051 A 
ATOM      9  C   UNL     1       0.166  13.920  -6.704  1.00  0.00     0.165 A 
ATOM     10  O   UNL     1       1.265  12.154  -7.525  1.00  0.00    -0.454 OA
ATOM     11  O   UNL     1       1.447  13.990  -6.190  1.00  0.00    -0.454 OA
ATOM     12  C   UNL     1       2.189  12.871  -6.695  1.00  0.00     0.468 C 
ENDBRANCH   1   4
TORSDOF 2
ENDMDL
MODEL 4
REMARK VINA RESULT:    -3.751     20.637     21.780
REMARK INTER + INTRA:          -4.373
REMARK INTER:                  -4.188
REMARK INTRA:                  -0.185
REMARK UNBOUND:                -0.183
REMARK SMILES C=CCc1ccc2c(c1)OCO2
REMARK SMILES IDX 3 1 2 2 1 3 4 4 9 5 5 6 8 7 6 8 7 9 10 10 12 11 11 12
REMARK H PARENT
REMARK Flexibility Score: inf
ROOT
ATOM      1  C   UNL     1      -0.306  10.187  -8.128  1.00  0.00     0.062 C 
ENDROOT
BRANCH   1   2
ATOM      2  C   UNL     1       0.030   9.243  -7.008  1.00  0.00    -0.030 C 
ATOM      3  C   UNL     1       0.980   8.311  -7.136  1.00  0.00     0.004 C 
ENDBRANCH   1   2
BRANCH   1   4
ATOM      4  C   UNL     1      -0.300  11.612  -7.644  1.00  0.00    -0.040 A 
ATOM      5  C   UNL     1      -1.249  12.536  -8.137  1.00  0.00     0.054 A 
ATOM      6  C   UNL     1       0.687  12.045  -6.721  1.00  0.00     0.008 A 
ATOM      7  C   UNL     1      -1.182  13.848  -7.678  1.00  0.00     0.166 A 
ATOM      8  C   UNL     1       0.718  13.382  -6.282  1.00  0.00     0.051 A 
ATOM      9  C   UNL     1      -0.241  14.253  -6.790  1.00  0.00     0.165 A 
ATOM     10  O   UNL     1      -1.993  14.917  -8.010  1.00  0.00    -0.454 OA
ATOM     11  O   UNL     1      -0.412  15.597  -6.517  1.00  0.00    -0.454 OA
ATOM     12  C   UNL     1      -1.532  16.064  -7.283  1.00  0.00     0.468 C 
ENDBRANCH   1   4
TORSDOF 2
ENDMDL
MODEL 5
REMARK VINA RESULT:    -3.729     21.241     22.518
REMARK INTER + INTRA:          -4.348
REMARK INTER:                  -4.181
REMARK INTRA:                  -0.167
REMARK UNBOUND:                -0.183
REMARK SMILES C=CCc1ccc2c(c1)OCO2
REMARK SMILES IDX 3 1 2 2 1 3 4 4 9 5 5 6 8 7 6 8 7 9 10 10 12 11 11 12
REMARK H PARENT
REMARK Flexibility Score: inf
ROOT
ATOM      1  C   UNL     1       0.623  10.585  -6.324  1.00  0.00     0.062 C 
ENDROOT
BRANCH   1   2
ATOM      2  C   UNL     1       0.265   9.479  -7.276  1.00  0.00    -0.030 C 
ATOM      3  C   UNL     1       0.791   8.255  -7.160  1.00  0.00     0.004 C 
ENDBRANCH   1   2
BRANCH   1   4
ATOM      4  C   UNL     1       0.595  11.918  -7.022  1.00  0.00    -0.040 A 
ATOM      5  C   UNL     1       1.632  12.855  -6.810  1.00  0.00     0.054 A 
ATOM      6  C   UNL     1      -0.495  12.257  -7.865  1.00  0.00     0.008 A 
ATOM      7  C   UNL     1       1.544  14.084  -7.457  1.00  0.00     0.166 A 
ATOM      8  C   UNL     1      -0.543  13.511  -8.502  1.00  0.00     0.051 A 
ATOM      9  C   UNL     1       0.503  14.398  -8.268  1.00  0.00     0.165 A 
ATOM     10  O   UNL     1       2.426  15.147  -7.407  1.00  0.00    -0.454 OA
ATOM     11  O   UNL     1       0.678  15.673  -8.769  1.00  0.00    -0.454 OA
ATOM     12  C   UNL     1       1.906  16.193  -8.240  1.00  0.00     0.468 C 
ENDBRANCH   1   4
TORSDOF 2
ENDMDL
MODEL 6
REMARK VINA RESULT:    -3.728      5.401      7.829
REMARK INTER + INTRA:          -4.347
REMARK INTER:                  -4.204
REMARK INTRA:                  -0.142
REMARK UNBOUND:                -0.183
REMARK SMILES C=CCc1ccc2c(c1)OCO2
REMARK SMILES IDX 3 1 2 2 1 3 4 4 9 5 5 6 8 7 6 8 7 9 10 10 12 11 11 12
REMARK H PARENT
REMARK Flexibility Score: inf
ROOT
ATOM      1  C   UNL     1      -9.180  16.208 -22.898  1.00  0.00     0.062 C 
ENDROOT
BRANCH   1   2
ATOM      2  C   UNL     1      -8.482  15.484 -24.014  1.00  0.00    -0.030 C 
ATOM      3  C   UNL     1      -7.361  15.958 -24.566  1.00  0.00     0.004 C 
ENDBRANCH   1   2
BRANCH   1   4
ATOM      4  C   UNL     1     -10.380  15.431 -22.427  1.00  0.00    -0.040 A 
ATOM      5  C   UNL     1     -11.683  15.855 -22.773  1.00  0.00     0.054 A 
ATOM      6  C   UNL     1     -10.210  14.293 -21.597  1.00  0.00     0.008 A 
ATOM      7  C   UNL     1     -12.760  15.118 -22.289  1.00  0.00     0.166 A 
ATOM      8  C   UNL     1     -11.327  13.576 -21.130  1.00  0.00     0.051 A 
ATOM      9  C   UNL     1     -12.589  14.026 -21.503  1.00  0.00     0.165 A 
ATOM     10  O   UNL     1     -14.110  15.333 -22.491  1.00  0.00    -0.454 OA
ATOM     11  O   UNL     1     -13.823  13.499 -21.172  1.00  0.00    -0.454 OA
ATOM     12  C   UNL     1     -14.831  14.311 -21.789  1.00  0.00     0.468 C 
ENDBRANCH   1   4
TORSDOF 2
ENDMDL
MODEL 7
REMARK VINA RESULT:    -3.685     22.436     23.405
REMARK INTER + INTRA:          -4.298
REMARK INTER:                  -4.101
REMARK INTRA:                  -0.198
REMARK UNBOUND:                -0.183
REMARK SMILES C=CCc1ccc2c(c1)OCO2
REMARK SMILES IDX 3 1 2 2 1 3 4 4 9 5 5 6 8 7 6 8 7 9 10 10 12 11 11 12
REMARK H PARENT
REMARK Flexibility Score: inf
ROOT
ATOM      1  C   UNL     1       1.290   8.429  -6.957  1.00  0.00     0.062 C 
ENDROOT
BRANCH   1   2
ATOM      2  C   UNL     1       2.571   7.681  -6.714  1.00  0.00    -0.030 C 
ATOM      3  C   UNL     1       2.743   6.916  -5.631  1.00  0.00     0.004 C 
ENDBRANCH   1   2
BRANCH   1   4
ATOM      4  C   UNL     1       1.526   9.915  -6.917  1.00  0.00    -0.040 A 
ATOM      5  C   UNL     1       0.434  10.811  -6.962  1.00  0.00     0.054 A 
ATOM      6  C   UNL     1       2.850  10.425  -6.877  1.00  0.00     0.008 A 
ATOM      7  C   UNL     1       0.707  12.175  -6.952  1.00  0.00     0.166 A 
ATOM      8  C   UNL     1       3.081  11.812  -6.867  1.00  0.00     0.051 A 
ATOM      9  C   UNL     1       1.976  12.655  -6.905  1.00  0.00     0.165 A 
ATOM     10  O   UNL     1      -0.183  13.231  -6.987  1.00  0.00    -0.454 OA
ATOM     11  O   UNL     1       1.946  14.036  -6.908  1.00  0.00    -0.454 OA
ATOM     12  C   UNL     1       0.573  14.450  -6.959  1.00  0.00     0.468 C 
ENDBRANCH   1   4
TORSDOF 2
ENDMDL
MODEL 8
REMARK VINA RESULT:    -3.630      2.448      4.179
REMARK INTER + INTRA:          -4.237
REMARK INTER:                  -4.056
REMARK INTRA:                  -0.181
REMARK UNBOUND:                -0.183
REMARK SMILES C=CCc1ccc2c(c1)OCO2
REMARK SMILES IDX 3 1 2 2 1 3 4 4 9 5 5 6 8 7 6 8 7 9 10 10 12 11 11 12
REMARK H PARENT
REMARK Flexibility Score: inf
ROOT
ATOM      1  C   UNL     1     -13.893  10.273 -20.968  1.00  0.00     0.062 C 
ENDROOT
BRANCH   1   2
ATOM      2  C   UNL     1     -14.105   9.327 -22.116  1.00  0.00    -0.030 C 
ATOM      3  C   UNL     1     -15.043   8.375 -22.077  1.00  0.00     0.004 C 
ENDBRANCH   1   2
BRANCH   1   4
ATOM      4  C   UNL     1     -13.793  11.692 -21.459  1.00  0.00    -0.040 A 
ATOM      5  C   UNL     1     -12.783  12.548 -20.963  1.00  0.00     0.054 A 
ATOM      6  C   UNL     1     -14.739  12.190 -22.392  1.00  0.00     0.008 A 
ATOM      7  C   UNL     1     -12.751  13.859 -21.429  1.00  0.00     0.166 A 
ATOM      8  C   UNL     1     -14.670  13.523 -22.837  1.00  0.00     0.051 A 
ATOM      9  C   UNL     1     -13.655  14.326 -22.327  1.00  0.00     0.165 A 
ATOM     10  O   UNL     1     -11.869  14.869 -21.096  1.00  0.00    -0.454 OA
ATOM     11  O   UNL     1     -13.385  15.652 -22.604  1.00  0.00    -0.454 OA
ATOM     12  C   UNL     1     -12.241  16.042 -21.833  1.00  0.00     0.468 C 
ENDBRANCH   1   4
TORSDOF 2
ENDMDL
MODEL 9
REMARK VINA RESULT:    -3.554     20.504     22.073
REMARK INTER + INTRA:          -4.152
REMARK INTER:                  -3.994
REMARK INTRA:                  -0.159
REMARK UNBOUND:                -0.183
REMARK SMILES C=CCc1ccc2c(c1)OCO2
REMARK SMILES IDX 3 1 2 2 1 3 4 4 9 5 5 6 8 7 6 8 7 9 10 10 12 11 11 12
REMARK H PARENT
REMARK Flexibility Score: inf
ROOT
ATOM      1  C   UNL     1       0.738   8.487  -7.111  1.00  0.00     0.062 C 
ENDROOT
BRANCH   1   2
ATOM      2  C   UNL     1       1.714   8.030  -8.158  1.00  0.00    -0.030 C 
ATOM      3  C   UNL     1       2.771   7.272  -7.848  1.00  0.00     0.004 C 
ENDBRANCH   1   2
BRANCH   1   4
ATOM      4  C   UNL     1       0.296   9.902  -7.376  1.00  0.00    -0.040 A 
ATOM      5  C   UNL     1       0.904  10.978  -6.690  1.00  0.00     0.054 A 
ATOM      6  C   UNL     1      -0.762  10.158  -8.286  1.00  0.00     0.008 A 
ATOM      7  C   UNL     1       0.440  12.263  -6.951  1.00  0.00     0.166 A 
ATOM      8  C   UNL     1      -1.200  11.474  -8.520  1.00  0.00     0.051 A 
ATOM      9  C   UNL     1      -0.567  12.501  -7.828  1.00  0.00     0.165 A 
ATOM     10  O   UNL     1       0.873  13.460  -6.412  1.00  0.00    -0.454 OA
ATOM     11  O   UNL     1      -0.817  13.859  -7.885  1.00  0.00    -0.454 OA
ATOM     12  C   UNL     1       0.090  14.515  -6.987  1.00  0.00     0.468 C 
ENDBRANCH   1   4
TORSDOF 2
ENDMDL
