MODEL 1
REMARK VINA RESULT:    -6.460      0.000      0.000
REMARK INTER + INTRA:          -7.894
REMARK INTER:                  -7.781
REMARK INTRA:                  -0.112
REMARK UNBOUND:                -0.112
REMARK SMILES O=c1c(O)c(-c2ccc(O)c(O)c2)oc2cc(O)cc(O)c12
REMARK SMILES IDX 5 1 3 2 2 3 1 4 22 5 20 6 19 7 17 8 16 9 15 10 14 11 6 12
REMARK SMILES IDX 7 13 8 14 9 15 13 16 11 17 10 18 12 20 4 22 21 24 18 26
REMARK H PARENT 10 19 12 21 4 23 21 25 18 27
REMARK Flexibility Score: inf
ROOT
ATOM      1  C   UNL     1      -8.163   2.483  -5.661  1.00  0.00     0.180 A 
ATOM      2  C   UNL     1      -6.825   2.468  -6.101  1.00  0.00     0.208 A 
ATOM      3  C   UNL     1      -6.395   3.461  -6.995  1.00  0.00     0.238 A 
ATOM      4  O   UNL     1      -5.203   3.452  -7.405  1.00  0.00    -0.285 OA
ATOM      5  C   UNL     1      -7.298   4.458  -7.418  1.00  0.00     0.111 A 
ATOM      6  C   UNL     1      -6.943   5.495  -8.314  1.00  0.00     0.134 A 
ATOM      7  C   UNL     1      -7.898   6.456  -8.679  1.00  0.00     0.093 A 
ATOM      8  C   UNL     1      -9.197   6.401  -8.168  1.00  0.00     0.123 A 
ATOM      9  C   UNL     1      -9.553   5.379  -7.282  1.00  0.00     0.094 A 
ATOM     10  C   UNL     1      -8.616   4.411  -6.907  1.00  0.00     0.146 A 
ATOM     11  O   UNL     1      -8.983   3.448  -6.068  1.00  0.00    -0.452 OA
ENDROOT
BRANCH   1  12
ATOM     12  C   UNL     1      -8.697   1.460  -4.733  1.00  0.00     0.025 A 
ATOM     13  C   UNL     1      -8.670   0.109  -5.107  1.00  0.00     0.016 A 
ATOM     14  C   UNL     1      -9.150  -0.873  -4.239  1.00  0.00     0.051 A 
ATOM     15  C   UNL     1      -9.651  -0.531  -2.979  1.00  0.00     0.157 A 
ATOM     16  C   UNL     1      -9.179   1.806  -3.460  1.00  0.00     0.062 A 
ATOM     17  C   UNL     1      -9.659   0.826  -2.581  1.00  0.00     0.158 A 
BRANCH  15  18
ATOM     18  O   UNL     1     -10.122  -1.561  -2.162  1.00  0.00    -0.504 OA
ATOM     19  H   UNL     1      -9.526  -2.234  -1.703  1.00  0.00     0.293 HD
ENDBRANCH  15  18
BRANCH  17  20
ATOM     20  O   UNL     1     -10.125   1.243  -1.332  1.00  0.00    -0.504 OA
ATOM     21  H   UNL     1     -10.416   2.187  -1.124  1.00  0.00     0.293 HD
ENDBRANCH  17  20
ENDBRANCH   1  12
BRANCH   2  22
ATOM     22  O   UNL     1      -5.938   1.499  -5.630  1.00  0.00    -0.502 OA
ATOM     23  H   UNL     1      -5.825   0.600  -6.083  1.00  0.00     0.293 HD
ENDBRANCH   2  22
BRANCH   6  24
ATOM     24  O   UNL     1      -5.654   5.577  -8.843  1.00  0.00    -0.507 OA
ATOM     25  H   UNL     1      -4.960   6.207  -8.457  1.00  0.00     0.293 HD
ENDBRANCH   6  24
BRANCH   8  26
ATOM     26  O   UNL     1     -10.125   7.368  -8.546  1.00  0.00    -0.508 OA
ATOM     27  H   UNL     1     -10.252   8.219  -8.009  1.00  0.00     0.293 HD
ENDBRANCH   8  26
TORSDOF 6
ENDMDL
MODEL 2
REMARK VINA RESULT:    -6.330     17.904     19.093
REMARK INTER + INTRA:          -7.738
REMARK INTER:                  -7.418
REMARK INTRA:                  -0.319
REMARK UNBOUND:                -0.112
REMARK SMILES O=c1c(O)c(-c2ccc(O)c(O)c2)oc2cc(O)cc(O)c12
REMARK SMILES IDX 5 1 3 2 2 3 1 4 22 5 20 6 19 7 17 8 16 9 15 10 14 11 6 12
REMARK SMILES IDX 7 13 8 14 9 15 13 16 11 17 10 18 12 20 4 22 21 24 18 26
REMARK H PARENT 10 19 12 21 4 23 21 25 18 27
REMARK Flexibility Score: inf
ROOT
ATOM      1  C   UNL     1       5.400   4.654   6.782  1.00  0.00     0.180 A 
ATOM      2  C   UNL     1       4.579   4.222   7.842  1.00  0.00     0.208 A 
ATOM      3  C   UNL     1       3.571   5.079   8.312  1.00  0.00     0.238 A 
ATOM      4  O   UNL     1       2.838   4.708   9.268  1.00  0.00    -0.285 OA
ATOM      5  C   UNL     1       3.389   6.339   7.706  1.00  0.00     0.111 A 
ATOM      6  C   UNL     1       2.394   7.260   8.117  1.00  0.00     0.134 A 
ATOM      7  C   UNL     1       2.270   8.491   7.456  1.00  0.00     0.093 A 
ATOM      8  C   UNL     1       3.117   8.819   6.394  1.00  0.00     0.123 A 
ATOM      9  C   UNL     1       4.101   7.914   5.983  1.00  0.00     0.094 A 
ATOM     10  C   UNL     1       4.242   6.682   6.631  1.00  0.00     0.146 A 
ATOM     11  O   UNL     1       5.188   5.843   6.224  1.00  0.00    -0.452 OA
ENDROOT
BRANCH   1  12
ATOM     12  C   UNL     1       6.495   3.816   6.244  1.00  0.00     0.025 A 
ATOM     13  C   UNL     1       7.750   3.836   6.869  1.00  0.00     0.016 A 
ATOM     14  C   UNL     1       8.790   3.039   6.389  1.00  0.00     0.051 A 
ATOM     15  C   UNL     1       8.596   2.196   5.290  1.00  0.00     0.157 A 
ATOM     16  C   UNL     1       6.290   2.954   5.153  1.00  0.00     0.062 A 
ATOM     17  C   UNL     1       7.327   2.148   4.668  1.00  0.00     0.158 A 
BRANCH  15  18
ATOM     18  O   UNL     1       9.681   1.430   4.856  1.00  0.00    -0.504 OA
ATOM     19  H   UNL     1       9.626   0.741   4.120  1.00  0.00     0.293 HD
ENDBRANCH  15  18
BRANCH  17  20
ATOM     20  O   UNL     1       7.052   1.317   3.579  1.00  0.00    -0.504 OA
ATOM     21  H   UNL     1       6.834   0.335   3.660  1.00  0.00     0.293 HD
ENDBRANCH  17  20
ENDBRANCH   1  12
BRANCH   2  22
ATOM     22  O   UNL     1       4.749   2.950   8.393  1.00  0.00    -0.502 OA
ATOM     23  H   UNL     1       5.663   2.545   8.552  1.00  0.00     0.293 HD
ENDBRANCH   2  22
BRANCH   6  24
ATOM     24  O   UNL     1       1.533   6.962   9.174  1.00  0.00    -0.507 OA
ATOM     25  H   UNL     1       1.538   7.501  10.033  1.00  0.00     0.293 HD
ENDBRANCH   6  24
BRANCH   8  26
ATOM     26  O   UNL     1       2.971  10.047   5.755  1.00  0.00    -0.508 OA
ATOM     27  H   UNL     1       3.501  10.276   4.921  1.00  0.00     0.293 HD
ENDBRANCH   8  26
TORSDOF 6
ENDMDL
MODEL 3
REMARK VINA RESULT:    -5.941     12.919     15.415
REMARK INTER + INTRA:          -7.269
REMARK INTER:                  -7.036
REMARK INTRA:                  -0.233
REMARK UNBOUND:                -0.112
REMARK SMILES O=c1c(O)c(-c2ccc(O)c(O)c2)oc2cc(O)cc(O)c12
REMARK SMILES IDX 5 1 3 2 2 3 1 4 22 5 20 6 19 7 17 8 16 9 15 10 14 11 6 12
REMARK SMILES IDX 7 13 8 14 9 15 13 16 11 17 10 18 12 20 4 22 21 24 18 26
REMARK H PARENT 10 19 12 21 4 23 21 25 18 27
REMARK Flexibility Score: inf
ROOT
ATOM      1  C   UNL     1      -2.041   5.701   6.363  1.00  0.00     0.180 A 
ATOM      2  C   UNL     1      -0.669   5.881   6.625  1.00  0.00     0.208 A 
ATOM      3  C   UNL     1       0.065   4.811   7.162  1.00  0.00     0.238 A 
ATOM      4  O   UNL     1       1.291   4.964   7.411  1.00  0.00    -0.285 OA
ATOM      5  C   UNL     1      -0.576   3.580   7.409  1.00  0.00     0.111 A 
ATOM      6  C   UNL     1       0.092   2.452   7.945  1.00  0.00     0.134 A 
ATOM      7  C   UNL     1      -0.615   1.259   8.153  1.00  0.00     0.093 A 
ATOM      8  C   UNL     1      -1.973   1.169   7.837  1.00  0.00     0.123 A 
ATOM      9  C   UNL     1      -2.639   2.280   7.307  1.00  0.00     0.094 A 
ATOM     10  C   UNL     1      -1.952   3.480   7.093  1.00  0.00     0.146 A 
ATOM     11  O   UNL     1      -2.609   4.520   6.594  1.00  0.00    -0.452 OA
ENDROOT
BRANCH   1  12
ATOM     12  C   UNL     1      -2.886   6.786   5.815  1.00  0.00     0.025 A 
ATOM     13  C   UNL     1      -3.801   7.438   6.654  1.00  0.00     0.016 A 
ATOM     14  C   UNL     1      -4.593   8.477   6.162  1.00  0.00     0.051 A 
ATOM     15  C   UNL     1      -4.478   8.896   4.833  1.00  0.00     0.157 A 
ATOM     16  C   UNL     1      -2.751   7.219   4.485  1.00  0.00     0.062 A 
ATOM     17  C   UNL     1      -3.539   8.262   3.985  1.00  0.00     0.158 A 
BRANCH  15  18
ATOM     18  O   UNL     1      -5.304   9.936   4.402  1.00  0.00    -0.504 OA
ATOM     19  H   UNL     1      -5.491  10.768   4.942  1.00  0.00     0.293 HD
ENDBRANCH  15  18
BRANCH  17  20
ATOM     20  O   UNL     1      -3.353   8.639   2.652  1.00  0.00    -0.504 OA
ATOM     21  H   UNL     1      -3.955   8.350   1.895  1.00  0.00     0.293 HD
ENDBRANCH  17  20
ENDBRANCH   1  12
BRANCH   2  22
ATOM     22  O   UNL     1      -0.046   7.094   6.326  1.00  0.00    -0.502 OA
ATOM     23  H   UNL     1      -0.569   7.946   6.161  1.00  0.00     0.293 HD
ENDBRANCH   2  22
BRANCH   6  24
ATOM     24  O   UNL     1       1.447   2.509   8.272  1.00  0.00    -0.507 OA
ATOM     25  H   UNL     1       1.984   1.671   8.464  1.00  0.00     0.293 HD
ENDBRANCH   6  24
BRANCH   8  26
ATOM     26  O   UNL     1      -2.651  -0.028   8.052  1.00  0.00    -0.508 OA
ATOM     27  H   UNL     1      -2.238  -0.921   7.810  1.00  0.00     0.293 HD
ENDBRANCH   8  26
TORSDOF 6
ENDMDL
MODEL 4
REMARK VINA RESULT:    -5.741     14.153     14.844
REMARK INTER + INTRA:          -7.028
REMARK INTER:                  -6.746
REMARK INTRA:                  -0.283
REMARK UNBOUND:                -0.112
REMARK SMILES O=c1c(O)c(-c2ccc(O)c(O)c2)oc2cc(O)cc(O)c12
REMARK SMILES IDX 5 1 3 2 2 3 1 4 22 5 20 6 19 7 17 8 16 9 15 10 14 11 6 12
REMARK SMILES IDX 7 13 8 14 9 15 13 16 11 17 10 18 12 20 4 22 21 24 18 26
REMARK H PARENT 10 19 12 21 4 23 21 25 18 27
REMARK Flexibility Score: inf
ROOT
ATOM      1  C   UNL     1      -2.014   3.546   7.481  1.00  0.00     0.180 A 
ATOM      2  C   UNL     1      -0.863   4.151   6.937  1.00  0.00     0.208 A 
ATOM      3  C   UNL     1      -0.865   5.537   6.721  1.00  0.00     0.238 A 
ATOM      4  O   UNL     1       0.155   6.089   6.225  1.00  0.00    -0.285 OA
ATOM      5  C   UNL     1      -2.002   6.296   7.067  1.00  0.00     0.111 A 
ATOM      6  C   UNL     1      -2.082   7.698   6.884  1.00  0.00     0.134 A 
ATOM      7  C   UNL     1      -3.246   8.383   7.263  1.00  0.00     0.093 A 
ATOM      8  C   UNL     1      -4.329   7.697   7.820  1.00  0.00     0.123 A 
ATOM      9  C   UNL     1      -4.255   6.312   8.003  1.00  0.00     0.094 A 
ATOM     10  C   UNL     1      -3.103   5.610   7.630  1.00  0.00     0.146 A 
ATOM     11  O   UNL     1      -3.062   4.295   7.809  1.00  0.00    -0.452 OA
ENDROOT
BRANCH   1  12
ATOM     12  C   UNL     1      -2.096   2.087   7.721  1.00  0.00     0.025 A 
ATOM     13  C   UNL     1      -1.478   1.539   8.853  1.00  0.00     0.016 A 
ATOM     14  C   UNL     1      -1.559   0.169   9.109  1.00  0.00     0.051 A 
ATOM     15  C   UNL     1      -2.271  -0.677   8.251  1.00  0.00     0.157 A 
ATOM     16  C   UNL     1      -2.830   1.245   6.869  1.00  0.00     0.062 A 
ATOM     17  C   UNL     1      -2.920  -0.130   7.120  1.00  0.00     0.158 A 
BRANCH  15  18
ATOM     18  O   UNL     1      -2.308  -2.038   8.560  1.00  0.00    -0.504 OA
ATOM     19  H   UNL     1      -3.039  -2.666   8.256  1.00  0.00     0.293 HD
ENDBRANCH  15  18
BRANCH  17  20
ATOM     20  O   UNL     1      -3.665  -0.907   6.229  1.00  0.00    -0.504 OA
ATOM     21  H   UNL     1      -4.390  -0.541   5.630  1.00  0.00     0.293 HD
ENDBRANCH  17  20
ENDBRANCH   1  12
BRANCH   2  22
ATOM     22  O   UNL     1       0.268   3.384   6.648  1.00  0.00    -0.502 OA
ATOM     23  H   UNL     1       0.268   2.373   6.707  1.00  0.00     0.293 HD
ENDBRANCH   2  22
BRANCH   6  24
ATOM     24  O   UNL     1      -1.019   8.413   6.331  1.00  0.00    -0.507 OA
ATOM     25  H   UNL     1      -1.127   8.955   5.481  1.00  0.00     0.293 HD
ENDBRANCH   6  24
BRANCH   8  26
ATOM     26  O   UNL     1      -5.472   8.401   8.189  1.00  0.00    -0.508 OA
ATOM     27  H   UNL     1      -5.564   8.818   9.108  1.00  0.00     0.293 HD
ENDBRANCH   8  26
TORSDOF 6
ENDMDL
MODEL 5
REMARK VINA RESULT:    -5.731     13.782     15.915
REMARK INTER + INTRA:          -7.015
REMARK INTER:                  -6.691
REMARK INTRA:                  -0.324
REMARK UNBOUND:                -0.112
REMARK SMILES O=c1c(O)c(-c2ccc(O)c(O)c2)oc2cc(O)cc(O)c12
REMARK SMILES IDX 5 1 3 2 2 3 1 4 22 5 20 6 19 7 17 8 16 9 15 10 14 11 6 12
REMARK SMILES IDX 7 13 8 14 9 15 13 16 11 17 10 18 12 20 4 22 21 24 18 26
REMARK H PARENT 10 19 12 21 4 23 21 25 18 27
REMARK Flexibility Score: inf
ROOT
ATOM      1  C   UNL     1       6.945   5.880  -4.167  1.00  0.00     0.180 A 
ATOM      2  C   UNL     1       7.941   6.567  -3.447  1.00  0.00     0.208 A 
ATOM      3  C   UNL     1       7.590   7.733  -2.747  1.00  0.00     0.238 A 
ATOM      4  O   UNL     1       8.476   8.363  -2.108  1.00  0.00    -0.285 OA
ATOM      5  C   UNL     1       6.253   8.179  -2.763  1.00  0.00     0.111 A 
ATOM      6  C   UNL     1       5.816   9.341  -2.081  1.00  0.00     0.134 A 
ATOM      7  C   UNL     1       4.465   9.714  -2.137  1.00  0.00     0.093 A 
ATOM      8  C   UNL     1       3.544   8.950  -2.858  1.00  0.00     0.123 A 
ATOM      9  C   UNL     1       3.969   7.801  -3.534  1.00  0.00     0.094 A 
ATOM     10  C   UNL     1       5.313   7.414  -3.491  1.00  0.00     0.146 A 
ATOM     11  O   UNL     1       5.690   6.322  -4.146  1.00  0.00    -0.452 OA
ENDROOT
BRANCH   1  12
ATOM     12  C   UNL     1       7.240   4.655  -4.944  1.00  0.00     0.025 A 
ATOM     13  C   UNL     1       7.649   4.768  -6.280  1.00  0.00     0.016 A 
ATOM     14  C   UNL     1       7.951   3.627  -7.025  1.00  0.00     0.051 A 
ATOM     15  C   UNL     1       7.867   2.355  -6.449  1.00  0.00     0.157 A 
ATOM     16  C   UNL     1       7.176   3.381  -4.356  1.00  0.00     0.062 A 
ATOM     17  C   UNL     1       7.481   2.231  -5.094  1.00  0.00     0.158 A 
BRANCH  15  18
ATOM     18  O   UNL     1       8.176   1.254  -7.251  1.00  0.00    -0.504 OA
ATOM     19  H   UNL     1       8.830   0.530  -6.988  1.00  0.00     0.293 HD
ENDBRANCH  15  18
BRANCH  17  20
ATOM     20  O   UNL     1       7.394   0.997  -4.445  1.00  0.00    -0.504 OA
ATOM     21  H   UNL     1       6.574   0.674  -3.953  1.00  0.00     0.293 HD
ENDBRANCH  17  20
ENDBRANCH   1  12
BRANCH   2  22
ATOM     22  O   UNL     1       9.248   6.078  -3.407  1.00  0.00    -0.502 OA
ATOM     23  H   UNL     1       9.976   6.515  -2.855  1.00  0.00     0.293 HD
ENDBRANCH   2  22
BRANCH   6  24
ATOM     24  O   UNL     1       6.712  10.125  -1.352  1.00  0.00    -0.507 OA
ATOM     25  H   UNL     1       7.341   9.719  -0.669  1.00  0.00     0.293 HD
ENDBRANCH   6  24
BRANCH   8  26
ATOM     26  O   UNL     1       2.208   9.342  -2.897  1.00  0.00    -0.508 OA
ATOM     27  H   UNL     1       1.456   8.667  -2.820  1.00  0.00     0.293 HD
ENDBRANCH   8  26
TORSDOF 6
ENDMDL
MODEL 6
REMARK VINA RESULT:    -5.716     11.907     13.721
REMARK INTER + INTRA:          -6.998
REMARK INTER:                  -6.677
REMARK INTRA:                  -0.321
REMARK UNBOUND:                -0.112
REMARK SMILES O=c1c(O)c(-c2ccc(O)c(O)c2)oc2cc(O)cc(O)c12
REMARK SMILES IDX 5 1 3 2 2 3 1 4 22 5 20 6 19 7 17 8 16 9 15 10 14 11 6 12
REMARK SMILES IDX 7 13 8 14 9 15 13 16 11 17 10 18 12 20 4 22 21 24 18 26
REMARK H PARENT 10 19 12 21 4 23 21 25 18 27
REMARK Flexibility Score: inf
ROOT
ATOM      1  C   UNL     1       5.175  -0.364  -6.159  1.00  0.00     0.180 A 
ATOM      2  C   UNL     1       5.844   0.707  -5.533  1.00  0.00     0.208 A 
ATOM      3  C   UNL     1       5.487   2.021  -5.875  1.00  0.00     0.238 A 
ATOM      4  O   UNL     1       6.086   2.988  -5.330  1.00  0.00    -0.285 OA
ATOM      5  C   UNL     1       4.462   2.243  -6.817  1.00  0.00     0.111 A 
ATOM      6  C   UNL     1       4.041   3.536  -7.213  1.00  0.00     0.134 A 
ATOM      7  C   UNL     1       3.005   3.673  -8.150  1.00  0.00     0.093 A 
ATOM      8  C   UNL     1       2.384   2.548  -8.697  1.00  0.00     0.123 A 
ATOM      9  C   UNL     1       2.796   1.268  -8.310  1.00  0.00     0.094 A 
ATOM     10  C   UNL     1       3.827   1.110  -7.378  1.00  0.00     0.146 A 
ATOM     11  O   UNL     1       4.202  -0.116  -7.032  1.00  0.00    -0.452 OA
ENDROOT
BRANCH   1  12
ATOM     12  C   UNL     1       5.507  -1.776  -5.866  1.00  0.00     0.025 A 
ATOM     13  C   UNL     1       6.558  -2.395  -6.558  1.00  0.00     0.016 A 
ATOM     14  C   UNL     1       6.900  -3.720  -6.283  1.00  0.00     0.051 A 
ATOM     15  C   UNL     1       6.213  -4.448  -5.305  1.00  0.00     0.157 A 
ATOM     16  C   UNL     1       4.830  -2.496  -4.868  1.00  0.00     0.062 A 
ATOM     17  C   UNL     1       5.169  -3.825  -4.584  1.00  0.00     0.158 A 
BRANCH  15  18
ATOM     18  O   UNL     1       6.601  -5.771  -5.084  1.00  0.00    -0.504 OA
ATOM     19  H   UNL     1       7.282  -6.051  -4.394  1.00  0.00     0.293 HD
ENDBRANCH  15  18
BRANCH  17  20
ATOM     20  O   UNL     1       4.451  -4.480  -3.580  1.00  0.00    -0.504 OA
ATOM     21  H   UNL     1       4.691  -4.445  -2.600  1.00  0.00     0.293 HD
ENDBRANCH  17  20
ENDBRANCH   1  12
BRANCH   2  22
ATOM     22  O   UNL     1       6.822   0.461  -4.568  1.00  0.00    -0.502 OA
ATOM     23  H   UNL     1       7.586  -0.187  -4.722  1.00  0.00     0.293 HD
ENDBRANCH   2  22
BRANCH   6  24
ATOM     24  O   UNL     1       4.641   4.680  -6.685  1.00  0.00    -0.507 OA
ATOM     25  H   UNL     1       5.322   5.215  -7.212  1.00  0.00     0.293 HD
ENDBRANCH   6  24
BRANCH   8  26
ATOM     26  O   UNL     1       1.358   2.712  -9.624  1.00  0.00    -0.508 OA
ATOM     27  H   UNL     1       0.546   3.284  -9.420  1.00  0.00     0.293 HD
ENDBRANCH   8  26
TORSDOF 6
ENDMDL
MODEL 7
REMARK VINA RESULT:    -5.612     13.438     16.209
REMARK INTER + INTRA:          -6.873
REMARK INTER:                  -6.785
REMARK INTRA:                  -0.088
REMARK UNBOUND:                -0.112
REMARK SMILES O=c1c(O)c(-c2ccc(O)c(O)c2)oc2cc(O)cc(O)c12
REMARK SMILES IDX 5 1 3 2 2 3 1 4 22 5 20 6 19 7 17 8 16 9 15 10 14 11 6 12
REMARK SMILES IDX 7 13 8 14 9 15 13 16 11 17 10 18 12 20 4 22 21 24 18 26
REMARK H PARENT 10 19 12 21 4 23 21 25 18 27
REMARK Flexibility Score: inf
ROOT
ATOM      1  C   UNL     1       4.951  -3.057  -5.258  1.00  0.00     0.180 A 
ATOM      2  C   UNL     1       4.405  -4.332  -5.014  1.00  0.00     0.208 A 
ATOM      3  C   UNL     1       5.062  -5.190  -4.118  1.00  0.00     0.238 A 
ATOM      4  O   UNL     1       4.588  -6.339  -3.899  1.00  0.00    -0.285 OA
ATOM      5  C   UNL     1       6.235  -4.756  -3.469  1.00  0.00     0.111 A 
ATOM      6  C   UNL     1       6.955  -5.558  -2.550  1.00  0.00     0.134 A 
ATOM      7  C   UNL     1       8.110  -5.049  -1.938  1.00  0.00     0.093 A 
ATOM      8  C   UNL     1       8.560  -3.759  -2.226  1.00  0.00     0.123 A 
ATOM      9  C   UNL     1       7.854  -2.962  -3.134  1.00  0.00     0.094 A 
ATOM     10  C   UNL     1       6.700  -3.451  -3.755  1.00  0.00     0.146 A 
ATOM     11  O   UNL     1       6.052  -2.676  -4.617  1.00  0.00    -0.452 OA
ENDROOT
BRANCH   1  12
ATOM     12  C   UNL     1       4.328  -2.103  -6.204  1.00  0.00     0.025 A 
ATOM     13  C   UNL     1       5.055  -1.665  -7.320  1.00  0.00     0.016 A 
ATOM     14  C   UNL     1       4.480  -0.781  -8.234  1.00  0.00     0.051 A 
ATOM     15  C   UNL     1       3.167  -0.329  -8.062  1.00  0.00     0.157 A 
ATOM     16  C   UNL     1       3.003  -1.669  -6.039  1.00  0.00     0.062 A 
ATOM     17  C   UNL     1       2.416  -0.784  -6.953  1.00  0.00     0.158 A 
BRANCH  15  18
ATOM     18  O   UNL     1       2.653   0.560  -9.009  1.00  0.00    -0.504 OA
ATOM     19  H   UNL     1       2.919   1.532  -9.072  1.00  0.00     0.293 HD
ENDBRANCH  15  18
BRANCH  17  20
ATOM     20  O   UNL     1       1.095  -0.393  -6.725  1.00  0.00    -0.504 OA
ATOM     21  H   UNL     1       0.574  -0.622  -5.891  1.00  0.00     0.293 HD
ENDBRANCH  17  20
ENDBRANCH   1  12
BRANCH   2  22
ATOM     22  O   UNL     1       3.215  -4.720  -5.632  1.00  0.00    -0.502 OA
ATOM     23  H   UNL     1       2.998  -4.482  -6.592  1.00  0.00     0.293 HD
ENDBRANCH   2  22
BRANCH   6  24
ATOM     24  O   UNL     1       6.531  -6.852  -2.241  1.00  0.00    -0.507 OA
ATOM     25  H   UNL     1       7.113  -7.661  -2.427  1.00  0.00     0.293 HD
ENDBRANCH   6  24
BRANCH   8  26
ATOM     26  O   UNL     1       9.710  -3.277  -1.605  1.00  0.00    -0.508 OA
ATOM     27  H   UNL     1      10.313  -2.601  -2.058  1.00  0.00     0.293 HD
ENDBRANCH   8  26
TORSDOF 6
ENDMDL
MODEL 8
REMARK VINA RESULT:    -5.590     13.434     16.175
REMARK INTER + INTRA:          -6.846
REMARK INTER:                  -6.675
REMARK INTRA:                  -0.171
REMARK UNBOUND:                -0.112
REMARK SMILES O=c1c(O)c(-c2ccc(O)c(O)c2)oc2cc(O)cc(O)c12
REMARK SMILES IDX 5 1 3 2 2 3 1 4 22 5 20 6 19 7 17 8 16 9 15 10 14 11 6 12
REMARK SMILES IDX 7 13 8 14 9 15 13 16 11 17 10 18 12 20 4 22 21 24 18 26
REMARK H PARENT 10 19 12 21 4 23 21 25 18 27
REMARK Flexibility Score: inf
ROOT
ATOM      1  C   UNL     1       5.449  -2.305  -5.294  1.00  0.00     0.180 A 
ATOM      2  C   UNL     1       6.556  -1.693  -4.676  1.00  0.00     0.208 A 
ATOM      3  C   UNL     1       7.272  -2.411  -3.705  1.00  0.00     0.238 A 
ATOM      4  O   UNL     1       8.259  -1.869  -3.136  1.00  0.00    -0.285 OA
ATOM      5  C   UNL     1       6.885  -3.727  -3.383  1.00  0.00     0.111 A 
ATOM      6  C   UNL     1       7.556  -4.519  -2.420  1.00  0.00     0.134 A 
ATOM      7  C   UNL     1       7.114  -5.826  -2.164  1.00  0.00     0.093 A 
ATOM      8  C   UNL     1       6.019  -6.356  -2.849  1.00  0.00     0.123 A 
ATOM      9  C   UNL     1       5.352  -5.579  -3.803  1.00  0.00     0.094 A 
ATOM     10  C   UNL     1       5.776  -4.273  -4.071  1.00  0.00     0.146 A 
ATOM     11  O   UNL     1       5.122  -3.555  -4.977  1.00  0.00    -0.452 OA
ENDROOT
BRANCH   1  12
ATOM     12  C   UNL     1       4.632  -1.608  -6.313  1.00  0.00     0.025 A 
ATOM     13  C   UNL     1       5.199  -1.298  -7.558  1.00  0.00     0.016 A 
ATOM     14  C   UNL     1       4.441  -0.658  -8.539  1.00  0.00     0.051 A 
ATOM     15  C   UNL     1       3.102  -0.329  -8.306  1.00  0.00     0.157 A 
ATOM     16  C   UNL     1       3.281  -1.299  -6.083  1.00  0.00     0.062 A 
ATOM     17  C   UNL     1       2.512  -0.660  -7.064  1.00  0.00     0.158 A 
BRANCH  15  18
ATOM     18  O   UNL     1       2.401   0.317  -9.327  1.00  0.00    -0.504 OA
ATOM     19  H   UNL     1       1.749   1.072  -9.174  1.00  0.00     0.293 HD
ENDBRANCH  15  18
BRANCH  17  20
ATOM     20  O   UNL     1       1.176  -0.381  -6.766  1.00  0.00    -0.504 OA
ATOM     21  H   UNL     1       0.402  -0.623  -7.366  1.00  0.00     0.293 HD
ENDBRANCH  17  20
ENDBRANCH   1  12
BRANCH   2  22
ATOM     22  O   UNL     1       6.949  -0.406  -5.046  1.00  0.00    -0.502 OA
ATOM     23  H   UNL     1       6.295   0.279  -5.406  1.00  0.00     0.293 HD
ENDBRANCH   2  22
BRANCH   6  24
ATOM     24  O   UNL     1       8.653  -4.019  -1.718  1.00  0.00    -0.507 OA
ATOM     25  H   UNL     1       9.544  -4.504  -1.706  1.00  0.00     0.293 HD
ENDBRANCH   6  24
BRANCH   8  26
ATOM     26  O   UNL     1       5.601  -7.656  -2.577  1.00  0.00    -0.508 OA
ATOM     27  H   UNL     1       4.869  -8.102  -3.118  1.00  0.00     0.293 HD
ENDBRANCH   8  26
TORSDOF 6
ENDMDL
MODEL 9
REMARK VINA RESULT:    -5.590      2.398      7.111
REMARK INTER + INTRA:          -6.846
REMARK INTER:                  -6.534
REMARK INTRA:                  -0.312
REMARK UNBOUND:                -0.112
REMARK SMILES O=c1c(O)c(-c2ccc(O)c(O)c2)oc2cc(O)cc(O)c12
REMARK SMILES IDX 5 1 3 2 2 3 1 4 22 5 20 6 19 7 17 8 16 9 15 10 14 11 6 12
REMARK SMILES IDX 7 13 8 14 9 15 13 16 11 17 10 18 12 20 4 22 21 24 18 26
REMARK H PARENT 10 19 12 21 4 23 21 25 18 27
REMARK Flexibility Score: inf
ROOT
ATOM      1  C   UNL     1      -7.073   3.115  -7.901  1.00  0.00     0.180 A 
ATOM      2  C   UNL     1      -7.657   2.150  -8.745  1.00  0.00     0.208 A 
ATOM      3  C   UNL     1      -8.468   1.155  -8.177  1.00  0.00     0.238 A 
ATOM      4  O   UNL     1      -8.987   0.280  -8.921  1.00  0.00    -0.285 OA
ATOM      5  C   UNL     1      -8.697   1.151  -6.786  1.00  0.00     0.111 A 
ATOM      6  C   UNL     1      -9.504   0.186  -6.136  1.00  0.00     0.134 A 
ATOM      7  C   UNL     1      -9.691   0.257  -4.748  1.00  0.00     0.093 A 
ATOM      8  C   UNL     1      -9.089   1.270  -3.997  1.00  0.00     0.123 A 
ATOM      9  C   UNL     1      -8.291   2.226  -4.633  1.00  0.00     0.094 A 
ATOM     10  C   UNL     1      -8.091   2.172  -6.017  1.00  0.00     0.146 A 
ATOM     11  O   UNL     1      -7.324   3.090  -6.595  1.00  0.00    -0.452 OA
ENDROOT
BRANCH   1  12
ATOM     12  C   UNL     1      -6.191   4.185  -8.421  1.00  0.00     0.025 A 
ATOM     13  C   UNL     1      -6.759   5.366  -8.919  1.00  0.00     0.016 A 
ATOM     14  C   UNL     1      -5.946   6.394  -9.396  1.00  0.00     0.051 A 
ATOM     15  C   UNL     1      -4.552   6.272  -9.372  1.00  0.00     0.157 A 
ATOM     16  C   UNL     1      -4.792   4.067  -8.375  1.00  0.00     0.062 A 
ATOM     17  C   UNL     1      -3.967   5.096  -8.848  1.00  0.00     0.158 A 
BRANCH  15  18
ATOM     18  O   UNL     1      -3.795   7.335  -9.871  1.00  0.00    -0.504 OA
ATOM     19  H   UNL     1      -3.169   7.260 -10.659  1.00  0.00     0.293 HD
ENDBRANCH  15  18
BRANCH  17  20
ATOM     20  O   UNL     1      -2.585   4.910  -8.773  1.00  0.00    -0.504 OA
ATOM     21  H   UNL     1      -1.923   5.655  -8.610  1.00  0.00     0.293 HD
ENDBRANCH  17  20
ENDBRANCH   1  12
BRANCH   2  22
ATOM     22  O   UNL     1      -7.454   2.205 -10.125  1.00  0.00    -0.502 OA
ATOM     23  H   UNL     1      -7.678   3.025 -10.675  1.00  0.00     0.293 HD
ENDBRANCH   2  22
BRANCH   6  24
ATOM     24  O   UNL     1     -10.119  -0.838  -6.857  1.00  0.00    -0.507 OA
ATOM     25  H   UNL     1      -9.799  -1.798  -6.797  1.00  0.00     0.293 HD
ENDBRANCH   6  24
BRANCH   8  26
ATOM     26  O   UNL     1      -9.292   1.317  -2.620  1.00  0.00    -0.508 OA
ATOM     27  H   UNL     1      -8.755   0.737  -1.986  1.00  0.00     0.293 HD
ENDBRANCH   8  26
TORSDOF 6
ENDMDL
