MODEL 1
REMARK VINA RESULT:    -6.001      0.000      0.000
REMARK INTER + INTRA:          -6.703
REMARK INTER:                  -6.703
REMARK INTRA:                   0.000
REMARK UNBOUND:                 0.000
REMARK SMILES Oc1cc(O)c2c(ccc3ccc(O)c(O)c32)c1
REMARK SMILES IDX 9 1 8 2 7 3 18 4 2 5 3 6 4 7 6 8 17 9 10 10 11 11 12 12
REMARK SMILES IDX 13 13 15 14 16 15 1 17 5 19 14 21
REMARK H PARENT 16 16 1 18 5 20 14 22
REMARK Flexibility Score: inf
ROOT
ATOM      1  C   UNL     1     129.265 119.449 138.189  1.00  0.00     0.009 A 
ATOM      2  C   UNL     1     128.123 118.999 138.837  1.00  0.00     0.009 A 
ATOM      3  C   UNL     1     127.603 119.702 139.929  1.00  0.00    -0.010 A 
ATOM      4  C   UNL     1     126.406 119.267 140.517  1.00  0.00     0.055 A 
ATOM      5  C   UNL     1     125.797 120.023 141.519  1.00  0.00     0.119 A 
ATOM      6  C   UNL     1     126.347 121.247 141.892  1.00  0.00     0.093 A 
ATOM      7  C   UNL     1     127.531 121.711 141.300  1.00  0.00     0.127 A 
ATOM      8  C   UNL     1     128.257 120.874 140.406  1.00  0.00     0.035 A 
ATOM      9  C   UNL     1     129.555 121.193 139.884  1.00  0.00     0.039 A 
ATOM     10  C   UNL     1     129.991 120.529 138.703  1.00  0.00    -0.014 A 
ATOM     11  C   UNL     1     131.177 120.921 138.066  1.00  0.00     0.013 A 
ATOM     12  C   UNL     1     131.980 121.909 138.624  1.00  0.00     0.051 A 
ATOM     13  C   UNL     1     131.658 122.456 139.867  1.00  0.00     0.158 A 
ATOM     14  C   UNL     1     130.482 122.060 140.531  1.00  0.00     0.166 A 
ENDROOT
BRANCH  14  15
ATOM     15  O   UNL     1     130.296 122.444 141.860  1.00  0.00    -0.504 OA
ATOM     16  H   UNL     1     130.102 121.780 142.599  1.00  0.00     0.293 HD
ENDBRANCH  14  15
BRANCH   5  17
ATOM     17  O   UNL     1     124.619 119.586 142.123  1.00  0.00    -0.508 OA
ATOM     18  H   UNL     1     124.403 118.599 142.211  1.00  0.00     0.293 HD
ENDBRANCH   5  17
BRANCH   7  19
ATOM     19  O   UNL     1     127.910 123.032 141.530  1.00  0.00    -0.507 OA
ATOM     20  H   UNL     1     128.877 123.293 141.688  1.00  0.00     0.293 HD
ENDBRANCH   7  19
BRANCH  13  21
ATOM     21  O   UNL     1     132.520 123.377 140.464  1.00  0.00    -0.504 OA
ATOM     22  H   UNL     1     133.506 123.410 140.232  1.00  0.00     0.293 HD
ENDBRANCH  13  21
TORSDOF 4
ENDMDL
MODEL 2
REMARK VINA RESULT:    -5.680      2.169      3.089
REMARK INTER + INTRA:          -6.344
REMARK INTER:                  -6.344
REMARK INTRA:                   0.000
REMARK UNBOUND:                 0.000
REMARK SMILES Oc1cc(O)c2c(ccc3ccc(O)c(O)c32)c1
REMARK SMILES IDX 9 1 8 2 7 3 18 4 2 5 3 6 4 7 6 8 17 9 10 10 11 11 12 12
REMARK SMILES IDX 13 13 15 14 16 15 1 17 5 19 14 21
REMARK H PARENT 16 16 1 18 5 20 14 22
REMARK Flexibility Score: inf
ROOT
ATOM      1  C   UNL     1     128.816 122.508 141.424  1.00  0.00     0.009 A 
ATOM      2  C   UNL     1     127.638 121.775 141.481  1.00  0.00     0.009 A 
ATOM      3  C   UNL     1     127.525 120.559 140.798  1.00  0.00    -0.010 A 
ATOM      4  C   UNL     1     126.351 119.804 140.934  1.00  0.00     0.055 A 
ATOM      5  C   UNL     1     126.263 118.530 140.373  1.00  0.00     0.119 A 
ATOM      6  C   UNL     1     127.370 117.981 139.729  1.00  0.00     0.093 A 
ATOM      7  C   UNL     1     128.561 118.711 139.603  1.00  0.00     0.127 A 
ATOM      8  C   UNL     1     128.610 120.073 140.013  1.00  0.00     0.035 A 
ATOM      9  C   UNL     1     129.724 120.944 139.773  1.00  0.00     0.039 A 
ATOM     10  C   UNL     1     129.855 122.113 140.574  1.00  0.00    -0.014 A 
ATOM     11  C   UNL     1     131.006 122.908 140.487  1.00  0.00     0.013 A 
ATOM     12  C   UNL     1     131.999 122.606 139.561  1.00  0.00     0.051 A 
ATOM     13  C   UNL     1     131.816 121.564 138.652  1.00  0.00     0.158 A 
ATOM     14  C   UNL     1     130.657 120.768 138.710  1.00  0.00     0.166 A 
ENDROOT
BRANCH  14  15
ATOM     15  O   UNL     1     130.390 119.887 137.661  1.00  0.00    -0.504 OA
ATOM     16  H   UNL     1     131.093 119.269 137.273  1.00  0.00     0.293 HD
ENDBRANCH  14  15
BRANCH   5  17
ATOM     17  O   UNL     1     125.093 117.782 140.485  1.00  0.00    -0.508 OA
ATOM     18  H   UNL     1     124.355 118.045 141.129  1.00  0.00     0.293 HD
ENDBRANCH   5  17
BRANCH   7  19
ATOM     19  O   UNL     1     129.702 118.041 139.167  1.00  0.00    -0.507 OA
ATOM     20  H   UNL     1     130.492 117.873 139.780  1.00  0.00     0.293 HD
ENDBRANCH   7  19
BRANCH  13  21
ATOM     21  O   UNL     1     132.774 121.328 137.664  1.00  0.00    -0.504 OA
ATOM     22  H   UNL     1     132.666 121.688 136.722  1.00  0.00     0.293 HD
ENDBRANCH  13  21
TORSDOF 4
ENDMDL
MODEL 3
REMARK VINA RESULT:    -5.551     13.798     14.482
REMARK INTER + INTRA:          -6.200
REMARK INTER:                  -6.200
REMARK INTRA:                   0.000
REMARK UNBOUND:                 0.000
REMARK SMILES Oc1cc(O)c2c(ccc3ccc(O)c(O)c32)c1
REMARK SMILES IDX 9 1 8 2 7 3 18 4 2 5 3 6 4 7 6 8 17 9 10 10 11 11 12 12
REMARK SMILES IDX 13 13 15 14 16 15 1 17 5 19 14 21
REMARK H PARENT 16 16 1 18 5 20 14 22
REMARK Flexibility Score: inf
ROOT
ATOM      1  C   UNL     1     124.714 135.321 132.814  1.00  0.00     0.009 A 
ATOM      2  C   UNL     1     124.205 134.256 132.084  1.00  0.00     0.009 A 
ATOM      3  C   UNL     1     124.633 132.949 132.344  1.00  0.00    -0.010 A 
ATOM      4  C   UNL     1     124.047 131.885 131.644  1.00  0.00     0.055 A 
ATOM      5  C   UNL     1     124.358 130.566 131.976  1.00  0.00     0.119 A 
ATOM      6  C   UNL     1     125.206 130.306 133.050  1.00  0.00     0.093 A 
ATOM      7  C   UNL     1     125.784 131.356 133.778  1.00  0.00     0.127 A 
ATOM      8  C   UNL     1     125.617 132.701 133.344  1.00  0.00     0.035 A 
ATOM      9  C   UNL     1     126.302 133.821 133.922  1.00  0.00     0.039 A 
ATOM     10  C   UNL     1     125.761 135.122 133.721  1.00  0.00    -0.014 A 
ATOM     11  C   UNL     1     126.300 136.227 134.396  1.00  0.00     0.013 A 
ATOM     12  C   UNL     1     127.418 136.076 135.208  1.00  0.00     0.051 A 
ATOM     13  C   UNL     1     128.066 134.842 135.288  1.00  0.00     0.158 A 
ATOM     14  C   UNL     1     127.551 133.727 134.601  1.00  0.00     0.166 A 
ENDROOT
BRANCH  14  15
ATOM     15  O   UNL     1     128.330 132.572 134.510  1.00  0.00    -0.504 OA
ATOM     16  H   UNL     1     128.925 132.375 133.714  1.00  0.00     0.293 HD
ENDBRANCH  14  15
BRANCH   5  17
ATOM     17  O   UNL     1     123.797 129.503 131.270  1.00  0.00    -0.508 OA
ATOM     18  H   UNL     1     122.872 129.151 131.488  1.00  0.00     0.293 HD
ENDBRANCH   5  17
BRANCH   7  19
ATOM     19  O   UNL     1     126.428 131.052 134.976  1.00  0.00    -0.507 OA
ATOM     20  H   UNL     1     126.121 130.292 135.572  1.00  0.00     0.293 HD
ENDBRANCH   7  19
BRANCH  13  21
ATOM     21  O   UNL     1     129.242 134.723 136.029  1.00  0.00    -0.504 OA
ATOM     22  H   UNL     1     129.609 135.497 136.571  1.00  0.00     0.293 HD
ENDBRANCH  13  21
TORSDOF 4
ENDMDL
MODEL 4
REMARK VINA RESULT:    -5.469      1.154      4.951
REMARK INTER + INTRA:          -6.109
REMARK INTER:                  -6.109
REMARK INTRA:                   0.000
REMARK UNBOUND:                 0.000
REMARK SMILES Oc1cc(O)c2c(ccc3ccc(O)c(O)c32)c1
REMARK SMILES IDX 9 1 8 2 7 3 18 4 2 5 3 6 4 7 6 8 17 9 10 10 11 11 12 12
REMARK SMILES IDX 13 13 15 14 16 15 1 17 5 19 14 21
REMARK H PARENT 16 16 1 18 5 20 14 22
REMARK Flexibility Score: inf
ROOT
ATOM      1  C   UNL     1     128.531 119.436 138.175  1.00  0.00     0.009 A 
ATOM      2  C   UNL     1     129.798 119.985 138.037  1.00  0.00     0.009 A 
ATOM      3  C   UNL     1     130.212 121.030 138.871  1.00  0.00    -0.010 A 
ATOM      4  C   UNL     1     131.523 121.516 138.760  1.00  0.00     0.055 A 
ATOM      5  C   UNL     1     132.004 122.462 139.664  1.00  0.00     0.119 A 
ATOM      6  C   UNL     1     131.198 122.880 140.721  1.00  0.00     0.093 A 
ATOM      7  C   UNL     1     129.892 122.389 140.863  1.00  0.00     0.127 A 
ATOM      8  C   UNL     1     129.327 121.559 139.854  1.00  0.00     0.035 A 
ATOM      9  C   UNL     1     127.954 121.148 139.829  1.00  0.00     0.039 A 
ATOM     10  C   UNL     1     127.602 120.008 139.053  1.00  0.00    -0.014 A 
ATOM     11  C   UNL     1     126.309 119.473 139.123  1.00  0.00     0.013 A 
ATOM     12  C   UNL     1     125.332 120.095 139.892  1.00  0.00     0.051 A 
ATOM     13  C   UNL     1     125.607 121.306 140.529  1.00  0.00     0.158 A 
ATOM     14  C   UNL     1     126.895 121.870 140.452  1.00  0.00     0.166 A 
ENDROOT
BRANCH  14  15
ATOM     15  O   UNL     1     127.086 123.178 140.898  1.00  0.00    -0.504 OA
ATOM     16  H   UNL     1     126.905 123.463 141.854  1.00  0.00     0.293 HD
ENDBRANCH  14  15
BRANCH   5  17
ATOM     17  O   UNL     1     133.298 122.966 139.547  1.00  0.00    -0.508 OA
ATOM     18  H   UNL     1     134.090 122.499 139.975  1.00  0.00     0.293 HD
ENDBRANCH   5  17
BRANCH   7  19
ATOM     19  O   UNL     1     129.215 122.650 142.053  1.00  0.00    -0.507 OA
ATOM     20  H   UNL     1     129.303 122.046 142.863  1.00  0.00     0.293 HD
ENDBRANCH   7  19
BRANCH  13  21
ATOM     21  O   UNL     1     124.595 121.973 141.220  1.00  0.00    -0.504 OA
ATOM     22  H   UNL     1     123.622 121.892 140.945  1.00  0.00     0.293 HD
ENDBRANCH  13  21
TORSDOF 4
ENDMDL
MODEL 5
REMARK VINA RESULT:    -5.458     13.793     15.470
REMARK INTER + INTRA:          -6.096
REMARK INTER:                  -6.096
REMARK INTRA:                   0.000
REMARK UNBOUND:                 0.000
REMARK SMILES Oc1cc(O)c2c(ccc3ccc(O)c(O)c32)c1
REMARK SMILES IDX 9 1 8 2 7 3 18 4 2 5 3 6 4 7 6 8 17 9 10 10 11 11 12 12
REMARK SMILES IDX 13 13 15 14 16 15 1 17 5 19 14 21
REMARK H PARENT 16 16 1 18 5 20 14 22
REMARK Flexibility Score: inf
ROOT
ATOM      1  C   UNL     1     124.430 136.478 135.756  1.00  0.00     0.009 A 
ATOM      2  C   UNL     1     125.670 137.007 135.427  1.00  0.00     0.009 A 
ATOM      3  C   UNL     1     126.772 136.166 135.234  1.00  0.00    -0.010 A 
ATOM      4  C   UNL     1     127.994 136.721 134.829  1.00  0.00     0.055 A 
ATOM      5  C   UNL     1     129.070 135.896 134.501  1.00  0.00     0.119 A 
ATOM      6  C   UNL     1     128.908 134.512 134.516  1.00  0.00     0.093 A 
ATOM      7  C   UNL     1     127.686 133.937 134.895  1.00  0.00     0.127 A 
ATOM      8  C   UNL     1     126.637 134.757 135.399  1.00  0.00     0.035 A 
ATOM      9  C   UNL     1     125.422 134.248 135.964  1.00  0.00     0.039 A 
ATOM     10  C   UNL     1     124.294 135.113 136.034  1.00  0.00    -0.014 A 
ATOM     11  C   UNL     1     123.043 134.617 136.428  1.00  0.00     0.013 A 
ATOM     12  C   UNL     1     122.907 133.293 136.829  1.00  0.00     0.051 A 
ATOM     13  C   UNL     1     124.031 132.471 136.927  1.00  0.00     0.158 A 
ATOM     14  C   UNL     1     125.298 132.958 136.556  1.00  0.00     0.166 A 
ENDROOT
BRANCH  14  15
ATOM     15  O   UNL     1     126.429 132.205 136.874  1.00  0.00    -0.504 OA
ATOM     16  H   UNL     1     127.362 132.467 136.579  1.00  0.00     0.293 HD
ENDBRANCH  14  15
BRANCH   5  17
ATOM     17  O   UNL     1     130.295 136.440 134.120  1.00  0.00    -0.508 OA
ATOM     18  H   UNL     1     130.732 136.196 133.239  1.00  0.00     0.293 HD
ENDBRANCH   5  17
BRANCH   7  19
ATOM     19  O   UNL     1     127.499 132.575 134.668  1.00  0.00    -0.507 OA
ATOM     20  H   UNL     1     127.996 131.869 135.201  1.00  0.00     0.293 HD
ENDBRANCH   7  19
BRANCH  13  21
ATOM     21  O   UNL     1     123.900 131.173 137.421  1.00  0.00    -0.504 OA
ATOM     22  H   UNL     1     124.329 130.891 138.296  1.00  0.00     0.293 HD
ENDBRANCH  13  21
TORSDOF 4
ENDMDL
MODEL 6
REMARK VINA RESULT:    -5.408     14.294     15.077
REMARK INTER + INTRA:          -6.041
REMARK INTER:                  -6.041
REMARK INTRA:                   0.000
REMARK UNBOUND:                 0.000
REMARK SMILES Oc1cc(O)c2c(ccc3ccc(O)c(O)c32)c1
REMARK SMILES IDX 9 1 8 2 7 3 18 4 2 5 3 6 4 7 6 8 17 9 10 10 11 11 12 12
REMARK SMILES IDX 13 13 15 14 16 15 1 17 5 19 14 21
REMARK H PARENT 16 16 1 18 5 20 14 22
REMARK Flexibility Score: inf
ROOT
ATOM      1  C   UNL     1     126.004 134.683 132.046  1.00  0.00     0.009 A 
ATOM      2  C   UNL     1     125.236 133.839 132.836  1.00  0.00     0.009 A 
ATOM      3  C   UNL     1     125.478 133.740 134.211  1.00  0.00    -0.010 A 
ATOM      4  C   UNL     1     124.639 132.937 134.998  1.00  0.00     0.055 A 
ATOM      5  C   UNL     1     124.774 132.924 136.386  1.00  0.00     0.119 A 
ATOM      6  C   UNL     1     125.704 133.762 136.997  1.00  0.00     0.093 A 
ATOM      7  C   UNL     1     126.536 134.590 136.230  1.00  0.00     0.127 A 
ATOM      8  C   UNL     1     126.533 134.487 134.811  1.00  0.00     0.035 A 
ATOM      9  C   UNL     1     127.461 135.167 133.955  1.00  0.00     0.039 A 
ATOM     10  C   UNL     1     127.116 135.341 132.585  1.00  0.00    -0.014 A 
ATOM     11  C   UNL     1     127.911 136.136 131.748  1.00  0.00     0.013 A 
ATOM     12  C   UNL     1     129.089 136.699 132.226  1.00  0.00     0.051 A 
ATOM     13  C   UNL     1     129.533 136.406 133.516  1.00  0.00     0.158 A 
ATOM     14  C   UNL     1     128.757 135.593 134.364  1.00  0.00     0.166 A 
ENDROOT
BRANCH  14  15
ATOM     15  O   UNL     1     129.320 135.130 135.555  1.00  0.00    -0.504 OA
ATOM     16  H   UNL     1     129.941 135.695 136.122  1.00  0.00     0.293 HD
ENDBRANCH  14  15
BRANCH   5  17
ATOM     17  O   UNL     1     123.960 132.112 137.173  1.00  0.00    -0.508 OA
ATOM     18  H   UNL     1     124.136 131.118 137.267  1.00  0.00     0.293 HD
ENDBRANCH   5  17
BRANCH   7  19
ATOM     19  O   UNL     1     127.276 135.572 136.886  1.00  0.00    -0.507 OA
ATOM     20  H   UNL     1     127.056 135.868 137.831  1.00  0.00     0.293 HD
ENDBRANCH   7  19
BRANCH  13  21
ATOM     21  O   UNL     1     130.762 136.899 133.956  1.00  0.00    -0.504 OA
ATOM     22  H   UNL     1     130.904 137.193 134.915  1.00  0.00     0.293 HD
ENDBRANCH  13  21
TORSDOF 4
ENDMDL
MODEL 7
REMARK VINA RESULT:    -5.271     14.540     16.089
REMARK INTER + INTRA:          -5.888
REMARK INTER:                  -5.888
REMARK INTRA:                   0.000
REMARK UNBOUND:                 0.000
REMARK SMILES Oc1cc(O)c2c(ccc3ccc(O)c(O)c32)c1
REMARK SMILES IDX 9 1 8 2 7 3 18 4 2 5 3 6 4 7 6 8 17 9 10 10 11 11 12 12
REMARK SMILES IDX 13 13 15 14 16 15 1 17 5 19 14 21
REMARK H PARENT 16 16 1 18 5 20 14 22
REMARK Flexibility Score: inf
ROOT
ATOM      1  C   UNL     1     125.171 134.629 132.442  1.00  0.00     0.009 A 
ATOM      2  C   UNL     1     126.263 135.250 131.853  1.00  0.00     0.009 A 
ATOM      3  C   UNL     1     127.420 135.507 132.598  1.00  0.00    -0.010 A 
ATOM      4  C   UNL     1     128.535 136.067 131.958  1.00  0.00     0.055 A 
ATOM      5  C   UNL     1     129.742 136.211 132.642  1.00  0.00     0.119 A 
ATOM      6  C   UNL     1     129.857 135.738 133.947  1.00  0.00     0.093 A 
ATOM      7  C   UNL     1     128.760 135.154 134.597  1.00  0.00     0.127 A 
ATOM      8  C   UNL     1     127.478 135.158 133.978  1.00  0.00     0.035 A 
ATOM      9  C   UNL     1     126.271 134.737 134.628  1.00  0.00     0.039 A 
ATOM     10  C   UNL     1     125.157 134.378 133.819  1.00  0.00    -0.014 A 
ATOM     11  C   UNL     1     124.014 133.810 134.399  1.00  0.00     0.013 A 
ATOM     12  C   UNL     1     123.925 133.663 135.778  1.00  0.00     0.051 A 
ATOM     13  C   UNL     1     124.935 134.161 136.603  1.00  0.00     0.158 A 
ATOM     14  C   UNL     1     126.080 134.754 136.040  1.00  0.00     0.166 A 
ENDROOT
BRANCH  14  15
ATOM     15  O   UNL     1     126.962 135.443 136.874  1.00  0.00    -0.504 OA
ATOM     16  H   UNL     1     127.503 134.983 137.597  1.00  0.00     0.293 HD
ENDBRANCH  14  15
BRANCH   5  17
ATOM     17  O   UNL     1     130.849 136.787 132.021  1.00  0.00    -0.508 OA
ATOM     18  H   UNL     1     130.830 137.744 131.687  1.00  0.00     0.293 HD
ENDBRANCH   5  17
BRANCH   7  19
ATOM     19  O   UNL     1     128.984 134.488 135.801  1.00  0.00    -0.507 OA
ATOM     20  H   UNL     1     128.519 133.616 136.026  1.00  0.00     0.293 HD
ENDBRANCH   7  19
BRANCH  13  21
ATOM     21  O   UNL     1     124.793 134.096 137.990  1.00  0.00    -0.504 OA
ATOM     22  H   UNL     1     123.900 133.891 138.424  1.00  0.00     0.293 HD
ENDBRANCH  13  21
TORSDOF 4
ENDMDL
MODEL 8
REMARK VINA RESULT:    -5.209     13.939     15.374
REMARK INTER + INTRA:          -5.818
REMARK INTER:                  -5.818
REMARK INTRA:                   0.000
REMARK UNBOUND:                 0.000
REMARK SMILES Oc1cc(O)c2c(ccc3ccc(O)c(O)c32)c1
REMARK SMILES IDX 9 1 8 2 7 3 18 4 2 5 3 6 4 7 6 8 17 9 10 10 11 11 12 12
REMARK SMILES IDX 13 13 15 14 16 15 1 17 5 19 14 21
REMARK H PARENT 16 16 1 18 5 20 14 22
REMARK Flexibility Score: inf
ROOT
ATOM      1  C   UNL     1     124.735 134.996 132.379  1.00  0.00     0.009 A 
ATOM      2  C   UNL     1     125.716 135.942 132.642  1.00  0.00     0.009 A 
ATOM      3  C   UNL     1     126.886 135.580 133.320  1.00  0.00    -0.010 A 
ATOM      4  C   UNL     1     127.893 136.539 133.506  1.00  0.00     0.055 A 
ATOM      5  C   UNL     1     129.121 136.174 134.058  1.00  0.00     0.119 A 
ATOM      6  C   UNL     1     129.370 134.839 134.366  1.00  0.00     0.093 A 
ATOM      7  C   UNL     1     128.384 133.861 134.166  1.00  0.00     0.127 A 
ATOM      8  C   UNL     1     127.071 134.242 133.770  1.00  0.00     0.035 A 
ATOM      9  C   UNL     1     125.960 133.338 133.702  1.00  0.00     0.039 A 
ATOM     10  C   UNL     1     124.838 133.703 132.907  1.00  0.00    -0.014 A 
ATOM     11  C   UNL     1     123.800 132.788 132.680  1.00  0.00     0.013 A 
ATOM     12  C   UNL     1     123.818 131.541 133.293  1.00  0.00     0.051 A 
ATOM     13  C   UNL     1     124.823 131.223 134.208  1.00  0.00     0.158 A 
ATOM     14  C   UNL     1     125.861 132.138 134.464  1.00  0.00     0.166 A 
ENDROOT
BRANCH  14  15
ATOM     15  O   UNL     1     126.720 131.900 135.539  1.00  0.00    -0.504 OA
ATOM     16  H   UNL     1     126.524 131.209 136.253  1.00  0.00     0.293 HD
ENDBRANCH  14  15
BRANCH   5  17
ATOM     17  O   UNL     1     130.118 137.125 134.266  1.00  0.00    -0.508 OA
ATOM     18  H   UNL     1     130.326 137.480 135.193  1.00  0.00     0.293 HD
ENDBRANCH   5  17
BRANCH   7  19
ATOM     19  O   UNL     1     128.755 132.521 134.264  1.00  0.00    -0.507 OA
ATOM     20  H   UNL     1     128.297 131.797 133.722  1.00  0.00     0.293 HD
ENDBRANCH   7  19
BRANCH  13  21
ATOM     21  O   UNL     1     124.781 130.007 134.891  1.00  0.00    -0.504 OA
ATOM     22  H   UNL     1     124.325 129.192 134.496  1.00  0.00     0.293 HD
ENDBRANCH  13  21
TORSDOF 4
ENDMDL
