MODEL 1
REMARK VINA RESULT:    -3.351      0.000      0.000
REMARK INTER + INTRA:          -3.751
REMARK INTER:                  -3.743
REMARK INTRA:                  -0.008
REMARK UNBOUND:                -0.008
REMARK SMILES CCCC(=O)[O-]
REMARK SMILES IDX 3 1 4 2 5 3 6 4 2 5 1 6
REMARK H PARENT
REMARK Flexibility Score: inf
ROOT
ATOM      1  C   UNL     1     -10.710 -16.888  28.783  1.00  0.00     0.052 C 
ENDROOT
BRANCH   1   2
ATOM      2  C   UNL     1     -11.074 -18.253  29.278  1.00  0.00     0.041 C 
ATOM      3  O   UNL     1     -10.174 -19.052  29.649  1.00  0.00    -0.550 OA
ATOM      4  O   UNL     1     -12.409 -18.623  29.375  1.00  0.00    -0.550 OA
ENDBRANCH   1   2
BRANCH   1   5
ATOM      5  C   UNL     1     -11.700 -16.424  27.712  1.00  0.00     0.003 C 
ATOM      6  C   UNL     1     -11.008 -15.572  26.654  1.00  0.00     0.004 C 
ENDBRANCH   1   5
TORSDOF 2
ENDMDL
MODEL 2
REMARK VINA RESULT:    -3.332      1.695      2.429
REMARK INTER + INTRA:          -3.730
REMARK INTER:                  -3.660
REMARK INTRA:                  -0.070
REMARK UNBOUND:                -0.008
REMARK SMILES CCCC(=O)[O-]
REMARK SMILES IDX 3 1 4 2 5 3 6 4 2 5 1 6
REMARK H PARENT
REMARK Flexibility Score: inf
ROOT
ATOM      1  C   UNL     1     -11.668 -17.353  28.267  1.00  0.00     0.052 C 
ENDROOT
BRANCH   1   2
ATOM      2  C   UNL     1     -10.619 -17.658  29.289  1.00  0.00     0.041 C 
ATOM      3  O   UNL     1     -10.057 -16.722  29.917  1.00  0.00    -0.550 OA
ATOM      4  O   UNL     1     -10.297 -18.976  29.582  1.00  0.00    -0.550 OA
ENDBRANCH   1   2
BRANCH   1   5
ATOM      5  C   UNL     1     -12.819 -16.565  28.898  1.00  0.00     0.003 C 
ATOM      6  C   UNL     1     -13.543 -17.396  29.952  1.00  0.00     0.004 C 
ENDBRANCH   1   5
TORSDOF 2
ENDMDL
MODEL 3
REMARK VINA RESULT:    -3.312      2.711      3.532
REMARK INTER + INTRA:          -3.707
REMARK INTER:                  -3.679
REMARK INTRA:                  -0.028
REMARK UNBOUND:                -0.008
REMARK SMILES CCCC(=O)[O-]
REMARK SMILES IDX 3 1 4 2 5 3 6 4 2 5 1 6
REMARK H PARENT
REMARK Flexibility Score: inf
ROOT
ATOM      1  C   UNL     1     -12.542 -16.314  27.737  1.00  0.00     0.052 C 
ENDROOT
BRANCH   1   2
ATOM      2  C   UNL     1     -11.142 -15.941  27.362  1.00  0.00     0.041 C 
ATOM      3  O   UNL     1     -10.920 -15.305  26.298  1.00  0.00    -0.550 OA
ATOM      4  O   UNL     1     -10.089 -16.253  28.212  1.00  0.00    -0.550 OA
ENDBRANCH   1   2
BRANCH   1   5
ATOM      5  C   UNL     1     -12.741 -16.198  29.250  1.00  0.00     0.003 C 
ATOM      6  C   UNL     1     -13.452 -17.426  29.808  1.00  0.00     0.004 C 
ENDBRANCH   1   5
TORSDOF 2
ENDMDL
MODEL 4
REMARK VINA RESULT:    -3.199      2.084      3.433
REMARK INTER + INTRA:          -3.581
REMARK INTER:                  -3.569
REMARK INTRA:                  -0.012
REMARK UNBOUND:                -0.008
REMARK SMILES CCCC(=O)[O-]
REMARK SMILES IDX 3 1 4 2 5 3 6 4 2 5 1 6
REMARK H PARENT
REMARK Flexibility Score: inf
ROOT
ATOM      1  C   UNL     1     -10.471 -16.933  28.861  1.00  0.00     0.052 C 
ENDROOT
BRANCH   1   2
ATOM      2  C   UNL     1     -11.511 -16.361  27.950  1.00  0.00     0.041 C 
ATOM      3  O   UNL     1     -12.733 -16.488  28.225  1.00  0.00    -0.550 OA
ATOM      4  O   UNL     1     -11.129 -15.645  26.823  1.00  0.00    -0.550 OA
ENDBRANCH   1   2
BRANCH   1   5
ATOM      5  C   UNL     1     -10.822 -18.376  29.236  1.00  0.00     0.003 C 
ATOM      6  C   UNL     1     -10.038 -18.833  30.461  1.00  0.00     0.004 C 
ENDBRANCH   1   5
TORSDOF 2
ENDMDL
MODEL 5
REMARK VINA RESULT:    -3.192      2.337      3.229
REMARK INTER + INTRA:          -3.574
REMARK INTER:                  -3.540
REMARK INTRA:                  -0.034
REMARK UNBOUND:                -0.008
REMARK SMILES CCCC(=O)[O-]
REMARK SMILES IDX 3 1 4 2 5 3 6 4 2 5 1 6
REMARK H PARENT
REMARK Flexibility Score: inf
ROOT
ATOM      1  C   UNL     1     -11.521 -16.803  29.341  1.00  0.00     0.052 C 
ENDROOT
BRANCH   1   2
ATOM      2  C   UNL     1     -13.014 -16.757  29.250  1.00  0.00     0.041 C 
ATOM      3  O   UNL     1     -13.572 -16.143  28.302  1.00  0.00    -0.550 OA
ATOM      4  O   UNL     1     -13.788 -17.433  30.184  1.00  0.00    -0.550 OA
ENDBRANCH   1   2
BRANCH   1   5
ATOM      5  C   UNL     1     -11.014 -18.231  29.123  1.00  0.00     0.003 C 
ATOM      6  C   UNL     1     -10.226 -18.726  30.332  1.00  0.00     0.004 C 
ENDBRANCH   1   5
TORSDOF 2
ENDMDL
MODEL 6
REMARK VINA RESULT:    -3.191      1.797      2.351
REMARK INTER + INTRA:          -3.572
REMARK INTER:                  -3.556
REMARK INTRA:                  -0.016
REMARK UNBOUND:                -0.008
REMARK SMILES CCCC(=O)[O-]
REMARK SMILES IDX 3 1 4 2 5 3 6 4 2 5 1 6
REMARK H PARENT
REMARK Flexibility Score: inf
ROOT
ATOM      1  C   UNL     1     -10.914 -15.626  26.926  1.00  0.00     0.052 C 
ENDROOT
BRANCH   1   2
ATOM      2  C   UNL     1     -10.974 -16.534  28.113  1.00  0.00     0.041 C 
ATOM      3  O   UNL     1     -10.144 -16.405  29.051  1.00  0.00    -0.550 OA
ATOM      4  O   UNL     1     -11.976 -17.491  28.205  1.00  0.00    -0.550 OA
ENDBRANCH   1   2
BRANCH   1   5
ATOM      5  C   UNL     1      -9.464 -15.241  26.618  1.00  0.00     0.003 C 
ATOM      6  C   UNL     1      -9.395 -13.923  25.854  1.00  0.00     0.004 C 
ENDBRANCH   1   5
TORSDOF 2
ENDMDL
MODEL 7
REMARK VINA RESULT:    -3.171      1.759      2.087
REMARK INTER + INTRA:          -3.550
REMARK INTER:                  -3.544
REMARK INTRA:                  -0.006
REMARK UNBOUND:                -0.008
REMARK SMILES CCCC(=O)[O-]
REMARK SMILES IDX 3 1 4 2 5 3 6 4 2 5 1 6
REMARK H PARENT
REMARK Flexibility Score: inf
ROOT
ATOM      1  C   UNL     1     -12.823 -16.392  28.760  1.00  0.00     0.052 C 
ENDROOT
BRANCH   1   2
ATOM      2  C   UNL     1     -12.792 -17.286  29.959  1.00  0.00     0.041 C 
ATOM      3  O   UNL     1     -13.375 -18.402  29.931  1.00  0.00    -0.550 OA
ATOM      4  O   UNL     1     -12.079 -16.909  31.089  1.00  0.00    -0.550 OA
ENDBRANCH   1   2
BRANCH   1   5
ATOM      5  C   UNL     1     -11.787 -16.843  27.728  1.00  0.00     0.003 C 
ATOM      6  C   UNL     1     -11.353 -15.681  26.840  1.00  0.00     0.004 C 
ENDBRANCH   1   5
TORSDOF 2
ENDMDL
MODEL 8
REMARK VINA RESULT:    -3.153      4.262      5.022
REMARK INTER + INTRA:          -3.530
REMARK INTER:                  -3.512
REMARK INTRA:                  -0.018
REMARK UNBOUND:                -0.008
REMARK SMILES CCCC(=O)[O-]
REMARK SMILES IDX 3 1 4 2 5 3 6 4 2 5 1 6
REMARK H PARENT
REMARK Flexibility Score: inf
ROOT
ATOM      1  C   UNL     1      -8.117 -15.271  26.558  1.00  0.00     0.052 C 
ENDROOT
BRANCH   1   2
ATOM      2  C   UNL     1      -7.172 -14.518  27.440  1.00  0.00     0.041 C 
ATOM      3  O   UNL     1      -6.132 -13.998  26.955  1.00  0.00    -0.550 OA
ATOM      4  O   UNL     1      -7.463 -14.349  28.787  1.00  0.00    -0.550 OA
ENDBRANCH   1   2
BRANCH   1   5
ATOM      5  C   UNL     1      -9.333 -14.407  26.214  1.00  0.00     0.003 C 
ATOM      6  C   UNL     1     -10.630 -15.195  26.367  1.00  0.00     0.004 C 
ENDBRANCH   1   5
TORSDOF 2
ENDMDL
MODEL 9
REMARK VINA RESULT:    -3.113      4.622      5.227
REMARK INTER + INTRA:          -3.485
REMARK INTER:                  -3.460
REMARK INTRA:                  -0.026
REMARK UNBOUND:                -0.008
REMARK SMILES CCCC(=O)[O-]
REMARK SMILES IDX 3 1 4 2 5 3 6 4 2 5 1 6
REMARK H PARENT
REMARK Flexibility Score: inf
ROOT
ATOM      1  C   UNL     1      -8.118 -15.255  26.506  1.00  0.00     0.052 C 
ENDROOT
BRANCH   1   2
ATOM      2  C   UNL     1      -9.399 -14.573  26.140  1.00  0.00     0.041 C 
ATOM      3  O   UNL     1      -9.377 -13.446  25.578  1.00  0.00    -0.550 OA
ATOM      4  O   UNL     1     -10.613 -15.203  26.375  1.00  0.00    -0.550 OA
ENDBRANCH   1   2
BRANCH   1   5
ATOM      5  C   UNL     1      -7.376 -14.460  27.583  1.00  0.00     0.003 C 
ATOM      6  C   UNL     1      -5.901 -14.299  27.231  1.00  0.00     0.004 C 
ENDBRANCH   1   5
TORSDOF 2
ENDMDL
