MODEL 1
REMARK VINA RESULT:    -4.388      0.000      0.000
REMARK INTER + INTRA:          -7.508
REMARK INTER:                  -6.953
REMARK INTRA:                  -0.555
REMARK UNBOUND:                -0.555
REMARK SMILES CCCCCCCCCCCC(=O)[O-]
REMARK SMILES IDX 7 1 8 2 9 3 10 4 11 5 12 6 13 7 14 8 6 9 5 10 4 11 3 12 2 13
REMARK SMILES IDX 1 14
REMARK H PARENT
REMARK Flexibility Score: inf
ROOT
ATOM      1  C   UNL     1     100.165 -69.712   5.691  1.00  0.00     0.000 C 
ENDROOT
BRANCH   1   2
ATOM      2  C   UNL     1     100.146 -68.582   4.656  1.00  0.00     0.000 C 
BRANCH   2   3
ATOM      3  C   UNL     1      98.711 -68.125   4.363  1.00  0.00     0.000 C 
BRANCH   3   4
ATOM      4  C   UNL     1      98.274 -68.548   2.956  1.00  0.00     0.006 C 
BRANCH   4   5
ATOM      5  C   UNL     1      98.958 -67.692   1.888  1.00  0.00     0.053 C 
BRANCH   5   6
ATOM      6  C   UNL     1      99.511 -68.555   0.799  1.00  0.00     0.041 C 
ATOM      7  O   UNL     1     100.577 -68.230   0.213  1.00  0.00    -0.550 OA
ATOM      8  O   UNL     1      98.877 -69.745   0.464  1.00  0.00    -0.550 OA
ENDBRANCH   5   6
ENDBRANCH   4   5
ENDBRANCH   3   4
ENDBRANCH   2   3
ENDBRANCH   1   2
BRANCH   1   9
ATOM      9  C   UNL     1     101.161 -69.412   6.817  1.00  0.00     0.000 C 
BRANCH   9  10
ATOM     10  C   UNL     1     101.262 -67.901   7.073  1.00  0.00    -0.000 C 
BRANCH  10  11
ATOM     11  C   UNL     1     100.808 -67.503   8.488  1.00  0.00    -0.000 C 
BRANCH  11  12
ATOM     12  C   UNL     1     100.733 -68.663   9.502  1.00  0.00    -0.000 C 
BRANCH  12  13
ATOM     13  C   UNL     1     100.287 -68.260  10.918  1.00  0.00    -0.003 C 
ATOM     14  C   UNL     1     100.002 -66.766  11.051  1.00  0.00     0.004 C 
ENDBRANCH  12  13
ENDBRANCH  11  12
ENDBRANCH  10  11
ENDBRANCH   9  10
ENDBRANCH   1   9
TORSDOF 10
ENDMDL
MODEL 2
REMARK VINA RESULT:    -4.282      1.058      1.788
REMARK INTER + INTRA:          -7.340
REMARK INTER:                  -6.793
REMARK INTRA:                  -0.547
REMARK UNBOUND:                -0.555
REMARK SMILES CCCCCCCCCCCC(=O)[O-]
REMARK SMILES IDX 7 1 8 2 9 3 10 4 11 5 12 6 13 7 14 8 6 9 5 10 4 11 3 12 2 13
REMARK SMILES IDX 1 14
REMARK H PARENT
REMARK Flexibility Score: inf
ROOT
ATOM      1  C   UNL     1      99.964 -68.609   4.482  1.00  0.00     0.000 C 
ENDROOT
BRANCH   1   2
ATOM      2  C   UNL     1      98.519 -68.139   4.276  1.00  0.00     0.000 C 
BRANCH   2   3
ATOM      3  C   UNL     1      98.250 -67.812   2.802  1.00  0.00     0.000 C 
BRANCH   3   4
ATOM      4  C   UNL     1      99.350 -68.385   1.900  1.00  0.00     0.006 C 
BRANCH   4   5
ATOM      5  C   UNL     1      99.027 -68.151   0.423  1.00  0.00     0.053 C 
BRANCH   5   6
ATOM      6  C   UNL     1      98.531 -69.411  -0.212  1.00  0.00     0.041 C 
ATOM      7  O   UNL     1      98.450 -70.471   0.463  1.00  0.00    -0.550 OA
ATOM      8  O   UNL     1      98.110 -69.405  -1.536  1.00  0.00    -0.550 OA
ENDBRANCH   5   6
ENDBRANCH   4   5
ENDBRANCH   3   4
ENDBRANCH   2   3
ENDBRANCH   1   2
BRANCH   1   9
ATOM      9  C   UNL     1     100.067 -69.569   5.672  1.00  0.00     0.000 C 
BRANCH   9  10
ATOM     10  C   UNL     1     101.159 -69.115   6.651  1.00  0.00    -0.000 C 
BRANCH  10  11
ATOM     11  C   UNL     1     101.019 -67.638   7.061  1.00  0.00    -0.000 C 
BRANCH  11  12
ATOM     12  C   UNL     1     100.860 -67.392   8.576  1.00  0.00    -0.000 C 
BRANCH  12  13
ATOM     13  C   UNL     1     100.975 -68.651   9.454  1.00  0.00    -0.003 C 
ATOM     14  C   UNL     1     100.352 -68.472  10.837  1.00  0.00     0.004 C 
ENDBRANCH  12  13
ENDBRANCH  11  12
ENDBRANCH  10  11
ENDBRANCH   9  10
ENDBRANCH   1   9
TORSDOF 10
ENDMDL
MODEL 3
REMARK VINA RESULT:    -4.278      0.939      1.196
REMARK INTER + INTRA:          -7.334
REMARK INTER:                  -6.809
REMARK INTRA:                  -0.525
REMARK UNBOUND:                -0.555
REMARK SMILES CCCCCCCCCCCC(=O)[O-]
REMARK SMILES IDX 7 1 8 2 9 3 10 4 11 5 12 6 13 7 14 8 6 9 5 10 4 11 3 12 2 13
REMARK SMILES IDX 1 14
REMARK H PARENT
REMARK Flexibility Score: inf
ROOT
ATOM      1  C   UNL     1     100.048 -69.436   5.564  1.00  0.00     0.000 C 
ENDROOT
BRANCH   1   2
ATOM      2  C   UNL     1      99.798 -68.231   4.650  1.00  0.00     0.000 C 
BRANCH   2   3
ATOM      3  C   UNL     1      98.557 -68.450   3.775  1.00  0.00     0.000 C 
BRANCH   3   4
ATOM      4  C   UNL     1      98.630 -67.610   2.495  1.00  0.00     0.006 C 
BRANCH   4   5
ATOM      5  C   UNL     1      99.707 -68.144   1.547  1.00  0.00     0.053 C 
BRANCH   5   6
ATOM      6  C   UNL     1      99.080 -68.782   0.348  1.00  0.00     0.041 C 
ATOM      7  O   UNL     1      98.941 -68.127  -0.718  1.00  0.00    -0.550 OA
ATOM      8  O   UNL     1      98.695 -70.116   0.392  1.00  0.00    -0.550 OA
ENDBRANCH   5   6
ENDBRANCH   4   5
ENDBRANCH   3   4
ENDBRANCH   2   3
ENDBRANCH   1   2
BRANCH   1   9
ATOM      9  C   UNL     1     101.549 -69.689   5.744  1.00  0.00     0.000 C 
BRANCH   9  10
ATOM     10  C   UNL     1     102.072 -69.010   7.018  1.00  0.00    -0.000 C 
BRANCH  10  11
ATOM     11  C   UNL     1     100.966 -68.754   8.057  1.00  0.00    -0.000 C 
BRANCH  11  12
ATOM     12  C   UNL     1     100.894 -67.309   8.593  1.00  0.00    -0.000 C 
BRANCH  12  13
ATOM     13  C   UNL     1     100.416 -67.180  10.050  1.00  0.00    -0.003 C 
ATOM     14  C   UNL     1     100.356 -68.521  10.779  1.00  0.00     0.004 C 
ENDBRANCH  12  13
ENDBRANCH  11  12
ENDBRANCH  10  11
ENDBRANCH   9  10
ENDBRANCH   1   9
TORSDOF 10
ENDMDL
MODEL 4
REMARK VINA RESULT:    -3.899      1.540      2.792
REMARK INTER + INTRA:          -6.733
REMARK INTER:                  -6.060
REMARK INTRA:                  -0.673
REMARK UNBOUND:                -0.555
REMARK SMILES CCCCCCCCCCCC(=O)[O-]
REMARK SMILES IDX 7 1 8 2 9 3 10 4 11 5 12 6 13 7 14 8 6 9 5 10 4 11 3 12 2 13
REMARK SMILES IDX 1 14
REMARK H PARENT
REMARK Flexibility Score: inf
ROOT
ATOM      1  C   UNL     1     100.441 -67.906   3.880  1.00  0.00     0.000 C 
ENDROOT
BRANCH   1   2
ATOM      2  C   UNL     1     100.395 -67.852   2.349  1.00  0.00     0.000 C 
BRANCH   2   3
ATOM      3  C   UNL     1      99.177 -67.057   1.861  1.00  0.00     0.000 C 
BRANCH   3   4
ATOM      4  C   UNL     1      99.106 -67.041   0.330  1.00  0.00     0.006 C 
BRANCH   4   5
ATOM      5  C   UNL     1      99.730 -68.307  -0.263  1.00  0.00     0.053 C 
BRANCH   5   6
ATOM      6  C   UNL     1      98.689 -69.362  -0.461  1.00  0.00     0.041 C 
ATOM      7  O   UNL     1      98.044 -69.421  -1.540  1.00  0.00    -0.550 OA
ATOM      8  O   UNL     1      98.465 -70.313   0.528  1.00  0.00    -0.550 OA
ENDBRANCH   5   6
ENDBRANCH   4   5
ENDBRANCH   3   4
ENDBRANCH   2   3
ENDBRANCH   1   2
BRANCH   1   9
ATOM      9  C   UNL     1      99.373 -68.859   4.431  1.00  0.00     0.000 C 
BRANCH   9  10
ATOM     10  C   UNL     1      99.954 -69.758   5.531  1.00  0.00    -0.000 C 
BRANCH  10  11
ATOM     11  C   UNL     1     101.493 -69.733   5.574  1.00  0.00    -0.000 C 
BRANCH  11  12
ATOM     12  C   UNL     1     102.101 -69.137   6.860  1.00  0.00    -0.000 C 
BRANCH  12  13
ATOM     13  C   UNL     1     101.091 -68.461   7.803  1.00  0.00    -0.003 C 
ATOM     14  C   UNL     1     101.326 -68.802   9.273  1.00  0.00     0.004 C 
ENDBRANCH  12  13
ENDBRANCH  11  12
ENDBRANCH  10  11
ENDBRANCH   9  10
ENDBRANCH   1   9
TORSDOF 10
ENDMDL
MODEL 5
REMARK VINA RESULT:    -3.889      2.249      2.564
REMARK INTER + INTRA:          -6.718
REMARK INTER:                  -6.203
REMARK INTRA:                  -0.515
REMARK UNBOUND:                -0.555
REMARK SMILES CCCCCCCCCCCC(=O)[O-]
REMARK SMILES IDX 7 1 8 2 9 3 10 4 11 5 12 6 13 7 14 8 6 9 5 10 4 11 3 12 2 13
REMARK SMILES IDX 1 14
REMARK H PARENT
REMARK Flexibility Score: inf
ROOT
ATOM      1  C   UNL     1     100.252 -69.059   6.457  1.00  0.00     0.000 C 
ENDROOT
BRANCH   1   2
ATOM      2  C   UNL     1      99.903 -69.470   5.022  1.00  0.00     0.000 C 
BRANCH   2   3
ATOM      3  C   UNL     1      99.753 -68.240   4.117  1.00  0.00     0.000 C 
BRANCH   3   4
ATOM      4  C   UNL     1      98.478 -68.332   3.270  1.00  0.00     0.006 C 
BRANCH   4   5
ATOM      5  C   UNL     1      97.307 -67.629   3.961  1.00  0.00     0.053 C 
BRANCH   5   6
ATOM      6  C   UNL     1      97.098 -66.266   3.383  1.00  0.00     0.041 C 
ATOM      7  O   UNL     1      96.320 -65.452   3.946  1.00  0.00    -0.550 OA
ATOM      8  O   UNL     1      97.801 -65.875   2.250  1.00  0.00    -0.550 OA
ENDBRANCH   5   6
ENDBRANCH   4   5
ENDBRANCH   3   4
ENDBRANCH   2   3
ENDBRANCH   1   2
BRANCH   1   9
ATOM      9  C   UNL     1     101.761 -69.161   6.707  1.00  0.00     0.000 C 
BRANCH   9  10
ATOM     10  C   UNL     1     102.113 -68.717   8.135  1.00  0.00    -0.000 C 
BRANCH  10  11
ATOM     11  C   UNL     1     100.923 -68.076   8.871  1.00  0.00    -0.000 C 
BRANCH  11  12
ATOM     12  C   UNL     1     100.594 -68.695  10.245  1.00  0.00    -0.000 C 
BRANCH  12  13
ATOM     13  C   UNL     1     100.153 -67.688  11.322  1.00  0.00    -0.003 C 
ATOM     14  C   UNL     1     100.049 -66.258  10.795  1.00  0.00     0.004 C 
ENDBRANCH  12  13
ENDBRANCH  11  12
ENDBRANCH  10  11
ENDBRANCH   9  10
ENDBRANCH   1   9
TORSDOF 10
ENDMDL
MODEL 6
REMARK VINA RESULT:    -3.850      1.917      3.680
REMARK INTER + INTRA:          -6.655
REMARK INTER:                  -5.463
REMARK INTRA:                  -1.193
REMARK UNBOUND:                -0.555
REMARK SMILES CCCCCCCCCCCC(=O)[O-]
REMARK SMILES IDX 7 1 8 2 9 3 10 4 11 5 12 6 13 7 14 8 6 9 5 10 4 11 3 12 2 13
REMARK SMILES IDX 1 14
REMARK H PARENT
REMARK Flexibility Score: inf
ROOT
ATOM      1  C   UNL     1      99.268 -66.169   3.709  1.00  0.00     0.000 C 
ENDROOT
BRANCH   1   2
ATOM      2  C   UNL     1      99.027 -65.187   2.557  1.00  0.00     0.000 C 
BRANCH   2   3
ATOM      3  C   UNL     1      98.262 -65.859   1.410  1.00  0.00     0.000 C 
BRANCH   3   4
ATOM      4  C   UNL     1      99.142 -65.989   0.162  1.00  0.00     0.006 C 
BRANCH   4   5
ATOM      5  C   UNL     1      99.013 -67.382  -0.460  1.00  0.00     0.053 C 
BRANCH   5   6
ATOM      6  C   UNL     1      99.560 -68.422   0.465  1.00  0.00     0.041 C 
ATOM      7  O   UNL     1      98.956 -69.516   0.617  1.00  0.00    -0.550 OA
ATOM      8  O   UNL     1     100.765 -68.204   1.122  1.00  0.00    -0.550 OA
ENDBRANCH   5   6
ENDBRANCH   4   5
ENDBRANCH   3   4
ENDBRANCH   2   3
ENDBRANCH   1   2
BRANCH   1   9
ATOM      9  C   UNL     1      98.076 -67.116   3.885  1.00  0.00     0.000 C 
BRANCH   9  10
ATOM     10  C   UNL     1      98.547 -68.569   4.040  1.00  0.00    -0.000 C 
BRANCH  10  11
ATOM     11  C   UNL     1      99.999 -68.677   4.541  1.00  0.00    -0.000 C 
BRANCH  11  12
ATOM     12  C   UNL     1     100.210 -69.635   5.731  1.00  0.00    -0.000 C 
BRANCH  12  13
ATOM     13  C   UNL     1     100.854 -68.995   6.973  1.00  0.00    -0.003 C 
ATOM     14  C   UNL     1     101.065 -67.489   6.827  1.00  0.00     0.004 C 
ENDBRANCH  12  13
ENDBRANCH  11  12
ENDBRANCH  10  11
ENDBRANCH   9  10
ENDBRANCH   1   9
TORSDOF 10
ENDMDL
MODEL 7
REMARK VINA RESULT:    -3.731      3.363      4.539
REMARK INTER + INTRA:          -6.467
REMARK INTER:                  -4.845
REMARK INTRA:                  -1.621
REMARK UNBOUND:                -0.555
REMARK SMILES CCCCCCCCCCCC(=O)[O-]
REMARK SMILES IDX 7 1 8 2 9 3 10 4 11 5 12 6 13 7 14 8 6 9 5 10 4 11 3 12 2 13
REMARK SMILES IDX 1 14
REMARK H PARENT
REMARK Flexibility Score: inf
ROOT
ATOM      1  C   UNL     1     101.873 -67.881   2.755  1.00  0.00     0.000 C 
ENDROOT
BRANCH   1   2
ATOM      2  C   UNL     1     101.433 -66.412   2.737  1.00  0.00     0.000 C 
BRANCH   2   3
ATOM      3  C   UNL     1     100.674 -66.080   1.446  1.00  0.00     0.000 C 
BRANCH   3   4
ATOM      4  C   UNL     1     100.493 -67.328   0.575  1.00  0.00     0.006 C 
BRANCH   4   5
ATOM      5  C   UNL     1      99.047 -67.458   0.093  1.00  0.00     0.053 C 
BRANCH   5   6
ATOM      6  C   UNL     1      98.777 -68.849  -0.388  1.00  0.00     0.041 C 
ATOM      7  O   UNL     1      98.551 -69.065  -1.607  1.00  0.00    -0.550 OA
ATOM      8  O   UNL     1      98.825 -69.914   0.503  1.00  0.00    -0.550 OA
ENDBRANCH   5   6
ENDBRANCH   4   5
ENDBRANCH   3   4
ENDBRANCH   2   3
ENDBRANCH   1   2
BRANCH   1   9
ATOM      9  C   UNL     1     101.391 -68.585   4.029  1.00  0.00     0.000 C 
BRANCH   9  10
ATOM     10  C   UNL     1     100.120 -67.920   4.576  1.00  0.00    -0.000 C 
BRANCH  10  11
ATOM     11  C   UNL     1      98.836 -68.681   4.199  1.00  0.00    -0.000 C 
BRANCH  11  12
ATOM     12  C   UNL     1      97.716 -67.813   3.590  1.00  0.00    -0.000 C 
BRANCH  12  13
ATOM     13  C   UNL     1      97.821 -66.309   3.896  1.00  0.00    -0.003 C 
ATOM     14  C   UNL     1      97.233 -65.433   2.792  1.00  0.00     0.004 C 
ENDBRANCH  12  13
ENDBRANCH  11  12
ENDBRANCH  10  11
ENDBRANCH   9  10
ENDBRANCH   1   9
TORSDOF 10
ENDMDL
MODEL 8
REMARK VINA RESULT:    -3.671      2.172      3.493
REMARK INTER + INTRA:          -6.372
REMARK INTER:                  -5.926
REMARK INTRA:                  -0.446
REMARK UNBOUND:                -0.555
REMARK SMILES CCCCCCCCCCCC(=O)[O-]
REMARK SMILES IDX 7 1 8 2 9 3 10 4 11 5 12 6 13 7 14 8 6 9 5 10 4 11 3 12 2 13
REMARK SMILES IDX 1 14
REMARK H PARENT
REMARK Flexibility Score: inf
ROOT
ATOM      1  C   UNL     1      98.739 -68.631   3.253  1.00  0.00     0.000 C 
ENDROOT
BRANCH   1   2
ATOM      2  C   UNL     1      99.300 -67.907   2.023  1.00  0.00     0.000 C 
BRANCH   2   3
ATOM      3  C   UNL     1      99.004 -68.691   0.739  1.00  0.00     0.000 C 
BRANCH   3   4
ATOM      4  C   UNL     1      99.550 -67.959  -0.492  1.00  0.00     0.006 C 
BRANCH   4   5
ATOM      5  C   UNL     1      98.751 -68.320  -1.747  1.00  0.00     0.053 C 
BRANCH   5   6
ATOM      6  C   UNL     1      97.794 -67.223  -2.093  1.00  0.00     0.041 C 
ATOM      7  O   UNL     1      97.672 -66.227  -1.333  1.00  0.00    -0.550 OA
ATOM      8  O   UNL     1      97.075 -67.276  -3.280  1.00  0.00    -0.550 OA
ENDBRANCH   5   6
ENDBRANCH   4   5
ENDBRANCH   3   4
ENDBRANCH   2   3
ENDBRANCH   1   2
BRANCH   1   9
ATOM      9  C   UNL     1      99.500 -68.232   4.522  1.00  0.00     0.000 C 
BRANCH   9  10
ATOM     10  C   UNL     1      99.860 -69.469   5.358  1.00  0.00    -0.000 C 
BRANCH  10  11
ATOM     11  C   UNL     1     101.378 -69.710   5.446  1.00  0.00    -0.000 C 
BRANCH  11  12
ATOM     12  C   UNL     1     102.031 -69.287   6.778  1.00  0.00    -0.000 C 
BRANCH  12  13
ATOM     13  C   UNL     1     101.047 -68.808   7.860  1.00  0.00    -0.003 C 
ATOM     14  C   UNL     1     101.098 -67.299   8.087  1.00  0.00     0.004 C 
ENDBRANCH  12  13
ENDBRANCH  11  12
ENDBRANCH  10  11
ENDBRANCH   9  10
ENDBRANCH   1   9
TORSDOF 10
ENDMDL
MODEL 9
REMARK VINA RESULT:    -3.656      2.660      3.916
REMARK INTER + INTRA:          -6.348
REMARK INTER:                  -5.211
REMARK INTRA:                  -1.137
REMARK UNBOUND:                -0.555
REMARK SMILES CCCCCCCCCCCC(=O)[O-]
REMARK SMILES IDX 7 1 8 2 9 3 10 4 11 5 12 6 13 7 14 8 6 9 5 10 4 11 3 12 2 13
REMARK SMILES IDX 1 14
REMARK H PARENT
REMARK Flexibility Score: inf
ROOT
ATOM      1  C   UNL     1      97.874 -67.552   3.789  1.00  0.00     0.000 C 
ENDROOT
BRANCH   1   2
ATOM      2  C   UNL     1      98.375 -68.651   2.845  1.00  0.00     0.000 C 
BRANCH   2   3
ATOM      3  C   UNL     1      99.408 -68.098   1.855  1.00  0.00     0.000 C 
BRANCH   3   4
ATOM      4  C   UNL     1      99.144 -68.617   0.436  1.00  0.00     0.006 C 
BRANCH   4   5
ATOM      5  C   UNL     1      98.892 -67.461  -0.534  1.00  0.00     0.053 C 
BRANCH   5   6
ATOM      6  C   UNL     1      98.226 -67.956  -1.779  1.00  0.00     0.041 C 
ATOM      7  O   UNL     1      98.577 -69.050  -2.293  1.00  0.00    -0.550 OA
ATOM      8  O   UNL     1      97.182 -67.234  -2.343  1.00  0.00    -0.550 OA
ENDBRANCH   5   6
ENDBRANCH   4   5
ENDBRANCH   3   4
ENDBRANCH   2   3
ENDBRANCH   1   2
BRANCH   1   9
ATOM      9  C   UNL     1      98.564 -66.215   3.495  1.00  0.00     0.000 C 
BRANCH   9  10
ATOM     10  C   UNL     1      99.274 -65.676   4.745  1.00  0.00    -0.000 C 
BRANCH  10  11
ATOM     11  C   UNL     1     100.689 -66.254   4.925  1.00  0.00    -0.000 C 
BRANCH  11  12
ATOM     12  C   UNL     1     100.811 -67.368   5.985  1.00  0.00    -0.000 C 
BRANCH  12  13
ATOM     13  C   UNL     1     101.152 -68.761   5.428  1.00  0.00    -0.003 C 
ATOM     14  C   UNL     1     100.150 -69.834   5.851  1.00  0.00     0.004 C 
ENDBRANCH  12  13
ENDBRANCH  11  12
ENDBRANCH  10  11
ENDBRANCH   9  10
ENDBRANCH   1   9
TORSDOF 10
ENDMDL
