MODEL 1
REMARK VINA RESULT:    -4.627      0.000      0.000
REMARK INTER + INTRA:          -5.645
REMARK INTER:                  -5.303
REMARK INTRA:                  -0.342
REMARK UNBOUND:                -0.342
REMARK SMILES COc1ccc(C(C)=O)c(O)c1
REMARK SMILES IDX 6 1 10 2 12 3 3 4 4 5 5 6 7 7 8 8 9 9 11 10 2 12 1 13
REMARK H PARENT 11 11
REMARK Flexibility Score: inf
ROOT
ATOM      1  C   UNL     1      11.665 -10.215 -43.861  1.00  0.00     0.059 A 
ATOM      2  C   UNL     1      12.965 -10.582 -44.285  1.00  0.00     0.130 A 
ATOM      3  C   UNL     1      13.408 -11.899 -44.108  1.00  0.00     0.093 A 
ATOM      4  C   UNL     1      12.574 -12.871 -43.549  1.00  0.00     0.122 A 
ATOM      5  C   UNL     1      11.273 -12.514 -43.156  1.00  0.00     0.047 A 
ATOM      6  C   UNL     1      10.827 -11.201 -43.310  1.00  0.00     0.019 A 
ENDROOT
BRANCH   1   7
ATOM      7  C   UNL     1      11.175  -8.819 -43.945  1.00  0.00     0.163 C 
ATOM      8  C   UNL     1      10.463  -8.177 -42.794  1.00  0.00     0.093 C 
ATOM      9  O   UNL     1      11.427  -8.124 -44.966  1.00  0.00    -0.294 OA
ENDBRANCH   1   7
BRANCH   2  10
ATOM     10  O   UNL     1      13.831  -9.681 -44.909  1.00  0.00    -0.507 OA
ATOM     11  H   UNL     1      13.643  -8.691 -44.986  1.00  0.00     0.293 HD
ENDBRANCH   2  10
BRANCH   4  12
ATOM     12  O   UNL     1      13.073 -14.174 -43.405  1.00  0.00    -0.497 OA
ATOM     13  C   UNL     1      14.074 -14.749 -44.238  1.00  0.00     0.278 C 
ENDBRANCH   4  12
TORSDOF 3
ENDMDL
MODEL 2
REMARK VINA RESULT:    -4.611      3.094      3.711
REMARK INTER + INTRA:          -5.627
REMARK INTER:                  -5.299
REMARK INTRA:                  -0.327
REMARK UNBOUND:                -0.342
REMARK SMILES COc1ccc(C(C)=O)c(O)c1
REMARK SMILES IDX 6 1 10 2 12 3 3 4 4 5 5 6 7 7 8 8 9 9 11 10 2 12 1 13
REMARK H PARENT 11 11
REMARK Flexibility Score: inf
ROOT
ATOM      1  C   UNL     1      10.070 -10.106 -44.900  1.00  0.00     0.059 A 
ATOM      2  C   UNL     1      10.755 -11.344 -44.945  1.00  0.00     0.130 A 
ATOM      3  C   UNL     1      10.064 -12.508 -45.305  1.00  0.00     0.093 A 
ATOM      4  C   UNL     1       8.712 -12.465 -45.654  1.00  0.00     0.122 A 
ATOM      5  C   UNL     1       8.039 -11.231 -45.638  1.00  0.00     0.047 A 
ATOM      6  C   UNL     1       8.712 -10.068 -45.264  1.00  0.00     0.019 A 
ENDROOT
BRANCH   1   7
ATOM      7  C   UNL     1      10.729  -8.859 -44.444  1.00  0.00     0.163 C 
ATOM      8  C   UNL     1       9.997  -7.859 -43.602  1.00  0.00     0.093 C 
ATOM      9  O   UNL     1      11.948  -8.664 -44.695  1.00  0.00    -0.294 OA
ENDBRANCH   1   7
BRANCH   2  10
ATOM     10  O   UNL     1      12.120 -11.455 -44.671  1.00  0.00    -0.507 OA
ATOM     11  H   UNL     1      12.579 -10.956 -43.922  1.00  0.00     0.293 HD
ENDBRANCH   2  10
BRANCH   4  12
ATOM     12  O   UNL     1       8.078 -13.664 -46.013  1.00  0.00    -0.497 OA
ATOM     13  C   UNL     1       6.796 -14.068 -45.542  1.00  0.00     0.278 C 
ENDBRANCH   4  12
TORSDOF 3
ENDMDL
MODEL 3
REMARK VINA RESULT:    -4.388      1.704      4.865
REMARK INTER + INTRA:          -5.371
REMARK INTER:                  -5.030
REMARK INTRA:                  -0.340
REMARK UNBOUND:                -0.342
REMARK SMILES COc1ccc(C(C)=O)c(O)c1
REMARK SMILES IDX 6 1 10 2 12 3 3 4 4 5 5 6 7 7 8 8 9 9 11 10 2 12 1 13
REMARK H PARENT 11 11
REMARK Flexibility Score: inf
ROOT
ATOM      1  C   UNL     1      13.114 -11.455 -43.683  1.00  0.00     0.059 A 
ATOM      2  C   UNL     1      11.858 -11.776 -43.112  1.00  0.00     0.130 A 
ATOM      3  C   UNL     1      10.801 -10.862 -43.199  1.00  0.00     0.093 A 
ATOM      4  C   UNL     1      10.952  -9.647 -43.872  1.00  0.00     0.122 A 
ATOM      5  C   UNL     1      12.188  -9.340 -44.465  1.00  0.00     0.047 A 
ATOM      6  C   UNL     1      13.255 -10.235 -44.369  1.00  0.00     0.019 A 
ENDROOT
BRANCH   1   7
ATOM      7  C   UNL     1      14.291 -12.345 -43.547  1.00  0.00     0.163 C 
ATOM      8  C   UNL     1      15.594 -11.830 -43.018  1.00  0.00     0.093 C 
ATOM      9  O   UNL     1      14.182 -13.574 -43.801  1.00  0.00    -0.294 OA
ENDBRANCH   1   7
BRANCH   2  10
ATOM     10  O   UNL     1      11.615 -12.997 -42.480  1.00  0.00    -0.507 OA
ATOM     11  H   UNL     1      11.725 -13.141 -41.485  1.00  0.00     0.293 HD
ENDBRANCH   2  10
BRANCH   4  12
ATOM     12  O   UNL     1       9.852  -8.777 -43.931  1.00  0.00    -0.497 OA
ATOM     13  C   UNL     1       9.798  -7.505 -43.295  1.00  0.00     0.278 C 
ENDBRANCH   4  12
TORSDOF 3
ENDMDL
MODEL 4
REMARK VINA RESULT:    -4.382      3.124      3.894
REMARK INTER + INTRA:          -5.365
REMARK INTER:                  -5.027
REMARK INTRA:                  -0.337
REMARK UNBOUND:                -0.342
REMARK SMILES COc1ccc(C(C)=O)c(O)c1
REMARK SMILES IDX 6 1 10 2 12 3 3 4 4 5 5 6 7 7 8 8 9 9 11 10 2 12 1 13
REMARK H PARENT 11 11
REMARK Flexibility Score: inf
ROOT
ATOM      1  C   UNL     1      10.021 -10.451 -44.903  1.00  0.00     0.059 A 
ATOM      2  C   UNL     1       8.789 -10.843 -45.481  1.00  0.00     0.130 A 
ATOM      3  C   UNL     1       8.616 -12.161 -45.922  1.00  0.00     0.093 A 
ATOM      4  C   UNL     1       9.630 -13.111 -45.771  1.00  0.00     0.122 A 
ATOM      5  C   UNL     1      10.842 -12.730 -45.170  1.00  0.00     0.047 A 
ATOM      6  C   UNL     1      11.033 -11.415 -44.743  1.00  0.00     0.019 A 
ENDROOT
BRANCH   1   7
ATOM      7  C   UNL     1      10.290  -9.051 -44.499  1.00  0.00     0.163 C 
ATOM      8  C   UNL     1      11.616  -8.408 -44.765  1.00  0.00     0.093 C 
ATOM      9  O   UNL     1       9.368  -8.355 -43.994  1.00  0.00    -0.294 OA
ENDBRANCH   1   7
BRANCH   2  10
ATOM     10  O   UNL     1       7.709  -9.966 -45.607  1.00  0.00    -0.507 OA
ATOM     11  H   UNL     1       6.834 -10.220 -46.046  1.00  0.00     0.293 HD
ENDBRANCH   2  10
BRANCH   4  12
ATOM     12  O   UNL     1       9.393 -14.417 -46.225  1.00  0.00    -0.497 OA
ATOM     13  C   UNL     1       8.220 -14.825 -46.922  1.00  0.00     0.278 C 
ENDBRANCH   4  12
TORSDOF 3
ENDMDL
MODEL 5
REMARK VINA RESULT:    -4.320      1.959      2.676
REMARK INTER + INTRA:          -5.293
REMARK INTER:                  -5.148
REMARK INTRA:                  -0.145
REMARK UNBOUND:                -0.342
REMARK SMILES COc1ccc(C(C)=O)c(O)c1
REMARK SMILES IDX 6 1 10 2 12 3 3 4 4 5 5 6 7 7 8 8 9 9 11 10 2 12 1 13
REMARK H PARENT 11 11
REMARK Flexibility Score: inf
ROOT
ATOM      1  C   UNL     1      10.613  -9.898 -44.429  1.00  0.00     0.059 A 
ATOM      2  C   UNL     1       9.494 -10.580 -44.966  1.00  0.00     0.130 A 
ATOM      3  C   UNL     1       9.549 -11.967 -45.152  1.00  0.00     0.093 A 
ATOM      4  C   UNL     1      10.681 -12.699 -44.787  1.00  0.00     0.122 A 
ATOM      5  C   UNL     1      11.781 -12.027 -44.226  1.00  0.00     0.047 A 
ATOM      6  C   UNL     1      11.745 -10.643 -44.052  1.00  0.00     0.019 A 
ENDROOT
BRANCH   1   7
ATOM      7  C   UNL     1      10.642  -8.423 -44.289  1.00  0.00     0.163 C 
ATOM      8  C   UNL     1       9.944  -7.738 -43.154  1.00  0.00     0.093 C 
ATOM      9  O   UNL     1      11.329  -7.729 -45.086  1.00  0.00    -0.294 OA
ENDBRANCH   1   7
BRANCH   2  10
ATOM     10  O   UNL     1       8.306  -9.924 -45.295  1.00  0.00    -0.507 OA
ATOM     11  H   UNL     1       7.433 -10.076 -44.808  1.00  0.00     0.293 HD
ENDBRANCH   2  10
BRANCH   4  12
ATOM     12  O   UNL     1      10.673 -14.087 -44.992  1.00  0.00    -0.497 OA
ATOM     13  C   UNL     1      11.436 -15.017 -44.231  1.00  0.00     0.278 C 
ENDBRANCH   4  12
TORSDOF 3
ENDMDL
MODEL 6
REMARK VINA RESULT:    -4.262      1.692      2.323
REMARK INTER + INTRA:          -5.227
REMARK INTER:                  -4.897
REMARK INTRA:                  -0.330
REMARK UNBOUND:                -0.342
REMARK SMILES COc1ccc(C(C)=O)c(O)c1
REMARK SMILES IDX 6 1 10 2 12 3 3 4 4 5 5 6 7 7 8 8 9 9 11 10 2 12 1 13
REMARK H PARENT 11 11
REMARK Flexibility Score: inf
ROOT
ATOM      1  C   UNL     1      11.166 -10.657 -44.236  1.00  0.00     0.059 A 
ATOM      2  C   UNL     1      10.843 -12.029 -44.098  1.00  0.00     0.130 A 
ATOM      3  C   UNL     1      11.868 -12.974 -43.960  1.00  0.00     0.093 A 
ATOM      4  C   UNL     1      13.209 -12.582 -43.922  1.00  0.00     0.122 A 
ATOM      5  C   UNL     1      13.528 -11.218 -44.030  1.00  0.00     0.047 A 
ATOM      6  C   UNL     1      12.517 -10.269 -44.185  1.00  0.00     0.019 A 
ENDROOT
BRANCH   1   7
ATOM      7  C   UNL     1      10.128  -9.625 -44.470  1.00  0.00     0.163 C 
ATOM      8  C   UNL     1      10.348  -8.200 -44.066  1.00  0.00     0.093 C 
ATOM      9  O   UNL     1       9.073  -9.924 -45.091  1.00  0.00    -0.294 OA
ENDBRANCH   1   7
BRANCH   2  10
ATOM     10  O   UNL     1       9.525 -12.488 -44.062  1.00  0.00    -0.507 OA
ATOM     11  H   UNL     1       8.789 -12.112 -44.644  1.00  0.00     0.293 HD
ENDBRANCH   2  10
BRANCH   4  12
ATOM     12  O   UNL     1      14.189 -13.575 -43.775  1.00  0.00    -0.497 OA
ATOM     13  C   UNL     1      14.029 -14.930 -44.182  1.00  0.00     0.278 C 
ENDBRANCH   4  12
TORSDOF 3
ENDMDL
MODEL 7
REMARK VINA RESULT:    -4.195      3.463      5.289
REMARK INTER + INTRA:          -5.150
REMARK INTER:                  -4.822
REMARK INTRA:                  -0.328
REMARK UNBOUND:                -0.342
REMARK SMILES COc1ccc(C(C)=O)c(O)c1
REMARK SMILES IDX 6 1 10 2 12 3 3 4 4 5 5 6 7 7 8 8 9 9 11 10 2 12 1 13
REMARK H PARENT 11 11
REMARK Flexibility Score: inf
ROOT
ATOM      1  C   UNL     1       9.348 -11.954 -45.858  1.00  0.00     0.059 A 
ATOM      2  C   UNL     1       8.715 -10.730 -45.531  1.00  0.00     0.130 A 
ATOM      3  C   UNL     1       9.368  -9.810 -44.702  1.00  0.00     0.093 A 
ATOM      4  C   UNL     1      10.653 -10.063 -44.215  1.00  0.00     0.122 A 
ATOM      5  C   UNL     1      11.294 -11.265 -44.563  1.00  0.00     0.047 A 
ATOM      6  C   UNL     1      10.646 -12.197 -45.375  1.00  0.00     0.019 A 
ENDROOT
BRANCH   1   7
ATOM      7  C   UNL     1       8.670 -13.000 -46.661  1.00  0.00     0.163 C 
ATOM      8  C   UNL     1       9.456 -14.011 -47.438  1.00  0.00     0.093 C 
ATOM      9  O   UNL     1       7.414 -13.099 -46.632  1.00  0.00    -0.294 OA
ENDBRANCH   1   7
BRANCH   2  10
ATOM     10  O   UNL     1       7.459 -10.380 -46.032  1.00  0.00    -0.507 OA
ATOM     11  H   UNL     1       7.069 -10.770 -46.879  1.00  0.00     0.293 HD
ENDBRANCH   2  10
BRANCH   4  12
ATOM     12  O   UNL     1      11.257  -9.099 -43.394  1.00  0.00    -0.497 OA
ATOM     13  C   UNL     1      10.545  -8.117 -42.649  1.00  0.00     0.278 C 
ENDBRANCH   4  12
TORSDOF 3
ENDMDL
MODEL 8
REMARK VINA RESULT:    -4.183     12.535     14.483
REMARK INTER + INTRA:          -5.136
REMARK INTER:                  -4.799
REMARK INTRA:                  -0.337
REMARK UNBOUND:                -0.342
REMARK SMILES COc1ccc(C(C)=O)c(O)c1
REMARK SMILES IDX 6 1 10 2 12 3 3 4 4 5 5 6 7 7 8 8 9 9 11 10 2 12 1 13
REMARK H PARENT 11 11
REMARK Flexibility Score: inf
ROOT
ATOM      1  C   UNL     1       8.295 -22.410 -35.975  1.00  0.00     0.059 A 
ATOM      2  C   UNL     1       8.872 -21.192 -35.539  1.00  0.00     0.130 A 
ATOM      3  C   UNL     1       8.200 -19.984 -35.766  1.00  0.00     0.093 A 
ATOM      4  C   UNL     1       6.949 -19.961 -36.388  1.00  0.00     0.122 A 
ATOM      5  C   UNL     1       6.362 -21.172 -36.793  1.00  0.00     0.047 A 
ATOM      6  C   UNL     1       7.029 -22.380 -36.589  1.00  0.00     0.019 A 
ENDROOT
BRANCH   1   7
ATOM      7  C   UNL     1       8.999 -23.707 -35.838  1.00  0.00     0.163 C 
ATOM      8  C   UNL     1       9.068 -24.674 -36.979  1.00  0.00     0.093 C 
ATOM      9  O   UNL     1       9.621 -23.975 -34.776  1.00  0.00    -0.294 OA
ENDBRANCH   1   7
BRANCH   2  10
ATOM     10  O   UNL     1      10.088 -21.143 -34.855  1.00  0.00    -0.507 OA
ATOM     11  H   UNL     1      10.365 -20.369 -34.267  1.00  0.00     0.293 HD
ENDBRANCH   2  10
BRANCH   4  12
ATOM     12  O   UNL     1       6.323 -18.720 -36.580  1.00  0.00    -0.497 OA
ATOM     13  C   UNL     1       5.927 -17.847 -35.527  1.00  0.00     0.278 C 
ENDBRANCH   4  12
TORSDOF 3
ENDMDL
MODEL 9
REMARK VINA RESULT:    -4.025      2.083      4.984
REMARK INTER + INTRA:          -4.954
REMARK INTER:                  -4.623
REMARK INTRA:                  -0.331
REMARK UNBOUND:                -0.342
REMARK SMILES COc1ccc(C(C)=O)c(O)c1
REMARK SMILES IDX 6 1 10 2 12 3 3 4 4 5 5 6 7 7 8 8 9 9 11 10 2 12 1 13
REMARK H PARENT 11 11
REMARK Flexibility Score: inf
ROOT
ATOM      1  C   UNL     1      11.619 -12.095 -44.634  1.00  0.00     0.059 A 
ATOM      2  C   UNL     1      10.469 -11.826 -45.416  1.00  0.00     0.130 A 
ATOM      3  C   UNL     1       9.764 -10.631 -45.225  1.00  0.00     0.093 A 
ATOM      4  C   UNL     1      10.194  -9.679 -44.298  1.00  0.00     0.122 A 
ATOM      5  C   UNL     1      11.352  -9.932 -43.543  1.00  0.00     0.047 A 
ATOM      6  C   UNL     1      12.054 -11.127 -43.710  1.00  0.00     0.019 A 
ENDROOT
BRANCH   1   7
ATOM      7  C   UNL     1      12.355 -13.378 -44.732  1.00  0.00     0.163 C 
ATOM      8  C   UNL     1      12.422 -14.323 -43.571  1.00  0.00     0.093 C 
ATOM      9  O   UNL     1      12.867 -13.727 -45.829  1.00  0.00    -0.294 OA
ENDBRANCH   1   7
BRANCH   2  10
ATOM     10  O   UNL     1      10.017 -12.700 -46.405  1.00  0.00    -0.507 OA
ATOM     11  H   UNL     1       9.108 -12.624 -46.843  1.00  0.00     0.293 HD
ENDBRANCH   2  10
BRANCH   4  12
ATOM     12  O   UNL     1       9.448  -8.499 -44.159  1.00  0.00    -0.497 OA
ATOM     13  C   UNL     1       9.771  -7.445 -43.258  1.00  0.00     0.278 C 
ENDBRANCH   4  12
TORSDOF 3
ENDMDL
