MODEL 1
REMARK VINA RESULT:    21.265      0.000      0.000
REMARK INTER + INTRA:          32.515
REMARK INTER:                  29.967
REMARK INTRA:                   2.547
REMARK UNBOUND:                 2.547
REMARK SMILES C=C(CC[C@@H](C(=O)[O-])[C@H]1[C@@H](O)C[C@@]2(C)C3=C(CC[C@@]12C)[C@@]1(C)CC[C@@H](O)C(C)(C)[C@H]1CC3)C(C)C
REMARK SMILES IDX 4 1 5 2 6 3 7 4 8 5 9 6 10 7 19 8 12 9 13 10 18 11 20 12
REMARK SMILES IDX 14 13 15 14 17 15 16 16 32 17 21 18 31 19 30 20 23 21 22 22
REMARK SMILES IDX 27 23 24 24 25 25 28 26 29 27 11 28 26 30 3 32 2 33 1 34
REMARK SMILES IDX 33 35 34 36 35 37
REMARK H PARENT 11 29 26 31
REMARK Flexibility Score: inf
ROOT
ATOM      1  C   UNL     1      72.922  33.750  55.853  1.00  0.00     0.014 C 
ENDROOT
BRANCH   1   2
ATOM      2  C   UNL     1      72.768  33.753  54.301  1.00  0.00     0.042 C 
BRANCH   2   3
ATOM      3  C   UNL     1      71.313  33.879  53.908  1.00  0.00     0.045 C 
ATOM      4  O   UNL     1      70.986  34.328  52.776  1.00  0.00    -0.550 OA
ATOM      5  O   UNL     1      70.320  33.531  54.815  1.00  0.00    -0.550 OA
ENDBRANCH   2   3
BRANCH   2   6
ATOM      6  C   UNL     1      73.708  34.684  53.430  1.00  0.00     0.033 C 
ATOM      7  C   UNL     1      74.629  35.700  54.123  1.00  0.00     0.119 C 
ATOM      8  C   UNL     1      74.534  34.037  52.269  1.00  0.00    -0.017 C 
ATOM      9  C   UNL     1      75.661  36.122  53.066  1.00  0.00     0.043 C 
ATOM     10  C   UNL     1      75.473  35.229  51.801  1.00  0.00    -0.003 C 
ATOM     11  C   UNL     1      75.359  32.784  52.719  1.00  0.00     0.012 C 
ATOM     12  C   UNL     1      73.574  33.542  51.144  1.00  0.00     0.013 C 
ATOM     13  C   UNL     1      74.771  36.124  50.729  1.00  0.00     0.017 C 
ATOM     14  C   UNL     1      76.866  34.734  51.311  1.00  0.00    -0.064 C 
ATOM     15  C   UNL     1      76.783  33.100  53.157  1.00  0.00     0.032 C 
ATOM     16  C   UNL     1      77.543  33.789  52.032  1.00  0.00    -0.064 C 
ATOM     17  C   UNL     1      77.546  35.443  50.161  1.00  0.00     0.032 C 
ATOM     18  C   UNL     1      79.024  33.378  51.757  1.00  0.00    -0.008 C 
ATOM     19  C   UNL     1      78.692  34.646  49.568  1.00  0.00     0.009 C 
ATOM     20  C   UNL     1      79.726  34.285  50.656  1.00  0.00     0.007 C 
ATOM     21  C   UNL     1      79.020  31.891  51.297  1.00  0.00     0.014 C 
ATOM     22  C   UNL     1      79.769  33.533  53.113  1.00  0.00     0.016 C 
ATOM     23  C   UNL     1      81.089  33.710  50.042  1.00  0.00    -0.006 C 
ATOM     24  C   UNL     1      80.383  31.369  50.836  1.00  0.00     0.033 C 
ATOM     25  C   UNL     1      80.958  32.196  49.682  1.00  0.00     0.120 C 
ATOM     26  C   UNL     1      81.513  34.487  48.759  1.00  0.00     0.014 C 
ATOM     27  C   UNL     1      82.282  33.912  51.029  1.00  0.00     0.014 C 
BRANCH   7  28
ATOM     28  O   UNL     1      75.298  35.154  55.225  1.00  0.00    -0.393 OA
ATOM     29  H   UNL     1      76.180  35.605  55.273  1.00  0.00     0.210 HD
ENDBRANCH   7  28
BRANCH  25  30
ATOM     30  O   UNL     1      80.137  32.012  48.552  1.00  0.00    -0.393 OA
ATOM     31  H   UNL     1      80.714  31.705  47.808  1.00  0.00     0.210 HD
ENDBRANCH  25  30
ENDBRANCH   2   6
ENDBRANCH   1   2
BRANCH   1  32
ATOM     32  C   UNL     1      71.772  34.395  56.680  1.00  0.00     0.031 C 
BRANCH  32  33
ATOM     33  C   UNL     1      71.136  33.422  57.662  1.00  0.00    -0.075 C 
ATOM     34  C   UNL     1      69.795  33.307  57.692  1.00  0.00     0.008 C 
BRANCH  33  35
ATOM     35  C   UNL     1      71.987  32.485  58.508  1.00  0.00     0.008 C 
ATOM     36  C   UNL     1      73.166  31.938  57.694  1.00  0.00     0.012 C 
ATOM     37  C   UNL     1      72.473  33.163  59.792  1.00  0.00     0.012 C 
ENDBRANCH  33  35
ENDBRANCH  32  33
ENDBRANCH   1  32
TORSDOF 8
ENDMDL
MODEL 2
REMARK VINA RESULT:    23.899      1.776      3.119
REMARK INTER + INTRA:          36.227
REMARK INTER:                  32.773
REMARK INTRA:                   3.454
REMARK UNBOUND:                 2.547
REMARK SMILES C=C(CC[C@@H](C(=O)[O-])[C@H]1[C@@H](O)C[C@@]2(C)C3=C(CC[C@@]12C)[C@@]1(C)CC[C@@H](O)C(C)(C)[C@H]1CC3)C(C)C
REMARK SMILES IDX 4 1 5 2 6 3 7 4 8 5 9 6 10 7 19 8 12 9 13 10 18 11 20 12
REMARK SMILES IDX 14 13 15 14 17 15 16 16 32 17 21 18 31 19 30 20 23 21 22 22
REMARK SMILES IDX 27 23 24 24 25 25 28 26 29 27 11 28 26 30 3 32 2 33 1 34
REMARK SMILES IDX 33 35 34 36 35 37
REMARK H PARENT 11 29 26 31
REMARK Flexibility Score: inf
ROOT
ATOM      1  C   UNL     1      70.732  33.002  55.572  1.00  0.00     0.014 C 
ENDROOT
BRANCH   1   2
ATOM      2  C   UNL     1      71.659  33.838  54.637  1.00  0.00     0.042 C 
BRANCH   2   3
ATOM      3  C   UNL     1      72.352  34.936  55.413  1.00  0.00     0.045 C 
ATOM      4  O   UNL     1      72.383  34.917  56.673  1.00  0.00    -0.550 OA
ATOM      5  O   UNL     1      72.934  36.000  54.734  1.00  0.00    -0.550 OA
ENDBRANCH   2   3
BRANCH   2   6
ATOM      6  C   UNL     1      72.644  33.088  53.649  1.00  0.00     0.033 C 
ATOM      7  C   UNL     1      72.555  33.352  52.138  1.00  0.00     0.119 C 
ATOM      8  C   UNL     1      74.165  33.027  54.013  1.00  0.00    -0.017 C 
ATOM      9  C   UNL     1      73.865  32.816  51.540  1.00  0.00     0.043 C 
ATOM     10  C   UNL     1      74.812  32.398  52.707  1.00  0.00    -0.003 C 
ATOM     11  C   UNL     1      74.778  34.428  54.355  1.00  0.00     0.012 C 
ATOM     12  C   UNL     1      74.374  32.142  55.281  1.00  0.00     0.013 C 
ATOM     13  C   UNL     1      74.794  30.836  52.753  1.00  0.00     0.017 C 
ATOM     14  C   UNL     1      76.243  32.947  52.427  1.00  0.00    -0.064 C 
ATOM     15  C   UNL     1      75.397  35.144  53.162  1.00  0.00     0.032 C 
ATOM     16  C   UNL     1      76.490  34.287  52.538  1.00  0.00    -0.064 C 
ATOM     17  C   UNL     1      77.292  32.027  51.841  1.00  0.00     0.032 C 
ATOM     18  C   UNL     1      77.817  34.970  52.078  1.00  0.00    -0.008 C 
ATOM     19  C   UNL     1      78.698  32.579  51.964  1.00  0.00     0.009 C 
ATOM     20  C   UNL     1      78.795  33.977  51.315  1.00  0.00     0.007 C 
ATOM     21  C   UNL     1      78.518  35.534  53.350  1.00  0.00     0.014 C 
ATOM     22  C   UNL     1      77.396  36.124  51.124  1.00  0.00     0.016 C 
ATOM     23  C   UNL     1      80.308  34.474  51.151  1.00  0.00    -0.006 C 
ATOM     24  C   UNL     1      79.915  36.106  53.098  1.00  0.00     0.033 C 
ATOM     25  C   UNL     1      80.861  35.069  52.485  1.00  0.00     0.120 C 
ATOM     26  C   UNL     1      81.248  33.315  50.700  1.00  0.00     0.014 C 
ATOM     27  C   UNL     1      80.432  35.537  50.013  1.00  0.00     0.014 C 
BRANCH   7  28
ATOM     28  O   UNL     1      72.438  34.714  51.837  1.00  0.00    -0.393 OA
ATOM     29  H   UNL     1      71.473  34.937  51.901  1.00  0.00     0.210 HD
ENDBRANCH   7  28
BRANCH  25  30
ATOM     30  O   UNL     1      81.087  34.056  53.437  1.00  0.00    -0.393 OA
ATOM     31  H   UNL     1      80.556  33.265  53.166  1.00  0.00     0.210 HD
ENDBRANCH  25  30
ENDBRANCH   2   6
ENDBRANCH   1   2
BRANCH   1  32
ATOM     32  C   UNL     1      71.418  32.195  56.712  1.00  0.00     0.031 C 
BRANCH  32  33
ATOM     33  C   UNL     1      71.435  32.945  58.036  1.00  0.00    -0.075 C 
ATOM     34  C   UNL     1      70.411  33.767  58.334  1.00  0.00     0.008 C 
BRANCH  33  35
ATOM     35  C   UNL     1      72.512  32.681  59.080  1.00  0.00     0.008 C 
ATOM     36  C   UNL     1      73.905  32.966  58.506  1.00  0.00     0.012 C 
ATOM     37  C   UNL     1      72.270  33.484  60.361  1.00  0.00     0.012 C 
ENDBRANCH  33  35
ENDBRANCH  32  33
ENDBRANCH   1  32
TORSDOF 8
ENDMDL
