MODEL 1
REMARK VINA RESULT:    -4.955      0.000      0.000
REMARK INTER + INTRA:          -7.162
REMARK INTER:                  -7.562
REMARK INTRA:                   0.401
REMARK UNBOUND:                 0.401
REMARK SMILES CC1=CCC[C@@H](C)C(=O)C[C@@H](C(C)C)C(=O)C1
REMARK SMILES IDX 8 1 9 2 6 3 7 4 5 5 4 6 3 7 2 8 1 9 10 11 11 12 15 13 16 14
REMARK SMILES IDX 17 15 12 17 13 18 14 19
REMARK H PARENT
REMARK Flexibility Score: 70.00
ROOT
ATOM      1  C   UNL     1     -13.620 -15.762  30.737  1.00  0.00     0.136 C 
ATOM      2  O   UNL     1     -14.447 -14.870  30.622  1.00  0.00    -0.299 OA
ENDROOT
BRANCH   1   3
ATOM      3  C   UNL     1     -13.368 -16.350  32.113  1.00  0.00     0.053 C 
ATOM      4  C   UNL     1     -14.386 -15.825  33.133  1.00  0.00     0.016 C 
BRANCH   3   5
ATOM      5  C   UNL     1     -11.925 -16.089  32.583  1.00  0.00     0.015 C 
BRANCH   5   6
ATOM      6  C   UNL     1     -10.986 -17.259  32.234  1.00  0.00     0.028 C 
BRANCH   6   7
ATOM      7  C   UNL     1     -11.712 -18.577  32.300  1.00  0.00    -0.028 C 
ATOM      8  C   UNL     1     -12.090 -19.301  31.221  1.00  0.00    -0.070 CG0
ATOM      9  C   UNL     1     -12.773 -20.624  31.460  1.00  0.00     0.039 C 
ATOM     10  G   UNL     1     -11.862 -18.838  29.790  1.00  0.00     0.000 G0
ENDBRANCH   6   7
ENDBRANCH   5   6
ENDBRANCH   3   5
ENDBRANCH   1   3
BRANCH   1  11
ATOM     11  C   UNL     1     -12.863 -16.213  29.506  1.00  0.00     0.087 C 
BRANCH  11  12
ATOM     12  C   UNL     1     -13.655 -17.266  28.682  1.00  0.00     0.066 C 
BRANCH  12  13
ATOM     13  C   UNL     1     -13.132 -18.656  29.010  1.00  0.00     0.140 C 
ATOM     14  O   UNL     1     -13.807 -19.636  28.723  1.00  0.00    -0.299 OA
BRANCH  13  15
ATOM     15  C   UNL     1     -11.851 -18.840  29.786  1.00  0.00     0.106 CG0
ATOM     16  G   UNL     1     -12.103 -19.309  31.211  1.00  0.00     0.000 G0
ENDBRANCH  13  15
ENDBRANCH  12  13
BRANCH  12  17
ATOM     17  C   UNL     1     -13.579 -17.003  27.141  1.00  0.00    -0.006 C 
ATOM     18  C   UNL     1     -12.125 -16.877  26.643  1.00  0.00     0.008 C 
ATOM     19  C   UNL     1     -14.340 -15.720  26.750  1.00  0.00     0.008 C 
ENDBRANCH  12  17
ENDBRANCH  11  12
ENDBRANCH   1  11
TORSDOF 1
ENDMDL
MODEL 2
REMARK VINA RESULT:    -4.933      1.906      4.742
REMARK INTER + INTRA:          -7.128
REMARK INTER:                  -6.816
REMARK INTRA:                  -0.312
REMARK UNBOUND:                 0.401
REMARK SMILES CC1=CCC[C@@H](C)C(=O)C[C@@H](C(C)C)C(=O)C1
REMARK SMILES IDX 8 1 9 2 6 3 7 4 5 5 4 6 3 7 2 8 1 9 10 11 11 12 15 13 16 14
REMARK SMILES IDX 17 15 12 17 13 18 14 19
REMARK H PARENT
REMARK Flexibility Score: 70.00
ROOT
ATOM      1  C   UNL     1     -11.972 -17.945  31.828  1.00  0.00     0.136 C 
ATOM      2  O   UNL     1     -10.936 -18.321  32.357  1.00  0.00    -0.299 OA
ENDROOT
BRANCH   1   3
ATOM      3  C   UNL     1     -12.798 -18.948  31.045  1.00  0.00     0.053 C 
ATOM      4  C   UNL     1     -13.079 -20.204  31.880  1.00  0.00     0.016 C 
BRANCH   3   5
ATOM      5  C   UNL     1     -12.129 -19.309  29.706  1.00  0.00     0.015 C 
BRANCH   5   6
ATOM      6  C   UNL     1     -11.603 -18.060  28.973  1.00  0.00     0.028 C 
BRANCH   6   7
ATOM      7  C   UNL     1     -12.648 -17.492  28.049  1.00  0.00    -0.028 C 
ATOM      8  C   UNL     1     -13.188 -16.257  28.168  1.00  0.00    -0.070 CG0
ATOM      9  C   UNL     1     -14.195 -15.822  27.134  1.00  0.00     0.039 C 
ATOM     10  G   UNL     1     -12.831 -15.301  29.296  1.00  0.00     0.000 G0
ENDBRANCH   6   7
ENDBRANCH   5   6
ENDBRANCH   3   5
ENDBRANCH   1   3
BRANCH   1  11
ATOM     11  C   UNL     1     -12.362 -16.487  31.953  1.00  0.00     0.087 C 
BRANCH  11  12
ATOM     12  C   UNL     1     -13.844 -16.239  31.557  1.00  0.00     0.066 C 
BRANCH  12  13
ATOM     13  C   UNL     1     -13.894 -15.274  30.383  1.00  0.00     0.140 C 
ATOM     14  O   UNL     1     -14.855 -14.526  30.259  1.00  0.00    -0.299 OA
BRANCH  13  15
ATOM     15  C   UNL     1     -12.835 -15.303  29.308  1.00  0.00     0.106 CG0
ATOM     16  G   UNL     1     -13.195 -16.248  28.171  1.00  0.00     0.000 G0
ENDBRANCH  13  15
ENDBRANCH  12  13
BRANCH  12  17
ATOM     17  C   UNL     1     -14.701 -15.696  32.748  1.00  0.00    -0.006 C 
ATOM     18  C   UNL     1     -13.871 -14.825  33.713  1.00  0.00     0.008 C 
ATOM     19  C   UNL     1     -15.337 -16.846  33.555  1.00  0.00     0.008 C 
ENDBRANCH  12  17
ENDBRANCH  11  12
ENDBRANCH   1  11
TORSDOF 1
ENDMDL
MODEL 3
REMARK VINA RESULT:    -4.932      1.473      1.985
REMARK INTER + INTRA:          -7.127
REMARK INTER:                  -7.589
REMARK INTRA:                   0.462
REMARK UNBOUND:                 0.401
REMARK SMILES CC1=CCC[C@@H](C)C(=O)C[C@@H](C(C)C)C(=O)C1
REMARK SMILES IDX 8 1 9 2 6 3 7 4 5 5 4 6 3 7 2 8 1 9 10 11 11 12 15 13 16 14
REMARK SMILES IDX 17 15 12 17 13 18 14 19
REMARK H PARENT
REMARK Flexibility Score: 70.00
ROOT
ATOM      1  C   UNL     1     -13.882 -15.903  31.334  1.00  0.00     0.136 C 
ATOM      2  O   UNL     1     -14.669 -14.989  31.537  1.00  0.00    -0.299 OA
ENDROOT
BRANCH   1   3
ATOM      3  C   UNL     1     -13.988 -17.157  32.182  1.00  0.00     0.053 C 
ATOM      4  C   UNL     1     -14.716 -16.873  33.501  1.00  0.00     0.016 C 
BRANCH   3   5
ATOM      5  C   UNL     1     -12.606 -17.786  32.434  1.00  0.00     0.015 C 
BRANCH   5   6
ATOM      6  C   UNL     1     -12.590 -19.290  32.102  1.00  0.00     0.028 C 
BRANCH   6   7
ATOM      7  C   UNL     1     -13.485 -19.598  30.931  1.00  0.00    -0.028 C 
ATOM      8  C   UNL     1     -13.150 -19.398  29.635  1.00  0.00    -0.070 CG0
ATOM      9  C   UNL     1     -14.146 -19.798  28.576  1.00  0.00     0.039 C 
ATOM     10  G   UNL     1     -11.826 -18.784  29.206  1.00  0.00     0.000 G0
ENDBRANCH   6   7
ENDBRANCH   5   6
ENDBRANCH   3   5
ENDBRANCH   1   3
BRANCH   1  11
ATOM     11  C   UNL     1     -12.820 -15.723  30.271  1.00  0.00     0.087 C 
BRANCH  11  12
ATOM     12  C   UNL     1     -13.149 -16.510  28.972  1.00  0.00     0.066 C 
BRANCH  12  13
ATOM     13  C   UNL     1     -11.968 -17.396  28.610  1.00  0.00     0.140 C 
ATOM     14  O   UNL     1     -11.177 -17.024  27.753  1.00  0.00    -0.299 OA
BRANCH  13  15
ATOM     15  C   UNL     1     -11.820 -18.775  29.205  1.00  0.00     0.106 CG0
ATOM     16  G   UNL     1     -13.156 -19.363  29.635  1.00  0.00     0.000 G0
ENDBRANCH  13  15
ENDBRANCH  12  13
BRANCH  12  17
ATOM     17  C   UNL     1     -13.514 -15.568  27.777  1.00  0.00    -0.006 C 
ATOM     18  C   UNL     1     -14.348 -14.352  28.226  1.00  0.00     0.008 C 
ATOM     19  C   UNL     1     -14.301 -16.322  26.685  1.00  0.00     0.008 C 
ENDBRANCH  12  17
ENDBRANCH  11  12
ENDBRANCH   1  11
TORSDOF 1
ENDMDL
MODEL 4
REMARK VINA RESULT:    -4.656      2.258      4.439
REMARK INTER + INTRA:          -6.705
REMARK INTER:                  -6.502
REMARK INTRA:                  -0.204
REMARK UNBOUND:                 0.401
REMARK SMILES CC1=CCC[C@@H](C)C(=O)C[C@@H](C(C)C)C(=O)C1
REMARK SMILES IDX 8 1 9 2 6 3 7 4 5 5 4 6 3 7 2 8 1 9 10 11 11 12 15 13 16 14
REMARK SMILES IDX 17 15 12 17 13 18 14 19
REMARK H PARENT
REMARK Flexibility Score: 70.00
ROOT
ATOM      1  C   UNL     1     -13.578 -16.860  32.464  1.00  0.00     0.136 C 
ATOM      2  O   UNL     1     -14.408 -17.344  33.220  1.00  0.00    -0.299 OA
ENDROOT
BRANCH   1   3
ATOM      3  C   UNL     1     -13.887 -15.534  31.794  1.00  0.00     0.053 C 
ATOM      4  C   UNL     1     -14.915 -14.734  32.602  1.00  0.00     0.016 C 
BRANCH   3   5
ATOM      5  C   UNL     1     -14.353 -15.731  30.340  1.00  0.00     0.015 C 
BRANCH   5   6
ATOM      6  C   UNL     1     -13.414 -15.035  29.337  1.00  0.00     0.028 C 
BRANCH   6   7
ATOM      7  C   UNL     1     -12.971 -15.986  28.257  1.00  0.00    -0.028 C 
ATOM      8  C   UNL     1     -11.745 -16.555  28.189  1.00  0.00    -0.070 CG0
ATOM      9  C   UNL     1     -11.473 -17.522  27.065  1.00  0.00     0.039 C 
ATOM     10  G   UNL     1     -10.637 -16.256  29.188  1.00  0.00     0.000 G0
ENDBRANCH   6   7
ENDBRANCH   5   6
ENDBRANCH   3   5
ENDBRANCH   1   3
BRANCH   1  11
ATOM     11  C   UNL     1     -12.297 -17.625  32.208  1.00  0.00     0.087 C 
BRANCH  11  12
ATOM     12  C   UNL     1     -11.147 -16.700  31.721  1.00  0.00     0.066 C 
BRANCH  12  13
ATOM     13  C   UNL     1     -10.654 -17.183  30.366  1.00  0.00     0.140 C 
ATOM     14  O   UNL     1     -10.181 -18.307  30.263  1.00  0.00    -0.299 OA
BRANCH  13  15
ATOM     15  C   UNL     1     -10.635 -16.259  29.173  1.00  0.00     0.106 CG0
ATOM     16  G   UNL     1     -11.758 -16.561  28.192  1.00  0.00     0.000 G0
ENDBRANCH  13  15
ENDBRANCH  12  13
BRANCH  12  17
ATOM     17  C   UNL     1      -9.962 -16.630  32.741  1.00  0.00    -0.006 C 
ATOM     18  C   UNL     1      -9.885 -17.886  33.632  1.00  0.00     0.008 C 
ATOM     19  C   UNL     1     -10.076 -15.392  33.653  1.00  0.00     0.008 C 
ENDBRANCH  12  17
ENDBRANCH  11  12
ENDBRANCH   1  11
TORSDOF 1
ENDMDL
MODEL 5
REMARK VINA RESULT:    -4.570      1.760      2.200
REMARK INTER + INTRA:          -6.573
REMARK INTER:                  -6.960
REMARK INTRA:                   0.387
REMARK UNBOUND:                 0.401
REMARK SMILES CC1=CCC[C@@H](C)C(=O)C[C@@H](C(C)C)C(=O)C1
REMARK SMILES IDX 8 1 9 2 6 3 7 4 5 5 4 6 3 7 2 8 1 9 10 11 11 12 15 13 16 14
REMARK SMILES IDX 17 15 12 17 13 18 14 19
REMARK H PARENT
REMARK Flexibility Score: 70.00
ROOT
ATOM      1  C   UNL     1     -14.196 -15.388  31.262  1.00  0.00     0.136 C 
ATOM      2  O   UNL     1     -15.047 -14.547  31.516  1.00  0.00    -0.299 OA
ENDROOT
BRANCH   1   3
ATOM      3  C   UNL     1     -13.773 -16.352  32.354  1.00  0.00     0.053 C 
ATOM      4  C   UNL     1     -14.989 -16.879  33.126  1.00  0.00     0.016 C 
BRANCH   3   5
ATOM      5  C   UNL     1     -12.745 -15.712  33.305  1.00  0.00     0.015 C 
BRANCH   5   6
ATOM      6  C   UNL     1     -11.304 -16.136  32.964  1.00  0.00     0.028 C 
BRANCH   6   7
ATOM      7  C   UNL     1     -11.250 -17.580  32.539  1.00  0.00    -0.028 C 
ATOM      8  C   UNL     1     -10.729 -18.018  31.369  1.00  0.00    -0.070 CG0
ATOM      9  C   UNL     1     -10.712 -19.503  31.113  1.00  0.00     0.039 C 
ATOM     10  G   UNL     1     -10.172 -17.081  30.308  1.00  0.00     0.000 G0
ENDBRANCH   6   7
ENDBRANCH   5   6
ENDBRANCH   3   5
ENDBRANCH   1   3
BRANCH   1  11
ATOM     11  C   UNL     1     -13.584 -15.403  29.877  1.00  0.00     0.087 C 
BRANCH  11  12
ATOM     12  C   UNL     1     -12.690 -16.653  29.644  1.00  0.00     0.066 C 
BRANCH  12  13
ATOM     13  C   UNL     1     -11.229 -16.231  29.640  1.00  0.00     0.140 C 
ATOM     14  O   UNL     1     -10.891 -15.237  29.011  1.00  0.00    -0.299 OA
BRANCH  13  15
ATOM     15  C   UNL     1     -10.174 -17.081  30.305  1.00  0.00     0.106 CG0
ATOM     16  G   UNL     1     -10.762 -18.014  31.352  1.00  0.00     0.000 G0
ENDBRANCH  13  15
ENDBRANCH  12  13
BRANCH  12  17
ATOM     17  C   UNL     1     -13.045 -17.405  28.318  1.00  0.00    -0.006 C 
ATOM     18  C   UNL     1     -13.786 -16.499  27.315  1.00  0.00     0.008 C 
ATOM     19  C   UNL     1     -13.919 -18.646  28.591  1.00  0.00     0.008 C 
ENDBRANCH  12  17
ENDBRANCH  11  12
ENDBRANCH   1  11
TORSDOF 1
ENDMDL
MODEL 6
REMARK VINA RESULT:    -4.492      1.982      4.315
REMARK INTER + INTRA:          -6.455
REMARK INTER:                  -6.817
REMARK INTRA:                   0.362
REMARK UNBOUND:                 0.401
REMARK SMILES CC1=CCC[C@@H](C)C(=O)C[C@@H](C(C)C)C(=O)C1
REMARK SMILES IDX 8 1 9 2 6 3 7 4 5 5 4 6 3 7 2 8 1 9 10 11 11 12 15 13 16 14
REMARK SMILES IDX 17 15 12 17 13 18 14 19
REMARK H PARENT
REMARK Flexibility Score: 70.00
ROOT
ATOM      1  C   UNL     1     -14.066 -15.042  30.095  1.00  0.00     0.136 C 
ATOM      2  O   UNL     1     -14.840 -14.241  30.599  1.00  0.00    -0.299 OA
ENDROOT
BRANCH   1   3
ATOM      3  C   UNL     1     -13.652 -14.847  28.648  1.00  0.00     0.053 C 
ATOM      4  C   UNL     1     -14.777 -14.197  27.835  1.00  0.00     0.016 C 
BRANCH   3   5
ATOM      5  C   UNL     1     -13.196 -16.171  28.008  1.00  0.00     0.015 C 
BRANCH   5   6
ATOM      6  C   UNL     1     -11.680 -16.393  28.164  1.00  0.00     0.028 C 
BRANCH   6   7
ATOM      7  C   UNL     1     -11.391 -17.688  28.874  1.00  0.00    -0.028 C 
ATOM      8  C   UNL     1     -10.928 -17.782  30.143  1.00  0.00    -0.070 CG0
ATOM      9  C   UNL     1     -10.730 -19.159  30.724  1.00  0.00     0.039 C 
ATOM     10  G   UNL     1     -10.597 -16.567  30.996  1.00  0.00     0.000 G0
ENDBRANCH   6   7
ENDBRANCH   5   6
ENDBRANCH   3   5
ENDBRANCH   1   3
BRANCH   1  11
ATOM     11  C   UNL     1     -13.586 -16.210  30.931  1.00  0.00     0.087 C 
BRANCH  11  12
ATOM     12  C   UNL     1     -12.809 -15.748  32.195  1.00  0.00     0.066 C 
BRANCH  12  13
ATOM     13  C   UNL     1     -11.462 -16.453  32.241  1.00  0.00     0.140 C 
ATOM     14  O   UNL     1     -11.031 -16.856  33.313  1.00  0.00    -0.299 OA
BRANCH  13  15
ATOM     15  C   UNL     1     -10.600 -16.562  31.008  1.00  0.00     0.106 CG0
ATOM     16  G   UNL     1     -10.942 -17.786  30.172  1.00  0.00     0.000 G0
ENDBRANCH  13  15
ENDBRANCH  12  13
BRANCH  12  17
ATOM     17  C   UNL     1     -13.607 -16.004  33.517  1.00  0.00    -0.006 C 
ATOM     18  C   UNL     1     -14.797 -16.961  33.302  1.00  0.00     0.008 C 
ATOM     19  C   UNL     1     -14.142 -14.688  34.116  1.00  0.00     0.008 C 
ENDBRANCH  12  17
ENDBRANCH  11  12
ENDBRANCH   1  11
TORSDOF 1
ENDMDL
MODEL 7
REMARK VINA RESULT:    -4.485      1.682      4.052
REMARK INTER + INTRA:          -6.444
REMARK INTER:                  -6.644
REMARK INTRA:                   0.200
REMARK UNBOUND:                 0.401
REMARK SMILES CC1=CCC[C@@H](C)C(=O)C[C@@H](C(C)C)C(=O)C1
REMARK SMILES IDX 8 1 9 2 6 3 7 4 5 5 4 6 3 7 2 8 1 9 10 11 11 12 15 13 16 14
REMARK SMILES IDX 17 15 12 17 13 18 14 19
REMARK H PARENT
REMARK Flexibility Score: 70.00
ROOT
ATOM      1  C   UNL     1     -13.555 -16.017  30.815  1.00  0.00     0.136 C 
ATOM      2  O   UNL     1     -14.396 -15.207  31.179  1.00  0.00    -0.299 OA
ENDROOT
BRANCH   1   3
ATOM      3  C   UNL     1     -13.133 -16.025  29.357  1.00  0.00     0.053 C 
ATOM      4  C   UNL     1     -13.444 -14.682  28.685  1.00  0.00     0.016 C 
BRANCH   3   5
ATOM      5  C   UNL     1     -13.777 -17.194  28.589  1.00  0.00     0.015 C 
BRANCH   5   6
ATOM      6  C   UNL     1     -12.809 -18.382  28.433  1.00  0.00     0.028 C 
BRANCH   6   7
ATOM      7  C   UNL     1     -13.093 -19.452  29.454  1.00  0.00    -0.028 C 
ATOM      8  C   UNL     1     -12.269 -19.776  30.477  1.00  0.00    -0.070 CG0
ATOM      9  C   UNL     1     -12.721 -20.845  31.440  1.00  0.00     0.039 C 
ATOM     10  G   UNL     1     -10.915 -19.117  30.691  1.00  0.00     0.000 G0
ENDBRANCH   6   7
ENDBRANCH   5   6
ENDBRANCH   3   5
ENDBRANCH   1   3
BRANCH   1  11
ATOM     11  C   UNL     1     -13.002 -16.994  31.830  1.00  0.00     0.087 C 
BRANCH  11  12
ATOM     12  C   UNL     1     -11.458 -16.882  31.973  1.00  0.00     0.066 C 
BRANCH  12  13
ATOM     13  C   UNL     1     -10.850 -18.276  31.954  1.00  0.00     0.140 C 
ATOM     14  O   UNL     1     -10.232 -18.677  32.931  1.00  0.00    -0.299 OA
BRANCH  13  15
ATOM     15  C   UNL     1     -10.899 -19.127  30.708  1.00  0.00     0.106 CG0
ATOM     16  G   UNL     1     -12.267 -19.757  30.494  1.00  0.00     0.000 G0
ENDBRANCH  13  15
ENDBRANCH  12  13
BRANCH  12  17
ATOM     17  C   UNL     1     -11.030 -16.117  33.269  1.00  0.00    -0.006 C 
ATOM     18  C   UNL     1     -12.207 -15.359  33.914  1.00  0.00     0.008 C 
ATOM     19  C   UNL     1      -9.901 -15.107  32.979  1.00  0.00     0.008 C 
ENDBRANCH  12  17
ENDBRANCH  11  12
ENDBRANCH   1  11
TORSDOF 1
ENDMDL
MODEL 8
REMARK VINA RESULT:    -4.424      1.927      4.250
REMARK INTER + INTRA:          -6.351
REMARK INTER:                  -6.235
REMARK INTRA:                  -0.117
REMARK UNBOUND:                 0.401
REMARK SMILES CC1=CCC[C@@H](C)C(=O)C[C@@H](C(C)C)C(=O)C1
REMARK SMILES IDX 8 1 9 2 6 3 7 4 5 5 4 6 3 7 2 8 1 9 10 11 11 12 15 13 16 14
REMARK SMILES IDX 17 15 12 17 13 18 14 19
REMARK H PARENT
REMARK Flexibility Score: 70.00
ROOT
ATOM      1  C   UNL     1     -13.419 -17.977  30.109  1.00  0.00     0.136 C 
ATOM      2  O   UNL     1     -13.546 -19.184  29.955  1.00  0.00    -0.299 OA
ENDROOT
BRANCH   1   3
ATOM      3  C   UNL     1     -12.843 -17.153  28.973  1.00  0.00     0.053 C 
ATOM      4  C   UNL     1     -13.760 -17.189  27.745  1.00  0.00     0.016 C 
BRANCH   3   5
ATOM      5  C   UNL     1     -11.415 -17.605  28.615  1.00  0.00     0.015 C 
BRANCH   5   6
ATOM      6  C   UNL     1     -10.357 -16.924  29.505  1.00  0.00     0.028 C 
BRANCH   6   7
ATOM      7  C   UNL     1     -10.043 -17.765  30.714  1.00  0.00    -0.028 C 
ATOM      8  C   UNL     1     -10.219 -17.364  31.995  1.00  0.00    -0.070 CG0
ATOM      9  C   UNL     1      -9.895 -18.344  33.094  1.00  0.00     0.039 C 
ATOM     10  G   UNL     1     -10.720 -15.977  32.368  1.00  0.00     0.000 G0
ENDBRANCH   6   7
ENDBRANCH   5   6
ENDBRANCH   3   5
ENDBRANCH   1   3
BRANCH   1  11
ATOM     11  C   UNL     1     -13.813 -17.372  31.440  1.00  0.00     0.087 C 
BRANCH  11  12
ATOM     12  C   UNL     1     -13.245 -15.936  31.623  1.00  0.00     0.066 C 
BRANCH  12  13
ATOM     13  C   UNL     1     -12.183 -15.953  32.712  1.00  0.00     0.140 C 
ATOM     14  O   UNL     1     -12.521 -15.855  33.884  1.00  0.00    -0.299 OA
BRANCH  13  15
ATOM     15  C   UNL     1     -10.715 -15.971  32.363  1.00  0.00     0.106 CG0
ATOM     16  G   UNL     1     -10.228 -17.364  31.995  1.00  0.00     0.000 G0
ENDBRANCH  13  15
ENDBRANCH  12  13
BRANCH  12  17
ATOM     17  C   UNL     1     -14.359 -14.890  31.960  1.00  0.00    -0.006 C 
ATOM     18  C   UNL     1     -15.420 -15.459  32.923  1.00  0.00     0.008 C 
ATOM     19  C   UNL     1     -15.072 -14.395  30.686  1.00  0.00     0.008 C 
ENDBRANCH  12  17
ENDBRANCH  11  12
ENDBRANCH   1  11
TORSDOF 1
ENDMDL
MODEL 9
REMARK VINA RESULT:    -4.327      1.699      3.506
REMARK INTER + INTRA:          -6.203
REMARK INTER:                  -6.750
REMARK INTRA:                   0.548
REMARK UNBOUND:                 0.401
REMARK SMILES CC1=CCC[C@@H](C)C(=O)C[C@@H](C(C)C)C(=O)C1
REMARK SMILES IDX 8 1 9 2 6 3 7 4 5 5 4 6 3 7 2 8 1 9 10 11 11 12 15 13 16 14
REMARK SMILES IDX 17 15 12 17 13 18 14 19
REMARK H PARENT
REMARK Flexibility Score: 70.00
ROOT
ATOM      1  C   UNL     1     -11.109 -18.567  30.161  1.00  0.00     0.136 C 
ATOM      2  O   UNL     1      -9.951 -18.383  29.815  1.00  0.00    -0.299 OA
ENDROOT
BRANCH   1   3
ATOM      3  C   UNL     1     -11.376 -19.157  31.533  1.00  0.00     0.053 C 
ATOM      4  C   UNL     1     -12.760 -19.815  31.592  1.00  0.00     0.016 C 
BRANCH   3   5
ATOM      5  C   UNL     1     -11.214 -18.102  32.643  1.00  0.00     0.015 C 
BRANCH   5   6
ATOM      6  C   UNL     1     -11.253 -16.668  32.082  1.00  0.00     0.028 C 
BRANCH   6   7
ATOM      7  C   UNL     1     -12.445 -15.912  32.607  1.00  0.00    -0.028 C 
ATOM      8  C   UNL     1     -13.663 -15.893  32.018  1.00  0.00    -0.070 CG0
ATOM      9  C   UNL     1     -14.766 -15.120  32.695  1.00  0.00     0.039 C 
ATOM     10  G   UNL     1     -13.962 -16.608  30.708  1.00  0.00     0.000 G0
ENDBRANCH   6   7
ENDBRANCH   5   6
ENDBRANCH   3   5
ENDBRANCH   1   3
BRANCH   1  11
ATOM     11  C   UNL     1     -12.219 -18.228  29.189  1.00  0.00     0.087 C 
BRANCH  11  12
ATOM     12  C   UNL     1     -12.199 -16.730  28.773  1.00  0.00     0.066 C 
BRANCH  12  13
ATOM     13  C   UNL     1     -13.298 -15.989  29.519  1.00  0.00     0.140 C 
ATOM     14  O   UNL     1     -13.564 -14.835  29.207  1.00  0.00    -0.299 OA
BRANCH  13  15
ATOM     15  C   UNL     1     -13.986 -16.612  30.708  1.00  0.00     0.106 CG0
ATOM     16  G   UNL     1     -13.670 -15.880  32.004  1.00  0.00     0.000 G0
ENDBRANCH  13  15
ENDBRANCH  12  13
BRANCH  12  17
ATOM     17  C   UNL     1     -12.358 -16.534  27.229  1.00  0.00    -0.006 C 
ATOM     18  C   UNL     1     -13.789 -16.845  26.746  1.00  0.00     0.008 C 
ATOM     19  C   UNL     1     -11.374 -17.426  26.443  1.00  0.00     0.008 C 
ENDBRANCH  12  17
ENDBRANCH  11  12
ENDBRANCH   1  11
TORSDOF 1
ENDMDL
