MODEL 1
REMARK VINA RESULT:    -3.975      0.000      0.000
REMARK INTER + INTRA:          -4.047
REMARK INTER:                  -6.066
REMARK INTRA:                   2.019
REMARK UNBOUND:                 2.019
REMARK SMILES CC1=CCC[C@@H](C)C(=O)C[C@H](C(C)C)C(=O)C1
REMARK SMILES IDX 8 1 9 2 6 3 7 4 5 5 4 6 3 7 2 8 1 9 10 11 11 12 15 13 16 14
REMARK SMILES IDX 17 15 12 17 13 18 14 19
REMARK H PARENT
REMARK Flexibility Score: 70.00
ROOT
ATOM      1  C   UNL     1      -5.304 -14.557  -6.627  1.00  0.00     0.136 C 
ATOM      2  O   UNL     1      -5.709 -15.238  -5.694  1.00  0.00    -0.299 OA
ENDROOT
BRANCH   1   3
ATOM      3  C   UNL     1      -5.576 -13.065  -6.634  1.00  0.00     0.053 C 
ATOM      4  C   UNL     1      -6.296 -12.646  -5.345  1.00  0.00     0.016 C 
BRANCH   3   5
ATOM      5  C   UNL     1      -6.399 -12.669  -7.880  1.00  0.00     0.015 C 
BRANCH   5   6
ATOM      6  C   UNL     1      -5.503 -12.502  -9.123  1.00  0.00     0.028 C 
BRANCH   6   7
ATOM      7  C   UNL     1      -4.473 -11.410  -8.973  1.00  0.00    -0.028 C 
ATOM      8  C   UNL     1      -3.141 -11.604  -8.803  1.00  0.00    -0.070 CG0
ATOM      9  C   UNL     1      -2.282 -10.387  -8.570  1.00  0.00     0.039 C 
ATOM     10  G   UNL     1      -2.471 -12.969  -8.882  1.00  0.00     0.000 G0
ENDBRANCH   6   7
ENDBRANCH   5   6
ENDBRANCH   3   5
ENDBRANCH   1   3
BRANCH   1  11
ATOM     11  C   UNL     1      -4.530 -15.226  -7.741  1.00  0.00     0.087 C 
BRANCH  11  12
ATOM     12  C   UNL     1      -2.997 -15.174  -7.505  1.00  0.00     0.066 C 
BRANCH  12  13
ATOM     13  C   UNL     1      -2.476 -13.745  -7.570  1.00  0.00     0.140 C 
ATOM     14  O   UNL     1      -1.998 -13.214  -6.578  1.00  0.00    -0.299 OA
BRANCH  13  15
ATOM     15  C   UNL     1      -2.496 -12.994  -8.881  1.00  0.00     0.106 CG0
ATOM     16  G   UNL     1      -3.135 -11.614  -8.794  1.00  0.00     0.000 G0
ENDBRANCH  13  15
ENDBRANCH  12  13
BRANCH  12  17
ATOM     17  C   UNL     1      -2.543 -15.900  -6.196  1.00  0.00    -0.006 C 
ATOM     18  C   UNL     1      -2.741 -15.061  -4.919  1.00  0.00     0.008 C 
ATOM     19  C   UNL     1      -3.240 -17.260  -6.035  1.00  0.00     0.008 C 
ENDBRANCH  12  17
ENDBRANCH  11  12
ENDBRANCH   1  11
TORSDOF 1
ENDMDL
MODEL 2
REMARK VINA RESULT:    -3.659      1.361      2.213
REMARK INTER + INTRA:          -3.566
REMARK INTER:                  -5.983
REMARK INTRA:                   2.417
REMARK UNBOUND:                 2.019
REMARK SMILES CC1=CCC[C@@H](C)C(=O)C[C@H](C(C)C)C(=O)C1
REMARK SMILES IDX 8 1 9 2 6 3 7 4 5 5 4 6 3 7 2 8 1 9 10 11 11 12 15 13 16 14
REMARK SMILES IDX 17 15 12 17 13 18 14 19
REMARK H PARENT
REMARK Flexibility Score: 70.00
ROOT
ATOM      1  C   UNL     1      -5.978 -13.341  -6.478  1.00  0.00     0.136 C 
ATOM      2  O   UNL     1      -6.243 -12.880  -5.377  1.00  0.00    -0.299 OA
ENDROOT
BRANCH   1   3
ATOM      3  C   UNL     1      -5.961 -12.424  -7.687  1.00  0.00     0.053 C 
ATOM      4  C   UNL     1      -6.023 -13.245  -8.982  1.00  0.00     0.016 C 
BRANCH   3   5
ATOM      5  C   UNL     1      -4.709 -11.520  -7.665  1.00  0.00     0.015 C 
BRANCH   5   6
ATOM      6  C   UNL     1      -3.961 -11.552  -9.012  1.00  0.00     0.028 C 
BRANCH   6   7
ATOM      7  C   UNL     1      -2.981 -12.693  -9.123  1.00  0.00    -0.028 C 
ATOM      8  C   UNL     1      -2.331 -13.274  -8.083  1.00  0.00    -0.070 CG0
ATOM      9  C   UNL     1      -1.311 -14.338  -8.403  1.00  0.00     0.039 C 
ATOM     10  G   UNL     1      -2.611 -12.944  -6.623  1.00  0.00     0.000 G0
ENDBRANCH   6   7
ENDBRANCH   5   6
ENDBRANCH   3   5
ENDBRANCH   1   3
BRANCH   1  11
ATOM     11  C   UNL     1      -5.658 -14.814  -6.599  1.00  0.00     0.087 C 
BRANCH  11  12
ATOM     12  C   UNL     1      -4.130 -15.086  -6.619  1.00  0.00     0.066 C 
BRANCH  12  13
ATOM     13  C   UNL     1      -3.369 -14.011  -5.855  1.00  0.00     0.140 C 
ATOM     14  O   UNL     1      -3.344 -14.019  -4.633  1.00  0.00    -0.299 OA
BRANCH  13  15
ATOM     15  C   UNL     1      -2.590 -12.959  -6.609  1.00  0.00     0.106 CG0
ATOM     16  G   UNL     1      -2.350 -13.298  -8.074  1.00  0.00     0.000 G0
ENDBRANCH  13  15
ENDBRANCH  12  13
BRANCH  12  17
ATOM     17  C   UNL     1      -3.747 -16.524  -6.138  1.00  0.00    -0.006 C 
ATOM     18  C   UNL     1      -2.249 -16.697  -5.825  1.00  0.00     0.008 C 
ATOM     19  C   UNL     1      -4.583 -16.953  -4.922  1.00  0.00     0.008 C 
ENDBRANCH  12  17
ENDBRANCH  11  12
ENDBRANCH   1  11
TORSDOF 1
ENDMDL
MODEL 3
REMARK VINA RESULT:    -3.448      1.543      3.678
REMARK INTER + INTRA:          -3.243
REMARK INTER:                  -3.881
REMARK INTRA:                   0.639
REMARK UNBOUND:                 2.019
REMARK SMILES CC1=CCC[C@@H](C)C(=O)C[C@H](C(C)C)C(=O)C1
REMARK SMILES IDX 8 1 9 2 6 3 7 4 5 5 4 6 3 7 2 8 1 9 10 11 11 12 15 13 16 14
REMARK SMILES IDX 17 15 12 17 13 18 14 19
REMARK H PARENT
REMARK Flexibility Score: 70.00
ROOT
ATOM      1  C   UNL     1      -4.430 -15.988  -5.611  1.00  0.00     0.136 C 
ATOM      2  O   UNL     1      -4.607 -16.381  -4.466  1.00  0.00    -0.299 OA
ENDROOT
BRANCH   1   3
ATOM      3  C   UNL     1      -3.065 -16.150  -6.252  1.00  0.00     0.053 C 
ATOM      4  C   UNL     1      -2.408 -17.457  -5.788  1.00  0.00     0.016 C 
BRANCH   3   5
ATOM      5  C   UNL     1      -2.166 -14.936  -5.931  1.00  0.00     0.015 C 
BRANCH   5   6
ATOM      6  C   UNL     1      -1.480 -14.385  -7.197  1.00  0.00     0.028 C 
BRANCH   6   7
ATOM      7  C   UNL     1      -1.948 -13.002  -7.574  1.00  0.00    -0.028 C 
ATOM      8  C   UNL     1      -2.934 -12.721  -8.463  1.00  0.00    -0.070 CG0
ATOM      9  C   UNL     1      -3.193 -11.270  -8.785  1.00  0.00     0.039 C 
ATOM     10  G   UNL     1      -3.814 -13.782  -9.110  1.00  0.00     0.000 G0
ENDBRANCH   6   7
ENDBRANCH   5   6
ENDBRANCH   3   5
ENDBRANCH   1   3
BRANCH   1  11
ATOM     11  C   UNL     1      -5.586 -15.363  -6.358  1.00  0.00     0.087 C 
BRANCH  11  12
ATOM     12  C   UNL     1      -5.232 -13.961  -6.924  1.00  0.00     0.066 C 
BRANCH  12  13
ATOM     13  C   UNL     1      -5.136 -13.988  -8.443  1.00  0.00     0.140 C 
ATOM     14  O   UNL     1      -6.140 -14.136  -9.125  1.00  0.00    -0.299 OA
BRANCH  13  15
ATOM     15  C   UNL     1      -3.803 -13.772  -9.119  1.00  0.00     0.106 CG0
ATOM     16  G   UNL     1      -2.931 -12.720  -8.445  1.00  0.00     0.000 G0
ENDBRANCH  13  15
ENDBRANCH  12  13
BRANCH  12  17
ATOM     17  C   UNL     1      -6.185 -12.828  -6.421  1.00  0.00    -0.006 C 
ATOM     18  C   UNL     1      -6.062 -12.534  -4.914  1.00  0.00     0.008 C 
ATOM     19  C   UNL     1      -5.989 -11.530  -7.220  1.00  0.00     0.008 C 
ENDBRANCH  12  17
ENDBRANCH  11  12
ENDBRANCH   1  11
TORSDOF 1
ENDMDL
MODEL 4
REMARK VINA RESULT:    -3.180      1.785      2.510
REMARK INTER + INTRA:          -2.834
REMARK INTER:                  -3.704
REMARK INTRA:                   0.870
REMARK UNBOUND:                 2.019
REMARK SMILES CC1=CCC[C@@H](C)C(=O)C[C@H](C(C)C)C(=O)C1
REMARK SMILES IDX 8 1 9 2 6 3 7 4 5 5 4 6 3 7 2 8 1 9 10 11 11 12 15 13 16 14
REMARK SMILES IDX 17 15 12 17 13 18 14 19
REMARK H PARENT
REMARK Flexibility Score: 70.00
ROOT
ATOM      1  C   UNL     1      -5.526 -13.770  -7.879  1.00  0.00     0.136 C 
ATOM      2  O   UNL     1      -6.109 -14.239  -8.847  1.00  0.00    -0.299 OA
ENDROOT
BRANCH   1   3
ATOM      3  C   UNL     1      -5.136 -12.305  -7.880  1.00  0.00     0.053 C 
ATOM      4  C   UNL     1      -6.382 -11.419  -8.020  1.00  0.00     0.016 C 
BRANCH   3   5
ATOM      5  C   UNL     1      -4.122 -12.013  -9.009  1.00  0.00     0.015 C 
BRANCH   5   6
ATOM      6  C   UNL     1      -2.734 -11.651  -8.447  1.00  0.00     0.028 C 
BRANCH   6   7
ATOM      7  C   UNL     1      -2.594 -11.937  -6.972  1.00  0.00    -0.028 C 
ATOM      8  C   UNL     1      -2.292 -13.144  -6.432  1.00  0.00    -0.070 CG0
ATOM      9  C   UNL     1      -2.296 -13.257  -4.927  1.00  0.00     0.039 C 
ATOM     10  G   UNL     1      -1.907 -14.365  -7.256  1.00  0.00     0.000 G0
ENDBRANCH   6   7
ENDBRANCH   5   6
ENDBRANCH   3   5
ENDBRANCH   1   3
BRANCH   1  11
ATOM     11  C   UNL     1      -5.224 -14.668  -6.700  1.00  0.00     0.087 C 
BRANCH  11  12
ATOM     12  C   UNL     1      -4.126 -15.716  -7.024  1.00  0.00     0.066 C 
BRANCH  12  13
ATOM     13  C   UNL     1      -3.024 -15.113  -7.884  1.00  0.00     0.140 C 
ATOM     14  O   UNL     1      -3.080 -15.184  -9.103  1.00  0.00    -0.299 OA
BRANCH  13  15
ATOM     15  C   UNL     1      -1.881 -14.370  -7.233  1.00  0.00     0.106 CG0
ATOM     16  G   UNL     1      -2.315 -13.163  -6.412  1.00  0.00     0.000 G0
ENDBRANCH  13  15
ENDBRANCH  12  13
BRANCH  12  17
ATOM     17  C   UNL     1      -3.551 -16.428  -5.756  1.00  0.00    -0.006 C 
ATOM     18  C   UNL     1      -4.268 -16.045  -4.448  1.00  0.00     0.008 C 
ATOM     19  C   UNL     1      -3.551 -17.956  -5.919  1.00  0.00     0.008 C 
ENDBRANCH  12  17
ENDBRANCH  11  12
ENDBRANCH   1  11
TORSDOF 1
ENDMDL
MODEL 5
REMARK VINA RESULT:    -3.072      2.006      5.133
REMARK INTER + INTRA:          -2.670
REMARK INTER:                  -3.285
REMARK INTRA:                   0.616
REMARK UNBOUND:                 2.019
REMARK SMILES CC1=CCC[C@@H](C)C(=O)C[C@H](C(C)C)C(=O)C1
REMARK SMILES IDX 8 1 9 2 6 3 7 4 5 5 4 6 3 7 2 8 1 9 10 11 11 12 15 13 16 14
REMARK SMILES IDX 17 15 12 17 13 18 14 19
REMARK H PARENT
REMARK Flexibility Score: 70.00
ROOT
ATOM      1  C   UNL     1      -2.645 -11.878  -7.839  1.00  0.00     0.136 C 
ATOM      2  O   UNL     1      -2.318 -10.754  -8.195  1.00  0.00    -0.299 OA
ENDROOT
BRANCH   1   3
ATOM      3  C   UNL     1      -1.624 -12.999  -7.876  1.00  0.00     0.053 C 
ATOM      4  C   UNL     1      -1.937 -13.973  -9.019  1.00  0.00     0.016 C 
BRANCH   3   5
ATOM      5  C   UNL     1      -1.579 -13.737  -6.519  1.00  0.00     0.015 C 
BRANCH   5   6
ATOM      6  C   UNL     1      -1.485 -15.264  -6.705  1.00  0.00     0.028 C 
BRANCH   6   7
ATOM      7  C   UNL     1      -2.348 -16.036  -5.738  1.00  0.00    -0.028 C 
ATOM      8  C   UNL     1      -3.682 -16.245  -5.869  1.00  0.00    -0.070 CG0
ATOM      9  C   UNL     1      -4.392 -16.958  -4.746  1.00  0.00     0.039 C 
ATOM     10  G   UNL     1      -4.481 -15.844  -7.102  1.00  0.00     0.000 G0
ENDBRANCH   6   7
ENDBRANCH   5   6
ENDBRANCH   3   5
ENDBRANCH   1   3
BRANCH   1  11
ATOM     11  C   UNL     1      -4.060 -12.113  -7.359  1.00  0.00     0.087 C 
BRANCH  11  12
ATOM     12  C   UNL     1      -4.703 -13.366  -8.011  1.00  0.00     0.066 C 
BRANCH  12  13
ATOM     13  C   UNL     1      -5.049 -14.416  -6.964  1.00  0.00     0.140 C 
ATOM     14  O   UNL     1      -5.817 -14.152  -6.051  1.00  0.00    -0.299 OA
BRANCH  13  15
ATOM     15  C   UNL     1      -4.487 -15.813  -7.084  1.00  0.00     0.106 CG0
ATOM     16  G   UNL     1      -3.666 -16.255  -5.879  1.00  0.00     0.000 G0
ENDBRANCH  13  15
ENDBRANCH  12  13
BRANCH  12  17
ATOM     17  C   UNL     1      -5.926 -13.032  -8.927  1.00  0.00    -0.006 C 
ATOM     18  C   UNL     1      -6.900 -14.210  -9.119  1.00  0.00     0.008 C 
ATOM     19  C   UNL     1      -6.695 -11.803  -8.416  1.00  0.00     0.008 C 
ENDBRANCH  12  17
ENDBRANCH  11  12
ENDBRANCH   1  11
TORSDOF 1
ENDMDL
MODEL 6
REMARK VINA RESULT:    -3.069      1.941      4.005
REMARK INTER + INTRA:          -2.665
REMARK INTER:                  -3.461
REMARK INTRA:                   0.795
REMARK UNBOUND:                 2.019
REMARK SMILES CC1=CCC[C@@H](C)C(=O)C[C@H](C(C)C)C(=O)C1
REMARK SMILES IDX 8 1 9 2 6 3 7 4 5 5 4 6 3 7 2 8 1 9 10 11 11 12 15 13 16 14
REMARK SMILES IDX 17 15 12 17 13 18 14 19
REMARK H PARENT
REMARK Flexibility Score: 70.00
ROOT
ATOM      1  C   UNL     1      -5.210 -13.113  -6.999  1.00  0.00     0.136 C 
ATOM      2  O   UNL     1      -5.946 -13.609  -6.157  1.00  0.00    -0.299 OA
ENDROOT
BRANCH   1   3
ATOM      3  C   UNL     1      -5.537 -13.285  -8.470  1.00  0.00     0.053 C 
ATOM      4  C   UNL     1      -6.754 -12.430  -8.851  1.00  0.00     0.016 C 
BRANCH   3   5
ATOM      5  C   UNL     1      -5.783 -14.773  -8.802  1.00  0.00     0.015 C 
BRANCH   5   6
ATOM      6  C   UNL     1      -4.494 -15.607  -8.664  1.00  0.00     0.028 C 
BRANCH   6   7
ATOM      7  C   UNL     1      -4.544 -16.598  -7.527  1.00  0.00    -0.028 C 
ATOM      8  C   UNL     1      -3.610 -16.722  -6.551  1.00  0.00    -0.070 CG0
ATOM      9  C   UNL     1      -3.785 -17.841  -5.555  1.00  0.00     0.039 C 
ATOM     10  G   UNL     1      -2.433 -15.771  -6.383  1.00  0.00     0.000 G0
ENDBRANCH   6   7
ENDBRANCH   5   6
ENDBRANCH   3   5
ENDBRANCH   1   3
BRANCH   1  11
ATOM     11  C   UNL     1      -4.000 -12.329  -6.544  1.00  0.00     0.087 C 
BRANCH  11  12
ATOM     12  C   UNL     1      -2.694 -13.164  -6.621  1.00  0.00     0.066 C 
BRANCH  12  13
ATOM     13  C   UNL     1      -2.796 -14.427  -5.778  1.00  0.00     0.140 C 
ATOM     14  O   UNL     1      -3.211 -14.373  -4.629  1.00  0.00    -0.299 OA
BRANCH  13  15
ATOM     15  C   UNL     1      -2.440 -15.766  -6.379  1.00  0.00     0.106 CG0
ATOM     16  G   UNL     1      -3.626 -16.706  -6.544  1.00  0.00     0.000 G0
ENDBRANCH  13  15
ENDBRANCH  12  13
BRANCH  12  17
ATOM     17  C   UNL     1      -2.240 -13.476  -8.085  1.00  0.00    -0.006 C 
ATOM     18  C   UNL     1      -2.333 -12.269  -9.037  1.00  0.00     0.008 C 
ATOM     19  C   UNL     1      -0.818 -14.057  -8.122  1.00  0.00     0.008 C 
ENDBRANCH  12  17
ENDBRANCH  11  12
ENDBRANCH   1  11
TORSDOF 1
ENDMDL
MODEL 7
REMARK VINA RESULT:    -3.049      1.967      2.772
REMARK INTER + INTRA:          -2.634
REMARK INTER:                  -3.948
REMARK INTRA:                   1.315
REMARK UNBOUND:                 2.019
REMARK SMILES CC1=CCC[C@@H](C)C(=O)C[C@H](C(C)C)C(=O)C1
REMARK SMILES IDX 8 1 9 2 6 3 7 4 5 5 4 6 3 7 2 8 1 9 10 11 11 12 15 13 16 14
REMARK SMILES IDX 17 15 12 17 13 18 14 19
REMARK H PARENT
REMARK Flexibility Score: 70.00
ROOT
ATOM      1  C   UNL     1      -3.948 -12.123  -6.868  1.00  0.00     0.136 C 
ATOM      2  O   UNL     1      -3.221 -11.607  -7.706  1.00  0.00    -0.299 OA
ENDROOT
BRANCH   1   3
ATOM      3  C   UNL     1      -5.416 -11.744  -6.820  1.00  0.00     0.053 C 
ATOM      4  C   UNL     1      -6.126 -12.494  -5.684  1.00  0.00     0.016 C 
BRANCH   3   5
ATOM      5  C   UNL     1      -6.095 -12.029  -8.178  1.00  0.00     0.015 C 
BRANCH   5   6
ATOM      6  C   UNL     1      -5.176 -12.837  -9.115  1.00  0.00     0.028 C 
BRANCH   6   7
ATOM      7  C   UNL     1      -5.406 -14.326  -9.038  1.00  0.00    -0.028 C 
ATOM      8  C   UNL     1      -4.439 -15.275  -9.100  1.00  0.00    -0.070 CG0
ATOM      9  C   UNL     1      -4.875 -16.719  -9.105  1.00  0.00     0.039 C 
ATOM     10  G   UNL     1      -2.948 -14.961  -9.115  1.00  0.00     0.000 G0
ENDBRANCH   6   7
ENDBRANCH   5   6
ENDBRANCH   3   5
ENDBRANCH   1   3
BRANCH   1  11
ATOM     11  C   UNL     1      -3.361 -13.137  -5.913  1.00  0.00     0.087 C 
BRANCH  11  12
ATOM     12  C   UNL     1      -3.314 -14.563  -6.524  1.00  0.00     0.066 C 
BRANCH  12  13
ATOM     13  C   UNL     1      -2.393 -14.613  -7.736  1.00  0.00     0.140 C 
ATOM     14  O   UNL     1      -1.192 -14.421  -7.610  1.00  0.00    -0.299 OA
BRANCH  13  15
ATOM     15  C   UNL     1      -2.953 -14.959  -9.095  1.00  0.00     0.106 CG0
ATOM     16  G   UNL     1      -4.442 -15.279  -9.087  1.00  0.00     0.000 G0
ENDBRANCH  13  15
ENDBRANCH  12  13
BRANCH  12  17
ATOM     17  C   UNL     1      -2.965 -15.676  -5.482  1.00  0.00    -0.006 C 
ATOM     18  C   UNL     1      -3.402 -15.341  -4.044  1.00  0.00     0.008 C 
ATOM     19  C   UNL     1      -3.546 -17.037  -5.896  1.00  0.00     0.008 C 
ENDBRANCH  12  17
ENDBRANCH  11  12
ENDBRANCH   1  11
TORSDOF 1
ENDMDL
MODEL 8
REMARK VINA RESULT:    -2.906      1.815      3.386
REMARK INTER + INTRA:          -2.416
REMARK INTER:                  -4.847
REMARK INTRA:                   2.431
REMARK UNBOUND:                 2.019
REMARK SMILES CC1=CCC[C@@H](C)C(=O)C[C@H](C(C)C)C(=O)C1
REMARK SMILES IDX 8 1 9 2 6 3 7 4 5 5 4 6 3 7 2 8 1 9 10 11 11 12 15 13 16 14
REMARK SMILES IDX 17 15 12 17 13 18 14 19
REMARK H PARENT
REMARK Flexibility Score: 70.00
ROOT
ATOM      1  C   UNL     1      -2.360 -13.451  -7.987  1.00  0.00     0.136 C 
ATOM      2  O   UNL     1      -1.640 -14.209  -8.623  1.00  0.00    -0.299 OA
ENDROOT
BRANCH   1   3
ATOM      3  C   UNL     1      -2.854 -12.172  -8.636  1.00  0.00     0.053 C 
ATOM      4  C   UNL     1      -2.724 -10.993  -7.663  1.00  0.00     0.016 C 
BRANCH   3   5
ATOM      5  C   UNL     1      -4.314 -12.335  -9.114  1.00  0.00     0.015 C 
BRANCH   5   6
ATOM      6  C   UNL     1      -5.263 -11.365  -8.383  1.00  0.00     0.028 C 
BRANCH   6   7
ATOM      7  C   UNL     1      -5.617 -11.817  -6.988  1.00  0.00    -0.028 C 
ATOM      8  C   UNL     1      -6.020 -13.066  -6.644  1.00  0.00    -0.070 CG0
ATOM      9  C   UNL     1      -6.427 -13.300  -5.211  1.00  0.00     0.039 C 
ATOM     10  G   UNL     1      -6.036 -14.242  -7.611  1.00  0.00     0.000 G0
ENDBRANCH   6   7
ENDBRANCH   5   6
ENDBRANCH   3   5
ENDBRANCH   1   3
BRANCH   1  11
ATOM     11  C   UNL     1      -2.747 -13.822  -6.574  1.00  0.00     0.087 C 
BRANCH  11  12
ATOM     12  C   UNL     1      -3.754 -15.002  -6.530  1.00  0.00     0.066 C 
BRANCH  12  13
ATOM     13  C   UNL     1      -4.707 -14.959  -7.717  1.00  0.00     0.140 C 
ATOM     14  O   UNL     1      -4.428 -15.538  -8.756  1.00  0.00    -0.299 OA
BRANCH  13  15
ATOM     15  C   UNL     1      -6.033 -14.246  -7.594  1.00  0.00     0.106 CG0
ATOM     16  G   UNL     1      -6.013 -13.065  -6.634  1.00  0.00     0.000 G0
ENDBRANCH  13  15
ENDBRANCH  12  13
BRANCH  12  17
ATOM     17  C   UNL     1      -3.068 -16.400  -6.384  1.00  0.00    -0.006 C 
ATOM     18  C   UNL     1      -1.864 -16.406  -5.425  1.00  0.00     0.008 C 
ATOM     19  C   UNL     1      -4.075 -17.481  -5.958  1.00  0.00     0.008 C 
ENDBRANCH  12  17
ENDBRANCH  11  12
ENDBRANCH   1  11
TORSDOF 1
ENDMDL
MODEL 9
REMARK VINA RESULT:    -1.149      1.978      4.488
REMARK INTER + INTRA:           0.265
REMARK INTER:                  -2.114
REMARK INTRA:                   2.380
REMARK UNBOUND:                 2.019
REMARK SMILES CC1=CCC[C@@H](C)C(=O)C[C@H](C(C)C)C(=O)C1
REMARK SMILES IDX 8 1 9 2 6 3 7 4 5 5 4 6 3 7 2 8 1 9 10 11 11 12 15 13 16 14
REMARK SMILES IDX 17 15 12 17 13 18 14 19
REMARK H PARENT
REMARK Flexibility Score: 70.00
ROOT
ATOM      1  C   UNL     1      -2.536 -14.581  -5.229  1.00  0.00     0.136 C 
ATOM      2  O   UNL     1      -2.632 -14.864  -4.043  1.00  0.00    -0.299 OA
ENDROOT
BRANCH   1   3
ATOM      3  C   UNL     1      -2.264 -15.679  -6.239  1.00  0.00     0.053 C 
ATOM      4  C   UNL     1      -1.769 -15.080  -7.562  1.00  0.00     0.016 C 
BRANCH   3   5
ATOM      5  C   UNL     1      -3.529 -16.538  -6.461  1.00  0.00     0.015 C 
BRANCH   5   6
ATOM      6  C   UNL     1      -3.695 -16.933  -7.942  1.00  0.00     0.028 C 
BRANCH   6   7
ATOM      7  C   UNL     1      -4.569 -15.979  -8.718  1.00  0.00    -0.028 C 
ATOM      8  C   UNL     1      -5.468 -15.119  -8.178  1.00  0.00    -0.070 CG0
ATOM      9  C   UNL     1      -6.322 -14.313  -9.125  1.00  0.00     0.039 C 
ATOM     10  G   UNL     1      -5.624 -14.893  -6.680  1.00  0.00     0.000 G0
ENDBRANCH   6   7
ENDBRANCH   5   6
ENDBRANCH   3   5
ENDBRANCH   1   3
BRANCH   1  11
ATOM     11  C   UNL     1      -2.707 -13.140  -5.655  1.00  0.00     0.087 C 
BRANCH  11  12
ATOM     12  C   UNL     1      -3.810 -12.972  -6.734  1.00  0.00     0.066 C 
BRANCH  12  13
ATOM     13  C   UNL     1      -5.150 -13.501  -6.240  1.00  0.00     0.140 C 
ATOM     14  O   UNL     1      -5.862 -12.812  -5.525  1.00  0.00    -0.299 OA
BRANCH  13  15
ATOM     15  C   UNL     1      -5.632 -14.862  -6.682  1.00  0.00     0.106 CG0
ATOM     16  G   UNL     1      -5.471 -15.121  -8.175  1.00  0.00     0.000 G0
ENDBRANCH  13  15
ENDBRANCH  12  13
BRANCH  12  17
ATOM     17  C   UNL     1      -3.927 -11.512  -7.282  1.00  0.00    -0.006 C 
ATOM     18  C   UNL     1      -2.784 -11.111  -8.233  1.00  0.00     0.008 C 
ATOM     19  C   UNL     1      -5.281 -11.275  -7.970  1.00  0.00     0.008 C 
ENDBRANCH  12  17
ENDBRANCH  11  12
ENDBRANCH   1  11
TORSDOF 1
ENDMDL
