MODEL 1
REMARK VINA RESULT:    -5.513      0.000      0.000
REMARK INTER + INTRA:          -7.504
REMARK INTER:                  -6.803
REMARK INTRA:                  -0.701
REMARK UNBOUND:                -0.701
REMARK SMILES C=C(CCC=C(C)C)[C@H]1CC=C(C)CC1
REMARK SMILES IDX 3 1 2 2 1 3 9 4 13 5 12 6 11 7 14 8 10 9 15 10 4 11 5 12
REMARK SMILES IDX 6 13 7 14 8 15
REMARK H PARENT
REMARK Flexibility Score: inf
ROOT
ATOM      1  C   UNL     1       4.859   8.968  11.073  1.00  0.00     0.035 C 
ENDROOT
BRANCH   1   2
ATOM      2  C   UNL     1       3.649   9.414  11.878  1.00  0.00    -0.074 C 
ATOM      3  C   UNL     1       3.366   8.768  13.023  1.00  0.00     0.008 C 
BRANCH   2   4
ATOM      4  C   UNL     1       2.704  10.531  11.419  1.00  0.00     0.018 C 
ATOM      5  C   UNL     1       3.417  13.676  14.435  1.00  0.00     0.039 C 
ATOM      6  C   UNL     1       3.105  12.682  13.351  1.00  0.00    -0.077 C 
ATOM      7  C   UNL     1       1.999  11.916  13.460  1.00  0.00    -0.027 C 
ATOM      8  C   UNL     1       4.103  12.479  12.231  1.00  0.00     0.031 C 
ATOM      9  C   UNL     1       1.585  10.904  12.418  1.00  0.00     0.035 C 
ATOM     10  C   UNL     1       3.481  11.794  11.011  1.00  0.00     0.013 C 
ENDBRANCH   2   4
ENDBRANCH   1   2
BRANCH   1  11
ATOM     11  C   UNL     1       6.072   8.653  11.965  1.00  0.00     0.032 C 
BRANCH  11  12
ATOM     12  C   UNL     1       6.452   7.192  11.921  1.00  0.00    -0.028 C 
ATOM     13  C   UNL     1       7.086   6.535  12.917  1.00  0.00    -0.080 C 
ATOM     14  C   UNL     1       7.435   5.084  12.710  1.00  0.00     0.039 C 
ATOM     15  C   UNL     1       7.429   7.204  14.227  1.00  0.00     0.039 C 
ENDBRANCH  11  12
ENDBRANCH   1  11
TORSDOF 4
ENDMDL
MODEL 2
REMARK VINA RESULT:    -5.360      0.693      1.085
REMARK INTER + INTRA:          -7.314
REMARK INTER:                  -6.605
REMARK INTRA:                  -0.709
REMARK UNBOUND:                -0.701
REMARK SMILES C=C(CCC=C(C)C)[C@H]1CC=C(C)CC1
REMARK SMILES IDX 3 1 2 2 1 3 9 4 13 5 12 6 11 7 14 8 10 9 15 10 4 11 5 12
REMARK SMILES IDX 6 13 7 14 8 15
REMARK H PARENT
REMARK Flexibility Score: inf
ROOT
ATOM      1  C   UNL     1       4.824   9.072  11.171  1.00  0.00     0.035 C 
ENDROOT
BRANCH   1   2
ATOM      2  C   UNL     1       3.568   9.363  11.979  1.00  0.00    -0.074 C 
ATOM      3  C   UNL     1       3.315   8.610  13.065  1.00  0.00     0.008 C 
BRANCH   2   4
ATOM      4  C   UNL     1       2.550  10.438  11.583  1.00  0.00     0.018 C 
ATOM      5  C   UNL     1       3.495  13.718  14.385  1.00  0.00     0.039 C 
ATOM      6  C   UNL     1       3.097  12.673  13.379  1.00  0.00    -0.077 C 
ATOM      7  C   UNL     1       2.031  11.888  13.636  1.00  0.00    -0.027 C 
ATOM      8  C   UNL     1       3.974  12.449  12.166  1.00  0.00     0.031 C 
ATOM      9  C   UNL     1       1.534  10.825  12.683  1.00  0.00     0.035 C 
ATOM     10  C   UNL     1       3.244  11.701  11.047  1.00  0.00     0.013 C 
ENDBRANCH   2   4
ENDBRANCH   1   2
BRANCH   1  11
ATOM     11  C   UNL     1       5.595   7.853  11.706  1.00  0.00     0.032 C 
BRANCH  11  12
ATOM     12  C   UNL     1       6.903   8.241  12.352  1.00  0.00    -0.028 C 
ATOM     13  C   UNL     1       7.512   7.536  13.331  1.00  0.00    -0.080 C 
ATOM     14  C   UNL     1       8.798   8.072  13.906  1.00  0.00     0.039 C 
ATOM     15  C   UNL     1       6.956   6.227  13.841  1.00  0.00     0.039 C 
ENDBRANCH  11  12
ENDBRANCH   1  11
TORSDOF 4
ENDMDL
MODEL 3
REMARK VINA RESULT:    -4.729      1.318      6.305
REMARK INTER + INTRA:          -6.535
REMARK INTER:                  -6.874
REMARK INTRA:                   0.339
REMARK UNBOUND:                -0.701
REMARK SMILES C=C(CCC=C(C)C)[C@H]1CC=C(C)CC1
REMARK SMILES IDX 3 1 2 2 1 3 9 4 13 5 12 6 11 7 14 8 10 9 15 10 4 11 5 12
REMARK SMILES IDX 6 13 7 14 8 15
REMARK H PARENT
REMARK Flexibility Score: inf
ROOT
ATOM      1  C   UNL     1       3.516   9.554  11.289  1.00  0.00     0.035 C 
ENDROOT
BRANCH   1   2
ATOM      2  C   UNL     1       4.609   8.573  11.683  1.00  0.00    -0.074 C 
ATOM      3  C   UNL     1       5.689   8.461  10.887  1.00  0.00     0.008 C 
BRANCH   2   4
ATOM      4  C   UNL     1       4.515   7.666  12.915  1.00  0.00     0.018 C 
ATOM      5  C   UNL     1       7.882   4.876  12.298  1.00  0.00     0.039 C 
ATOM      6  C   UNL     1       6.719   5.776  12.613  1.00  0.00    -0.077 C 
ATOM      7  C   UNL     1       5.469   5.358  12.324  1.00  0.00    -0.027 C 
ATOM      8  C   UNL     1       6.989   7.172  13.130  1.00  0.00     0.031 C 
ATOM      9  C   UNL     1       4.232   6.175  12.620  1.00  0.00     0.035 C 
ATOM     10  C   UNL     1       5.763   7.794  13.805  1.00  0.00     0.013 C 
ENDBRANCH   2   4
ENDBRANCH   1   2
BRANCH   1  11
ATOM     11  C   UNL     1       4.043  10.992  11.145  1.00  0.00     0.032 C 
BRANCH  11  12
ATOM     12  C   UNL     1       3.864  11.797  12.410  1.00  0.00    -0.028 C 
ATOM     13  C   UNL     1       3.777  13.145  12.455  1.00  0.00    -0.080 C 
ATOM     14  C   UNL     1       3.638  13.810  13.800  1.00  0.00     0.039 C 
ATOM     15  C   UNL     1       3.791  13.991  11.203  1.00  0.00     0.039 C 
ENDBRANCH  11  12
ENDBRANCH   1  11
TORSDOF 4
ENDMDL
MODEL 4
REMARK VINA RESULT:    -4.376      1.213      5.979
REMARK INTER + INTRA:          -6.100
REMARK INTER:                  -5.585
REMARK INTRA:                  -0.515
REMARK UNBOUND:                -0.701
REMARK SMILES C=C(CCC=C(C)C)[C@H]1CC=C(C)CC1
REMARK SMILES IDX 3 1 2 2 1 3 9 4 13 5 12 6 11 7 14 8 10 9 15 10 4 11 5 12
REMARK SMILES IDX 6 13 7 14 8 15
REMARK H PARENT
REMARK Flexibility Score: inf
ROOT
ATOM      1  C   UNL     1       2.927   9.509  12.490  1.00  0.00     0.035 C 
ENDROOT
BRANCH   1   2
ATOM      2  C   UNL     1       4.107   9.369  11.542  1.00  0.00    -0.074 C 
ATOM      3  C   UNL     1       4.568  10.470  10.922  1.00  0.00     0.008 C 
BRANCH   2   4
ATOM      4  C   UNL     1       4.763   8.022  11.216  1.00  0.00     0.018 C 
ATOM      5  C   UNL     1       7.747   7.614  14.446  1.00  0.00     0.039 C 
ATOM      6  C   UNL     1       6.759   7.644  13.312  1.00  0.00    -0.077 C 
ATOM      7  C   UNL     1       7.175   8.038  12.090  1.00  0.00    -0.027 C 
ATOM      8  C   UNL     1       5.302   7.352  13.598  1.00  0.00     0.031 C 
ATOM      9  C   UNL     1       6.271   8.082  10.881  1.00  0.00     0.035 C 
ATOM     10  C   UNL     1       4.518   6.992  12.333  1.00  0.00     0.013 C 
ENDBRANCH   2   4
ENDBRANCH   1   2
BRANCH   1  11
ATOM     11  C   UNL     1       2.177  10.839  12.298  1.00  0.00     0.032 C 
BRANCH  11  12
ATOM     12  C   UNL     1       2.652  11.907  13.253  1.00  0.00    -0.028 C 
ATOM     13  C   UNL     1       3.047  13.145  12.883  1.00  0.00    -0.080 C 
ATOM     14  C   UNL     1       3.534  14.092  13.949  1.00  0.00     0.039 C 
ATOM     15  C   UNL     1       2.992  13.608  11.445  1.00  0.00     0.039 C 
ENDBRANCH  11  12
ENDBRANCH   1  11
TORSDOF 4
ENDMDL
MODEL 5
REMARK VINA RESULT:    -4.369      1.355      6.377
REMARK INTER + INTRA:          -6.092
REMARK INTER:                  -6.494
REMARK INTRA:                   0.402
REMARK UNBOUND:                -0.701
REMARK SMILES C=C(CCC=C(C)C)[C@H]1CC=C(C)CC1
REMARK SMILES IDX 3 1 2 2 1 3 9 4 13 5 12 6 11 7 14 8 10 9 15 10 4 11 5 12
REMARK SMILES IDX 6 13 7 14 8 15
REMARK H PARENT
REMARK Flexibility Score: inf
ROOT
ATOM      1  C   UNL     1       4.784   9.665  11.006  1.00  0.00     0.035 C 
ENDROOT
BRANCH   1   2
ATOM      2  C   UNL     1       5.336   8.500  11.812  1.00  0.00    -0.074 C 
ATOM      3  C   UNL     1       4.468   7.692  12.448  1.00  0.00     0.008 C 
BRANCH   2   4
ATOM      4  C   UNL     1       6.836   8.233  11.978  1.00  0.00     0.018 C 
ATOM      5  C   UNL     1       6.890   4.875  14.846  1.00  0.00     0.039 C 
ATOM      6  C   UNL     1       6.988   6.006  13.859  1.00  0.00    -0.077 C 
ATOM      7  C   UNL     1       7.252   7.250  14.311  1.00  0.00    -0.027 C 
ATOM      8  C   UNL     1       6.666   5.743  12.404  1.00  0.00     0.031 C 
ATOM      9  C   UNL     1       7.393   8.450  13.404  1.00  0.00     0.035 C 
ATOM     10  C   UNL     1       7.218   6.830  11.477  1.00  0.00     0.013 C 
ENDBRANCH   2   4
ENDBRANCH   1   2
BRANCH   1  11
ATOM     11  C   UNL     1       4.031  10.680  11.883  1.00  0.00     0.032 C 
BRANCH  11  12
ATOM     12  C   UNL     1       3.864  12.016  11.199  1.00  0.00    -0.028 C 
ATOM     13  C   UNL     1       3.862  13.207  11.836  1.00  0.00    -0.080 C 
ATOM     14  C   UNL     1       3.644  14.456  11.020  1.00  0.00     0.039 C 
ATOM     15  C   UNL     1       4.093  13.321  13.324  1.00  0.00     0.039 C 
ENDBRANCH  11  12
ENDBRANCH   1  11
TORSDOF 4
ENDMDL
MODEL 6
REMARK VINA RESULT:    -3.660      1.292      6.052
REMARK INTER + INTRA:          -5.217
REMARK INTER:                  -5.003
REMARK INTRA:                  -0.214
REMARK UNBOUND:                -0.701
REMARK SMILES C=C(CCC=C(C)C)[C@H]1CC=C(C)CC1
REMARK SMILES IDX 3 1 2 2 1 3 9 4 13 5 12 6 11 7 14 8 10 9 15 10 4 11 5 12
REMARK SMILES IDX 6 13 7 14 8 15
REMARK H PARENT
REMARK Flexibility Score: inf
ROOT
ATOM      1  C   UNL     1       5.209   9.241  12.100  1.00  0.00     0.035 C 
ENDROOT
BRANCH   1   2
ATOM      2  C   UNL     1       5.045   7.738  11.937  1.00  0.00    -0.074 C 
ATOM      3  C   UNL     1       4.358   7.279  10.875  1.00  0.00     0.008 C 
BRANCH   2   4
ATOM      4  C   UNL     1       5.579   6.723  12.954  1.00  0.00     0.018 C 
ATOM      5  C   UNL     1       9.716   8.121  13.607  1.00  0.00     0.039 C 
ATOM      6  C   UNL     1       8.325   7.565  13.470  1.00  0.00    -0.077 C 
ATOM      7  C   UNL     1       8.118   6.507  12.659  1.00  0.00    -0.027 C 
ATOM      8  C   UNL     1       7.177   8.284  14.145  1.00  0.00     0.031 C 
ATOM      9  C   UNL     1       6.766   5.860  12.468  1.00  0.00     0.035 C 
ATOM     10  C   UNL     1       5.936   7.398  14.289  1.00  0.00     0.013 C 
ENDBRANCH   2   4
ENDBRANCH   1   2
BRANCH   1  11
ATOM     11  C   UNL     1       4.232  10.036  11.217  1.00  0.00     0.032 C 
BRANCH  11  12
ATOM     12  C   UNL     1       2.989  10.450  11.967  1.00  0.00    -0.028 C 
ATOM     13  C   UNL     1       2.836  11.631  12.605  1.00  0.00    -0.080 C 
ATOM     14  C   UNL     1       1.548  11.885  13.346  1.00  0.00     0.039 C 
ATOM     15  C   UNL     1       3.901  12.703  12.574  1.00  0.00     0.039 C 
ENDBRANCH  11  12
ENDBRANCH   1  11
TORSDOF 4
ENDMDL
MODEL 7
REMARK VINA RESULT:    -3.403      2.736      6.868
REMARK INTER + INTRA:          -4.899
REMARK INTER:                  -4.761
REMARK INTRA:                  -0.138
REMARK UNBOUND:                -0.701
REMARK SMILES C=C(CCC=C(C)C)[C@H]1CC=C(C)CC1
REMARK SMILES IDX 3 1 2 2 1 3 9 4 13 5 12 6 11 7 14 8 10 9 15 10 4 11 5 12
REMARK SMILES IDX 6 13 7 14 8 15
REMARK H PARENT
REMARK Flexibility Score: inf
ROOT
ATOM      1  C   UNL     1       3.561  13.962  13.126  1.00  0.00     0.035 C 
ENDROOT
BRANCH   1   2
ATOM      2  C   UNL     1       2.675  12.727  13.094  1.00  0.00    -0.074 C 
ATOM      3  C   UNL     1       2.189  12.256  14.257  1.00  0.00     0.008 C 
BRANCH   2   4
ATOM      4  C   UNL     1       2.354  11.960  11.806  1.00  0.00     0.018 C 
ATOM      5  C   UNL     1       4.724   8.265  12.286  1.00  0.00     0.039 C 
ATOM      6  C   UNL     1       3.871   9.476  12.025  1.00  0.00    -0.077 C 
ATOM      7  C   UNL     1       4.343  10.450  11.219  1.00  0.00    -0.027 C 
ATOM      8  C   UNL     1       2.563   9.627  12.770  1.00  0.00     0.031 C 
ATOM      9  C   UNL     1       3.559  11.695  10.875  1.00  0.00     0.035 C 
ATOM     10  C   UNL     1       1.624  10.639  12.105  1.00  0.00     0.013 C 
ENDBRANCH   2   4
ENDBRANCH   1   2
BRANCH   1  11
ATOM     11  C   UNL     1       3.216  14.959  12.006  1.00  0.00     0.032 C 
BRANCH  11  12
ATOM     12  C   UNL     1       4.394  15.825  11.628  1.00  0.00    -0.028 C 
ATOM     13  C   UNL     1       4.305  17.124  11.267  1.00  0.00    -0.080 C 
ATOM     14  C   UNL     1       5.567  17.848  10.877  1.00  0.00     0.039 C 
ATOM     15  C   UNL     1       2.989  17.868  11.268  1.00  0.00     0.039 C 
ENDBRANCH  11  12
ENDBRANCH   1  11
TORSDOF 4
ENDMDL
MODEL 8
REMARK VINA RESULT:    -3.090      1.189      1.839
REMARK INTER + INTRA:          -4.513
REMARK INTER:                  -4.114
REMARK INTRA:                  -0.399
REMARK UNBOUND:                -0.701
REMARK SMILES C=C(CCC=C(C)C)[C@H]1CC=C(C)CC1
REMARK SMILES IDX 3 1 2 2 1 3 9 4 13 5 12 6 11 7 14 8 10 9 15 10 4 11 5 12
REMARK SMILES IDX 6 13 7 14 8 15
REMARK H PARENT
REMARK Flexibility Score: inf
ROOT
ATOM      1  C   UNL     1       4.469   8.901  11.253  1.00  0.00     0.035 C 
ENDROOT
BRANCH   1   2
ATOM      2  C   UNL     1       4.230  10.377  11.526  1.00  0.00    -0.074 C 
ATOM      3  C   UNL     1       5.022  11.002  12.417  1.00  0.00     0.008 C 
BRANCH   2   4
ATOM      4  C   UNL     1       3.095  11.175  10.875  1.00  0.00     0.018 C 
ATOM      5  C   UNL     1       0.323  11.808  14.254  1.00  0.00     0.039 C 
ATOM      6  C   UNL     1       1.197  11.662  13.039  1.00  0.00    -0.077 C 
ATOM      7  C   UNL     1       0.913  10.699  12.138  1.00  0.00    -0.027 C 
ATOM      8  C   UNL     1       2.441  12.516  12.922  1.00  0.00     0.031 C 
ATOM      9  C   UNL     1       1.713  10.482  10.875  1.00  0.00     0.035 C 
ATOM     10  C   UNL     1       2.972  12.582  11.487  1.00  0.00     0.013 C 
ENDBRANCH   2   4
ENDBRANCH   1   2
BRANCH   1  11
ATOM     11  C   UNL     1       4.112   8.016  12.460  1.00  0.00     0.032 C 
BRANCH  11  12
ATOM     12  C   UNL     1       4.750   6.650  12.378  1.00  0.00    -0.028 C 
ATOM     13  C   UNL     1       5.925   6.317  12.957  1.00  0.00    -0.080 C 
ATOM     14  C   UNL     1       6.455   4.921  12.752  1.00  0.00     0.039 C 
ATOM     15  C   UNL     1       6.700   7.290  13.814  1.00  0.00     0.039 C 
ENDBRANCH  11  12
ENDBRANCH   1  11
TORSDOF 4
ENDMDL
MODEL 9
REMARK VINA RESULT:    -2.778      1.719      6.113
REMARK INTER + INTRA:          -4.128
REMARK INTER:                  -3.255
REMARK INTRA:                  -0.874
REMARK UNBOUND:                -0.701
REMARK SMILES C=C(CCC=C(C)C)[C@H]1CC=C(C)CC1
REMARK SMILES IDX 3 1 2 2 1 3 9 4 13 5 12 6 11 7 14 8 10 9 15 10 4 11 5 12
REMARK SMILES IDX 6 13 7 14 8 15
REMARK H PARENT
REMARK Flexibility Score: inf
ROOT
ATOM      1  C   UNL     1       4.851   6.814  11.552  1.00  0.00     0.035 C 
ENDROOT
BRANCH   1   2
ATOM      2  C   UNL     1       4.980   5.544  12.378  1.00  0.00    -0.074 C 
ATOM      3  C   UNL     1       3.856   4.908  12.758  1.00  0.00     0.008 C 
BRANCH   2   4
ATOM      4  C   UNL     1       6.328   4.983  12.846  1.00  0.00     0.018 C 
ATOM      5  C   UNL     1       8.518   8.634  14.018  1.00  0.00     0.039 C 
ATOM      6  C   UNL     1       7.863   7.328  13.661  1.00  0.00    -0.077 C 
ATOM      7  C   UNL     1       8.142   6.758  12.470  1.00  0.00    -0.027 C 
ATOM      8  C   UNL     1       6.815   6.754  14.590  1.00  0.00     0.031 C 
ATOM      9  C   UNL     1       7.555   5.439  12.025  1.00  0.00     0.035 C 
ATOM     10  C   UNL     1       6.566   5.263  14.340  1.00  0.00     0.013 C 
ENDBRANCH   2   4
ENDBRANCH   1   2
BRANCH   1  11
ATOM     11  C   UNL     1       4.376   8.013  12.391  1.00  0.00     0.032 C 
BRANCH  11  12
ATOM     12  C   UNL     1       4.581   9.328  11.677  1.00  0.00    -0.028 C 
ATOM     13  C   UNL     1       3.686  10.341  11.667  1.00  0.00    -0.080 C 
ATOM     14  C   UNL     1       4.016  11.580  10.875  1.00  0.00     0.039 C 
ATOM     15  C   UNL     1       2.389  10.273  12.439  1.00  0.00     0.039 C 
ENDBRANCH  11  12
ENDBRANCH   1  11
TORSDOF 4
ENDMDL
