MODEL 1
REMARK VINA RESULT:    -4.115      0.000      0.000
REMARK INTER + INTRA:          -5.632
REMARK INTER:                  -5.318
REMARK INTRA:                  -0.314
REMARK UNBOUND:                -0.314
REMARK SMILES CCCCCCC(=O)[O-]
REMARK SMILES IDX 5 1 6 2 7 3 8 4 9 5 4 6 3 7 2 8 1 9
REMARK H PARENT
REMARK Flexibility Score: inf
ROOT
ATOM      1  C   UNL     1     -25.884 -33.995 -11.450  1.00  0.00     0.006 C 
ENDROOT
BRANCH   1   2
ATOM      2  C   UNL     1     -24.550 -33.882 -12.199  1.00  0.00     0.053 C 
BRANCH   2   3
ATOM      3  C   UNL     1     -24.052 -35.240 -12.585  1.00  0.00     0.041 C 
ATOM      4  O   UNL     1     -24.861 -36.123 -12.974  1.00  0.00    -0.550 OA
ATOM      5  O   UNL     1     -22.691 -35.513 -12.563  1.00  0.00    -0.550 OA
ENDBRANCH   2   3
ENDBRANCH   1   2
BRANCH   1   6
ATOM      6  C   UNL     1     -26.887 -32.906 -11.861  1.00  0.00     0.000 C 
BRANCH   6   7
ATOM      7  C   UNL     1     -28.085 -33.468 -12.641  1.00  0.00    -0.000 C 
BRANCH   7   8
ATOM      8  C   UNL     1     -27.727 -33.684 -14.115  1.00  0.00    -0.003 C 
ATOM      9  C   UNL     1     -27.780 -35.164 -14.485  1.00  0.00     0.004 C 
ENDBRANCH   7   8
ENDBRANCH   6   7
ENDBRANCH   1   6
TORSDOF 5
ENDMDL
MODEL 2
REMARK VINA RESULT:    -4.053      2.995      4.290
REMARK INTER + INTRA:          -5.551
REMARK INTER:                  -5.214
REMARK INTRA:                  -0.337
REMARK UNBOUND:                -0.314
REMARK SMILES CCCCCCC(=O)[O-]
REMARK SMILES IDX 5 1 6 2 7 3 8 4 9 5 4 6 3 7 2 8 1 9
REMARK H PARENT
REMARK Flexibility Score: inf
ROOT
ATOM      1  C   UNL     1     -27.719 -33.595 -13.141  1.00  0.00     0.006 C 
ENDROOT
BRANCH   1   2
ATOM      2  C   UNL     1     -28.394 -32.225 -12.992  1.00  0.00     0.053 C 
BRANCH   2   3
ATOM      3  C   UNL     1     -27.472 -31.259 -12.318  1.00  0.00     0.041 C 
ATOM      4  O   UNL     1     -26.375 -30.951 -12.854  1.00  0.00    -0.550 OA
ATOM      5  O   UNL     1     -27.845 -30.662 -11.121  1.00  0.00    -0.550 OA
ENDBRANCH   2   3
ENDBRANCH   1   2
BRANCH   1   6
ATOM      6  C   UNL     1     -27.787 -34.430 -11.853  1.00  0.00     0.000 C 
BRANCH   6   7
ATOM      7  C   UNL     1     -26.411 -34.626 -11.201  1.00  0.00    -0.000 C 
BRANCH   7   8
ATOM      8  C   UNL     1     -25.287 -34.464 -12.232  1.00  0.00    -0.003 C 
ATOM      9  C   UNL     1     -24.755 -35.821 -12.686  1.00  0.00     0.004 C 
ENDBRANCH   7   8
ENDBRANCH   6   7
ENDBRANCH   1   6
TORSDOF 5
ENDMDL
MODEL 3
REMARK VINA RESULT:    -4.047      1.089      1.850
REMARK INTER + INTRA:          -5.544
REMARK INTER:                  -5.217
REMARK INTRA:                  -0.327
REMARK UNBOUND:                -0.314
REMARK SMILES CCCCCCC(=O)[O-]
REMARK SMILES IDX 5 1 6 2 7 3 8 4 9 5 4 6 3 7 2 8 1 9
REMARK H PARENT
REMARK Flexibility Score: inf
ROOT
ATOM      1  C   UNL     1     -26.472 -34.720 -11.317  1.00  0.00     0.006 C 
ENDROOT
BRANCH   1   2
ATOM      2  C   UNL     1     -25.270 -34.141 -12.076  1.00  0.00     0.053 C 
BRANCH   2   3
ATOM      3  C   UNL     1     -24.441 -35.243 -12.657  1.00  0.00     0.041 C 
ATOM      4  O   UNL     1     -24.993 -36.280 -13.110  1.00  0.00    -0.550 OA
ATOM      5  O   UNL     1     -23.062 -35.104 -12.742  1.00  0.00    -0.550 OA
ENDBRANCH   2   3
ENDBRANCH   1   2
BRANCH   1   6
ATOM      6  C   UNL     1     -27.817 -34.306 -11.933  1.00  0.00     0.000 C 
BRANCH   6   7
ATOM      7  C   UNL     1     -27.650 -33.436 -13.188  1.00  0.00    -0.000 C 
BRANCH   7   8
ATOM      8  C   UNL     1     -28.440 -32.129 -13.059  1.00  0.00    -0.003 C 
ATOM      9  C   UNL     1     -27.596 -31.036 -12.407  1.00  0.00     0.004 C 
ENDBRANCH   7   8
ENDBRANCH   6   7
ENDBRANCH   1   6
TORSDOF 5
ENDMDL
MODEL 4
REMARK VINA RESULT:    -4.008      3.104      3.714
REMARK INTER + INTRA:          -5.494
REMARK INTER:                  -5.189
REMARK INTRA:                  -0.305
REMARK UNBOUND:                -0.314
REMARK SMILES CCCCCCC(=O)[O-]
REMARK SMILES IDX 5 1 6 2 7 3 8 4 9 5 4 6 3 7 2 8 1 9
REMARK H PARENT
REMARK Flexibility Score: inf
ROOT
ATOM      1  C   UNL     1     -25.595 -33.251 -11.846  1.00  0.00     0.006 C 
ENDROOT
BRANCH   1   2
ATOM      2  C   UNL     1     -25.784 -32.051 -10.909  1.00  0.00     0.053 C 
BRANCH   2   3
ATOM      3  C   UNL     1     -26.585 -30.984 -11.585  1.00  0.00     0.041 C 
ATOM      4  O   UNL     1     -26.163 -30.449 -12.644  1.00  0.00    -0.550 OA
ATOM      5  O   UNL     1     -27.821 -30.612 -11.071  1.00  0.00    -0.550 OA
ENDBRANCH   2   3
ENDBRANCH   1   2
BRANCH   1   6
ATOM      6  C   UNL     1     -26.441 -34.465 -11.432  1.00  0.00     0.000 C 
BRANCH   6   7
ATOM      7  C   UNL     1     -27.871 -34.407 -11.989  1.00  0.00    -0.000 C 
BRANCH   7   8
ATOM      8  C   UNL     1     -27.875 -33.917 -13.442  1.00  0.00    -0.003 C 
ATOM      9  C   UNL     1     -27.672 -35.076 -14.415  1.00  0.00     0.004 C 
ENDBRANCH   7   8
ENDBRANCH   6   7
ENDBRANCH   1   6
TORSDOF 5
ENDMDL
MODEL 5
REMARK VINA RESULT:    -3.988      3.177      3.785
REMARK INTER + INTRA:          -5.467
REMARK INTER:                  -5.182
REMARK INTRA:                  -0.286
REMARK UNBOUND:                -0.314
REMARK SMILES CCCCCCC(=O)[O-]
REMARK SMILES IDX 5 1 6 2 7 3 8 4 9 5 4 6 3 7 2 8 1 9
REMARK H PARENT
REMARK Flexibility Score: inf
ROOT
ATOM      1  C   UNL     1     -25.707 -33.036 -11.883  1.00  0.00     0.006 C 
ENDROOT
BRANCH   1   2
ATOM      2  C   UNL     1     -26.059 -31.862 -10.959  1.00  0.00     0.053 C 
BRANCH   2   3
ATOM      3  C   UNL     1     -26.959 -30.896 -11.663  1.00  0.00     0.041 C 
ATOM      4  O   UNL     1     -27.892 -30.328 -11.037  1.00  0.00    -0.550 OA
ATOM      5  O   UNL     1     -26.739 -30.588 -12.999  1.00  0.00    -0.550 OA
ENDBRANCH   2   3
ENDBRANCH   1   2
BRANCH   1   6
ATOM      6  C   UNL     1     -26.412 -34.339 -11.477  1.00  0.00     0.000 C 
BRANCH   6   7
ATOM      7  C   UNL     1     -27.859 -34.413 -11.986  1.00  0.00    -0.000 C 
BRANCH   7   8
ATOM      8  C   UNL     1     -27.950 -33.962 -13.449  1.00  0.00    -0.003 C 
ATOM      9  C   UNL     1     -27.655 -35.117 -14.401  1.00  0.00     0.004 C 
ENDBRANCH   7   8
ENDBRANCH   6   7
ENDBRANCH   1   6
TORSDOF 5
ENDMDL
MODEL 6
REMARK VINA RESULT:    -3.886      1.681      3.201
REMARK INTER + INTRA:          -5.336
REMARK INTER:                  -4.983
REMARK INTRA:                  -0.353
REMARK UNBOUND:                -0.314
REMARK SMILES CCCCCCC(=O)[O-]
REMARK SMILES IDX 5 1 6 2 7 3 8 4 9 5 4 6 3 7 2 8 1 9
REMARK H PARENT
REMARK Flexibility Score: inf
ROOT
ATOM      1  C   UNL     1     -28.283 -33.685 -12.425  1.00  0.00     0.006 C 
ENDROOT
BRANCH   1   2
ATOM      2  C   UNL     1     -27.454 -34.653 -13.279  1.00  0.00     0.053 C 
BRANCH   2   3
ATOM      3  C   UNL     1     -26.217 -35.068 -12.546  1.00  0.00     0.041 C 
ATOM      4  O   UNL     1     -26.057 -34.742 -11.340  1.00  0.00    -0.550 OA
ATOM      5  O   UNL     1     -25.265 -35.855 -13.179  1.00  0.00    -0.550 OA
ENDBRANCH   2   3
ENDBRANCH   1   2
BRANCH   1   6
ATOM      6  C   UNL     1     -28.313 -32.262 -13.002  1.00  0.00     0.000 C 
BRANCH   6   7
ATOM      7  C   UNL     1     -27.899 -31.198 -11.976  1.00  0.00    -0.000 C 
BRANCH   7   8
ATOM      8  C   UNL     1     -26.373 -31.113 -11.859  1.00  0.00    -0.003 C 
ATOM      9  C   UNL     1     -25.915 -31.360 -10.424  1.00  0.00     0.004 C 
ENDBRANCH   7   8
ENDBRANCH   6   7
ENDBRANCH   1   6
TORSDOF 5
ENDMDL
MODEL 7
REMARK VINA RESULT:    -3.864      2.875      3.914
REMARK INTER + INTRA:          -5.307
REMARK INTER:                  -4.942
REMARK INTRA:                  -0.365
REMARK UNBOUND:                -0.314
REMARK SMILES CCCCCCC(=O)[O-]
REMARK SMILES IDX 5 1 6 2 7 3 8 4 9 5 4 6 3 7 2 8 1 9
REMARK H PARENT
REMARK Flexibility Score: inf
ROOT
ATOM      1  C   UNL     1     -28.456 -31.738 -12.974  1.00  0.00     0.006 C 
ENDROOT
BRANCH   1   2
ATOM      2  C   UNL     1     -27.944 -30.814 -11.862  1.00  0.00     0.053 C 
BRANCH   2   3
ATOM      3  C   UNL     1     -26.497 -31.077 -11.590  1.00  0.00     0.041 C 
ATOM      4  O   UNL     1     -25.648 -30.964 -12.513  1.00  0.00    -0.550 OA
ATOM      5  O   UNL     1     -26.079 -31.400 -10.306  1.00  0.00    -0.550 OA
ENDBRANCH   2   3
ENDBRANCH   1   2
BRANCH   1   6
ATOM      6  C   UNL     1     -28.321 -33.226 -12.617  1.00  0.00     0.000 C 
BRANCH   6   7
ATOM      7  C   UNL     1     -27.766 -34.066 -13.777  1.00  0.00    -0.000 C 
BRANCH   7   8
ATOM      8  C   UNL     1     -26.729 -35.077 -13.275  1.00  0.00    -0.003 C 
ATOM      9  C   UNL     1     -26.203 -34.690 -11.896  1.00  0.00     0.004 C 
ENDBRANCH   7   8
ENDBRANCH   6   7
ENDBRANCH   1   6
TORSDOF 5
ENDMDL
MODEL 8
REMARK VINA RESULT:    -3.849      3.060      4.457
REMARK INTER + INTRA:          -5.287
REMARK INTER:                  -5.012
REMARK INTRA:                  -0.275
REMARK UNBOUND:                -0.314
REMARK SMILES CCCCCCC(=O)[O-]
REMARK SMILES IDX 5 1 6 2 7 3 8 4 9 5 4 6 3 7 2 8 1 9
REMARK H PARENT
REMARK Flexibility Score: inf
ROOT
ATOM      1  C   UNL     1     -27.518 -34.322 -11.845  1.00  0.00     0.006 C 
ENDROOT
BRANCH   1   2
ATOM      2  C   UNL     1     -27.572 -33.331 -13.015  1.00  0.00     0.053 C 
BRANCH   2   3
ATOM      3  C   UNL     1     -28.057 -31.995 -12.545  1.00  0.00     0.041 C 
ATOM      4  O   UNL     1     -28.932 -31.373 -13.202  1.00  0.00    -0.550 OA
ATOM      5  O   UNL     1     -27.577 -31.461 -11.357  1.00  0.00    -0.550 OA
ENDBRANCH   2   3
ENDBRANCH   1   2
BRANCH   1   6
ATOM      6  C   UNL     1     -26.080 -34.682 -11.440  1.00  0.00     0.000 C 
BRANCH   6   7
ATOM      7  C   UNL     1     -25.327 -35.439 -12.544  1.00  0.00    -0.000 C 
BRANCH   7   8
ATOM      8  C   UNL     1     -23.859 -35.001 -12.605  1.00  0.00    -0.003 C 
ATOM      9  C   UNL     1     -23.720 -33.500 -12.363  1.00  0.00     0.004 C 
ENDBRANCH   7   8
ENDBRANCH   6   7
ENDBRANCH   1   6
TORSDOF 5
ENDMDL
MODEL 9
REMARK VINA RESULT:    -3.742      2.418      3.188
REMARK INTER + INTRA:          -5.150
REMARK INTER:                  -4.718
REMARK INTRA:                  -0.431
REMARK UNBOUND:                -0.314
REMARK SMILES CCCCCCC(=O)[O-]
REMARK SMILES IDX 5 1 6 2 7 3 8 4 9 5 4 6 3 7 2 8 1 9
REMARK H PARENT
REMARK Flexibility Score: inf
ROOT
ATOM      1  C   UNL     1     -24.997 -33.330 -12.004  1.00  0.00     0.006 C 
ENDROOT
BRANCH   1   2
ATOM      2  C   UNL     1     -25.632 -34.697 -11.719  1.00  0.00     0.053 C 
BRANCH   2   3
ATOM      3  C   UNL     1     -27.044 -34.729 -12.212  1.00  0.00     0.041 C 
ATOM      4  O   UNL     1     -28.001 -34.741 -11.394  1.00  0.00    -0.550 OA
ATOM      5  O   UNL     1     -27.305 -34.696 -13.576  1.00  0.00    -0.550 OA
ENDBRANCH   2   3
ENDBRANCH   1   2
BRANCH   1   6
ATOM      6  C   UNL     1     -25.609 -32.204 -11.157  1.00  0.00     0.000 C 
BRANCH   6   7
ATOM      7  C   UNL     1     -26.302 -31.131 -12.009  1.00  0.00    -0.000 C 
BRANCH   7   8
ATOM      8  C   UNL     1     -27.810 -31.103 -11.737  1.00  0.00    -0.003 C 
ATOM      9  C   UNL     1     -28.606 -31.363 -13.013  1.00  0.00     0.004 C 
ENDBRANCH   7   8
ENDBRANCH   6   7
ENDBRANCH   1   6
TORSDOF 5
ENDMDL
