MODEL 1
REMARK VINA RESULT:    -4.639      0.000      0.000
REMARK INTER + INTRA:          -7.331
REMARK INTER:                  -7.079
REMARK INTRA:                  -0.251
REMARK UNBOUND:                -0.251
REMARK SMILES CC1=CCC[C@H](C)C(=O)C[C@H](C(C)C)C(=O)C1
REMARK SMILES IDX 8 1 9 2 6 3 7 4 5 5 4 6 3 7 2 8 1 9 10 11 11 12 15 13 16 14
REMARK SMILES IDX 17 15 12 17 13 18 14 19
REMARK H PARENT
REMARK Flexibility Score: 70.00
ROOT
ATOM      1  C   UNL     1      32.187  21.032  25.402  1.00  0.00     0.136 C 
ATOM      2  O   UNL     1      32.269  22.208  25.078  1.00  0.00    -0.299 OA
ENDROOT
BRANCH   1   3
ATOM      3  C   UNL     1      33.004  20.511  26.565  1.00  0.00     0.053 C 
ATOM      4  C   UNL     1      34.312  21.305  26.663  1.00  0.00     0.016 C 
BRANCH   3   5
ATOM      5  C   UNL     1      32.235  20.585  27.906  1.00  0.00     0.015 C 
BRANCH   5   6
ATOM      6  C   UNL     1      31.031  19.634  27.984  1.00  0.00     0.028 C 
BRANCH   6   7
ATOM      7  C   UNL     1      31.473  18.192  28.071  1.00  0.00    -0.028 C 
ATOM      8  C   UNL     1      31.244  17.252  27.128  1.00  0.00    -0.070 CG0
ATOM      9  C   UNL     1      31.752  15.856  27.377  1.00  0.00     0.039 C 
ATOM     10  G   UNL     1      30.492  17.543  25.841  1.00  0.00     0.000 G0
ENDBRANCH   6   7
ENDBRANCH   5   6
ENDBRANCH   3   5
ENDBRANCH   1   3
BRANCH   1  11
ATOM     11  C   UNL     1      31.312  20.104  24.593  1.00  0.00     0.087 C 
BRANCH  11  12
ATOM     12  C   UNL     1      32.045  18.833  24.085  1.00  0.00     0.066 C 
BRANCH  12  13
ATOM     13  C   UNL     1      31.329  17.577  24.576  1.00  0.00     0.140 C 
ATOM     14  O   UNL     1      31.510  16.526  23.978  1.00  0.00    -0.299 OA
BRANCH  13  15
ATOM     15  C   UNL     1      30.478  17.544  25.830  1.00  0.00     0.106 CG0
ATOM     16  G   UNL     1      31.248  17.243  27.103  1.00  0.00     0.000 G0
ENDBRANCH  13  15
ENDBRANCH  12  13
BRANCH  12  17
ATOM     17  C   UNL     1      32.152  18.821  22.527  1.00  0.00    -0.006 C 
ATOM     18  C   UNL     1      31.573  20.099  21.893  1.00  0.00     0.008 C 
ATOM     19  C   UNL     1      33.611  18.657  22.062  1.00  0.00     0.008 C 
ENDBRANCH  12  17
ENDBRANCH  11  12
ENDBRANCH   1  11
TORSDOF 1
ENDMDL
MODEL 2
REMARK VINA RESULT:    -4.603      1.878      4.801
REMARK INTER + INTRA:          -7.276
REMARK INTER:                  -7.489
REMARK INTRA:                   0.213
REMARK UNBOUND:                -0.251
REMARK SMILES CC1=CCC[C@H](C)C(=O)C[C@H](C(C)C)C(=O)C1
REMARK SMILES IDX 8 1 9 2 6 3 7 4 5 5 4 6 3 7 2 8 1 9 10 11 11 12 15 13 16 14
REMARK SMILES IDX 17 15 12 17 13 18 14 19
REMARK H PARENT
REMARK Flexibility Score: 70.00
ROOT
ATOM      1  C   UNL     1      31.267  17.946  24.796  1.00  0.00     0.136 C 
ATOM      2  O   UNL     1      30.986  17.002  24.070  1.00  0.00    -0.299 OA
ENDROOT
BRANCH   1   3
ATOM      3  C   UNL     1      32.148  19.061  24.275  1.00  0.00     0.053 C 
ATOM      4  C   UNL     1      32.764  18.640  22.937  1.00  0.00     0.016 C 
BRANCH   3   5
ATOM      5  C   UNL     1      31.377  20.394  24.110  1.00  0.00     0.015 C 
BRANCH   5   6
ATOM      6  C   UNL     1      31.760  21.464  25.142  1.00  0.00     0.028 C 
BRANCH   6   7
ATOM      7  C   UNL     1      33.184  21.290  25.613  1.00  0.00    -0.028 C 
ATOM      8  C   UNL     1      33.554  21.023  26.885  1.00  0.00    -0.070 CG0
ATOM      9  C   UNL     1      35.024  20.884  27.185  1.00  0.00     0.039 C 
ATOM     10  G   UNL     1      32.554  20.869  28.018  1.00  0.00     0.000 G0
ENDBRANCH   6   7
ENDBRANCH   5   6
ENDBRANCH   3   5
ENDBRANCH   1   3
BRANCH   1  11
ATOM     11  C   UNL     1      30.776  17.949  26.224  1.00  0.00     0.087 C 
BRANCH  11  12
ATOM     12  C   UNL     1      31.846  18.396  27.256  1.00  0.00     0.066 C 
BRANCH  12  13
ATOM     13  C   UNL     1      31.509  19.780  27.803  1.00  0.00     0.140 C 
ATOM     14  O   UNL     1      30.359  20.010  28.151  1.00  0.00    -0.299 OA
BRANCH  13  15
ATOM     15  C   UNL     1      32.550  20.859  28.031  1.00  0.00     0.106 CG0
ATOM     16  G   UNL     1      33.554  21.009  26.902  1.00  0.00     0.000 G0
ENDBRANCH  13  15
ENDBRANCH  12  13
BRANCH  12  17
ATOM     17  C   UNL     1      31.976  17.368  28.425  1.00  0.00    -0.006 C 
ATOM     18  C   UNL     1      31.506  15.959  28.016  1.00  0.00     0.008 C 
ATOM     19  C   UNL     1      33.425  17.275  28.938  1.00  0.00     0.008 C 
ENDBRANCH  12  17
ENDBRANCH  11  12
ENDBRANCH   1  11
TORSDOF 1
ENDMDL
MODEL 3
REMARK VINA RESULT:    -4.293     13.032     14.404
REMARK INTER + INTRA:          -6.803
REMARK INTER:                  -6.570
REMARK INTRA:                  -0.233
REMARK UNBOUND:                -0.251
REMARK SMILES CC1=CCC[C@H](C)C(=O)C[C@H](C(C)C)C(=O)C1
REMARK SMILES IDX 8 1 9 2 6 3 7 4 5 5 4 6 3 7 2 8 1 9 10 11 11 12 15 13 16 14
REMARK SMILES IDX 17 15 12 17 13 18 14 19
REMARK H PARENT
REMARK Flexibility Score: 70.00
ROOT
ATOM      1  C   UNL     1      22.126  24.918  28.016  1.00  0.00     0.136 C 
ATOM      2  O   UNL     1      23.294  24.697  28.303  1.00  0.00    -0.299 OA
ENDROOT
BRANCH   1   3
ATOM      3  C   UNL     1      21.590  24.501  26.662  1.00  0.00     0.053 C 
ATOM      4  C   UNL     1      22.760  24.279  25.698  1.00  0.00     0.016 C 
BRANCH   3   5
ATOM      5  C   UNL     1      20.717  23.225  26.742  1.00  0.00     0.015 C 
BRANCH   5   6
ATOM      6  C   UNL     1      19.321  23.390  26.123  1.00  0.00     0.028 C 
BRANCH   6   7
ATOM      7  C   UNL     1      18.235  23.024  27.108  1.00  0.00    -0.028 C 
ATOM      8  C   UNL     1      17.522  23.907  27.841  1.00  0.00    -0.070 CG0
ATOM      9  C   UNL     1      16.476  23.369  28.782  1.00  0.00     0.039 C 
ATOM     10  G   UNL     1      17.740  25.407  27.762  1.00  0.00     0.000 G0
ENDBRANCH   6   7
ENDBRANCH   5   6
ENDBRANCH   3   5
ENDBRANCH   1   3
BRANCH   1  11
ATOM     11  C   UNL     1      21.254  25.661  28.999  1.00  0.00     0.087 C 
BRANCH  11  12
ATOM     12  C   UNL     1      20.129  26.498  28.334  1.00  0.00     0.066 C 
BRANCH  12  13
ATOM     13  C   UNL     1      18.758  25.963  28.741  1.00  0.00     0.140 C 
ATOM     14  O   UNL     1      18.420  26.043  29.914  1.00  0.00    -0.299 OA
BRANCH  13  15
ATOM     15  C   UNL     1      17.750  25.422  27.746  1.00  0.00     0.106 CG0
ATOM     16  G   UNL     1      17.519  23.924  27.839  1.00  0.00     0.000 G0
ENDBRANCH  13  15
ENDBRANCH  12  13
BRANCH  12  17
ATOM     17  C   UNL     1      20.250  28.011  28.703  1.00  0.00    -0.006 C 
ATOM     18  C   UNL     1      21.696  28.412  29.052  1.00  0.00     0.008 C 
ATOM     19  C   UNL     1      19.750  28.915  27.561  1.00  0.00     0.008 C 
ENDBRANCH  12  17
ENDBRANCH  11  12
ENDBRANCH   1  11
TORSDOF 1
ENDMDL
MODEL 4
REMARK VINA RESULT:    -3.353     11.327     13.672
REMARK INTER + INTRA:          -5.369
REMARK INTER:                  -5.181
REMARK INTRA:                  -0.188
REMARK UNBOUND:                -0.251
REMARK SMILES CC1=CCC[C@H](C)C(=O)C[C@H](C(C)C)C(=O)C1
REMARK SMILES IDX 8 1 9 2 6 3 7 4 5 5 4 6 3 7 2 8 1 9 10 11 11 12 15 13 16 14
REMARK SMILES IDX 17 15 12 17 13 18 14 19
REMARK H PARENT
REMARK Flexibility Score: 70.00
ROOT
ATOM      1  C   UNL     1      26.909  30.096  28.566  1.00  0.00     0.136 C 
ATOM      2  O   UNL     1      26.131  30.218  27.631  1.00  0.00    -0.299 OA
ENDROOT
BRANCH   1   3
ATOM      3  C   UNL     1      27.688  28.809  28.736  1.00  0.00     0.053 C 
ATOM      4  C   UNL     1      26.711  27.650  28.963  1.00  0.00     0.016 C 
BRANCH   3   5
ATOM      5  C   UNL     1      28.600  28.507  27.523  1.00  0.00     0.015 C 
BRANCH   5   6
ATOM      6  C   UNL     1      29.468  29.697  27.087  1.00  0.00     0.028 C 
BRANCH   6   7
ATOM      7  C   UNL     1      30.689  29.838  27.964  1.00  0.00    -0.028 C 
ATOM      8  C   UNL     1      31.050  30.965  28.616  1.00  0.00    -0.070 CG0
ATOM      9  C   UNL     1      32.307  30.934  29.448  1.00  0.00     0.039 C 
ATOM     10  G   UNL     1      30.252  32.254  28.537  1.00  0.00     0.000 G0
ENDBRANCH   6   7
ENDBRANCH   5   6
ENDBRANCH   3   5
ENDBRANCH   1   3
BRANCH   1  11
ATOM     11  C   UNL     1      27.033  31.215  29.573  1.00  0.00     0.087 C 
BRANCH  11  12
ATOM     12  C   UNL     1      28.430  31.306  30.243  1.00  0.00     0.066 C 
BRANCH  12  13
ATOM     13  C   UNL     1      29.232  32.458  29.643  1.00  0.00     0.140 C 
ATOM     14  O   UNL     1      29.104  33.575  30.122  1.00  0.00    -0.299 OA
BRANCH  13  15
ATOM     15  C   UNL     1      30.256  32.269  28.541  1.00  0.00     0.106 CG0
ATOM     16  G   UNL     1      31.043  30.975  28.632  1.00  0.00     0.000 G0
ENDBRANCH  13  15
ENDBRANCH  12  13
BRANCH  12  17
ATOM     17  C   UNL     1      28.309  31.479  31.791  1.00  0.00    -0.006 C 
ATOM     18  C   UNL     1      27.116  30.699  32.374  1.00  0.00     0.008 C 
ATOM     19  C   UNL     1      29.593  31.028  32.513  1.00  0.00     0.008 C 
ENDBRANCH  12  17
ENDBRANCH  11  12
ENDBRANCH   1  11
TORSDOF 1
ENDMDL
MODEL 5
REMARK VINA RESULT:    -3.323     17.561     19.193
REMARK INTER + INTRA:          -5.322
REMARK INTER:                  -5.015
REMARK INTRA:                  -0.307
REMARK UNBOUND:                -0.251
REMARK SMILES CC1=CCC[C@H](C)C(=O)C[C@H](C(C)C)C(=O)C1
REMARK SMILES IDX 8 1 9 2 6 3 7 4 5 5 4 6 3 7 2 8 1 9 10 11 11 12 15 13 16 14
REMARK SMILES IDX 17 15 12 17 13 18 14 19
REMARK H PARENT
REMARK Flexibility Score: 70.00
ROOT
ATOM      1  C   UNL     1      17.523  29.458  30.605  1.00  0.00     0.136 C 
ATOM      2  O   UNL     1      17.362  28.389  30.032  1.00  0.00    -0.299 OA
ENDROOT
BRANCH   1   3
ATOM      3  C   UNL     1      16.322  30.296  30.989  1.00  0.00     0.053 C 
ATOM      4  C   UNL     1      16.309  30.500  32.508  1.00  0.00     0.016 C 
BRANCH   3   5
ATOM      5  C   UNL     1      16.304  31.665  30.268  1.00  0.00     0.015 C 
BRANCH   5   6
ATOM      6  C   UNL     1      16.740  32.840  31.155  1.00  0.00     0.028 C 
BRANCH   6   7
ATOM      7  C   UNL     1      17.519  33.867  30.367  1.00  0.00    -0.028 C 
ATOM      8  C   UNL     1      18.865  33.902  30.256  1.00  0.00    -0.070 CG0
ATOM      9  C   UNL     1      19.482  35.002  29.430  1.00  0.00     0.039 C 
ATOM     10  G   UNL     1      19.774  32.893  30.934  1.00  0.00     0.000 G0
ENDBRANCH   6   7
ENDBRANCH   5   6
ENDBRANCH   3   5
ENDBRANCH   1   3
BRANCH   1  11
ATOM     11  C   UNL     1      18.927  29.951  30.865  1.00  0.00     0.087 C 
BRANCH  11  12
ATOM     12  C   UNL     1      19.624  30.553  29.615  1.00  0.00     0.066 C 
BRANCH  12  13
ATOM     13  C   UNL     1      20.363  31.836  29.987  1.00  0.00     0.140 C 
ATOM     14  O   UNL     1      21.435  32.073  29.450  1.00  0.00    -0.299 OA
BRANCH  13  15
ATOM     15  C   UNL     1      19.788  32.883  30.921  1.00  0.00     0.106 CG0
ATOM     16  G   UNL     1      18.861  33.880  30.249  1.00  0.00     0.000 G0
ENDBRANCH  13  15
ENDBRANCH  12  13
BRANCH  12  17
ATOM     17  C   UNL     1      20.608  29.530  28.963  1.00  0.00    -0.006 C 
ATOM     18  C   UNL     1      20.966  28.375  29.918  1.00  0.00     0.008 C 
ATOM     19  C   UNL     1      20.029  28.937  27.665  1.00  0.00     0.008 C 
ENDBRANCH  12  17
ENDBRANCH  11  12
ENDBRANCH   1  11
TORSDOF 1
ENDMDL
MODEL 6
REMARK VINA RESULT:    -3.309     13.259     14.837
REMARK INTER + INTRA:          -5.301
REMARK INTER:                  -5.057
REMARK INTRA:                  -0.243
REMARK UNBOUND:                -0.251
REMARK SMILES CC1=CCC[C@H](C)C(=O)C[C@H](C(C)C)C(=O)C1
REMARK SMILES IDX 8 1 9 2 6 3 7 4 5 5 4 6 3 7 2 8 1 9 10 11 11 12 15 13 16 14
REMARK SMILES IDX 17 15 12 17 13 18 14 19
REMARK H PARENT
REMARK Flexibility Score: 70.00
ROOT
ATOM      1  C   UNL     1      19.641  25.799  28.255  1.00  0.00     0.136 C 
ATOM      2  O   UNL     1      19.480  24.966  27.374  1.00  0.00    -0.299 OA
ENDROOT
BRANCH   1   3
ATOM      3  C   UNL     1      18.527  26.768  28.590  1.00  0.00     0.053 C 
ATOM      4  C   UNL     1      18.208  26.681  30.086  1.00  0.00     0.016 C 
BRANCH   3   5
ATOM      5  C   UNL     1      18.878  28.226  28.205  1.00  0.00     0.015 C 
BRANCH   5   6
ATOM      6  C   UNL     1      18.928  29.189  29.400  1.00  0.00     0.028 C 
BRANCH   6   7
ATOM      7  C   UNL     1      20.060  30.179  29.262  1.00  0.00    -0.028 C 
ATOM      8  C   UNL     1      21.345  29.942  29.608  1.00  0.00    -0.070 CG0
ATOM      9  C   UNL     1      22.350  31.047  29.408  1.00  0.00     0.039 C 
ATOM     10  G   UNL     1      21.809  28.621  30.195  1.00  0.00     0.000 G0
ENDBRANCH   6   7
ENDBRANCH   5   6
ENDBRANCH   3   5
ENDBRANCH   1   3
BRANCH   1  11
ATOM     11  C   UNL     1      20.977  25.883  28.955  1.00  0.00     0.087 C 
BRANCH  11  12
ATOM     12  C   UNL     1      22.008  26.793  28.235  1.00  0.00     0.066 C 
BRANCH  12  13
ATOM     13  C   UNL     1      22.637  27.769  29.226  1.00  0.00     0.140 C 
ATOM     14  O   UNL     1      23.847  27.942  29.192  1.00  0.00    -0.299 OA
BRANCH  13  15
ATOM     15  C   UNL     1      21.825  28.611  30.190  1.00  0.00     0.106 CG0
ATOM     16  G   UNL     1      21.336  29.927  29.614  1.00  0.00     0.000 G0
ENDBRANCH  13  15
ENDBRANCH  12  13
BRANCH  12  17
ATOM     17  C   UNL     1      23.116  25.951  27.526  1.00  0.00    -0.006 C 
ATOM     18  C   UNL     1      23.274  24.552  28.152  1.00  0.00     0.008 C 
ATOM     19  C   UNL     1      22.829  25.789  26.022  1.00  0.00     0.008 C 
ENDBRANCH  12  17
ENDBRANCH  11  12
ENDBRANCH   1  11
TORSDOF 1
ENDMDL
MODEL 7
REMARK VINA RESULT:    -3.241     13.577     14.923
REMARK INTER + INTRA:          -5.197
REMARK INTER:                  -5.503
REMARK INTRA:                   0.306
REMARK UNBOUND:                -0.251
REMARK SMILES CC1=CCC[C@H](C)C(=O)C[C@H](C(C)C)C(=O)C1
REMARK SMILES IDX 8 1 9 2 6 3 7 4 5 5 4 6 3 7 2 8 1 9 10 11 11 12 15 13 16 14
REMARK SMILES IDX 17 15 12 17 13 18 14 19
REMARK H PARENT
REMARK Flexibility Score: 70.00
ROOT
ATOM      1  C   UNL     1      20.545  23.675  26.951  1.00  0.00     0.136 C 
ATOM      2  O   UNL     1      20.495  22.485  26.671  1.00  0.00    -0.299 OA
ENDROOT
BRANCH   1   3
ATOM      3  C   UNL     1      21.849  24.285  27.419  1.00  0.00     0.053 C 
ATOM      4  C   UNL     1      22.605  24.853  26.214  1.00  0.00     0.016 C 
BRANCH   3   5
ATOM      5  C   UNL     1      21.634  25.390  28.482  1.00  0.00     0.015 C 
BRANCH   5   6
ATOM      6  C   UNL     1      21.291  26.764  27.890  1.00  0.00     0.028 C 
BRANCH   6   7
ATOM      7  C   UNL     1      20.593  27.642  28.902  1.00  0.00    -0.028 C 
ATOM      8  C   UNL     1      19.256  27.704  29.084  1.00  0.00    -0.070 CG0
ATOM      9  C   UNL     1      18.725  28.640  30.139  1.00  0.00     0.039 C 
ATOM     10  G   UNL     1      18.275  26.882  28.267  1.00  0.00     0.000 G0
ENDBRANCH   6   7
ENDBRANCH   5   6
ENDBRANCH   3   5
ENDBRANCH   1   3
BRANCH   1  11
ATOM     11  C   UNL     1      19.283  24.501  26.882  1.00  0.00     0.087 C 
BRANCH  11  12
ATOM     12  C   UNL     1      18.281  24.217  28.034  1.00  0.00     0.066 C 
BRANCH  12  13
ATOM     13  C   UNL     1      17.985  25.500  28.807  1.00  0.00     0.140 C 
ATOM     14  O   UNL     1      17.575  25.412  29.956  1.00  0.00    -0.299 OA
BRANCH  13  15
ATOM     15  C   UNL     1      18.267  26.884  28.257  1.00  0.00     0.106 CG0
ATOM     16  G   UNL     1      19.249  27.698  29.080  1.00  0.00     0.000 G0
ENDBRANCH  13  15
ENDBRANCH  12  13
BRANCH  12  17
ATOM     17  C   UNL     1      16.955  23.591  27.495  1.00  0.00    -0.006 C 
ATOM     18  C   UNL     1      16.972  23.419  25.964  1.00  0.00     0.008 C 
ATOM     19  C   UNL     1      16.671  22.223  28.142  1.00  0.00     0.008 C 
ENDBRANCH  12  17
ENDBRANCH  11  12
ENDBRANCH   1  11
TORSDOF 1
ENDMDL
MODEL 8
REMARK VINA RESULT:    -3.236     17.138     18.743
REMARK INTER + INTRA:          -5.190
REMARK INTER:                  -4.716
REMARK INTRA:                  -0.474
REMARK UNBOUND:                -0.251
REMARK SMILES CC1=CCC[C@H](C)C(=O)C[C@H](C(C)C)C(=O)C1
REMARK SMILES IDX 8 1 9 2 6 3 7 4 5 5 4 6 3 7 2 8 1 9 10 11 11 12 15 13 16 14
REMARK SMILES IDX 17 15 12 17 13 18 14 19
REMARK H PARENT
REMARK Flexibility Score: 70.00
ROOT
ATOM      1  C   UNL     1      17.923  31.372  31.551  1.00  0.00     0.136 C 
ATOM      2  O   UNL     1      17.548  31.766  32.646  1.00  0.00    -0.299 OA
ENDROOT
BRANCH   1   3
ATOM      3  C   UNL     1      17.313  31.950  30.292  1.00  0.00     0.053 C 
ATOM      4  C   UNL     1      15.822  31.599  30.241  1.00  0.00     0.016 C 
BRANCH   3   5
ATOM      5  C   UNL     1      17.502  33.483  30.195  1.00  0.00     0.015 C 
BRANCH   5   6
ATOM      6  C   UNL     1      18.709  33.907  29.345  1.00  0.00     0.028 C 
BRANCH   6   7
ATOM      7  C   UNL     1      19.922  34.175  30.205  1.00  0.00    -0.028 C 
ATOM      8  C   UNL     1      21.040  33.417  30.226  1.00  0.00    -0.070 CG0
ATOM      9  C   UNL     1      22.159  33.827  31.150  1.00  0.00     0.039 C 
ATOM     10  G   UNL     1      21.209  32.174  29.371  1.00  0.00     0.000 G0
ENDBRANCH   6   7
ENDBRANCH   5   6
ENDBRANCH   3   5
ENDBRANCH   1   3
BRANCH   1  11
ATOM     11  C   UNL     1      18.950  30.267  31.477  1.00  0.00     0.087 C 
BRANCH  11  12
ATOM     12  C   UNL     1      19.640  30.141  30.092  1.00  0.00     0.066 C 
BRANCH  12  13
ATOM     13  C   UNL     1      20.984  30.866  30.102  1.00  0.00     0.140 C 
ATOM     14  O   UNL     1      21.932  30.338  30.667  1.00  0.00    -0.299 OA
BRANCH  13  15
ATOM     15  C   UNL     1      21.230  32.166  29.362  1.00  0.00     0.106 CG0
ATOM     16  G   UNL     1      21.053  33.413  30.209  1.00  0.00     0.000 G0
ENDBRANCH  13  15
ENDBRANCH  12  13
BRANCH  12  17
ATOM     17  C   UNL     1      19.834  28.645  29.686  1.00  0.00    -0.006 C 
ATOM     18  C   UNL     1      18.535  27.830  29.827  1.00  0.00     0.008 C 
ATOM     19  C   UNL     1      20.345  28.514  28.239  1.00  0.00     0.008 C 
ENDBRANCH  12  17
ENDBRANCH  11  12
ENDBRANCH   1  11
TORSDOF 1
ENDMDL
MODEL 9
REMARK VINA RESULT:    -3.225     12.469     14.184
REMARK INTER + INTRA:          -5.173
REMARK INTER:                  -4.884
REMARK INTRA:                  -0.288
REMARK UNBOUND:                -0.251
REMARK SMILES CC1=CCC[C@H](C)C(=O)C[C@H](C(C)C)C(=O)C1
REMARK SMILES IDX 8 1 9 2 6 3 7 4 5 5 4 6 3 7 2 8 1 9 10 11 11 12 15 13 16 14
REMARK SMILES IDX 17 15 12 17 13 18 14 19
REMARK H PARENT
REMARK Flexibility Score: 70.00
ROOT
ATOM      1  C   UNL     1      23.176  26.350  29.197  1.00  0.00     0.136 C 
ATOM      2  O   UNL     1      22.970  25.338  29.852  1.00  0.00    -0.299 OA
ENDROOT
BRANCH   1   3
ATOM      3  C   UNL     1      22.461  26.553  27.878  1.00  0.00     0.053 C 
ATOM      4  C   UNL     1      22.671  25.321  26.990  1.00  0.00     0.016 C 
BRANCH   3   5
ATOM      5  C   UNL     1      20.948  26.823  28.063  1.00  0.00     0.015 C 
BRANCH   5   6
ATOM      6  C   UNL     1      20.597  27.504  29.394  1.00  0.00     0.028 C 
BRANCH   6   7
ATOM      7  C   UNL     1      20.323  28.977  29.204  1.00  0.00    -0.028 C 
ATOM      8  C   UNL     1      21.140  29.976  29.604  1.00  0.00    -0.070 CG0
ATOM      9  C   UNL     1      20.709  31.396  29.339  1.00  0.00     0.039 C 
ATOM     10  G   UNL     1      22.459  29.727  30.314  1.00  0.00     0.000 G0
ENDBRANCH   6   7
ENDBRANCH   5   6
ENDBRANCH   3   5
ENDBRANCH   1   3
BRANCH   1  11
ATOM     11  C   UNL     1      24.191  27.353  29.690  1.00  0.00     0.087 C 
BRANCH  11  12
ATOM     12  C   UNL     1      24.331  28.604  28.782  1.00  0.00     0.066 C 
BRANCH  12  13
ATOM     13  C   UNL     1      23.693  29.819  29.450  1.00  0.00     0.140 C 
ATOM     14  O   UNL     1      24.146  30.928  29.210  1.00  0.00    -0.299 OA
BRANCH  13  15
ATOM     15  C   UNL     1      22.458  29.730  30.325  1.00  0.00     0.106 CG0
ATOM     16  G   UNL     1      21.151  29.968  29.591  1.00  0.00     0.000 G0
ENDBRANCH  13  15
ENDBRANCH  12  13
BRANCH  12  17
ATOM     17  C   UNL     1      25.828  28.897  28.443  1.00  0.00    -0.006 C 
ATOM     18  C   UNL     1      26.795  28.056  29.297  1.00  0.00     0.008 C 
ATOM     19  C   UNL     1      26.132  28.639  26.955  1.00  0.00     0.008 C 
ENDBRANCH  12  17
ENDBRANCH  11  12
ENDBRANCH   1  11
TORSDOF 1
ENDMDL
