MODEL 1
REMARK VINA RESULT:    -6.721      0.000      0.000
REMARK INTER + INTRA:          -8.047
REMARK INTER:                  -8.097
REMARK INTRA:                   0.050
REMARK UNBOUND:                 0.050
REMARK SMILES Oc1cc(O)c2cc(O)c(-c3ccc(O)c(O)c3)[o+]c2c1.[Cl-]
REMARK SMILES IDX 10 1 19 2 20 3 21 4 2 5 3 6 4 7 6 8 7 9 8 10 11 11 12 12
REMARK SMILES IDX 13 13 14 14 18 15 16 16 15 17 17 19 9 21 1 23 5 25
REMARK H PARENT 15 18 17 20 9 22 1 24 5 26
REMARK Flexibility Score: inf
ROOT
ATOM      1  C   UNL     1      20.746  49.590  45.783  1.00  0.00     0.402 A 
ATOM      2  O   UNL     1      21.203  48.346  45.671  1.00  0.00    -0.202 OA
ATOM      3  C   UNL     1      20.797  47.501  44.729  1.00  0.00     0.368 A 
ATOM      4  C   UNL     1      21.339  46.214  44.690  1.00  0.00     0.162 A 
ATOM      5  C   UNL     1      20.934  45.307  43.711  1.00  0.00     0.128 A 
ATOM      6  C   UNL     1      19.980  45.687  42.760  1.00  0.00     0.093 A 
ATOM      7  C   UNL     1      19.421  46.972  42.777  1.00  0.00     0.136 A 
ATOM      8  C   UNL     1      19.829  47.897  43.774  1.00  0.00     0.125 A 
ATOM      9  C   UNL     1      19.315  49.200  43.876  1.00  0.00     0.078 A 
ATOM     10  C   UNL     1      19.763  50.052  44.889  1.00  0.00     0.223 A 
ENDROOT
BRANCH   1  11
ATOM     11  C   UNL     1      21.285  50.439  46.870  1.00  0.00     0.087 A 
ATOM     12  C   UNL     1      22.662  50.503  47.135  1.00  0.00     0.022 A 
ATOM     13  C   UNL     1      23.144  51.293  48.180  1.00  0.00     0.051 A 
ATOM     14  C   UNL     1      22.265  52.023  48.988  1.00  0.00     0.157 A 
ATOM     15  C   UNL     1      20.400  51.153  47.692  1.00  0.00     0.068 A 
ATOM     16  C   UNL     1      20.873  51.950  48.743  1.00  0.00     0.158 A 
BRANCH  14  17
ATOM     17  O   UNL     1      22.811  52.797  50.014  1.00  0.00    -0.504 OA
ATOM     18  H   UNL     1      23.246  52.414  50.840  1.00  0.00     0.293 HD
ENDBRANCH  14  17
BRANCH  16  19
ATOM     19  O   UNL     1      19.935  52.640  49.512  1.00  0.00    -0.504 OA
ATOM     20  H   UNL     1      20.173  53.256  50.276  1.00  0.00     0.293 HD
ENDBRANCH  16  19
ENDBRANCH   1  11
BRANCH  10  21
ATOM     21  O   UNL     1      19.215  51.329  45.021  1.00  0.00    -0.500 OA
ATOM     22  H   UNL     1      19.591  52.124  44.517  1.00  0.00     0.294 HD
ENDBRANCH  10  21
BRANCH   5  23
ATOM     23  O   UNL     1      21.486  44.028  43.690  1.00  0.00    -0.507 OA
ATOM     24  H   UNL     1      21.894  43.613  44.519  1.00  0.00     0.293 HD
ENDBRANCH   5  23
BRANCH   7  25
ATOM     25  O   UNL     1      18.477  47.277  41.793  1.00  0.00    -0.507 OA
ATOM     26  H   UNL     1      18.456  46.860  40.874  1.00  0.00     0.293 HD
ENDBRANCH   7  25
TORSDOF 6
ENDMDL
MODEL 2
REMARK VINA RESULT:    -6.700      2.384      4.352
REMARK INTER + INTRA:          -8.021
REMARK INTER:                  -7.906
REMARK INTRA:                  -0.116
REMARK UNBOUND:                 0.050
REMARK SMILES Oc1cc(O)c2cc(O)c(-c3ccc(O)c(O)c3)[o+]c2c1.[Cl-]
REMARK SMILES IDX 10 1 19 2 20 3 21 4 2 5 3 6 4 7 6 8 7 9 8 10 11 11 12 12
REMARK SMILES IDX 13 13 14 14 18 15 16 16 15 17 17 19 9 21 1 23 5 25
REMARK H PARENT 15 18 17 20 9 22 1 24 5 26
REMARK Flexibility Score: inf
ROOT
ATOM      1  C   UNL     1      19.119  47.661  43.783  1.00  0.00     0.402 A 
ATOM      2  O   UNL     1      17.956  47.767  43.147  1.00  0.00    -0.202 OA
ATOM      3  C   UNL     1      17.625  47.017  42.100  1.00  0.00     0.368 A 
ATOM      4  C   UNL     1      16.376  47.200  41.502  1.00  0.00     0.162 A 
ATOM      5  C   UNL     1      16.000  46.425  40.404  1.00  0.00     0.128 A 
ATOM      6  C   UNL     1      16.878  45.458  39.900  1.00  0.00     0.093 A 
ATOM      7  C   UNL     1      18.135  45.255  40.483  1.00  0.00     0.136 A 
ATOM      8  C   UNL     1      18.522  46.044  41.598  1.00  0.00     0.125 A 
ATOM      9  C   UNL     1      19.766  45.919  42.238  1.00  0.00     0.078 A 
ATOM     10  C   UNL     1      20.077  46.735  43.329  1.00  0.00     0.223 A 
ENDROOT
BRANCH   1  11
ATOM     11  C   UNL     1      19.367  48.547  44.943  1.00  0.00     0.087 A 
ATOM     12  C   UNL     1      19.752  48.030  46.190  1.00  0.00     0.022 A 
ATOM     13  C   UNL     1      19.957  48.884  47.275  1.00  0.00     0.051 A 
ATOM     14  C   UNL     1      19.770  50.264  47.144  1.00  0.00     0.157 A 
ATOM     15  C   UNL     1      19.158  49.929  44.814  1.00  0.00     0.068 A 
ATOM     16  C   UNL     1      19.362  50.794  45.897  1.00  0.00     0.158 A 
BRANCH  14  17
ATOM     17  O   UNL     1      19.997  51.063  48.266  1.00  0.00    -0.504 OA
ATOM     18  H   UNL     1      19.472  51.900  48.479  1.00  0.00     0.293 HD
ENDBRANCH  14  17
BRANCH  16  19
ATOM     19  O   UNL     1      19.146  52.158  45.692  1.00  0.00    -0.504 OA
ATOM     20  H   UNL     1      19.317  52.868  46.389  1.00  0.00     0.293 HD
ENDBRANCH  16  19
ENDBRANCH   1  11
BRANCH  10  21
ATOM     21  O   UNL     1      21.332  46.646  43.933  1.00  0.00    -0.500 OA
ATOM     22  H   UNL     1      21.453  46.227  44.848  1.00  0.00     0.294 HD
ENDBRANCH  10  21
BRANCH   5  23
ATOM     23  O   UNL     1      14.751  46.623  39.819  1.00  0.00    -0.507 OA
ATOM     24  H   UNL     1      14.118  45.851  39.647  1.00  0.00     0.293 HD
ENDBRANCH   5  23
BRANCH   7  25
ATOM     25  O   UNL     1      18.952  44.269  39.924  1.00  0.00    -0.507 OA
ATOM     26  H   UNL     1      19.457  43.577  40.457  1.00  0.00     0.293 HD
ENDBRANCH   7  25
TORSDOF 6
ENDMDL
MODEL 3
REMARK VINA RESULT:    -6.657      5.022     10.293
REMARK INTER + INTRA:          -7.969
REMARK INTER:                  -7.689
REMARK INTRA:                  -0.281
REMARK UNBOUND:                 0.050
REMARK SMILES Oc1cc(O)c2cc(O)c(-c3ccc(O)c(O)c3)[o+]c2c1.[Cl-]
REMARK SMILES IDX 10 1 19 2 20 3 21 4 2 5 3 6 4 7 6 8 7 9 8 10 11 11 12 12
REMARK SMILES IDX 13 13 14 14 18 15 16 16 15 17 17 19 9 21 1 23 5 25
REMARK H PARENT 15 18 17 20 9 22 1 24 5 26
REMARK Flexibility Score: inf
ROOT
ATOM      1  C   UNL     1      17.557  45.838  39.584  1.00  0.00     0.402 A 
ATOM      2  O   UNL     1      16.959  46.929  40.054  1.00  0.00    -0.202 OA
ATOM      3  C   UNL     1      17.119  47.371  41.297  1.00  0.00     0.368 A 
ATOM      4  C   UNL     1      16.450  48.530  41.697  1.00  0.00     0.162 A 
ATOM      5  C   UNL     1      16.601  49.020  42.995  1.00  0.00     0.128 A 
ATOM      6  C   UNL     1      17.430  48.347  43.901  1.00  0.00     0.093 A 
ATOM      7  C   UNL     1      18.112  47.183  43.524  1.00  0.00     0.136 A 
ATOM      8  C   UNL     1      17.957  46.680  42.205  1.00  0.00     0.125 A 
ATOM      9  C   UNL     1      18.591  45.515  41.743  1.00  0.00     0.078 A 
ATOM     10  C   UNL     1      18.386  45.080  40.431  1.00  0.00     0.223 A 
ENDROOT
BRANCH   1  11
ATOM     11  C   UNL     1      17.306  45.453  38.176  1.00  0.00     0.087 A 
ATOM     12  C   UNL     1      16.090  44.873  37.781  1.00  0.00     0.022 A 
ATOM     13  C   UNL     1      15.887  44.497  36.452  1.00  0.00     0.051 A 
ATOM     14  C   UNL     1      16.891  44.679  35.495  1.00  0.00     0.157 A 
ATOM     15  C   UNL     1      18.323  45.617  37.223  1.00  0.00     0.068 A 
ATOM     16  C   UNL     1      18.129  45.244  35.886  1.00  0.00     0.158 A 
BRANCH  14  17
ATOM     17  O   UNL     1      16.622  44.287  34.183  1.00  0.00    -0.504 OA
ATOM     18  H   UNL     1      16.462  44.932  33.422  1.00  0.00     0.293 HD
ENDBRANCH  14  17
BRANCH  16  19
ATOM     19  O   UNL     1      19.180  45.447  34.992  1.00  0.00    -0.504 OA
ATOM     20  H   UNL     1      20.065  45.865  35.245  1.00  0.00     0.293 HD
ENDBRANCH  16  19
ENDBRANCH   1  11
BRANCH  10  21
ATOM     21  O   UNL     1      18.975  43.895  39.988  1.00  0.00    -0.500 OA
ATOM     22  H   UNL     1      18.419  43.115  39.658  1.00  0.00     0.294 HD
ENDBRANCH  10  21
BRANCH   5  23
ATOM     23  O   UNL     1      15.925  50.176  43.376  1.00  0.00    -0.507 OA
ATOM     24  H   UNL     1      16.124  51.072  42.946  1.00  0.00     0.293 HD
ENDBRANCH   5  23
BRANCH   7  25
ATOM     25  O   UNL     1      18.921  46.571  44.485  1.00  0.00    -0.507 OA
ATOM     26  H   UNL     1      18.692  46.504  45.465  1.00  0.00     0.293 HD
ENDBRANCH   7  25
TORSDOF 6
ENDMDL
MODEL 4
REMARK VINA RESULT:    -6.642      2.320      3.942
REMARK INTER + INTRA:          -7.951
REMARK INTER:                  -7.628
REMARK INTRA:                  -0.324
REMARK UNBOUND:                 0.050
REMARK SMILES Oc1cc(O)c2cc(O)c(-c3ccc(O)c(O)c3)[o+]c2c1.[Cl-]
REMARK SMILES IDX 10 1 19 2 20 3 21 4 2 5 3 6 4 7 6 8 7 9 8 10 11 11 12 12
REMARK SMILES IDX 13 13 14 14 18 15 16 16 15 17 17 19 9 21 1 23 5 25
REMARK H PARENT 15 18 17 20 9 22 1 24 5 26
REMARK Flexibility Score: inf
ROOT
ATOM      1  C   UNL     1      19.682  47.583  44.413  1.00  0.00     0.402 A 
ATOM      2  O   UNL     1      18.553  47.894  43.783  1.00  0.00    -0.202 OA
ATOM      3  C   UNL     1      18.126  47.262  42.695  1.00  0.00     0.368 A 
ATOM      4  C   UNL     1      16.924  47.659  42.106  1.00  0.00     0.162 A 
ATOM      5  C   UNL     1      16.449  47.011  40.965  1.00  0.00     0.128 A 
ATOM      6  C   UNL     1      17.180  45.956  40.408  1.00  0.00     0.093 A 
ATOM      7  C   UNL     1      18.389  45.537  40.980  1.00  0.00     0.136 A 
ATOM      8  C   UNL     1      18.876  46.196  42.139  1.00  0.00     0.125 A 
ATOM      9  C   UNL     1      20.082  45.855  42.773  1.00  0.00     0.078 A 
ATOM     10  C   UNL     1      20.498  46.554  43.909  1.00  0.00     0.223 A 
ENDROOT
BRANCH   1  11
ATOM     11  C   UNL     1      20.046  48.356  45.623  1.00  0.00     0.087 A 
ATOM     12  C   UNL     1      20.967  49.414  45.566  1.00  0.00     0.022 A 
ATOM     13  C   UNL     1      21.311  50.113  46.724  1.00  0.00     0.051 A 
ATOM     14  C   UNL     1      20.756  49.766  47.961  1.00  0.00     0.157 A 
ATOM     15  C   UNL     1      19.503  47.992  46.865  1.00  0.00     0.068 A 
ATOM     16  C   UNL     1      19.841  48.688  48.033  1.00  0.00     0.158 A 
BRANCH  14  17
ATOM     17  O   UNL     1      21.137  50.508  49.080  1.00  0.00    -0.504 OA
ATOM     18  H   UNL     1      21.563  51.422  49.033  1.00  0.00     0.293 HD
ENDBRANCH  14  17
BRANCH  16  19
ATOM     19  O   UNL     1      19.254  48.277  49.230  1.00  0.00    -0.504 OA
ATOM     20  H   UNL     1      18.257  48.216  49.379  1.00  0.00     0.293 HD
ENDBRANCH  16  19
ENDBRANCH   1  11
BRANCH  10  21
ATOM     21  O   UNL     1      21.721  46.247  44.509  1.00  0.00    -0.500 OA
ATOM     22  H   UNL     1      22.594  46.626  44.162  1.00  0.00     0.294 HD
ENDBRANCH  10  21
BRANCH   5  23
ATOM     23  O   UNL     1      15.248  47.423  40.391  1.00  0.00    -0.507 OA
ATOM     24  H   UNL     1      15.178  48.293  39.876  1.00  0.00     0.293 HD
ENDBRANCH   5  23
BRANCH   7  25
ATOM     25  O   UNL     1      19.058  44.475  40.368  1.00  0.00    -0.507 OA
ATOM     26  H   UNL     1      18.601  43.700  39.910  1.00  0.00     0.293 HD
ENDBRANCH   7  25
TORSDOF 6
ENDMDL
MODEL 5
REMARK VINA RESULT:    -6.564      2.288      3.875
REMARK INTER + INTRA:          -7.857
REMARK INTER:                  -7.585
REMARK INTRA:                  -0.272
REMARK UNBOUND:                 0.050
REMARK SMILES Oc1cc(O)c2cc(O)c(-c3ccc(O)c(O)c3)[o+]c2c1.[Cl-]
REMARK SMILES IDX 10 1 19 2 20 3 21 4 2 5 3 6 4 7 6 8 7 9 8 10 11 11 12 12
REMARK SMILES IDX 13 13 14 14 18 15 16 16 15 17 17 19 9 21 1 23 5 25
REMARK H PARENT 15 18 17 20 9 22 1 24 5 26
REMARK Flexibility Score: inf
ROOT
ATOM      1  C   UNL     1      20.111  48.344  44.229  1.00  0.00     0.402 A 
ATOM      2  O   UNL     1      19.075  48.995  43.708  1.00  0.00    -0.202 OA
ATOM      3  C   UNL     1      18.142  48.406  42.966  1.00  0.00     0.368 A 
ATOM      4  C   UNL     1      17.088  49.174  42.465  1.00  0.00     0.162 A 
ATOM      5  C   UNL     1      16.092  48.583  41.687  1.00  0.00     0.128 A 
ATOM      6  C   UNL     1      16.149  47.213  41.406  1.00  0.00     0.093 A 
ATOM      7  C   UNL     1      17.195  46.421  41.897  1.00  0.00     0.136 A 
ATOM      8  C   UNL     1      18.211  47.020  42.687  1.00  0.00     0.125 A 
ATOM      9  C   UNL     1      19.303  46.308  43.210  1.00  0.00     0.078 A 
ATOM     10  C   UNL     1      20.267  46.969  43.976  1.00  0.00     0.223 A 
ENDROOT
BRANCH   1  11
ATOM     11  C   UNL     1      21.080  49.110  45.047  1.00  0.00     0.087 A 
ATOM     12  C   UNL     1      22.358  49.429  44.561  1.00  0.00     0.022 A 
ATOM     13  C   UNL     1      23.262  50.131  45.361  1.00  0.00     0.051 A 
ATOM     14  C   UNL     1      22.916  50.519  46.660  1.00  0.00     0.157 A 
ATOM     15  C   UNL     1      20.738  49.480  46.357  1.00  0.00     0.068 A 
ATOM     16  C   UNL     1      21.637  50.186  47.167  1.00  0.00     0.158 A 
BRANCH  14  17
ATOM     17  O   UNL     1      23.862  51.224  47.405  1.00  0.00    -0.504 OA
ATOM     18  H   UNL     1      23.676  51.639  48.307  1.00  0.00     0.293 HD
ENDBRANCH  14  17
BRANCH  16  19
ATOM     19  O   UNL     1      21.224  50.529  48.455  1.00  0.00    -0.504 OA
ATOM     20  H   UNL     1      20.660  51.338  48.671  1.00  0.00     0.293 HD
ENDBRANCH  16  19
ENDBRANCH   1  11
BRANCH  10  21
ATOM     21  O   UNL     1      21.378  46.273  44.454  1.00  0.00    -0.500 OA
ATOM     22  H   UNL     1      21.944  46.631  45.214  1.00  0.00     0.294 HD
ENDBRANCH  10  21
BRANCH   5  23
ATOM     23  O   UNL     1      15.050  49.365  41.195  1.00  0.00    -0.507 OA
ATOM     24  H   UNL     1      14.086  49.055  41.243  1.00  0.00     0.293 HD
ENDBRANCH   5  23
BRANCH   7  25
ATOM     25  O   UNL     1      17.179  45.061  41.576  1.00  0.00    -0.507 OA
ATOM     26  H   UNL     1      17.636  44.659  40.771  1.00  0.00     0.293 HD
ENDBRANCH   7  25
TORSDOF 6
ENDMDL
MODEL 6
REMARK VINA RESULT:    -6.520      2.515      3.780
REMARK INTER + INTRA:          -7.804
REMARK INTER:                  -7.538
REMARK INTRA:                  -0.266
REMARK UNBOUND:                 0.050
REMARK SMILES Oc1cc(O)c2cc(O)c(-c3ccc(O)c(O)c3)[o+]c2c1.[Cl-]
REMARK SMILES IDX 10 1 19 2 20 3 21 4 2 5 3 6 4 7 6 8 7 9 8 10 11 11 12 12
REMARK SMILES IDX 13 13 14 14 18 15 16 16 15 17 17 19 9 21 1 23 5 25
REMARK H PARENT 15 18 17 20 9 22 1 24 5 26
REMARK Flexibility Score: inf
ROOT
ATOM      1  C   UNL     1      19.365  48.339  43.532  1.00  0.00     0.402 A 
ATOM      2  O   UNL     1      19.556  47.128  43.018  1.00  0.00    -0.202 OA
ATOM      3  C   UNL     1      18.676  46.524  42.225  1.00  0.00     0.368 A 
ATOM      4  C   UNL     1      18.969  45.250  41.731  1.00  0.00     0.162 A 
ATOM      5  C   UNL     1      18.067  44.593  40.894  1.00  0.00     0.128 A 
ATOM      6  C   UNL     1      16.861  45.214  40.546  1.00  0.00     0.093 A 
ATOM      7  C   UNL     1      16.544  46.491  41.028  1.00  0.00     0.136 A 
ATOM      8  C   UNL     1      17.459  47.160  41.882  1.00  0.00     0.125 A 
ATOM      9  C   UNL     1      17.221  48.435  42.422  1.00  0.00     0.078 A 
ATOM     10  C   UNL     1      18.169  49.029  43.260  1.00  0.00     0.223 A 
ENDROOT
BRANCH   1  11
ATOM     11  C   UNL     1      20.425  48.910  44.394  1.00  0.00     0.087 A 
ATOM     12  C   UNL     1      20.256  49.025  45.783  1.00  0.00     0.022 A 
ATOM     13  C   UNL     1      21.261  49.587  46.572  1.00  0.00     0.051 A 
ATOM     14  C   UNL     1      22.445  50.058  45.994  1.00  0.00     0.157 A 
ATOM     15  C   UNL     1      21.603  49.400  43.809  1.00  0.00     0.068 A 
ATOM     16  C   UNL     1      22.618  49.966  44.592  1.00  0.00     0.158 A 
BRANCH  14  17
ATOM     17  O   UNL     1      23.412  50.605  46.839  1.00  0.00    -0.504 OA
ATOM     18  H   UNL     1      23.415  51.567  47.147  1.00  0.00     0.293 HD
ENDBRANCH  14  17
BRANCH  16  19
ATOM     19  O   UNL     1      23.766  50.421  43.942  1.00  0.00    -0.504 OA
ATOM     20  H   UNL     1      24.081  51.381  43.958  1.00  0.00     0.293 HD
ENDBRANCH  16  19
ENDBRANCH   1  11
BRANCH  10  21
ATOM     21  O   UNL     1      17.910  50.273  43.837  1.00  0.00    -0.500 OA
ATOM     22  H   UNL     1      16.973  50.551  44.105  1.00  0.00     0.294 HD
ENDBRANCH  10  21
BRANCH   5  23
ATOM     23  O   UNL     1      18.376  43.323  40.413  1.00  0.00    -0.507 OA
ATOM     24  H   UNL     1      19.163  43.169  39.794  1.00  0.00     0.293 HD
ENDBRANCH   5  23
BRANCH   7  25
ATOM     25  O   UNL     1      15.324  47.043  40.633  1.00  0.00    -0.507 OA
ATOM     26  H   UNL     1      14.941  46.976  39.701  1.00  0.00     0.293 HD
ENDBRANCH   7  25
TORSDOF 6
ENDMDL
MODEL 7
REMARK VINA RESULT:    -6.459      2.470      3.385
REMARK INTER + INTRA:          -7.730
REMARK INTER:                  -7.465
REMARK INTRA:                  -0.266
REMARK UNBOUND:                 0.050
REMARK SMILES Oc1cc(O)c2cc(O)c(-c3ccc(O)c(O)c3)[o+]c2c1.[Cl-]
REMARK SMILES IDX 10 1 19 2 20 3 21 4 2 5 3 6 4 7 6 8 7 9 8 10 11 11 12 12
REMARK SMILES IDX 13 13 14 14 18 15 16 16 15 17 17 19 9 21 1 23 5 25
REMARK H PARENT 15 18 17 20 9 22 1 24 5 26
REMARK Flexibility Score: inf
ROOT
ATOM      1  C   UNL     1      19.114  49.495  44.046  1.00  0.00     0.402 A 
ATOM      2  O   UNL     1      18.896  48.237  43.673  1.00  0.00    -0.202 OA
ATOM      3  C   UNL     1      17.867  47.867  42.918  1.00  0.00     0.368 A 
ATOM      4  C   UNL     1      17.726  46.521  42.575  1.00  0.00     0.162 A 
ATOM      5  C   UNL     1      16.657  46.103  41.780  1.00  0.00     0.128 A 
ATOM      6  C   UNL     1      15.723  47.039  41.322  1.00  0.00     0.093 A 
ATOM      7  C   UNL     1      15.843  48.396  41.651  1.00  0.00     0.136 A 
ATOM      8  C   UNL     1      16.927  48.823  42.462  1.00  0.00     0.125 A 
ATOM      9  C   UNL     1      17.121  50.158  42.852  1.00  0.00     0.078 A 
ATOM     10  C   UNL     1      18.211  50.501  43.657  1.00  0.00     0.223 A 
ENDROOT
BRANCH   1  11
ATOM     11  C   UNL     1      20.303  49.783  44.881  1.00  0.00     0.087 A 
ATOM     12  C   UNL     1      21.601  49.738  44.348  1.00  0.00     0.022 A 
ATOM     13  C   UNL     1      22.707  49.990  45.161  1.00  0.00     0.051 A 
ATOM     14  C   UNL     1      22.544  50.279  46.521  1.00  0.00     0.157 A 
ATOM     15  C   UNL     1      20.138  50.051  46.249  1.00  0.00     0.068 A 
ATOM     16  C   UNL     1      21.241  50.306  47.074  1.00  0.00     0.158 A 
BRANCH  14  17
ATOM     17  O   UNL     1      23.690  50.527  47.278  1.00  0.00    -0.504 OA
ATOM     18  H   UNL     1      24.606  50.682  46.882  1.00  0.00     0.293 HD
ENDBRANCH  14  17
BRANCH  16  19
ATOM     19  O   UNL     1      21.000  50.576  48.421  1.00  0.00    -0.504 OA
ATOM     20  H   UNL     1      20.136  50.355  48.897  1.00  0.00     0.293 HD
ENDBRANCH  16  19
ENDBRANCH   1  11
BRANCH  10  21
ATOM     21  O   UNL     1      18.376  51.819  44.085  1.00  0.00    -0.500 OA
ATOM     22  H   UNL     1      19.075  52.428  43.677  1.00  0.00     0.294 HD
ENDBRANCH  10  21
BRANCH   5  23
ATOM     23  O   UNL     1      16.532  44.756  41.450  1.00  0.00    -0.507 OA
ATOM     24  H   UNL     1      17.211  44.289  40.860  1.00  0.00     0.293 HD
ENDBRANCH   5  23
BRANCH   7  25
ATOM     25  O   UNL     1      14.872  49.268  41.153  1.00  0.00    -0.507 OA
ATOM     26  H   UNL     1      14.681  49.409  40.172  1.00  0.00     0.293 HD
ENDBRANCH   7  25
TORSDOF 6
ENDMDL
MODEL 8
REMARK VINA RESULT:    -6.393      3.882      5.471
REMARK INTER + INTRA:          -7.651
REMARK INTER:                  -7.404
REMARK INTRA:                  -0.248
REMARK UNBOUND:                 0.050
REMARK SMILES Oc1cc(O)c2cc(O)c(-c3ccc(O)c(O)c3)[o+]c2c1.[Cl-]
REMARK SMILES IDX 10 1 19 2 20 3 21 4 2 5 3 6 4 7 6 8 7 9 8 10 11 11 12 12
REMARK SMILES IDX 13 13 14 14 18 15 16 16 15 17 17 19 9 21 1 23 5 25
REMARK H PARENT 15 18 17 20 9 22 1 24 5 26
REMARK Flexibility Score: inf
ROOT
ATOM      1  C   UNL     1      18.307  48.133  45.220  1.00  0.00     0.402 A 
ATOM      2  O   UNL     1      17.312  48.721  44.562  1.00  0.00    -0.202 OA
ATOM      3  C   UNL     1      16.043  48.339  44.662  1.00  0.00     0.368 A 
ATOM      4  C   UNL     1      15.068  49.023  43.934  1.00  0.00     0.162 A 
ATOM      5  C   UNL     1      13.727  48.646  44.022  1.00  0.00     0.128 A 
ATOM      6  C   UNL     1      13.357  47.577  44.846  1.00  0.00     0.093 A 
ATOM      7  C   UNL     1      14.316  46.875  45.588  1.00  0.00     0.136 A 
ATOM      8  C   UNL     1      15.681  47.255  45.498  1.00  0.00     0.125 A 
ATOM      9  C   UNL     1      16.712  46.602  46.193  1.00  0.00     0.078 A 
ATOM     10  C   UNL     1      18.034  47.030  46.050  1.00  0.00     0.223 A 
ENDROOT
BRANCH   1  11
ATOM     11  C   UNL     1      19.679  48.658  45.032  1.00  0.00     0.087 A 
ATOM     12  C   UNL     1      20.373  48.476  43.825  1.00  0.00     0.022 A 
ATOM     13  C   UNL     1      21.675  48.960  43.680  1.00  0.00     0.051 A 
ATOM     14  C   UNL     1      22.314  49.621  44.735  1.00  0.00     0.157 A 
ATOM     15  C   UNL     1      20.325  49.301  46.098  1.00  0.00     0.068 A 
ATOM     16  C   UNL     1      21.631  49.791  45.963  1.00  0.00     0.158 A 
BRANCH  14  17
ATOM     17  O   UNL     1      23.613  50.085  44.524  1.00  0.00    -0.504 OA
ATOM     18  H   UNL     1      24.220  50.418  45.259  1.00  0.00     0.293 HD
ENDBRANCH  14  17
BRANCH  16  19
ATOM     19  O   UNL     1      22.205  50.430  47.063  1.00  0.00    -0.504 OA
ATOM     20  H   UNL     1      23.049  50.118  47.521  1.00  0.00     0.293 HD
ENDBRANCH  16  19
ENDBRANCH   1  11
BRANCH  10  21
ATOM     21  O   UNL     1      19.064  46.350  46.702  1.00  0.00    -0.500 OA
ATOM     22  H   UNL     1      19.789  45.864  46.189  1.00  0.00     0.294 HD
ENDBRANCH  10  21
BRANCH   5  23
ATOM     23  O   UNL     1      12.769  49.340  43.287  1.00  0.00    -0.507 OA
ATOM     24  H   UNL     1      11.782  49.272  43.504  1.00  0.00     0.293 HD
ENDBRANCH   5  23
BRANCH   7  25
ATOM     25  O   UNL     1      13.867  45.823  46.390  1.00  0.00    -0.507 OA
ATOM     26  H   UNL     1      14.471  45.168  46.863  1.00  0.00     0.293 HD
ENDBRANCH   7  25
TORSDOF 6
ENDMDL
MODEL 9
REMARK VINA RESULT:    -6.325      3.090      6.429
REMARK INTER + INTRA:          -7.569
REMARK INTER:                  -7.216
REMARK INTRA:                  -0.353
REMARK UNBOUND:                 0.050
REMARK SMILES Oc1cc(O)c2cc(O)c(-c3ccc(O)c(O)c3)[o+]c2c1.[Cl-]
REMARK SMILES IDX 10 1 19 2 20 3 21 4 2 5 3 6 4 7 6 8 7 9 8 10 11 11 12 12
REMARK SMILES IDX 13 13 14 14 18 15 16 16 15 17 17 19 9 21 1 23 5 25
REMARK H PARENT 15 18 17 20 9 22 1 24 5 26
REMARK Flexibility Score: inf
ROOT
ATOM      1  C   UNL     1      18.734  48.863  45.016  1.00  0.00     0.402 A 
ATOM      2  O   UNL     1      19.327  49.271  46.134  1.00  0.00    -0.202 OA
ATOM      3  C   UNL     1      20.598  49.657  46.187  1.00  0.00     0.368 A 
ATOM      4  C   UNL     1      21.131  50.072  47.409  1.00  0.00     0.162 A 
ATOM      5  C   UNL     1      22.461  50.487  47.494  1.00  0.00     0.128 A 
ATOM      6  C   UNL     1      23.265  50.489  46.348  1.00  0.00     0.093 A 
ATOM      7  C   UNL     1      22.753  50.078  45.111  1.00  0.00     0.136 A 
ATOM      8  C   UNL     1      21.402  49.653  45.021  1.00  0.00     0.125 A 
ATOM      9  C   UNL     1      20.808  49.212  43.827  1.00  0.00     0.078 A 
ATOM     10  C   UNL     1      19.471  48.804  43.819  1.00  0.00     0.223 A 
ENDROOT
BRANCH   1  11
ATOM     11  C   UNL     1      17.308  48.466  45.084  1.00  0.00     0.087 A 
ATOM     12  C   UNL     1      16.278  49.398  44.882  1.00  0.00     0.022 A 
ATOM     13  C   UNL     1      14.942  49.004  44.974  1.00  0.00     0.051 A 
ATOM     14  C   UNL     1      14.606  47.681  45.281  1.00  0.00     0.157 A 
ATOM     15  C   UNL     1      16.974  47.143  45.412  1.00  0.00     0.068 A 
ATOM     16  C   UNL     1      15.637  46.737  45.507  1.00  0.00     0.158 A 
BRANCH  14  17
ATOM     17  O   UNL     1      13.252  47.351  45.353  1.00  0.00    -0.504 OA
ATOM     18  H   UNL     1      12.852  46.515  44.951  1.00  0.00     0.293 HD
ENDBRANCH  14  17
BRANCH  16  19
ATOM     19  O   UNL     1      15.381  45.403  45.826  1.00  0.00    -0.504 OA
ATOM     20  H   UNL     1      14.857  44.772  45.238  1.00  0.00     0.293 HD
ENDBRANCH  16  19
ENDBRANCH   1  11
BRANCH  10  21
ATOM     21  O   UNL     1      18.896  48.319  42.644  1.00  0.00    -0.500 OA
ATOM     22  H   UNL     1      19.461  48.008  41.863  1.00  0.00     0.294 HD
ENDBRANCH  10  21
BRANCH   5  23
ATOM     23  O   UNL     1      22.975  50.897  48.722  1.00  0.00    -0.507 OA
ATOM     24  H   UNL     1      23.951  50.760  48.961  1.00  0.00     0.293 HD
ENDBRANCH   5  23
BRANCH   7  25
ATOM     25  O   UNL     1      23.618  50.112  44.013  1.00  0.00    -0.507 OA
ATOM     26  H   UNL     1      23.332  50.319  43.068  1.00  0.00     0.293 HD
ENDBRANCH   7  25
TORSDOF 6
ENDMDL
