MODEL 1
REMARK VINA RESULT:    -4.341      0.000      0.000
REMARK INTER + INTRA:          -5.511
REMARK INTER:                  -6.117
REMARK INTRA:                   0.606
REMARK UNBOUND:                 0.606
REMARK SMILES CC1=CCC(=C(C)C)C(=O)CC(C)=CCC1
REMARK SMILES IDX 12 1 14 2 13 3 15 4 16 5 2 6 1 7 3 8 11 10 9 11 10 12 5 13
REMARK SMILES IDX 6 14 7 15 8 16 4 17
REMARK H PARENT
REMARK Flexibility Score: 60.00
ROOT
ATOM      1  C   UNL     1     -24.597   4.163  -0.669  1.00  0.00    -0.070 C 
ATOM      2  C   UNL     1     -24.389   3.938   0.647  1.00  0.00    -0.027 C 
ATOM      3  C   UNL     1     -25.283   5.446  -1.066  1.00  0.00     0.039 C 
ENDROOT
BRANCH   2   4
ATOM      4  C   UNL     1     -23.636   2.763   1.235  1.00  0.00     0.032 C 
BRANCH   4   5
ATOM      5  C   UNL     1     -24.456   1.461   1.347  1.00  0.00     0.034 C 
BRANCH   5   6
ATOM      6  C   UNL     1     -23.913   0.336   0.482  1.00  0.00    -0.077 C 
ATOM      7  C   UNL     1     -22.659  -0.361   0.946  1.00  0.00     0.039 C 
ATOM      8  C   UNL     1     -24.518  -0.126  -0.639  1.00  0.00    -0.023 CG0
ATOM      9  G   UNL     1     -25.766   0.428  -1.298  1.00  0.00     0.000 G0
ENDBRANCH   5   6
ENDBRANCH   4   5
ENDBRANCH   2   4
BRANCH   1  10
ATOM     10  C   UNL     1     -24.097   3.238  -1.760  1.00  0.00     0.111 C 
BRANCH  10  11
ATOM     11  C   UNL     1     -25.234   2.622  -2.532  1.00  0.00     0.163 C 
ATOM     12  O   UNL     1     -25.999   3.389  -3.176  1.00  0.00    -0.294 OA
BRANCH  11  13
ATOM     13  C   UNL     1     -25.443   1.145  -2.606  1.00  0.00    -0.002 C 
ATOM     14  C   UNL     1     -25.258   0.472  -3.782  1.00  0.00    -0.069 C 
ATOM     15  C   UNL     1     -25.308  -1.039  -3.856  1.00  0.00     0.039 C 
ATOM     16  C   UNL     1     -24.993   1.211  -5.076  1.00  0.00     0.039 C 
BRANCH  13  17
ATOM     17  C   UNL     1     -25.772   0.423  -1.310  1.00  0.00     0.066 CG0
ATOM     18  G   UNL     1     -24.534  -0.123  -0.626  1.00  0.00     0.000 G0
ENDBRANCH  13  17
ENDBRANCH  11  13
ENDBRANCH  10  11
ENDBRANCH   1  10
TORSDOF 0
ENDMDL
MODEL 2
REMARK VINA RESULT:    -4.262      2.014      3.829
REMARK INTER + INTRA:          -5.400
REMARK INTER:                  -5.834
REMARK INTRA:                   0.433
REMARK UNBOUND:                 0.606
REMARK SMILES CC1=CCC(=C(C)C)C(=O)CC(C)=CCC1
REMARK SMILES IDX 12 1 14 2 13 3 15 4 16 5 2 6 1 7 3 8 11 10 9 11 10 12 5 13
REMARK SMILES IDX 6 14 7 15 8 16 4 17
REMARK H PARENT
REMARK Flexibility Score: 60.00
ROOT
ATOM      1  C   UNL     1     -22.572   0.009   0.569  1.00  0.00    -0.070 C 
ATOM      2  C   UNL     1     -21.758   1.017   0.956  1.00  0.00    -0.027 C 
ATOM      3  C   UNL     1     -22.875  -1.077   1.570  1.00  0.00     0.039 C 
ENDROOT
BRANCH   2   4
ATOM      4  C   UNL     1     -21.414   2.241   0.133  1.00  0.00     0.032 C 
BRANCH   4   5
ATOM      5  C   UNL     1     -21.796   3.586   0.786  1.00  0.00     0.034 C 
BRANCH   5   6
ATOM      6  C   UNL     1     -23.279   3.703   1.090  1.00  0.00    -0.077 C 
ATOM      7  C   UNL     1     -23.679   4.056   2.500  1.00  0.00     0.039 C 
ATOM      8  C   UNL     1     -24.261   3.580   0.164  1.00  0.00    -0.023 CG0
ATOM      9  G   UNL     1     -24.098   3.213  -1.297  1.00  0.00     0.000 G0
ENDBRANCH   5   6
ENDBRANCH   4   5
ENDBRANCH   2   4
BRANCH   1  10
ATOM     10  C   UNL     1     -23.261  -0.032  -0.779  1.00  0.00     0.111 C 
BRANCH  10  11
ATOM     11  C   UNL     1     -24.547   0.752  -0.772  1.00  0.00     0.163 C 
ATOM     12  O   UNL     1     -25.429   0.438   0.073  1.00  0.00    -0.294 OA
BRANCH  11  13
ATOM     13  C   UNL     1     -24.782   1.914  -1.680  1.00  0.00    -0.002 C 
ATOM     14  C   UNL     1     -25.638   1.809  -2.741  1.00  0.00    -0.069 C 
ATOM     15  C   UNL     1     -26.019   3.007  -3.584  1.00  0.00     0.039 C 
ATOM     16  C   UNL     1     -26.250   0.480  -3.126  1.00  0.00     0.039 C 
BRANCH  13  17
ATOM     17  C   UNL     1     -24.110   3.228  -1.316  1.00  0.00     0.066 CG0
ATOM     18  G   UNL     1     -24.279   3.574   0.150  1.00  0.00     0.000 G0
ENDBRANCH  13  17
ENDBRANCH  11  13
ENDBRANCH  10  11
ENDBRANCH   1  10
TORSDOF 0
ENDMDL
MODEL 3
REMARK VINA RESULT:    -4.220      1.832      2.792
REMARK INTER + INTRA:          -5.340
REMARK INTER:                  -6.068
REMARK INTRA:                   0.727
REMARK UNBOUND:                 0.606
REMARK SMILES CC1=CCC(=C(C)C)C(=O)CC(C)=CCC1
REMARK SMILES IDX 12 1 14 2 13 3 15 4 16 5 2 6 1 7 3 8 11 10 9 11 10 12 5 13
REMARK SMILES IDX 6 14 7 15 8 16 4 17
REMARK H PARENT
REMARK Flexibility Score: 60.00
ROOT
ATOM      1  C   UNL     1     -24.846   3.213  -2.031  1.00  0.00    -0.070 C 
ATOM      2  C   UNL     1     -25.025   4.269  -1.208  1.00  0.00    -0.027 C 
ATOM      3  C   UNL     1     -25.874   2.976  -3.109  1.00  0.00     0.039 C 
ENDROOT
BRANCH   2   4
ATOM      4  C   UNL     1     -24.060   4.727  -0.134  1.00  0.00     0.032 C 
BRANCH   4   5
ATOM      5  C   UNL     1     -24.273   4.074   1.247  1.00  0.00     0.034 C 
BRANCH   5   6
ATOM      6  C   UNL     1     -23.437   2.823   1.452  1.00  0.00    -0.077 C 
ATOM      7  C   UNL     1     -22.029   2.997   1.961  1.00  0.00     0.039 C 
ATOM      8  C   UNL     1     -23.896   1.560   1.275  1.00  0.00    -0.023 CG0
ATOM      9  G   UNL     1     -25.258   1.147   0.756  1.00  0.00     0.000 G0
ENDBRANCH   5   6
ENDBRANCH   4   5
ENDBRANCH   2   4
BRANCH   1  10
ATOM     10  C   UNL     1     -23.625   2.317  -1.981  1.00  0.00     0.111 C 
BRANCH  10  11
ATOM     11  C   UNL     1     -23.964   0.944  -1.462  1.00  0.00     0.163 C 
ATOM     12  O   UNL     1     -23.127   0.018  -1.644  1.00  0.00    -0.294 OA
BRANCH  11  13
ATOM     13  C   UNL     1     -25.214   0.664  -0.695  1.00  0.00    -0.002 C 
ATOM     14  C   UNL     1     -26.229  -0.060  -1.255  1.00  0.00    -0.069 C 
ATOM     15  C   UNL     1     -27.438  -0.496  -0.456  1.00  0.00     0.039 C 
ATOM     16  C   UNL     1     -26.193  -0.464  -2.713  1.00  0.00     0.039 C 
BRANCH  13  17
ATOM     17  C   UNL     1     -25.262   1.130   0.751  1.00  0.00     0.066 CG0
ATOM     18  G   UNL     1     -23.900   1.551   1.265  1.00  0.00     0.000 G0
ENDBRANCH  13  17
ENDBRANCH  11  13
ENDBRANCH  10  11
ENDBRANCH   1  10
TORSDOF 0
ENDMDL
MODEL 4
REMARK VINA RESULT:    -4.172      1.855      4.713
REMARK INTER + INTRA:          -5.274
REMARK INTER:                  -5.772
REMARK INTRA:                   0.498
REMARK UNBOUND:                 0.606
REMARK SMILES CC1=CCC(=C(C)C)C(=O)CC(C)=CCC1
REMARK SMILES IDX 12 1 14 2 13 3 15 4 16 5 2 6 1 7 3 8 11 10 9 11 10 12 5 13
REMARK SMILES IDX 6 14 7 15 8 16 4 17
REMARK H PARENT
REMARK Flexibility Score: 60.00
ROOT
ATOM      1  C   UNL     1     -24.742   1.454  -5.552  1.00  0.00    -0.070 C 
ATOM      2  C   UNL     1     -25.596   0.717  -6.297  1.00  0.00    -0.027 C 
ATOM      3  C   UNL     1     -24.363   2.822  -6.059  1.00  0.00     0.039 C 
ENDROOT
BRANCH   2   4
ATOM      4  C   UNL     1     -26.168  -0.631  -5.913  1.00  0.00     0.032 C 
BRANCH   4   5
ATOM      5  C   UNL     1     -27.085  -0.615  -4.672  1.00  0.00     0.034 C 
BRANCH   5   6
ATOM      6  C   UNL     1     -26.633  -1.573  -3.583  1.00  0.00    -0.077 C 
ATOM      7  C   UNL     1     -26.415  -3.015  -3.965  1.00  0.00     0.039 C 
ATOM      8  C   UNL     1     -26.348  -1.203  -2.311  1.00  0.00    -0.023 CG0
ATOM      9  G   UNL     1     -26.510   0.175  -1.701  1.00  0.00     0.000 G0
ENDBRANCH   5   6
ENDBRANCH   4   5
ENDBRANCH   2   4
BRANCH   1  10
ATOM     10  C   UNL     1     -24.224   1.010  -4.199  1.00  0.00     0.111 C 
BRANCH  10  11
ATOM     11  C   UNL     1     -24.953   1.694  -3.072  1.00  0.00     0.163 C 
ATOM     12  O   UNL     1     -25.371   2.868  -3.262  1.00  0.00    -0.294 OA
BRANCH  11  13
ATOM     13  C   UNL     1     -25.245   1.012  -1.777  1.00  0.00    -0.002 C 
ATOM     14  C   UNL     1     -24.444   1.210  -0.687  1.00  0.00    -0.069 C 
ATOM     15  C   UNL     1     -24.800   0.662   0.678  1.00  0.00     0.039 C 
ATOM     16  C   UNL     1     -23.154   1.995  -0.793  1.00  0.00     0.039 C 
BRANCH  13  17
ATOM     17  C   UNL     1     -26.512   0.175  -1.702  1.00  0.00     0.066 CG0
ATOM     18  G   UNL     1     -26.332  -1.198  -2.317  1.00  0.00     0.000 G0
ENDBRANCH  13  17
ENDBRANCH  11  13
ENDBRANCH  10  11
ENDBRANCH   1  10
TORSDOF 0
ENDMDL
MODEL 5
REMARK VINA RESULT:    -4.152      3.126      5.170
REMARK INTER + INTRA:          -5.244
REMARK INTER:                  -5.514
REMARK INTRA:                   0.269
REMARK UNBOUND:                 0.606
REMARK SMILES CC1=CCC(=C(C)C)C(=O)CC(C)=CCC1
REMARK SMILES IDX 12 1 14 2 13 3 15 4 16 5 2 6 1 7 3 8 11 10 9 11 10 12 5 13
REMARK SMILES IDX 6 14 7 15 8 16 4 17
REMARK H PARENT
REMARK Flexibility Score: 60.00
ROOT
ATOM      1  C   UNL     1     -22.087   1.326   0.340  1.00  0.00    -0.070 C 
ATOM      2  C   UNL     1     -21.045   1.716   1.107  1.00  0.00    -0.027 C 
ATOM      3  C   UNL     1     -22.526  -0.114   0.424  1.00  0.00     0.039 C 
ENDROOT
BRANCH   2   4
ATOM      4  C   UNL     1     -20.521   3.131   1.235  1.00  0.00     0.032 C 
BRANCH   4   5
ATOM      5  C   UNL     1     -21.385   4.064   2.109  1.00  0.00     0.034 C 
BRANCH   5   6
ATOM      6  C   UNL     1     -21.599   5.434   1.490  1.00  0.00    -0.077 C 
ATOM      7  C   UNL     1     -20.382   6.290   1.245  1.00  0.00     0.039 C 
ATOM      8  C   UNL     1     -22.801   5.908   1.080  1.00  0.00    -0.023 CG0
ATOM      9  G   UNL     1     -24.150   5.236   1.239  1.00  0.00     0.000 G0
ENDBRANCH   5   6
ENDBRANCH   4   5
ENDBRANCH   2   4
BRANCH   1  10
ATOM     10  C   UNL     1     -22.885   2.280  -0.525  1.00  0.00     0.111 C 
BRANCH  10  11
ATOM     11  C   UNL     1     -24.050   2.870   0.226  1.00  0.00     0.163 C 
ATOM     12  O   UNL     1     -24.658   2.135   1.050  1.00  0.00    -0.294 OA
BRANCH  11  13
ATOM     13  C   UNL     1     -24.463   4.296   0.071  1.00  0.00    -0.002 C 
ATOM     14  C   UNL     1     -25.163   4.705  -1.030  1.00  0.00    -0.069 C 
ATOM     15  C   UNL     1     -25.732   6.103  -1.143  1.00  0.00     0.039 C 
ATOM     16  C   UNL     1     -25.406   3.772  -2.197  1.00  0.00     0.039 C 
BRANCH  13  17
ATOM     17  C   UNL     1     -24.157   5.238   1.224  1.00  0.00     0.066 CG0
ATOM     18  G   UNL     1     -22.804   5.906   1.079  1.00  0.00     0.000 G0
ENDBRANCH  13  17
ENDBRANCH  11  13
ENDBRANCH  10  11
ENDBRANCH   1  10
TORSDOF 0
ENDMDL
MODEL 6
REMARK VINA RESULT:    -4.147      2.473      4.457
REMARK INTER + INTRA:          -5.237
REMARK INTER:                  -5.800
REMARK INTRA:                   0.563
REMARK UNBOUND:                 0.606
REMARK SMILES CC1=CCC(=C(C)C)C(=O)CC(C)=CCC1
REMARK SMILES IDX 12 1 14 2 13 3 15 4 16 5 2 6 1 7 3 8 11 10 9 11 10 12 5 13
REMARK SMILES IDX 6 14 7 15 8 16 4 17
REMARK H PARENT
REMARK Flexibility Score: 60.00
ROOT
ATOM      1  C   UNL     1     -24.756   0.797  -1.017  1.00  0.00    -0.070 C 
ATOM      2  C   UNL     1     -24.642   2.101  -1.350  1.00  0.00    -0.027 C 
ATOM      3  C   UNL     1     -25.065   0.459   0.420  1.00  0.00     0.039 C 
ENDROOT
BRANCH   2   4
ATOM      4  C   UNL     1     -24.433   2.642  -2.749  1.00  0.00     0.032 C 
BRANCH   4   5
ATOM      5  C   UNL     1     -25.563   2.312  -3.746  1.00  0.00     0.034 C 
BRANCH   5   6
ATOM      6  C   UNL     1     -25.072   1.594  -4.990  1.00  0.00    -0.077 C 
ATOM      7  C   UNL     1     -23.918   2.205  -5.743  1.00  0.00     0.039 C 
ATOM      8  C   UNL     1     -25.557   0.406  -5.429  1.00  0.00    -0.023 CG0
ATOM      9  G   UNL     1     -26.717  -0.378  -4.848  1.00  0.00     0.000 G0
ENDBRANCH   5   6
ENDBRANCH   4   5
ENDBRANCH   2   4
BRANCH   1  10
ATOM     10  C   UNL     1     -24.678  -0.329  -2.028  1.00  0.00     0.111 C 
BRANCH  10  11
ATOM     11  C   UNL     1     -26.047  -0.815  -2.426  1.00  0.00     0.163 C 
ATOM     12  O   UNL     1     -26.985  -0.699  -1.591  1.00  0.00    -0.294 OA
BRANCH  11  13
ATOM     13  C   UNL     1     -26.338  -1.365  -3.783  1.00  0.00    -0.002 C 
ATOM     14  C   UNL     1     -26.320  -2.714  -4.009  1.00  0.00    -0.069 C 
ATOM     15  C   UNL     1     -26.762  -3.311  -5.327  1.00  0.00     0.039 C 
ATOM     16  C   UNL     1     -25.853  -3.682  -2.943  1.00  0.00     0.039 C 
BRANCH  13  17
ATOM     17  C   UNL     1     -26.745  -0.375  -4.863  1.00  0.00     0.066 CG0
ATOM     18  G   UNL     1     -25.559   0.385  -5.422  1.00  0.00     0.000 G0
ENDBRANCH  13  17
ENDBRANCH  11  13
ENDBRANCH  10  11
ENDBRANCH   1  10
TORSDOF 0
ENDMDL
MODEL 7
REMARK VINA RESULT:    -4.107      1.930      4.921
REMARK INTER + INTRA:          -5.182
REMARK INTER:                  -5.651
REMARK INTRA:                   0.469
REMARK UNBOUND:                 0.606
REMARK SMILES CC1=CCC(=C(C)C)C(=O)CC(C)=CCC1
REMARK SMILES IDX 12 1 14 2 13 3 15 4 16 5 2 6 1 7 3 8 11 10 9 11 10 12 5 13
REMARK SMILES IDX 6 14 7 15 8 16 4 17
REMARK H PARENT
REMARK Flexibility Score: 60.00
ROOT
ATOM      1  C   UNL     1     -24.198   0.166  -0.876  1.00  0.00    -0.070 C 
ATOM      2  C   UNL     1     -24.942  -0.357  -1.875  1.00  0.00    -0.027 C 
ATOM      3  C   UNL     1     -22.905  -0.525  -0.522  1.00  0.00     0.039 C 
ENDROOT
BRANCH   2   4
ATOM      4  C   UNL     1     -26.214   0.242  -2.438  1.00  0.00     0.032 C 
BRANCH   4   5
ATOM      5  C   UNL     1     -26.166   0.559  -3.947  1.00  0.00     0.034 C 
BRANCH   5   6
ATOM      6  C   UNL     1     -25.088   1.564  -4.313  1.00  0.00    -0.077 C 
ATOM      7  C   UNL     1     -24.111   1.181  -5.396  1.00  0.00     0.039 C 
ATOM      8  C   UNL     1     -24.989   2.806  -3.780  1.00  0.00    -0.023 CG0
ATOM      9  G   UNL     1     -25.841   3.397  -2.675  1.00  0.00     0.000 G0
ENDBRANCH   5   6
ENDBRANCH   4   5
ENDBRANCH   2   4
BRANCH   1  10
ATOM     10  C   UNL     1     -24.553   1.454  -0.162  1.00  0.00     0.111 C 
BRANCH  10  11
ATOM     11  C   UNL     1     -24.090   2.663  -0.931  1.00  0.00     0.163 C 
ATOM     12  O   UNL     1     -22.865   2.751  -1.217  1.00  0.00    -0.294 OA
BRANCH  11  13
ATOM     13  C   UNL     1     -25.033   3.716  -1.413  1.00  0.00    -0.002 C 
ATOM     14  C   UNL     1     -25.089   4.937  -0.800  1.00  0.00    -0.069 C 
ATOM     15  C   UNL     1     -25.916   6.075  -1.358  1.00  0.00     0.039 C 
ATOM     16  C   UNL     1     -24.321   5.211   0.475  1.00  0.00     0.039 C 
BRANCH  13  17
ATOM     17  C   UNL     1     -25.845   3.404  -2.659  1.00  0.00     0.066 CG0
ATOM     18  G   UNL     1     -24.997   2.809  -3.765  1.00  0.00     0.000 G0
ENDBRANCH  13  17
ENDBRANCH  11  13
ENDBRANCH  10  11
ENDBRANCH   1  10
TORSDOF 0
ENDMDL
MODEL 8
REMARK VINA RESULT:    -3.875      2.803      5.254
REMARK INTER + INTRA:          -4.854
REMARK INTER:                  -5.149
REMARK INTRA:                   0.295
REMARK UNBOUND:                 0.606
REMARK SMILES CC1=CCC(=C(C)C)C(=O)CC(C)=CCC1
REMARK SMILES IDX 12 1 14 2 13 3 15 4 16 5 2 6 1 7 3 8 11 10 9 11 10 12 5 13
REMARK SMILES IDX 6 14 7 15 8 16 4 17
REMARK H PARENT
REMARK Flexibility Score: 60.00
ROOT
ATOM      1  C   UNL     1     -24.991   4.658  -0.695  1.00  0.00    -0.070 C 
ATOM      2  C   UNL     1     -25.108   3.648  -1.586  1.00  0.00    -0.027 C 
ATOM      3  C   UNL     1     -25.625   5.982  -1.041  1.00  0.00     0.039 C 
ENDROOT
BRANCH   2   4
ATOM      4  C   UNL     1     -24.629   2.227  -1.380  1.00  0.00     0.032 C 
BRANCH   4   5
ATOM      5  C   UNL     1     -23.095   2.060  -1.356  1.00  0.00     0.034 C 
BRANCH   5   6
ATOM      6  C   UNL     1     -22.588   1.378  -0.097  1.00  0.00    -0.077 C 
ATOM      7  C   UNL     1     -23.084  -0.016   0.194  1.00  0.00     0.039 C 
ATOM      8  C   UNL     1     -21.667   1.911   0.742  1.00  0.00    -0.023 CG0
ATOM      9  G   UNL     1     -21.047   3.292   0.660  1.00  0.00     0.000 G0
ENDBRANCH   5   6
ENDBRANCH   4   5
ENDBRANCH   2   4
BRANCH   1  10
ATOM     10  C   UNL     1     -24.338   4.497   0.662  1.00  0.00     0.111 C 
BRANCH  10  11
ATOM     11  C   UNL     1     -22.931   5.033   0.670  1.00  0.00     0.163 C 
ATOM     12  O   UNL     1     -22.706   6.120   0.071  1.00  0.00    -0.294 OA
BRANCH  11  13
ATOM     13  C   UNL     1     -21.821   4.359   1.406  1.00  0.00    -0.002 C 
ATOM     14  C   UNL     1     -21.591   4.631   2.726  1.00  0.00    -0.069 C 
ATOM     15  C   UNL     1     -20.581   3.852   3.541  1.00  0.00     0.039 C 
ATOM     16  C   UNL     1     -22.344   5.731   3.443  1.00  0.00     0.039 C 
BRANCH  13  17
ATOM     17  C   UNL     1     -21.031   3.298   0.655  1.00  0.00     0.066 CG0
ATOM     18  G   UNL     1     -21.672   1.928   0.751  1.00  0.00     0.000 G0
ENDBRANCH  13  17
ENDBRANCH  11  13
ENDBRANCH  10  11
ENDBRANCH   1  10
TORSDOF 0
ENDMDL
MODEL 9
REMARK VINA RESULT:    -3.808      7.310      9.111
REMARK INTER + INTRA:          -4.760
REMARK INTER:                  -4.942
REMARK INTRA:                   0.183
REMARK UNBOUND:                 0.606
REMARK SMILES CC1=CCC(=C(C)C)C(=O)CC(C)=CCC1
REMARK SMILES IDX 12 1 14 2 13 3 15 4 16 5 2 6 1 7 3 8 11 10 9 11 10 12 5 13
REMARK SMILES IDX 6 14 7 15 8 16 4 17
REMARK H PARENT
REMARK Flexibility Score: 60.00
ROOT
ATOM      1  C   UNL     1     -27.786  -1.532  -7.371  1.00  0.00    -0.070 C 
ATOM      2  C   UNL     1     -27.300  -1.641  -6.115  1.00  0.00    -0.027 C 
ATOM      3  C   UNL     1     -27.302  -0.383  -8.219  1.00  0.00     0.039 C 
ENDROOT
BRANCH   2   4
ATOM      4  C   UNL     1     -27.587  -2.771  -5.150  1.00  0.00     0.032 C 
BRANCH   4   5
ATOM      5  C   UNL     1     -26.624  -3.972  -5.255  1.00  0.00     0.034 C 
BRANCH   5   6
ATOM      6  C   UNL     1     -27.328  -5.314  -5.152  1.00  0.00    -0.077 C 
ATOM      7  C   UNL     1     -27.809  -5.750  -3.791  1.00  0.00     0.039 C 
ATOM      8  C   UNL     1     -27.613  -6.110  -6.210  1.00  0.00    -0.023 CG0
ATOM      9  G   UNL     1     -27.216  -5.887  -7.656  1.00  0.00     0.000 G0
ENDBRANCH   5   6
ENDBRANCH   4   5
ENDBRANCH   2   4
BRANCH   1  10
ATOM     10  C   UNL     1     -28.717  -2.553  -7.993  1.00  0.00     0.111 C 
BRANCH  10  11
ATOM     11  C   UNL     1     -27.955  -3.651  -8.688  1.00  0.00     0.163 C 
ATOM     12  O   UNL     1     -27.009  -3.324  -9.455  1.00  0.00    -0.294 OA
BRANCH  11  13
ATOM     13  C   UNL     1     -28.241  -5.097  -8.452  1.00  0.00    -0.002 C 
ATOM     14  C   UNL     1     -29.344  -5.690  -9.001  1.00  0.00    -0.069 C 
ATOM     15  C   UNL     1     -29.578  -7.182  -8.914  1.00  0.00     0.039 C 
ATOM     16  C   UNL     1     -30.391  -4.876  -9.730  1.00  0.00     0.039 C 
BRANCH  13  17
ATOM     17  C   UNL     1     -27.211  -5.890  -7.664  1.00  0.00     0.066 CG0
ATOM     18  G   UNL     1     -27.626  -6.100  -6.222  1.00  0.00     0.000 G0
ENDBRANCH  13  17
ENDBRANCH  11  13
ENDBRANCH  10  11
ENDBRANCH   1  10
TORSDOF 0
ENDMDL
