MODEL 1
REMARK VINA RESULT:     6.668      0.000      0.000
REMARK INTER + INTRA:          16.140
REMARK INTER:                  12.125
REMARK INTRA:                   4.015
REMARK UNBOUND:                 4.015
REMARK SMILES CCCCCCCCCCCCCC[C@@H](C)C(=O)[O-]
REMARK SMILES IDX 9 1 10 2 11 3 12 4 13 5 14 6 15 7 16 8 17 9 18 10 19 11 8 12
REMARK SMILES IDX 7 13 6 14 5 15 4 16 3 17 2 18 1 19
REMARK H PARENT
REMARK Flexibility Score: inf
ROOT
ATOM      1  C   UNL     1      66.166  57.073   7.392  1.00  0.00     0.000 C 
ENDROOT
BRANCH   1   2
ATOM      2  C   UNL     1      64.698  57.543   7.364  1.00  0.00     0.000 C 
BRANCH   2   3
ATOM      3  C   UNL     1      64.281  58.456   8.531  1.00  0.00     0.000 C 
BRANCH   3   4
ATOM      4  C   UNL     1      62.790  58.821   8.501  1.00  0.00     0.000 C 
BRANCH   4   5
ATOM      5  C   UNL     1      62.151  58.631   9.884  1.00  0.00     0.001 C 
BRANCH   5   6
ATOM      6  C   UNL     1      62.960  57.684  10.792  1.00  0.00     0.009 C 
BRANCH   6   7
ATOM      7  C   UNL     1      62.511  56.207  10.726  1.00  0.00     0.032 C 
ATOM      8  C   UNL     1      61.875  55.903   9.366  1.00  0.00     0.014 C 
BRANCH   7   9
ATOM      9  C   UNL     1      63.664  55.269  10.966  1.00  0.00     0.044 C 
ATOM     10  O   UNL     1      64.833  55.722  11.077  1.00  0.00    -0.550 OA
ATOM     11  O   UNL     1      63.448  53.900  11.064  1.00  0.00    -0.550 OA
ENDBRANCH   7   9
ENDBRANCH   6   7
ENDBRANCH   5   6
ENDBRANCH   4   5
ENDBRANCH   3   4
ENDBRANCH   2   3
ENDBRANCH   1   2
BRANCH   1  12
ATOM     12  C   UNL     1      67.045  57.732   8.471  1.00  0.00     0.000 C 
BRANCH  12  13
ATOM     13  C   UNL     1      66.345  57.818   9.838  1.00  0.00    -0.000 C 
BRANCH  13  14
ATOM     14  C   UNL     1      66.967  56.869  10.878  1.00  0.00    -0.000 C 
BRANCH  14  15
ATOM     15  C   UNL     1      66.733  55.387  10.536  1.00  0.00    -0.000 C 
BRANCH  15  16
ATOM     16  C   UNL     1      67.973  54.722   9.919  1.00  0.00    -0.000 C 
BRANCH  16  17
ATOM     17  C   UNL     1      69.051  54.388  10.966  1.00  0.00    -0.000 C 
BRANCH  17  18
ATOM     18  C   UNL     1      70.249  55.348  10.904  1.00  0.00    -0.003 C 
ATOM     19  C   UNL     1      71.280  54.938   9.853  1.00  0.00     0.004 C 
ENDBRANCH  17  18
ENDBRANCH  16  17
ENDBRANCH  15  16
ENDBRANCH  14  15
ENDBRANCH  13  14
ENDBRANCH  12  13
ENDBRANCH   1  12
TORSDOF 14
ENDMDL
