MODEL 1
REMARK VINA RESULT:    -4.092      0.000      0.000
REMARK INTER + INTRA:          -9.340
REMARK INTER:                  -7.203
REMARK INTRA:                  -2.138
REMARK UNBOUND:                -2.138
REMARK SMILES CCCCCCC=CCCCCCCCC(=O)[O-]
REMARK SMILES IDX 10 1 11 2 12 3 13 4 14 5 15 6 16 7 17 8 18 9 9 10 8 11 7 12
REMARK SMILES IDX 6 13 5 14 4 15 3 16 2 17 1 18
REMARK H PARENT
REMARK Flexibility Score: inf
ROOT
ATOM      1  C   UNL     1      -5.748  -1.023   8.217  1.00  0.00     0.004 C 
ENDROOT
BRANCH   1   2
ATOM      2  C   UNL     1      -6.782  -0.908   9.354  1.00  0.00     0.000 C 
BRANCH   2   3
ATOM      3  C   UNL     1      -8.215  -1.315   8.967  1.00  0.00     0.000 C 
BRANCH   3   4
ATOM      4  C   UNL     1      -8.711  -2.592   9.682  1.00  0.00     0.000 C 
BRANCH   4   5
ATOM      5  C   UNL     1      -8.462  -3.882   8.877  1.00  0.00     0.006 C 
BRANCH   5   6
ATOM      6  C   UNL     1      -8.207  -3.635   7.382  1.00  0.00     0.053 C 
BRANCH   6   7
ATOM      7  C   UNL     1      -7.597  -4.831   6.716  1.00  0.00     0.041 C 
ATOM      8  O   UNL     1      -7.181  -5.798   7.406  1.00  0.00    -0.550 OA
ATOM      9  O   UNL     1      -7.514  -4.887   5.330  1.00  0.00    -0.550 OA
ENDBRANCH   6   7
ENDBRANCH   5   6
ENDBRANCH   4   5
ENDBRANCH   3   4
ENDBRANCH   2   3
ENDBRANCH   1   2
BRANCH   1  10
ATOM     10  C   UNL     1      -4.561  -1.948   8.536  1.00  0.00     0.027 C 
BRANCH  10  11
ATOM     11  C   UNL     1      -4.981  -3.172   9.313  1.00  0.00    -0.031 C 
ATOM     12  C   UNL     1      -4.466  -4.405   9.149  1.00  0.00    -0.031 C 
BRANCH  12  13
ATOM     13  C   UNL     1      -3.427  -4.783   8.120  1.00  0.00     0.027 C 
BRANCH  13  14
ATOM     14  C   UNL     1      -2.054  -5.011   8.767  1.00  0.00     0.004 C 
BRANCH  14  15
ATOM     15  C   UNL     1      -1.283  -3.695   8.962  1.00  0.00     0.000 C 
BRANCH  15  16
ATOM     16  C   UNL     1      -0.963  -3.403  10.440  1.00  0.00    -0.000 C 
BRANCH  16  17
ATOM     17  C   UNL     1      -1.908  -2.398  11.121  1.00  0.00    -0.003 C 
ATOM     18  C   UNL     1      -2.552  -2.950  12.393  1.00  0.00     0.004 C 
ENDBRANCH  16  17
ENDBRANCH  15  16
ENDBRANCH  14  15
ENDBRANCH  13  14
ENDBRANCH  12  13
ENDBRANCH  10  11
ENDBRANCH   1  10
TORSDOF 13
ENDMDL
MODEL 2
REMARK VINA RESULT:    -4.076      1.805      3.003
REMARK INTER + INTRA:          -9.311
REMARK INTER:                  -7.292
REMARK INTRA:                  -2.018
REMARK UNBOUND:                -2.138
REMARK SMILES CCCCCCC=CCCCCCCCC(=O)[O-]
REMARK SMILES IDX 10 1 11 2 12 3 13 4 14 5 15 6 16 7 17 8 18 9 9 10 8 11 7 12
REMARK SMILES IDX 6 13 5 14 4 15 3 16 2 17 1 18
REMARK H PARENT
REMARK Flexibility Score: inf
ROOT
ATOM      1  C   UNL     1      -8.285  -3.396   9.127  1.00  0.00     0.004 C 
ENDROOT
BRANCH   1   2
ATOM      2  C   UNL     1      -9.025  -2.084   8.800  1.00  0.00     0.000 C 
BRANCH   2   3
ATOM      3  C   UNL     1      -8.896  -1.619   7.338  1.00  0.00     0.000 C 
BRANCH   3   4
ATOM      4  C   UNL     1      -9.318  -2.690   6.307  1.00  0.00     0.000 C 
BRANCH   4   5
ATOM      5  C   UNL     1      -8.364  -2.793   5.102  1.00  0.00     0.006 C 
BRANCH   5   6
ATOM      6  C   UNL     1      -7.357  -3.949   5.211  1.00  0.00     0.053 C 
BRANCH   6   7
ATOM      7  C   UNL     1      -8.019  -5.282   5.039  1.00  0.00     0.041 C 
ATOM      8  O   UNL     1      -7.888  -6.173   5.919  1.00  0.00    -0.550 OA
ATOM      9  O   UNL     1      -8.802  -5.530   3.919  1.00  0.00    -0.550 OA
ENDBRANCH   6   7
ENDBRANCH   5   6
ENDBRANCH   4   5
ENDBRANCH   3   4
ENDBRANCH   2   3
ENDBRANCH   1   2
BRANCH   1  10
ATOM     10  C   UNL     1      -6.753  -3.293   9.041  1.00  0.00     0.027 C 
BRANCH  10  11
ATOM     11  C   UNL     1      -6.106  -4.621   8.735  1.00  0.00    -0.031 C 
ATOM     12  C   UNL     1      -4.867  -4.984   9.120  1.00  0.00    -0.031 C 
BRANCH  12  13
ATOM     13  C   UNL     1      -3.897  -4.102   9.871  1.00  0.00     0.027 C 
BRANCH  13  14
ATOM     14  C   UNL     1      -2.457  -4.310   9.382  1.00  0.00     0.004 C 
BRANCH  14  15
ATOM     15  C   UNL     1      -2.194  -3.601   8.044  1.00  0.00     0.000 C 
BRANCH  15  16
ATOM     16  C   UNL     1      -2.861  -2.216   7.959  1.00  0.00    -0.000 C 
BRANCH  16  17
ATOM     17  C   UNL     1      -3.853  -2.044   6.796  1.00  0.00    -0.003 C 
ATOM     18  C   UNL     1      -3.781  -3.180   5.775  1.00  0.00     0.004 C 
ENDBRANCH  16  17
ENDBRANCH  15  16
ENDBRANCH  14  15
ENDBRANCH  13  14
ENDBRANCH  12  13
ENDBRANCH  10  11
ENDBRANCH   1  10
TORSDOF 13
ENDMDL
MODEL 3
REMARK VINA RESULT:    -4.073     11.301     14.195
REMARK INTER + INTRA:          -9.306
REMARK INTER:                  -7.253
REMARK INTRA:                  -2.052
REMARK UNBOUND:                -2.138
REMARK SMILES CCCCCCC=CCCCCCCCC(=O)[O-]
REMARK SMILES IDX 10 1 11 2 12 3 13 4 14 5 15 6 16 7 17 8 18 9 9 10 8 11 7 12
REMARK SMILES IDX 6 13 5 14 4 15 3 16 2 17 1 18
REMARK H PARENT
REMARK Flexibility Score: inf
ROOT
ATOM      1  C   UNL     1       6.617   5.471   8.232  1.00  0.00     0.004 C 
ENDROOT
BRANCH   1   2
ATOM      2  C   UNL     1       7.683   4.487   8.749  1.00  0.00     0.000 C 
BRANCH   2   3
ATOM      3  C   UNL     1       7.323   2.999   8.582  1.00  0.00     0.000 C 
BRANCH   3   4
ATOM      4  C   UNL     1       8.160   2.276   7.503  1.00  0.00     0.000 C 
BRANCH   4   5
ATOM      5  C   UNL     1       9.172   3.197   6.792  1.00  0.00     0.006 C 
BRANCH   5   6
ATOM      6  C   UNL     1       8.928   3.329   5.281  1.00  0.00     0.053 C 
BRANCH   6   7
ATOM      7  C   UNL     1       7.911   4.385   4.970  1.00  0.00     0.041 C 
ATOM      8  O   UNL     1       8.279   5.558   4.697  1.00  0.00    -0.550 OA
ATOM      9  O   UNL     1       6.559   4.065   4.955  1.00  0.00    -0.550 OA
ENDBRANCH   6   7
ENDBRANCH   5   6
ENDBRANCH   4   5
ENDBRANCH   3   4
ENDBRANCH   2   3
ENDBRANCH   1   2
BRANCH   1  10
ATOM     10  C   UNL     1       5.189   5.166   8.718  1.00  0.00     0.027 C 
BRANCH  10  11
ATOM     11  C   UNL     1       4.276   4.754   7.590  1.00  0.00    -0.031 C 
ATOM     12  C   UNL     1       2.939   4.916   7.581  1.00  0.00    -0.031 C 
BRANCH  12  13
ATOM     13  C   UNL     1       2.124   5.481   8.720  1.00  0.00     0.027 C 
BRANCH  13  14
ATOM     14  C   UNL     1       1.468   4.367   9.547  1.00  0.00     0.004 C 
BRANCH  14  15
ATOM     15  C   UNL     1       2.389   3.864  10.670  1.00  0.00     0.000 C 
BRANCH  15  16
ATOM     16  C   UNL     1       2.617   2.342  10.620  1.00  0.00    -0.000 C 
BRANCH  16  17
ATOM     17  C   UNL     1       3.985   1.909  10.065  1.00  0.00    -0.003 C 
ATOM     18  C   UNL     1       3.893   1.276   8.677  1.00  0.00     0.004 C 
ENDBRANCH  16  17
ENDBRANCH  15  16
ENDBRANCH  14  15
ENDBRANCH  13  14
ENDBRANCH  12  13
ENDBRANCH  10  11
ENDBRANCH   1  10
TORSDOF 13
ENDMDL
MODEL 4
REMARK VINA RESULT:    -4.055     11.358     14.300
REMARK INTER + INTRA:          -9.274
REMARK INTER:                  -7.092
REMARK INTRA:                  -2.182
REMARK UNBOUND:                -2.138
REMARK SMILES CCCCCCC=CCCCCCCCC(=O)[O-]
REMARK SMILES IDX 10 1 11 2 12 3 13 4 14 5 15 6 16 7 17 8 18 9 9 10 8 11 7 12
REMARK SMILES IDX 6 13 5 14 4 15 3 16 2 17 1 18
REMARK H PARENT
REMARK Flexibility Score: inf
ROOT
ATOM      1  C   UNL     1       9.064   1.248   9.825  1.00  0.00     0.004 C 
ENDROOT
BRANCH   1   2
ATOM      2  C   UNL     1       7.604   0.761   9.900  1.00  0.00     0.000 C 
BRANCH   2   3
ATOM      3  C   UNL     1       6.883   0.672   8.542  1.00  0.00     0.000 C 
BRANCH   3   4
ATOM      4  C   UNL     1       7.844   0.594   7.335  1.00  0.00     0.000 C 
BRANCH   4   5
ATOM      5  C   UNL     1       7.467   1.552   6.187  1.00  0.00     0.006 C 
BRANCH   5   6
ATOM      6  C   UNL     1       5.985   1.958   6.186  1.00  0.00     0.053 C 
BRANCH   6   7
ATOM      7  C   UNL     1       5.756   3.229   5.427  1.00  0.00     0.041 C 
ATOM      8  O   UNL     1       4.610   3.506   4.985  1.00  0.00    -0.550 OA
ATOM      9  O   UNL     1       6.803   4.121   5.232  1.00  0.00    -0.550 OA
ENDBRANCH   6   7
ENDBRANCH   5   6
ENDBRANCH   4   5
ENDBRANCH   3   4
ENDBRANCH   2   3
ENDBRANCH   1   2
BRANCH   1  10
ATOM     10  C   UNL     1       9.262   2.711  10.258  1.00  0.00     0.027 C 
BRANCH  10  11
ATOM     11  C   UNL     1       9.462   3.635   9.082  1.00  0.00    -0.031 C 
ATOM     12  C   UNL     1       8.481   4.320   8.463  1.00  0.00    -0.031 C 
BRANCH  12  13
ATOM     13  C   UNL     1       7.012   4.233   8.803  1.00  0.00     0.027 C 
BRANCH  13  14
ATOM     14  C   UNL     1       6.265   5.509   8.392  1.00  0.00     0.004 C 
BRANCH  14  15
ATOM     15  C   UNL     1       4.766   5.432   8.725  1.00  0.00     0.000 C 
BRANCH  15  16
ATOM     16  C   UNL     1       4.201   4.004   8.619  1.00  0.00    -0.000 C 
BRANCH  16  17
ATOM     17  C   UNL     1       3.488   3.493   9.883  1.00  0.00    -0.003 C 
ATOM     18  C   UNL     1       2.181   4.231  10.172  1.00  0.00     0.004 C 
ENDBRANCH  16  17
ENDBRANCH  15  16
ENDBRANCH  14  15
ENDBRANCH  13  14
ENDBRANCH  12  13
ENDBRANCH  10  11
ENDBRANCH   1  10
TORSDOF 13
ENDMDL
MODEL 5
REMARK VINA RESULT:    -4.054      1.545      2.843
REMARK INTER + INTRA:          -9.273
REMARK INTER:                  -7.374
REMARK INTRA:                  -1.899
REMARK UNBOUND:                -2.138
REMARK SMILES CCCCCCC=CCCCCCCCC(=O)[O-]
REMARK SMILES IDX 10 1 11 2 12 3 13 4 14 5 15 6 16 7 17 8 18 9 9 10 8 11 7 12
REMARK SMILES IDX 6 13 5 14 4 15 3 16 2 17 1 18
REMARK H PARENT
REMARK Flexibility Score: inf
ROOT
ATOM      1  C   UNL     1      -5.861  -4.441   8.607  1.00  0.00     0.004 C 
ENDROOT
BRANCH   1   2
ATOM      2  C   UNL     1      -6.786  -3.293   9.053  1.00  0.00     0.000 C 
BRANCH   2   3
ATOM      3  C   UNL     1      -8.270  -3.676   9.192  1.00  0.00     0.000 C 
BRANCH   3   4
ATOM      4  C   UNL     1      -9.208  -2.870   8.264  1.00  0.00     0.000 C 
BRANCH   4   5
ATOM      5  C   UNL     1      -8.555  -2.473   6.926  1.00  0.00     0.006 C 
BRANCH   5   6
ATOM      6  C   UNL     1      -8.883  -3.434   5.772  1.00  0.00     0.053 C 
BRANCH   6   7
ATOM      7  C   UNL     1      -7.757  -4.386   5.503  1.00  0.00     0.041 C 
ATOM      8  O   UNL     1      -7.950  -5.629   5.559  1.00  0.00    -0.550 OA
ATOM      9  O   UNL     1      -6.501  -3.898   5.162  1.00  0.00    -0.550 OA
ENDBRANCH   6   7
ENDBRANCH   5   6
ENDBRANCH   4   5
ENDBRANCH   3   4
ENDBRANCH   2   3
ENDBRANCH   1   2
BRANCH   1  10
ATOM     10  C   UNL     1      -4.524  -4.504   9.367  1.00  0.00     0.027 C 
BRANCH  10  11
ATOM     11  C   UNL     1      -3.390  -4.978   8.492  1.00  0.00    -0.031 C 
ATOM     12  C   UNL     1      -2.094  -4.649   8.661  1.00  0.00    -0.031 C 
BRANCH  12  13
ATOM     13  C   UNL     1      -1.568  -3.705   9.716  1.00  0.00     0.027 C 
BRANCH  13  14
ATOM     14  C   UNL     1      -0.665  -2.626   9.102  1.00  0.00     0.004 C 
BRANCH  14  15
ATOM     15  C   UNL     1      -1.198  -2.128   7.749  1.00  0.00     0.000 C 
BRANCH  15  16
ATOM     16  C   UNL     1      -2.055  -0.855   7.876  1.00  0.00    -0.000 C 
BRANCH  16  17
ATOM     17  C   UNL     1      -3.569  -1.102   7.994  1.00  0.00    -0.003 C 
ATOM     18  C   UNL     1      -4.178  -1.704   6.728  1.00  0.00     0.004 C 
ENDBRANCH  16  17
ENDBRANCH  15  16
ENDBRANCH  14  15
ENDBRANCH  13  14
ENDBRANCH  12  13
ENDBRANCH  10  11
ENDBRANCH   1  10
TORSDOF 13
ENDMDL
MODEL 6
REMARK VINA RESULT:    -4.001      2.614      5.349
REMARK INTER + INTRA:          -9.180
REMARK INTER:                  -6.849
REMARK INTRA:                  -2.331
REMARK UNBOUND:                -2.138
REMARK SMILES CCCCCCC=CCCCCCCCC(=O)[O-]
REMARK SMILES IDX 10 1 11 2 12 3 13 4 14 5 15 6 16 7 17 8 18 9 9 10 8 11 7 12
REMARK SMILES IDX 6 13 5 14 4 15 3 16 2 17 1 18
REMARK H PARENT
REMARK Flexibility Score: inf
ROOT
ATOM      1  C   UNL     1      -6.440  -3.350   8.987  1.00  0.00     0.004 C 
ENDROOT
BRANCH   1   2
ATOM      2  C   UNL     1      -5.177  -4.027   8.419  1.00  0.00     0.000 C 
BRANCH   2   3
ATOM      3  C   UNL     1      -4.627  -3.388   7.130  1.00  0.00     0.000 C 
BRANCH   3   4
ATOM      4  C   UNL     1      -5.679  -2.570   6.346  1.00  0.00     0.000 C 
BRANCH   4   5
ATOM      5  C   UNL     1      -6.187  -3.279   5.076  1.00  0.00     0.006 C 
BRANCH   5   6
ATOM      6  C   UNL     1      -7.718  -3.284   4.944  1.00  0.00     0.053 C 
BRANCH   6   7
ATOM      7  C   UNL     1      -8.262  -4.675   4.813  1.00  0.00     0.041 C 
ATOM      8  O   UNL     1      -7.885  -5.580   5.603  1.00  0.00    -0.550 OA
ATOM      9  O   UNL     1      -9.205  -4.962   3.834  1.00  0.00    -0.550 OA
ENDBRANCH   6   7
ENDBRANCH   5   6
ENDBRANCH   4   5
ENDBRANCH   3   4
ENDBRANCH   2   3
ENDBRANCH   1   2
BRANCH   1  10
ATOM     10  C   UNL     1      -7.725  -4.179   8.825  1.00  0.00     0.027 C 
BRANCH  10  11
ATOM     11  C   UNL     1      -8.877  -3.355   8.306  1.00  0.00    -0.031 C 
ATOM     12  C   UNL     1      -9.730  -2.650   9.074  1.00  0.00    -0.031 C 
BRANCH  12  13
ATOM     13  C   UNL     1      -9.714  -2.615  10.584  1.00  0.00     0.027 C 
BRANCH  13  14
ATOM     14  C   UNL     1      -9.565  -1.180  11.110  1.00  0.00     0.004 C 
BRANCH  14  15
ATOM     15  C   UNL     1      -9.059  -0.217  10.024  1.00  0.00     0.000 C 
BRANCH  15  16
ATOM     16  C   UNL     1      -7.558   0.099  10.157  1.00  0.00    -0.000 C 
BRANCH  16  17
ATOM     17  C   UNL     1      -6.827   0.346   8.826  1.00  0.00    -0.003 C 
ATOM     18  C   UNL     1      -7.736   0.192   7.607  1.00  0.00     0.004 C 
ENDBRANCH  16  17
ENDBRANCH  15  16
ENDBRANCH  14  15
ENDBRANCH  13  14
ENDBRANCH  12  13
ENDBRANCH  10  11
ENDBRANCH   1  10
TORSDOF 13
ENDMDL
MODEL 7
REMARK VINA RESULT:    -3.992     11.039     13.821
REMARK INTER + INTRA:          -9.163
REMARK INTER:                  -7.182
REMARK INTRA:                  -1.980
REMARK UNBOUND:                -2.138
REMARK SMILES CCCCCCC=CCCCCCCCC(=O)[O-]
REMARK SMILES IDX 10 1 11 2 12 3 13 4 14 5 15 6 16 7 17 8 18 9 9 10 8 11 7 12
REMARK SMILES IDX 6 13 5 14 4 15 3 16 2 17 1 18
REMARK H PARENT
REMARK Flexibility Score: inf
ROOT
ATOM      1  C   UNL     1       8.431   4.005   7.597  1.00  0.00     0.004 C 
ENDROOT
BRANCH   1   2
ATOM      2  C   UNL     1       7.483   4.799   8.517  1.00  0.00     0.000 C 
BRANCH   2   3
ATOM      3  C   UNL     1       6.009   4.358   8.460  1.00  0.00     0.000 C 
BRANCH   3   4
ATOM      4  C   UNL     1       5.009   5.501   8.749  1.00  0.00     0.000 C 
BRANCH   4   5
ATOM      5  C   UNL     1       3.737   5.033   9.482  1.00  0.00     0.006 C 
BRANCH   5   6
ATOM      6  C   UNL     1       2.455   5.189   8.649  1.00  0.00     0.053 C 
BRANCH   6   7
ATOM      7  C   UNL     1       2.080   3.912   7.958  1.00  0.00     0.041 C 
ATOM      8  O   UNL     1       2.515   3.666   6.802  1.00  0.00    -0.550 OA
ATOM      9  O   UNL     1       1.273   2.984   8.603  1.00  0.00    -0.550 OA
ENDBRANCH   6   7
ENDBRANCH   5   6
ENDBRANCH   4   5
ENDBRANCH   3   4
ENDBRANCH   2   3
ENDBRANCH   1   2
BRANCH   1  10
ATOM     10  C   UNL     1       9.745   3.571   8.270  1.00  0.00     0.027 C 
BRANCH  10  11
ATOM     11  C   UNL     1       9.691   3.706   9.772  1.00  0.00    -0.031 C 
ATOM     12  C   UNL     1       9.413   2.703  10.628  1.00  0.00    -0.031 C 
BRANCH  12  13
ATOM     13  C   UNL     1       9.051   1.293  10.225  1.00  0.00     0.027 C 
BRANCH  13  14
ATOM     14  C   UNL     1       7.552   1.163   9.924  1.00  0.00     0.004 C 
BRANCH  14  15
ATOM     15  C   UNL     1       7.284   0.271   8.700  1.00  0.00     0.000 C 
BRANCH  15  16
ATOM     16  C   UNL     1       8.550   0.008   7.864  1.00  0.00    -0.000 C 
BRANCH  16  17
ATOM     17  C   UNL     1       8.478   0.500   6.408  1.00  0.00    -0.003 C 
ATOM     18  C   UNL     1       7.096   1.027   6.022  1.00  0.00     0.004 C 
ENDBRANCH  16  17
ENDBRANCH  15  16
ENDBRANCH  14  15
ENDBRANCH  13  14
ENDBRANCH  12  13
ENDBRANCH  10  11
ENDBRANCH   1  10
TORSDOF 13
ENDMDL
MODEL 8
REMARK VINA RESULT:    -3.978      1.386      2.131
REMARK INTER + INTRA:          -9.138
REMARK INTER:                  -7.072
REMARK INTRA:                  -2.066
REMARK UNBOUND:                -2.138
REMARK SMILES CCCCCCC=CCCCCCCCC(=O)[O-]
REMARK SMILES IDX 10 1 11 2 12 3 13 4 14 5 15 6 16 7 17 8 18 9 9 10 8 11 7 12
REMARK SMILES IDX 6 13 5 14 4 15 3 16 2 17 1 18
REMARK H PARENT
REMARK Flexibility Score: inf
ROOT
ATOM      1  C   UNL     1      -5.546  -1.517   8.538  1.00  0.00     0.004 C 
ENDROOT
BRANCH   1   2
ATOM      2  C   UNL     1      -6.670  -0.805   9.314  1.00  0.00     0.000 C 
BRANCH   2   3
ATOM      3  C   UNL     1      -8.097  -1.225   8.914  1.00  0.00     0.000 C 
BRANCH   3   4
ATOM      4  C   UNL     1      -8.603  -2.482   9.655  1.00  0.00     0.000 C 
BRANCH   4   5
ATOM      5  C   UNL     1      -8.660  -3.739   8.765  1.00  0.00     0.006 C 
BRANCH   5   6
ATOM      6  C   UNL     1      -8.379  -3.455   7.281  1.00  0.00     0.053 C 
BRANCH   6   7
ATOM      7  C   UNL     1      -7.392  -4.424   6.706  1.00  0.00     0.041 C 
ATOM      8  O   UNL     1      -7.447  -5.644   7.013  1.00  0.00    -0.550 OA
ATOM      9  O   UNL     1      -6.427  -3.982   5.808  1.00  0.00    -0.550 OA
ENDBRANCH   6   7
ENDBRANCH   5   6
ENDBRANCH   4   5
ENDBRANCH   3   4
ENDBRANCH   2   3
ENDBRANCH   1   2
BRANCH   1  10
ATOM     10  C   UNL     1      -4.608  -2.360   9.420  1.00  0.00     0.027 C 
BRANCH  10  11
ATOM     11  C   UNL     1      -4.984  -3.821   9.422  1.00  0.00    -0.031 C 
ATOM     12  C   UNL     1      -4.304  -4.795   8.787  1.00  0.00    -0.031 C 
BRANCH  12  13
ATOM     13  C   UNL     1      -3.088  -4.580   7.918  1.00  0.00     0.027 C 
BRANCH  13  14
ATOM     14  C   UNL     1      -1.802  -4.531   8.754  1.00  0.00     0.004 C 
BRANCH  14  15
ATOM     15  C   UNL     1      -0.831  -3.447   8.258  1.00  0.00     0.000 C 
BRANCH  15  16
ATOM     16  C   UNL     1      -1.534  -2.112   7.947  1.00  0.00    -0.000 C 
BRANCH  16  17
ATOM     17  C   UNL     1      -1.488  -1.685   6.470  1.00  0.00    -0.003 C 
ATOM     18  C   UNL     1      -2.874  -1.593   5.831  1.00  0.00     0.004 C 
ENDBRANCH  16  17
ENDBRANCH  15  16
ENDBRANCH  14  15
ENDBRANCH  13  14
ENDBRANCH  12  13
ENDBRANCH  10  11
ENDBRANCH   1  10
TORSDOF 13
ENDMDL
MODEL 9
REMARK VINA RESULT:    -3.892      1.127      2.251
REMARK INTER + INTRA:          -8.987
REMARK INTER:                  -6.910
REMARK INTRA:                  -2.077
REMARK UNBOUND:                -2.138
REMARK SMILES CCCCCCC=CCCCCCCCC(=O)[O-]
REMARK SMILES IDX 10 1 11 2 12 3 13 4 14 5 15 6 16 7 17 8 18 9 9 10 8 11 7 12
REMARK SMILES IDX 6 13 5 14 4 15 3 16 2 17 1 18
REMARK H PARENT
REMARK Flexibility Score: inf
ROOT
ATOM      1  C   UNL     1      -7.301   0.298   8.397  1.00  0.00     0.004 C 
ENDROOT
BRANCH   1   2
ATOM      2  C   UNL     1      -8.685  -0.376   8.460  1.00  0.00     0.000 C 
BRANCH   2   3
ATOM      3  C   UNL     1      -8.762  -1.606   9.383  1.00  0.00     0.000 C 
BRANCH   3   4
ATOM      4  C   UNL     1      -9.019  -2.930   8.629  1.00  0.00     0.000 C 
BRANCH   4   5
ATOM      5  C   UNL     1      -9.000  -2.778   7.095  1.00  0.00     0.006 C 
BRANCH   5   6
ATOM      6  C   UNL     1      -7.717  -3.314   6.440  1.00  0.00     0.053 C 
BRANCH   6   7
ATOM      7  C   UNL     1      -7.765  -4.800   6.253  1.00  0.00     0.041 C 
ATOM      8  O   UNL     1      -8.310  -5.293   5.231  1.00  0.00    -0.550 OA
ATOM      9  O   UNL     1      -7.183  -5.638   7.196  1.00  0.00    -0.550 OA
ENDBRANCH   6   7
ENDBRANCH   5   6
ENDBRANCH   4   5
ENDBRANCH   3   4
ENDBRANCH   2   3
ENDBRANCH   1   2
BRANCH   1  10
ATOM     10  C   UNL     1      -6.258  -0.315   9.348  1.00  0.00     0.027 C 
BRANCH  10  11
ATOM     11  C   UNL     1      -5.034  -0.807   8.615  1.00  0.00    -0.031 C 
ATOM     12  C   UNL     1      -4.657  -2.096   8.521  1.00  0.00    -0.031 C 
BRANCH  12  13
ATOM     13  C   UNL     1      -5.361  -3.258   9.181  1.00  0.00     0.027 C 
BRANCH  13  14
ATOM     14  C   UNL     1      -4.372  -4.364   9.573  1.00  0.00     0.004 C 
BRANCH  14  15
ATOM     15  C   UNL     1      -3.606  -4.910   8.357  1.00  0.00     0.000 C 
BRANCH  15  16
ATOM     16  C   UNL     1      -2.078  -4.827   8.525  1.00  0.00    -0.000 C 
BRANCH  16  17
ATOM     17  C   UNL     1      -1.600  -3.889   9.647  1.00  0.00    -0.003 C 
ATOM     18  C   UNL     1      -0.915  -2.628   9.121  1.00  0.00     0.004 C 
ENDBRANCH  16  17
ENDBRANCH  15  16
ENDBRANCH  14  15
ENDBRANCH  13  14
ENDBRANCH  12  13
ENDBRANCH  10  11
ENDBRANCH   1  10
TORSDOF 13
ENDMDL
