MODEL 1
REMARK VINA RESULT:    -5.849      0.000      0.000
REMARK INTER + INTRA:          -7.523
REMARK INTER:                  -7.216
REMARK INTRA:                  -0.307
REMARK UNBOUND:                -0.307
REMARK SMILES O=c1c(O)c(-c2cc(O)c(O)c(O)c2)oc2cc(O)cc(O)c12
REMARK SMILES IDX 5 1 3 2 2 3 1 4 23 5 21 6 20 7 18 8 17 9 16 10 15 11 6 12
REMARK SMILES IDX 7 13 8 14 14 15 10 16 12 17 9 18 11 20 13 22 4 24 22 26
REMARK SMILES IDX 19 28
REMARK H PARENT 9 19 11 21 13 23 4 25 22 27 19 29
REMARK Flexibility Score: inf
ROOT
ATOM      1  C   UNL     1      27.753  -2.372  35.494  1.00  0.00     0.180 A 
ATOM      2  C   UNL     1      27.506  -2.053  36.843  1.00  0.00     0.208 A 
ATOM      3  C   UNL     1      26.465  -1.163  37.150  1.00  0.00     0.238 A 
ATOM      4  O   UNL     1      26.227  -0.878  38.355  1.00  0.00    -0.285 OA
ATOM      5  C   UNL     1      25.704  -0.594  36.108  1.00  0.00     0.111 A 
ATOM      6  C   UNL     1      24.641   0.314  36.332  1.00  0.00     0.134 A 
ATOM      7  C   UNL     1      23.938   0.844  35.240  1.00  0.00     0.093 A 
ATOM      8  C   UNL     1      24.275   0.487  33.933  1.00  0.00     0.123 A 
ATOM      9  C   UNL     1      25.325  -0.410  33.706  1.00  0.00     0.094 A 
ATOM     10  C   UNL     1      26.036  -0.951  34.780  1.00  0.00     0.146 A 
ATOM     11  O   UNL     1      27.025  -1.804  34.537  1.00  0.00    -0.452 OA
ENDROOT
BRANCH   1  12
ATOM     12  C   UNL     1      28.821  -3.315  35.092  1.00  0.00     0.029 A 
ATOM     13  C   UNL     1      28.522  -4.623  34.675  1.00  0.00     0.062 A 
ATOM     14  C   UNL     1      29.545  -5.494  34.274  1.00  0.00     0.162 A 
ATOM     15  C   UNL     1      30.154  -2.880  35.071  1.00  0.00     0.062 A 
ATOM     16  C   UNL     1      30.881  -5.056  34.279  1.00  0.00     0.200 A 
ATOM     17  C   UNL     1      31.182  -3.743  34.675  1.00  0.00     0.162 A 
BRANCH  14  18
ATOM     18  O   UNL     1      29.238  -6.792  33.869  1.00  0.00    -0.504 OA
ATOM     19  H   UNL     1      28.325  -7.032  33.499  1.00  0.00     0.293 HD
ENDBRANCH  14  18
BRANCH  16  20
ATOM     20  O   UNL     1      31.911  -5.912  33.889  1.00  0.00    -0.502 OA
ATOM     21  H   UNL     1      32.277  -6.631  34.502  1.00  0.00     0.293 HD
ENDBRANCH  16  20
BRANCH  17  22
ATOM     22  O   UNL     1      32.496  -3.275  34.683  1.00  0.00    -0.504 OA
ATOM     23  H   UNL     1      32.762  -2.408  34.232  1.00  0.00     0.293 HD
ENDBRANCH  17  22
ENDBRANCH   1  12
BRANCH   2  24
ATOM     24  O   UNL     1      28.306  -2.591  37.854  1.00  0.00    -0.502 OA
ATOM     25  H   UNL     1      27.971  -3.305  38.490  1.00  0.00     0.293 HD
ENDBRANCH   2  24
BRANCH   6  26
ATOM     26  O   UNL     1      24.279   0.692  37.625  1.00  0.00    -0.507 OA
ATOM     27  H   UNL     1      24.233   1.665  37.904  1.00  0.00     0.293 HD
ENDBRANCH   6  26
BRANCH   8  28
ATOM     28  O   UNL     1      23.562   1.028  32.866  1.00  0.00    -0.508 OA
ATOM     29  H   UNL     1      23.196   1.972  32.899  1.00  0.00     0.293 HD
ENDBRANCH   8  28
TORSDOF 7
ENDMDL
MODEL 2
REMARK VINA RESULT:    -5.603      4.043      8.400
REMARK INTER + INTRA:          -7.220
REMARK INTER:                  -6.952
REMARK INTRA:                  -0.268
REMARK UNBOUND:                -0.307
REMARK SMILES O=c1c(O)c(-c2cc(O)c(O)c(O)c2)oc2cc(O)cc(O)c12
REMARK SMILES IDX 5 1 3 2 2 3 1 4 23 5 21 6 20 7 18 8 17 9 16 10 15 11 6 12
REMARK SMILES IDX 7 13 8 14 14 15 10 16 12 17 9 18 11 20 13 22 4 24 22 26
REMARK SMILES IDX 19 28
REMARK H PARENT 9 19 11 21 13 23 4 25 22 27 19 29
REMARK Flexibility Score: inf
ROOT
ATOM      1  C   UNL     1      25.276   1.978  38.268  1.00  0.00     0.180 A 
ATOM      2  C   UNL     1      26.555   1.568  37.843  1.00  0.00     0.208 A 
ATOM      3  C   UNL     1      26.657   0.561  36.870  1.00  0.00     0.238 A 
ATOM      4  O   UNL     1      27.796   0.193  36.475  1.00  0.00    -0.285 OA
ATOM      5  C   UNL     1      25.485  -0.030  36.353  1.00  0.00     0.111 A 
ATOM      6  C   UNL     1      25.500  -1.051  35.374  1.00  0.00     0.134 A 
ATOM      7  C   UNL     1      24.290  -1.595  34.917  1.00  0.00     0.093 A 
ATOM      8  C   UNL     1      23.070  -1.140  35.419  1.00  0.00     0.123 A 
ATOM      9  C   UNL     1      23.048  -0.130  36.388  1.00  0.00     0.094 A 
ATOM     10  C   UNL     1      24.243   0.426  36.854  1.00  0.00     0.146 A 
ATOM     11  O   UNL     1      24.194   1.387  37.769  1.00  0.00    -0.452 OA
ENDROOT
BRANCH   1  12
ATOM     12  C   UNL     1      25.088   3.045  39.276  1.00  0.00     0.029 A 
ATOM     13  C   UNL     1      24.584   4.307  38.920  1.00  0.00     0.062 A 
ATOM     14  C   UNL     1      24.389   5.297  39.894  1.00  0.00     0.162 A 
ATOM     15  C   UNL     1      25.361   2.775  40.626  1.00  0.00     0.062 A 
ATOM     16  C   UNL     1      24.688   5.025  41.240  1.00  0.00     0.200 A 
ATOM     17  C   UNL     1      25.171   3.757  41.603  1.00  0.00     0.162 A 
BRANCH  14  18
ATOM     18  O   UNL     1      23.896   6.549  39.528  1.00  0.00    -0.504 OA
ATOM     19  H   UNL     1      23.081   6.951  39.976  1.00  0.00     0.293 HD
ENDBRANCH  14  18
BRANCH  16  20
ATOM     20  O   UNL     1      24.506   6.000  42.221  1.00  0.00    -0.502 OA
ATOM     21  H   UNL     1      25.138   6.102  43.005  1.00  0.00     0.293 HD
ENDBRANCH  16  20
BRANCH  17  22
ATOM     22  O   UNL     1      25.470   3.453  42.932  1.00  0.00    -0.504 OA
ATOM     23  H   UNL     1      26.350   3.031  43.203  1.00  0.00     0.293 HD
ENDBRANCH  17  22
ENDBRANCH   1  12
BRANCH   2  24
ATOM     24  O   UNL     1      27.701   2.133  38.407  1.00  0.00    -0.502 OA
ATOM     25  H   UNL     1      27.735   2.450  39.369  1.00  0.00     0.293 HD
ENDBRANCH   2  24
BRANCH   6  26
ATOM     26  O   UNL     1      26.703  -1.530  34.853  1.00  0.00    -0.507 OA
ATOM     27  H   UNL     1      27.520  -0.937  34.766  1.00  0.00     0.293 HD
ENDBRANCH   6  26
BRANCH   8  28
ATOM     28  O   UNL     1      21.882  -1.697  34.950  1.00  0.00    -0.508 OA
ATOM     29  H   UNL     1      21.152  -1.999  35.584  1.00  0.00     0.293 HD
ENDBRANCH   8  28
TORSDOF 7
ENDMDL
MODEL 3
REMARK VINA RESULT:    -5.577      4.036      8.323
REMARK INTER + INTRA:          -7.188
REMARK INTER:                  -6.888
REMARK INTRA:                  -0.300
REMARK UNBOUND:                -0.307
REMARK SMILES O=c1c(O)c(-c2cc(O)c(O)c(O)c2)oc2cc(O)cc(O)c12
REMARK SMILES IDX 5 1 3 2 2 3 1 4 23 5 21 6 20 7 18 8 17 9 16 10 15 11 6 12
REMARK SMILES IDX 7 13 8 14 14 15 10 16 12 17 9 18 11 20 13 22 4 24 22 26
REMARK SMILES IDX 19 28
REMARK H PARENT 9 19 11 21 13 23 4 25 22 27 19 29
REMARK Flexibility Score: inf
ROOT
ATOM      1  C   UNL     1      25.315   1.926  38.277  1.00  0.00     0.180 A 
ATOM      2  C   UNL     1      26.590   1.527  37.830  1.00  0.00     0.208 A 
ATOM      3  C   UNL     1      26.682   0.538  36.838  1.00  0.00     0.238 A 
ATOM      4  O   UNL     1      27.816   0.180  36.422  1.00  0.00    -0.285 OA
ATOM      5  C   UNL     1      25.505  -0.047  36.325  1.00  0.00     0.111 A 
ATOM      6  C   UNL     1      25.511  -1.051  35.328  1.00  0.00     0.134 A 
ATOM      7  C   UNL     1      24.297  -1.590  34.876  1.00  0.00     0.093 A 
ATOM      8  C   UNL     1      23.081  -1.147  35.401  1.00  0.00     0.123 A 
ATOM      9  C   UNL     1      23.069  -0.155  36.388  1.00  0.00     0.094 A 
ATOM     10  C   UNL     1      24.268   0.397  36.849  1.00  0.00     0.146 A 
ATOM     11  O   UNL     1      24.228   1.341  37.781  1.00  0.00    -0.452 OA
ENDROOT
BRANCH   1  12
ATOM     12  C   UNL     1      25.136   2.974  39.307  1.00  0.00     0.029 A 
ATOM     13  C   UNL     1      25.386   2.716  40.665  1.00  0.00     0.062 A 
ATOM     14  C   UNL     1      25.235   3.728  41.623  1.00  0.00     0.162 A 
ATOM     15  C   UNL     1      24.766   4.269  38.916  1.00  0.00     0.062 A 
ATOM     16  C   UNL     1      24.841   5.017  41.224  1.00  0.00     0.200 A 
ATOM     17  C   UNL     1      24.610   5.285  39.864  1.00  0.00     0.162 A 
BRANCH  14  18
ATOM     18  O   UNL     1      25.479   3.459  42.969  1.00  0.00    -0.504 OA
ATOM     19  H   UNL     1      24.980   2.728  43.464  1.00  0.00     0.293 HD
ENDBRANCH  14  18
BRANCH  16  20
ATOM     20  O   UNL     1      24.680   6.035  42.164  1.00  0.00    -0.502 OA
ATOM     21  H   UNL     1      24.133   5.909  43.008  1.00  0.00     0.293 HD
ENDBRANCH  16  20
BRANCH  17  22
ATOM     22  O   UNL     1      24.226   6.556  39.435  1.00  0.00    -0.504 OA
ATOM     23  H   UNL     1      24.510   6.930  38.537  1.00  0.00     0.293 HD
ENDBRANCH  17  22
ENDBRANCH   1  12
BRANCH   2  24
ATOM     24  O   UNL     1      27.741   2.086  38.389  1.00  0.00    -0.502 OA
ATOM     25  H   UNL     1      28.588   1.551  38.537  1.00  0.00     0.293 HD
ENDBRANCH   2  24
BRANCH   6  26
ATOM     26  O   UNL     1      26.709  -1.516  34.783  1.00  0.00    -0.507 OA
ATOM     27  H   UNL     1      27.365  -0.894  34.327  1.00  0.00     0.293 HD
ENDBRANCH   6  26
BRANCH   8  28
ATOM     28  O   UNL     1      21.890  -1.700  34.936  1.00  0.00    -0.508 OA
ATOM     29  H   UNL     1      21.553  -2.593  35.274  1.00  0.00     0.293 HD
ENDBRANCH   8  28
TORSDOF 7
ENDMDL
MODEL 4
REMARK VINA RESULT:    -5.559      4.880      8.515
REMARK INTER + INTRA:          -7.166
REMARK INTER:                  -6.912
REMARK INTRA:                  -0.255
REMARK UNBOUND:                -0.307
REMARK SMILES O=c1c(O)c(-c2cc(O)c(O)c(O)c2)oc2cc(O)cc(O)c12
REMARK SMILES IDX 5 1 3 2 2 3 1 4 23 5 21 6 20 7 18 8 17 9 16 10 15 11 6 12
REMARK SMILES IDX 7 13 8 14 14 15 10 16 12 17 9 18 11 20 13 22 4 24 22 26
REMARK SMILES IDX 19 28
REMARK H PARENT 9 19 11 21 13 23 4 25 22 27 19 29
REMARK Flexibility Score: inf
ROOT
ATOM      1  C   UNL     1      23.852   2.383  38.225  1.00  0.00     0.180 A 
ATOM      2  C   UNL     1      22.889   3.046  37.439  1.00  0.00     0.208 A 
ATOM      3  C   UNL     1      22.374   2.395  36.307  1.00  0.00     0.238 A 
ATOM      4  O   UNL     1      21.504   2.974  35.602  1.00  0.00    -0.285 OA
ATOM      5  C   UNL     1      22.841   1.109  35.969  1.00  0.00     0.111 A 
ATOM      6  C   UNL     1      22.378   0.387  34.843  1.00  0.00     0.134 A 
ATOM      7  C   UNL     1      22.900  -0.886  34.569  1.00  0.00     0.093 A 
ATOM      8  C   UNL     1      23.875  -1.449  35.394  1.00  0.00     0.123 A 
ATOM      9  C   UNL     1      24.338  -0.740  36.509  1.00  0.00     0.094 A 
ATOM     10  C   UNL     1      23.828   0.528  36.800  1.00  0.00     0.146 A 
ATOM     11  O   UNL     1      24.281   1.176  37.867  1.00  0.00    -0.452 OA
ENDROOT
BRANCH   1  12
ATOM     12  C   UNL     1      24.429   2.996  39.443  1.00  0.00     0.029 A 
ATOM     13  C   UNL     1      23.649   3.213  40.592  1.00  0.00     0.062 A 
ATOM     14  C   UNL     1      24.219   3.772  41.745  1.00  0.00     0.162 A 
ATOM     15  C   UNL     1      25.795   3.314  39.475  1.00  0.00     0.062 A 
ATOM     16  C   UNL     1      25.584   4.109  41.760  1.00  0.00     0.200 A 
ATOM     17  C   UNL     1      26.371   3.874  40.620  1.00  0.00     0.162 A 
BRANCH  14  18
ATOM     18  O   UNL     1      23.434   3.989  42.876  1.00  0.00    -0.504 OA
ATOM     19  H   UNL     1      23.693   4.671  43.580  1.00  0.00     0.293 HD
ENDBRANCH  14  18
BRANCH  16  20
ATOM     20  O   UNL     1      26.165   4.671  42.896  1.00  0.00    -0.502 OA
ATOM     21  H   UNL     1      25.948   4.346  43.831  1.00  0.00     0.293 HD
ENDBRANCH  16  20
BRANCH  17  22
ATOM     22  O   UNL     1      27.730   4.190  40.606  1.00  0.00    -0.504 OA
ATOM     23  H   UNL     1      28.116   4.937  41.171  1.00  0.00     0.293 HD
ENDBRANCH  17  22
ENDBRANCH   1  12
BRANCH   2  24
ATOM     24  O   UNL     1      22.479   4.340  37.767  1.00  0.00    -0.502 OA
ATOM     25  H   UNL     1      21.546   4.681  37.567  1.00  0.00     0.293 HD
ENDBRANCH   2  24
BRANCH   6  26
ATOM     26  O   UNL     1      21.405   0.922  33.998  1.00  0.00    -0.507 OA
ATOM     27  H   UNL     1      21.014   1.844  34.150  1.00  0.00     0.293 HD
ENDBRANCH   6  26
BRANCH   8  28
ATOM     28  O   UNL     1      24.378  -2.714  35.099  1.00  0.00    -0.508 OA
ATOM     29  H   UNL     1      24.858  -2.903  34.227  1.00  0.00     0.293 HD
ENDBRANCH   8  28
TORSDOF 7
ENDMDL
MODEL 5
REMARK VINA RESULT:    -5.520      4.262      6.461
REMARK INTER + INTRA:          -7.118
REMARK INTER:                  -6.820
REMARK INTRA:                  -0.298
REMARK UNBOUND:                -0.307
REMARK SMILES O=c1c(O)c(-c2cc(O)c(O)c(O)c2)oc2cc(O)cc(O)c12
REMARK SMILES IDX 5 1 3 2 2 3 1 4 23 5 21 6 20 7 18 8 17 9 16 10 15 11 6 12
REMARK SMILES IDX 7 13 8 14 14 15 10 16 12 17 9 18 11 20 13 22 4 24 22 26
REMARK SMILES IDX 19 28
REMARK H PARENT 9 19 11 21 13 23 4 25 22 27 19 29
REMARK Flexibility Score: inf
ROOT
ATOM      1  C   UNL     1      25.034   1.732  38.000  1.00  0.00     0.180 A 
ATOM      2  C   UNL     1      26.048   1.954  38.952  1.00  0.00     0.208 A 
ATOM      3  C   UNL     1      25.756   2.729  40.086  1.00  0.00     0.238 A 
ATOM      4  O   UNL     1      26.652   2.926  40.950  1.00  0.00    -0.285 OA
ATOM      5  C   UNL     1      24.468   3.283  40.239  1.00  0.00     0.111 A 
ATOM      6  C   UNL     1      24.094   4.079  41.348  1.00  0.00     0.134 A 
ATOM      7  C   UNL     1      22.795   4.601  41.423  1.00  0.00     0.093 A 
ATOM      8  C   UNL     1      21.865   4.347  40.413  1.00  0.00     0.123 A 
ATOM      9  C   UNL     1      22.229   3.562  39.313  1.00  0.00     0.094 A 
ATOM     10  C   UNL     1      23.518   3.030  39.222  1.00  0.00     0.146 A 
ATOM     11  O   UNL     1      23.835   2.283  38.171  1.00  0.00    -0.452 OA
ENDROOT
BRANCH   1  12
ATOM     12  C   UNL     1      25.259   0.911  36.789  1.00  0.00     0.029 A 
ATOM     13  C   UNL     1      24.723  -0.383  36.672  1.00  0.00     0.062 A 
ATOM     14  C   UNL     1      24.926  -1.136  35.507  1.00  0.00     0.162 A 
ATOM     15  C   UNL     1      25.972   1.454  35.710  1.00  0.00     0.062 A 
ATOM     16  C   UNL     1      25.662  -0.592  34.440  1.00  0.00     0.200 A 
ATOM     17  C   UNL     1      26.181   0.710  34.545  1.00  0.00     0.162 A 
BRANCH  14  18
ATOM     18  O   UNL     1      24.397  -2.421  35.405  1.00  0.00    -0.504 OA
ATOM     19  H   UNL     1      23.536  -2.604  34.901  1.00  0.00     0.293 HD
ENDBRANCH  14  18
BRANCH  16  20
ATOM     20  O   UNL     1      25.879  -1.329  33.276  1.00  0.00    -0.502 OA
ATOM     21  H   UNL     1      25.150  -1.886  32.846  1.00  0.00     0.293 HD
ENDBRANCH  16  20
BRANCH  17  22
ATOM     22  O   UNL     1      26.909   1.281  33.501  1.00  0.00    -0.504 OA
ATOM     23  H   UNL     1      27.629   1.976  33.663  1.00  0.00     0.293 HD
ENDBRANCH  17  22
ENDBRANCH   1  12
BRANCH   2  24
ATOM     24  O   UNL     1      27.329   1.436  38.752  1.00  0.00    -0.502 OA
ATOM     25  H   UNL     1      27.685   0.649  39.281  1.00  0.00     0.293 HD
ENDBRANCH   2  24
BRANCH   6  26
ATOM     26  O   UNL     1      25.000   4.353  42.374  1.00  0.00    -0.507 OA
ATOM     27  H   UNL     1      24.692   4.641  43.295  1.00  0.00     0.293 HD
ENDBRANCH   6  26
BRANCH   8  28
ATOM     28  O   UNL     1      20.581   4.879  40.511  1.00  0.00    -0.508 OA
ATOM     29  H   UNL     1      19.763   4.338  40.259  1.00  0.00     0.293 HD
ENDBRANCH   8  28
TORSDOF 7
ENDMDL
MODEL 6
REMARK VINA RESULT:    -5.459      4.227      6.973
REMARK INTER + INTRA:          -7.042
REMARK INTER:                  -6.723
REMARK INTRA:                  -0.319
REMARK UNBOUND:                -0.307
REMARK SMILES O=c1c(O)c(-c2cc(O)c(O)c(O)c2)oc2cc(O)cc(O)c12
REMARK SMILES IDX 5 1 3 2 2 3 1 4 23 5 21 6 20 7 18 8 17 9 16 10 15 11 6 12
REMARK SMILES IDX 7 13 8 14 14 15 10 16 12 17 9 18 11 20 13 22 4 24 22 26
REMARK SMILES IDX 19 28
REMARK H PARENT 9 19 11 21 13 23 4 25 22 27 19 29
REMARK Flexibility Score: inf
ROOT
ATOM      1  C   UNL     1      23.546   1.675  37.228  1.00  0.00     0.180 A 
ATOM      2  C   UNL     1      22.254   2.185  36.997  1.00  0.00     0.208 A 
ATOM      3  C   UNL     1      21.683   3.045  37.947  1.00  0.00     0.238 A 
ATOM      4  O   UNL     1      20.532   3.516  37.746  1.00  0.00    -0.285 OA
ATOM      5  C   UNL     1      22.402   3.366  39.118  1.00  0.00     0.111 A 
ATOM      6  C   UNL     1      21.898   4.221  40.127  1.00  0.00     0.134 A 
ATOM      7  C   UNL     1      22.672   4.483  41.267  1.00  0.00     0.093 A 
ATOM      8  C   UNL     1      23.935   3.908  41.419  1.00  0.00     0.123 A 
ATOM      9  C   UNL     1      24.438   3.061  40.426  1.00  0.00     0.094 A 
ATOM     10  C   UNL     1      23.684   2.790  39.281  1.00  0.00     0.146 A 
ATOM     11  O   UNL     1      24.188   1.987  38.351  1.00  0.00    -0.452 OA
ENDROOT
BRANCH   1  12
ATOM     12  C   UNL     1      24.221   0.777  36.264  1.00  0.00     0.029 A 
ATOM     13  C   UNL     1      23.892  -0.586  36.180  1.00  0.00     0.062 A 
ATOM     14  C   UNL     1      24.525  -1.416  35.244  1.00  0.00     0.162 A 
ATOM     15  C   UNL     1      25.168   1.307  35.375  1.00  0.00     0.062 A 
ATOM     16  C   UNL     1      25.489  -0.881  34.372  1.00  0.00     0.200 A 
ATOM     17  C   UNL     1      25.806   0.486  34.438  1.00  0.00     0.162 A 
BRANCH  14  18
ATOM     18  O   UNL     1      24.196  -2.769  35.174  1.00  0.00    -0.504 OA
ATOM     19  H   UNL     1      23.358  -3.089  34.702  1.00  0.00     0.293 HD
ENDBRANCH  14  18
BRANCH  16  20
ATOM     20  O   UNL     1      26.133  -1.693  33.438  1.00  0.00    -0.502 OA
ATOM     21  H   UNL     1      25.666  -2.034  32.606  1.00  0.00     0.293 HD
ENDBRANCH  16  20
BRANCH  17  22
ATOM     22  O   UNL     1      26.753   1.049  33.582  1.00  0.00    -0.504 OA
ATOM     23  H   UNL     1      27.055   2.012  33.672  1.00  0.00     0.293 HD
ENDBRANCH  17  22
ENDBRANCH   1  12
BRANCH   2  24
ATOM     24  O   UNL     1      21.543   1.813  35.853  1.00  0.00    -0.502 OA
ATOM     25  H   UNL     1      20.747   1.187  35.888  1.00  0.00     0.293 HD
ENDBRANCH   2  24
BRANCH   6  26
ATOM     26  O   UNL     1      20.639   4.811  40.005  1.00  0.00    -0.507 OA
ATOM     27  H   UNL     1      20.155   4.859  39.116  1.00  0.00     0.293 HD
ENDBRANCH   6  26
BRANCH   8  28
ATOM     28  O   UNL     1      24.682   4.184  42.562  1.00  0.00    -0.508 OA
ATOM     29  H   UNL     1      24.923   3.457  43.225  1.00  0.00     0.293 HD
ENDBRANCH   8  28
TORSDOF 7
ENDMDL
MODEL 7
REMARK VINA RESULT:    -5.415      5.081      9.421
REMARK INTER + INTRA:          -6.988
REMARK INTER:                  -6.637
REMARK INTRA:                  -0.351
REMARK UNBOUND:                -0.307
REMARK SMILES O=c1c(O)c(-c2cc(O)c(O)c(O)c2)oc2cc(O)cc(O)c12
REMARK SMILES IDX 5 1 3 2 2 3 1 4 23 5 21 6 20 7 18 8 17 9 16 10 15 11 6 12
REMARK SMILES IDX 7 13 8 14 14 15 10 16 12 17 9 18 11 20 13 22 4 24 22 26
REMARK SMILES IDX 19 28
REMARK H PARENT 9 19 11 21 13 23 4 25 22 27 19 29
REMARK Flexibility Score: inf
ROOT
ATOM      1  C   UNL     1      25.332   2.730  39.837  1.00  0.00     0.180 A 
ATOM      2  C   UNL     1      26.720   2.961  39.760  1.00  0.00     0.208 A 
ATOM      3  C   UNL     1      27.428   2.475  38.649  1.00  0.00     0.238 A 
ATOM      4  O   UNL     1      28.668   2.684  38.564  1.00  0.00    -0.285 OA
ATOM      5  C   UNL     1      26.745   1.754  37.648  1.00  0.00     0.111 A 
ATOM      6  C   UNL     1      27.384   1.228  36.500  1.00  0.00     0.134 A 
ATOM      7  C   UNL     1      26.636   0.513  35.553  1.00  0.00     0.093 A 
ATOM      8  C   UNL     1      25.266   0.313  35.731  1.00  0.00     0.123 A 
ATOM      9  C   UNL     1      24.628   0.830  36.864  1.00  0.00     0.094 A 
ATOM     10  C   UNL     1      25.355   1.548  37.818  1.00  0.00     0.146 A 
ATOM     11  O   UNL     1      24.725   2.032  38.881  1.00  0.00    -0.452 OA
ENDROOT
BRANCH   1  12
ATOM     12  C   UNL     1      24.514   3.226  40.967  1.00  0.00     0.029 A 
ATOM     13  C   UNL     1      23.795   4.430  40.876  1.00  0.00     0.062 A 
ATOM     14  C   UNL     1      23.007   4.871  41.948  1.00  0.00     0.162 A 
ATOM     15  C   UNL     1      24.406   2.452  42.132  1.00  0.00     0.062 A 
ATOM     16  C   UNL     1      22.922   4.100  43.121  1.00  0.00     0.200 A 
ATOM     17  C   UNL     1      23.623   2.885  43.207  1.00  0.00     0.162 A 
BRANCH  14  18
ATOM     18  O   UNL     1      22.303   6.070  41.850  1.00  0.00    -0.504 OA
ATOM     19  H   UNL     1      21.632   6.353  42.555  1.00  0.00     0.293 HD
ENDBRANCH  14  18
BRANCH  16  20
ATOM     20  O   UNL     1      22.147   4.527  44.199  1.00  0.00    -0.502 OA
ATOM     21  H   UNL     1      21.258   4.995  44.072  1.00  0.00     0.293 HD
ENDBRANCH  16  20
BRANCH  17  22
ATOM     22  O   UNL     1      23.554   2.093  44.353  1.00  0.00    -0.504 OA
ATOM     23  H   UNL     1      22.712   1.591  44.612  1.00  0.00     0.293 HD
ENDBRANCH  17  22
ENDBRANCH   1  12
BRANCH   2  24
ATOM     24  O   UNL     1      27.381   3.635  40.789  1.00  0.00    -0.502 OA
ATOM     25  H   UNL     1      28.369   3.508  40.975  1.00  0.00     0.293 HD
ENDBRANCH   2  24
BRANCH   6  26
ATOM     26  O   UNL     1      28.752   1.409  36.293  1.00  0.00    -0.507 OA
ATOM     27  H   UNL     1      29.425   0.682  36.506  1.00  0.00     0.293 HD
ENDBRANCH   6  26
BRANCH   8  28
ATOM     28  O   UNL     1      24.546  -0.402  34.776  1.00  0.00    -0.508 OA
ATOM     29  H   UNL     1      24.921  -0.577  33.852  1.00  0.00     0.293 HD
ENDBRANCH   8  28
TORSDOF 7
ENDMDL
MODEL 8
REMARK VINA RESULT:    -5.381      4.473      8.637
REMARK INTER + INTRA:          -6.946
REMARK INTER:                  -6.619
REMARK INTRA:                  -0.327
REMARK UNBOUND:                -0.307
REMARK SMILES O=c1c(O)c(-c2cc(O)c(O)c(O)c2)oc2cc(O)cc(O)c12
REMARK SMILES IDX 5 1 3 2 2 3 1 4 23 5 21 6 20 7 18 8 17 9 16 10 15 11 6 12
REMARK SMILES IDX 7 13 8 14 14 15 10 16 12 17 9 18 11 20 13 22 4 24 22 26
REMARK SMILES IDX 19 28
REMARK H PARENT 9 19 11 21 13 23 4 25 22 27 19 29
REMARK Flexibility Score: inf
ROOT
ATOM      1  C   UNL     1      24.666   2.271  37.908  1.00  0.00     0.180 A 
ATOM      2  C   UNL     1      25.503   2.953  37.003  1.00  0.00     0.208 A 
ATOM      3  C   UNL     1      25.873   2.314  35.809  1.00  0.00     0.238 A 
ATOM      4  O   UNL     1      26.614   2.918  34.986  1.00  0.00    -0.285 OA
ATOM      5  C   UNL     1      25.420   1.004  35.549  1.00  0.00     0.111 A 
ATOM      6  C   UNL     1      25.750   0.289  34.374  1.00  0.00     0.134 A 
ATOM      7  C   UNL     1      25.266  -1.015  34.194  1.00  0.00     0.093 A 
ATOM      8  C   UNL     1      24.462  -1.617  35.163  1.00  0.00     0.123 A 
ATOM      9  C   UNL     1      24.133  -0.916  36.328  1.00  0.00     0.094 A 
ATOM     10  C   UNL     1      24.603   0.386  36.525  1.00  0.00     0.146 A 
ATOM     11  O   UNL     1      24.271   1.031  37.637  1.00  0.00    -0.452 OA
ENDROOT
BRANCH   1  12
ATOM     12  C   UNL     1      24.218   2.885  39.179  1.00  0.00     0.029 A 
ATOM     13  C   UNL     1      22.924   3.414  39.319  1.00  0.00     0.062 A 
ATOM     14  C   UNL     1      22.509   3.969  40.538  1.00  0.00     0.162 A 
ATOM     15  C   UNL     1      25.081   2.889  40.285  1.00  0.00     0.062 A 
ATOM     16  C   UNL     1      23.389   3.989  41.635  1.00  0.00     0.200 A 
ATOM     17  C   UNL     1      24.676   3.442  41.505  1.00  0.00     0.162 A 
BRANCH  14  18
ATOM     18  O   UNL     1      21.225   4.497  40.664  1.00  0.00    -0.504 OA
ATOM     19  H   UNL     1      20.560   4.465  39.900  1.00  0.00     0.293 HD
ENDBRANCH  14  18
BRANCH  16  20
ATOM     20  O   UNL     1      22.994   4.543  42.853  1.00  0.00    -0.502 OA
ATOM     21  H   UNL     1      23.068   4.035  43.726  1.00  0.00     0.293 HD
ENDBRANCH  16  20
BRANCH  17  22
ATOM     22  O   UNL     1      25.570   3.440  42.576  1.00  0.00    -0.504 OA
ATOM     23  H   UNL     1      25.697   4.248  43.173  1.00  0.00     0.293 HD
ENDBRANCH  17  22
ENDBRANCH   1  12
BRANCH   2  24
ATOM     24  O   UNL     1      25.980   4.230  37.306  1.00  0.00    -0.502 OA
ATOM     25  H   UNL     1      26.896   4.551  37.018  1.00  0.00     0.293 HD
ENDBRANCH   2  24
BRANCH   6  26
ATOM     26  O   UNL     1      26.552   0.862  33.386  1.00  0.00    -0.507 OA
ATOM     27  H   UNL     1      27.010   1.756  33.521  1.00  0.00     0.293 HD
ENDBRANCH   6  26
BRANCH   8  28
ATOM     28  O   UNL     1      23.996  -2.914  34.960  1.00  0.00    -0.508 OA
ATOM     29  H   UNL     1      23.224  -3.289  35.498  1.00  0.00     0.293 HD
ENDBRANCH   8  28
TORSDOF 7
ENDMDL
MODEL 9
REMARK VINA RESULT:    -5.369      4.277      7.224
REMARK INTER + INTRA:          -6.931
REMARK INTER:                  -6.603
REMARK INTRA:                  -0.328
REMARK UNBOUND:                -0.307
REMARK SMILES O=c1c(O)c(-c2cc(O)c(O)c(O)c2)oc2cc(O)cc(O)c12
REMARK SMILES IDX 5 1 3 2 2 3 1 4 23 5 21 6 20 7 18 8 17 9 16 10 15 11 6 12
REMARK SMILES IDX 7 13 8 14 14 15 10 16 12 17 9 18 11 20 13 22 4 24 22 26
REMARK SMILES IDX 19 28
REMARK H PARENT 9 19 11 21 13 23 4 25 22 27 19 29
REMARK Flexibility Score: inf
ROOT
ATOM      1  C   UNL     1      23.976   1.881  37.554  1.00  0.00     0.180 A 
ATOM      2  C   UNL     1      22.688   2.449  37.497  1.00  0.00     0.208 A 
ATOM      3  C   UNL     1      22.269   3.286  38.544  1.00  0.00     0.238 A 
ATOM      4  O   UNL     1      21.123   3.808  38.499  1.00  0.00    -0.285 OA
ATOM      5  C   UNL     1      23.131   3.524  39.634  1.00  0.00     0.111 A 
ATOM      6  C   UNL     1      22.785   4.349  40.730  1.00  0.00     0.134 A 
ATOM      7  C   UNL     1      23.696   4.529  41.781  1.00  0.00     0.093 A 
ATOM      8  C   UNL     1      24.942   3.900  41.760  1.00  0.00     0.123 A 
ATOM      9  C   UNL     1      25.291   3.082  40.679  1.00  0.00     0.094 A 
ATOM     10  C   UNL     1      24.398   2.893  39.621  1.00  0.00     0.146 A 
ATOM     11  O   UNL     1      24.756   2.116  38.605  1.00  0.00    -0.452 OA
ENDROOT
BRANCH   1  12
ATOM     12  C   UNL     1      24.495   1.004  36.480  1.00  0.00     0.029 A 
ATOM     13  C   UNL     1      25.402   1.483  35.520  1.00  0.00     0.062 A 
ATOM     14  C   UNL     1      25.903   0.631  34.525  1.00  0.00     0.162 A 
ATOM     15  C   UNL     1      24.122  -0.348  36.453  1.00  0.00     0.062 A 
ATOM     16  C   UNL     1      25.505  -0.717  34.492  1.00  0.00     0.200 A 
ATOM     17  C   UNL     1      24.615  -1.205  35.463  1.00  0.00     0.162 A 
BRANCH  14  18
ATOM     18  O   UNL     1      26.796   1.118  33.573  1.00  0.00    -0.504 OA
ATOM     19  H   UNL     1      27.105   2.084  33.578  1.00  0.00     0.293 HD
ENDBRANCH  14  18
BRANCH  16  20
ATOM     20  O   UNL     1      25.989  -1.577  33.506  1.00  0.00    -0.502 OA
ATOM     21  H   UNL     1      26.097  -1.287  32.541  1.00  0.00     0.293 HD
ENDBRANCH  16  20
BRANCH  17  22
ATOM     22  O   UNL     1      24.207  -2.539  35.462  1.00  0.00    -0.504 OA
ATOM     23  H   UNL     1      23.346  -2.840  35.903  1.00  0.00     0.293 HD
ENDBRANCH  17  22
ENDBRANCH   1  12
BRANCH   2  24
ATOM     24  O   UNL     1      21.834   2.158  36.431  1.00  0.00    -0.502 OA
ATOM     25  H   UNL     1      21.503   1.220  36.241  1.00  0.00     0.293 HD
ENDBRANCH   2  24
BRANCH   6  26
ATOM     26  O   UNL     1      21.547   4.992  40.783  1.00  0.00    -0.507 OA
ATOM     27  H   UNL     1      21.425   5.876  41.261  1.00  0.00     0.293 HD
ENDBRANCH   6  26
BRANCH   8  28
ATOM     28  O   UNL     1      25.828   4.094  42.817  1.00  0.00    -0.508 OA
ATOM     29  H   UNL     1      26.205   5.009  43.031  1.00  0.00     0.293 HD
ENDBRANCH   8  28
TORSDOF 7
ENDMDL
