MODEL 1
REMARK VINA RESULT:    -5.604      0.000      0.000
REMARK INTER + INTRA:          -7.846
REMARK INTER:                  -7.242
REMARK INTRA:                  -0.604
REMARK UNBOUND:                -0.604
REMARK SMILES CCO[C@H]1O[C@@H](CO)[C@H](O)[C@@H](O)[C@@H]1O
REMARK SMILES IDX 4 1 13 2 11 3 9 4 6 5 5 6 3 7 2 8 1 9 14 10 12 12 7 14 8 15
REMARK SMILES IDX 10 17
REMARK H PARENT 14 11 12 13 8 16 10 18
REMARK Flexibility Score: inf
ROOT
ATOM      1  C   UNL     1      -6.645   7.894  22.833  1.00  0.00     0.281 C 
ATOM      2  C   UNL     1      -5.849   8.318  24.084  1.00  0.00     0.202 C 
ATOM      3  C   UNL     1      -4.568   9.071  23.696  1.00  0.00     0.179 C 
ATOM      4  C   UNL     1      -3.777   8.323  22.601  1.00  0.00     0.177 C 
ATOM      5  C   UNL     1      -4.677   7.706  21.486  1.00  0.00     0.178 C 
ATOM      6  O   UNL     1      -5.867   7.086  21.964  1.00  0.00    -0.341 OA
ENDROOT
BRANCH   1   7
ATOM      7  O   UNL     1      -7.156   9.021  22.137  1.00  0.00    -0.350 OA
BRANCH   7   8
ATOM      8  C   UNL     1      -8.555   8.940  21.944  1.00  0.00     0.160 C 
ATOM      9  C   UNL     1      -8.868   8.624  20.485  1.00  0.00     0.035 C 
ENDBRANCH   7   8
ENDBRANCH   1   7
BRANCH   2  10
ATOM     10  O   UNL     1      -5.518   7.187  24.850  1.00  0.00    -0.385 OA
ATOM     11  H   UNL     1      -4.578   6.954  24.633  1.00  0.00     0.211 HD
ENDBRANCH   2  10
BRANCH   3  12
ATOM     12  O   UNL     1      -4.881  10.368  23.255  1.00  0.00    -0.387 OA
ATOM     13  H   UNL     1      -5.639  10.689  23.810  1.00  0.00     0.211 HD
ENDBRANCH   3  12
BRANCH   5  14
ATOM     14  C   UNL     1      -4.920   8.610  20.257  1.00  0.00     0.191 C 
BRANCH  14  15
ATOM     15  O   UNL     1      -4.727   9.965  20.551  1.00  0.00    -0.394 OA
ATOM     16  H   UNL     1      -4.506  10.010  21.518  1.00  0.00     0.210 HD
ENDBRANCH  14  15
ENDBRANCH   5  14
BRANCH   4  17
ATOM     17  O   UNL     1      -2.958   7.337  23.185  1.00  0.00    -0.387 OA
ATOM     18  H   UNL     1      -3.546   6.627  23.553  1.00  0.00     0.211 HD
ENDBRANCH   4  17
TORSDOF 7
ENDMDL
MODEL 2
REMARK VINA RESULT:    -5.593      1.119      3.163
REMARK INTER + INTRA:          -7.831
REMARK INTER:                  -7.255
REMARK INTRA:                  -0.576
REMARK UNBOUND:                -0.604
REMARK SMILES CCO[C@H]1O[C@@H](CO)[C@H](O)[C@@H](O)[C@@H]1O
REMARK SMILES IDX 4 1 13 2 11 3 9 4 6 5 5 6 3 7 2 8 1 9 14 10 12 12 7 14 8 15
REMARK SMILES IDX 10 17
REMARK H PARENT 14 11 12 13 8 16 10 18
REMARK Flexibility Score: inf
ROOT
ATOM      1  C   UNL     1      -5.827   9.707  22.184  1.00  0.00     0.281 C 
ATOM      2  C   UNL     1      -5.528   8.678  21.074  1.00  0.00     0.202 C 
ATOM      3  C   UNL     1      -4.928   7.391  21.659  1.00  0.00     0.179 C 
ATOM      4  C   UNL     1      -3.775   7.696  22.640  1.00  0.00     0.177 C 
ATOM      5  C   UNL     1      -4.050   8.914  23.575  1.00  0.00     0.178 C 
ATOM      6  O   UNL     1      -4.665  10.026  22.931  1.00  0.00    -0.341 OA
ENDROOT
BRANCH   1   7
ATOM      7  O   UNL     1      -6.861   9.255  23.045  1.00  0.00    -0.350 OA
BRANCH   7   8
ATOM      8  C   UNL     1      -8.118   9.217  22.395  1.00  0.00     0.160 C 
ATOM      9  C   UNL     1      -9.109   8.394  23.212  1.00  0.00     0.035 C 
ENDBRANCH   7   8
ENDBRANCH   1   7
BRANCH   2  10
ATOM     10  O   UNL     1      -4.641   9.228  20.133  1.00  0.00    -0.385 OA
ATOM     11  H   UNL     1      -4.533  10.188  20.364  1.00  0.00     0.211 HD
ENDBRANCH   2  10
BRANCH   3  12
ATOM     12  O   UNL     1      -5.923   6.643  22.311  1.00  0.00    -0.387 OA
ATOM     13  H   UNL     1      -6.724   7.225  22.382  1.00  0.00     0.211 HD
ENDBRANCH   3  12
BRANCH   5  14
ATOM     14  C   UNL     1      -4.702   8.570  24.934  1.00  0.00     0.191 C 
BRANCH  14  15
ATOM     15  O   UNL     1      -5.488   7.414  24.866  1.00  0.00    -0.394 OA
ATOM     16  H   UNL     1      -6.337   7.682  24.426  1.00  0.00     0.210 HD
ENDBRANCH  14  15
ENDBRANCH   5  14
BRANCH   4  17
ATOM     17  O   UNL     1      -2.571   7.874  21.931  1.00  0.00    -0.387 OA
ATOM     18  H   UNL     1      -2.567   7.240  21.168  1.00  0.00     0.211 HD
ENDBRANCH   4  17
TORSDOF 7
ENDMDL
MODEL 3
REMARK VINA RESULT:    -5.452      1.427      3.989
REMARK INTER + INTRA:          -7.650
REMARK INTER:                  -7.053
REMARK INTRA:                  -0.597
REMARK UNBOUND:                -0.604
REMARK SMILES CCO[C@H]1O[C@@H](CO)[C@H](O)[C@@H](O)[C@@H]1O
REMARK SMILES IDX 4 1 13 2 11 3 9 4 6 5 5 6 3 7 2 8 1 9 14 10 12 12 7 14 8 15
REMARK SMILES IDX 10 17
REMARK H PARENT 14 11 12 13 8 16 10 18
REMARK Flexibility Score: inf
ROOT
ATOM      1  C   UNL     1      -5.366   9.082  23.875  1.00  0.00     0.281 C 
ATOM      2  C   UNL     1      -6.604   8.478  23.180  1.00  0.00     0.202 C 
ATOM      3  C   UNL     1      -6.193   7.477  22.090  1.00  0.00     0.179 C 
ATOM      4  C   UNL     1      -5.104   8.059  21.164  1.00  0.00     0.177 C 
ATOM      5  C   UNL     1      -4.006   8.872  21.918  1.00  0.00     0.178 C 
ATOM      6  O   UNL     1      -4.503   9.721  22.947  1.00  0.00    -0.341 OA
ENDROOT
BRANCH   1   7
ATOM      7  O   UNL     1      -4.657   8.101  24.616  1.00  0.00    -0.350 OA
BRANCH   7   8
ATOM      8  C   UNL     1      -4.122   8.623  25.817  1.00  0.00     0.160 C 
ATOM      9  C   UNL     1      -2.690   8.134  26.013  1.00  0.00     0.035 C 
ENDBRANCH   7   8
ENDBRANCH   1   7
BRANCH   2  10
ATOM     10  O   UNL     1      -7.385   9.499  22.614  1.00  0.00    -0.385 OA
ATOM     11  H   UNL     1      -6.758  10.198  22.291  1.00  0.00     0.211 HD
ENDBRANCH   2  10
BRANCH   3  12
ATOM     12  O   UNL     1      -5.735   6.283  22.674  1.00  0.00    -0.387 OA
ATOM     13  H   UNL     1      -5.984   5.545  22.059  1.00  0.00     0.211 HD
ENDBRANCH   3  12
BRANCH   5  14
ATOM     14  C   UNL     1      -2.765   8.061  22.353  1.00  0.00     0.191 C 
BRANCH  14  15
ATOM     15  O   UNL     1      -2.996   6.681  22.316  1.00  0.00    -0.394 OA
ATOM     16  H   UNL     1      -2.481   6.334  21.540  1.00  0.00     0.210 HD
ENDBRANCH  14  15
ENDBRANCH   5  14
BRANCH   4  17
ATOM     17  O   UNL     1      -5.696   8.839  20.152  1.00  0.00    -0.387 OA
ATOM     18  H   UNL     1      -5.151   9.660  20.037  1.00  0.00     0.211 HD
ENDBRANCH   4  17
TORSDOF 7
ENDMDL
MODEL 4
REMARK VINA RESULT:    -5.420      1.559      4.152
REMARK INTER + INTRA:          -7.608
REMARK INTER:                  -7.002
REMARK INTRA:                  -0.606
REMARK UNBOUND:                -0.604
REMARK SMILES CCO[C@H]1O[C@@H](CO)[C@H](O)[C@@H](O)[C@@H]1O
REMARK SMILES IDX 4 1 13 2 11 3 9 4 6 5 5 6 3 7 2 8 1 9 14 10 12 12 7 14 8 15
REMARK SMILES IDX 10 17
REMARK H PARENT 14 11 12 13 8 16 10 18
REMARK Flexibility Score: inf
ROOT
ATOM      1  C   UNL     1      -4.931   7.652  21.561  1.00  0.00     0.281 C 
ATOM      2  C   UNL     1      -5.813   8.644  20.773  1.00  0.00     0.202 C 
ATOM      3  C   UNL     1      -6.361   9.747  21.691  1.00  0.00     0.179 C 
ATOM      4  C   UNL     1      -6.972   9.162  22.982  1.00  0.00     0.177 C 
ATOM      5  C   UNL     1      -6.145   7.989  23.594  1.00  0.00     0.178 C 
ATOM      6  O   UNL     1      -5.639   7.062  22.639  1.00  0.00    -0.341 OA
ENDROOT
BRANCH   1   7
ATOM      7  O   UNL     1      -3.744   8.275  22.029  1.00  0.00    -0.350 OA
BRANCH   7   8
ATOM      8  C   UNL     1      -2.638   7.391  22.016  1.00  0.00     0.160 C 
ATOM      9  C   UNL     1      -1.876   7.482  23.334  1.00  0.00     0.035 C 
ENDBRANCH   7   8
ENDBRANCH   1   7
BRANCH   2  10
ATOM     10  O   UNL     1      -6.881   7.960  20.166  1.00  0.00    -0.385 OA
ATOM     11  H   UNL     1      -6.634   6.999  20.145  1.00  0.00     0.211 HD
ENDBRANCH   2  10
BRANCH   3  12
ATOM     12  O   UNL     1      -5.342  10.658  22.016  1.00  0.00    -0.387 OA
ATOM     13  H   UNL     1      -4.741  10.204  22.663  1.00  0.00     0.211 HD
ENDBRANCH   3  12
BRANCH   5  14
ATOM     14  C   UNL     1      -5.093   8.403  24.649  1.00  0.00     0.191 C 
BRANCH  14  15
ATOM     15  O   UNL     1      -4.640   9.713  24.458  1.00  0.00    -0.394 OA
ATOM     16  H   UNL     1      -5.196  10.287  25.046  1.00  0.00     0.210 HD
ENDBRANCH  14  15
ENDBRANCH   5  14
BRANCH   4  17
ATOM     17  O   UNL     1      -8.304   8.765  22.750  1.00  0.00    -0.387 OA
ATOM     18  H   UNL     1      -8.449   7.894  23.202  1.00  0.00     0.211 HD
ENDBRANCH   4  17
TORSDOF 7
ENDMDL
MODEL 5
REMARK VINA RESULT:    -5.396      1.333      3.526
REMARK INTER + INTRA:          -7.577
REMARK INTER:                  -7.028
REMARK INTRA:                  -0.549
REMARK UNBOUND:                -0.604
REMARK SMILES CCO[C@H]1O[C@@H](CO)[C@H](O)[C@@H](O)[C@@H]1O
REMARK SMILES IDX 4 1 13 2 11 3 9 4 6 5 5 6 3 7 2 8 1 9 14 10 12 12 7 14 8 15
REMARK SMILES IDX 10 17
REMARK H PARENT 14 11 12 13 8 16 10 18
REMARK Flexibility Score: inf
ROOT
ATOM      1  C   UNL     1      -4.709   7.398  23.026  1.00  0.00     0.281 C 
ATOM      2  C   UNL     1      -3.681   8.389  22.442  1.00  0.00     0.202 C 
ATOM      3  C   UNL     1      -4.380   9.584  21.777  1.00  0.00     0.179 C 
ATOM      4  C   UNL     1      -5.509   9.128  20.827  1.00  0.00     0.177 C 
ATOM      5  C   UNL     1      -6.362   7.948  21.387  1.00  0.00     0.178 C 
ATOM      6  O   UNL     1      -5.608   6.928  22.035  1.00  0.00    -0.341 OA
ENDROOT
BRANCH   1   7
ATOM      7  O   UNL     1      -5.423   7.973  24.110  1.00  0.00    -0.350 OA
BRANCH   7   8
ATOM      8  C   UNL     1      -4.823   7.682  25.358  1.00  0.00     0.160 C 
ATOM      9  C   UNL     1      -4.108   8.915  25.900  1.00  0.00     0.035 C 
ENDBRANCH   7   8
ENDBRANCH   1   7
BRANCH   2  10
ATOM     10  O   UNL     1      -2.864   7.737  21.502  1.00  0.00    -0.385 OA
ATOM     11  H   UNL     1      -1.944   8.085  21.628  1.00  0.00     0.211 HD
ENDBRANCH   2  10
BRANCH   3  12
ATOM     12  O   UNL     1      -4.901  10.448  22.755  1.00  0.00    -0.387 OA
ATOM     13  H   UNL     1      -4.148  10.702  23.350  1.00  0.00     0.211 HD
ENDBRANCH   3  12
BRANCH   5  14
ATOM     14  C   UNL     1      -7.621   8.363  22.182  1.00  0.00     0.191 C 
BRANCH  14  15
ATOM     15  O   UNL     1      -7.534   9.674  22.665  1.00  0.00    -0.394 OA
ATOM     16  H   UNL     1      -8.308  10.163  22.279  1.00  0.00     0.210 HD
ENDBRANCH  14  15
ENDBRANCH   5  14
BRANCH   4  17
ATOM     17  O   UNL     1      -4.976   8.803  19.564  1.00  0.00    -0.387 OA
ATOM     18  H   UNL     1      -5.335   9.450  18.903  1.00  0.00     0.211 HD
ENDBRANCH   4  17
TORSDOF 7
ENDMDL
MODEL 6
REMARK VINA RESULT:    -5.108      9.333     10.984
REMARK INTER + INTRA:          -7.205
REMARK INTER:                  -6.618
REMARK INTRA:                  -0.587
REMARK UNBOUND:                -0.604
REMARK SMILES CCO[C@H]1O[C@@H](CO)[C@H](O)[C@@H](O)[C@@H]1O
REMARK SMILES IDX 4 1 13 2 11 3 9 4 6 5 5 6 3 7 2 8 1 9 14 10 12 12 7 14 8 15
REMARK SMILES IDX 10 17
REMARK H PARENT 14 11 12 13 8 16 10 18
REMARK Flexibility Score: inf
ROOT
ATOM      1  C   UNL     1       0.407  15.376  25.141  1.00  0.00     0.281 C 
ATOM      2  C   UNL     1       1.842  15.896  24.915  1.00  0.00     0.202 C 
ATOM      3  C   UNL     1       1.901  17.427  25.032  1.00  0.00     0.179 C 
ATOM      4  C   UNL     1       0.787  18.105  24.205  1.00  0.00     0.177 C 
ATOM      5  C   UNL     1      -0.590  17.377  24.290  1.00  0.00     0.178 C 
ATOM      6  O   UNL     1      -0.512  15.956  24.230  1.00  0.00    -0.341 OA
ENDROOT
BRANCH   1   7
ATOM      7  O   UNL     1      -0.017  15.594  26.479  1.00  0.00    -0.350 OA
BRANCH   7   8
ATOM      8  C   UNL     1      -0.866  14.561  26.943  1.00  0.00     0.160 C 
ATOM      9  C   UNL     1      -0.055  13.303  27.235  1.00  0.00     0.035 C 
ENDBRANCH   7   8
ENDBRANCH   1   7
BRANCH   2  10
ATOM     10  O   UNL     1       2.302  15.502  23.646  1.00  0.00    -0.385 OA
ATOM     11  H   UNL     1       3.189  15.928  23.515  1.00  0.00     0.211 HD
ENDBRANCH   2  10
BRANCH   3  12
ATOM     12  O   UNL     1       1.798  17.815  26.379  1.00  0.00    -0.387 OA
ATOM     13  H   UNL     1       2.719  18.003  26.698  1.00  0.00     0.211 HD
ENDBRANCH   3  12
BRANCH   5  14
ATOM     14  C   UNL     1      -1.537  17.881  25.403  1.00  0.00     0.191 C 
BRANCH  14  15
ATOM     15  O   UNL     1      -0.837  18.428  26.485  1.00  0.00    -0.394 OA
ATOM     16  H   UNL     1      -0.343  17.676  26.904  1.00  0.00     0.210 HD
ENDBRANCH  14  15
ENDBRANCH   5  14
BRANCH   4  17
ATOM     17  O   UNL     1       1.197  18.244  22.865  1.00  0.00    -0.387 OA
ATOM     18  H   UNL     1       2.183  18.140  22.832  1.00  0.00     0.211 HD
ENDBRANCH   4  17
TORSDOF 7
ENDMDL
MODEL 7
REMARK VINA RESULT:    -5.070     10.111     11.372
REMARK INTER + INTRA:          -7.156
REMARK INTER:                  -6.614
REMARK INTRA:                  -0.542
REMARK UNBOUND:                -0.604
REMARK SMILES CCO[C@H]1O[C@@H](CO)[C@H](O)[C@@H](O)[C@@H]1O
REMARK SMILES IDX 4 1 13 2 11 3 9 4 6 5 5 6 3 7 2 8 1 9 14 10 12 12 7 14 8 15
REMARK SMILES IDX 10 17
REMARK H PARENT 14 11 12 13 8 16 10 18
REMARK Flexibility Score: inf
ROOT
ATOM      1  C   UNL     1      -0.462  17.391  22.980  1.00  0.00     0.281 C 
ATOM      2  C   UNL     1      -0.818  18.667  23.771  1.00  0.00     0.202 C 
ATOM      3  C   UNL     1       0.138  18.868  24.956  1.00  0.00     0.179 C 
ATOM      4  C   UNL     1       0.302  17.573  25.781  1.00  0.00     0.177 C 
ATOM      5  C   UNL     1       0.413  16.283  24.912  1.00  0.00     0.178 C 
ATOM      6  O   UNL     1      -0.484  16.237  23.806  1.00  0.00    -0.341 OA
ENDROOT
BRANCH   1   7
ATOM      7  O   UNL     1       0.797  17.515  22.336  1.00  0.00    -0.350 OA
BRANCH   7   8
ATOM      8  C   UNL     1       0.732  18.349  21.194  1.00  0.00     0.160 C 
ATOM      9  C   UNL     1      -0.348  17.851  20.239  1.00  0.00     0.035 C 
ENDBRANCH   7   8
ENDBRANCH   1   7
BRANCH   2  10
ATOM     10  O   UNL     1      -2.141  18.589  24.238  1.00  0.00    -0.385 OA
ATOM     11  H   UNL     1      -2.659  19.287  23.759  1.00  0.00     0.211 HD
ENDBRANCH   2  10
BRANCH   3  12
ATOM     12  O   UNL     1       1.393  19.304  24.499  1.00  0.00    -0.387 OA
ATOM     13  H   UNL     1       1.794  18.554  23.988  1.00  0.00     0.211 HD
ENDBRANCH   3  12
BRANCH   5  14
ATOM     14  C   UNL     1       1.852  15.860  24.538  1.00  0.00     0.191 C 
BRANCH  14  15
ATOM     15  O   UNL     1       2.793  16.843  24.860  1.00  0.00    -0.394 OA
ATOM     16  H   UNL     1       3.270  16.517  25.668  1.00  0.00     0.210 HD
ENDBRANCH  14  15
ENDBRANCH   5  14
BRANCH   4  17
ATOM     17  O   UNL     1      -0.747  17.458  26.714  1.00  0.00    -0.387 OA
ATOM     18  H   UNL     1      -0.528  18.029  27.496  1.00  0.00     0.211 HD
ENDBRANCH   4  17
TORSDOF 7
ENDMDL
MODEL 8
REMARK VINA RESULT:    -5.016      9.306     11.022
REMARK INTER + INTRA:          -7.086
REMARK INTER:                  -6.463
REMARK INTRA:                  -0.622
REMARK UNBOUND:                -0.604
REMARK SMILES CCO[C@H]1O[C@@H](CO)[C@H](O)[C@@H](O)[C@@H]1O
REMARK SMILES IDX 4 1 13 2 11 3 9 4 6 5 5 6 3 7 2 8 1 9 14 10 12 12 7 14 8 15
REMARK SMILES IDX 10 17
REMARK H PARENT 14 11 12 13 8 16 10 18
REMARK Flexibility Score: inf
ROOT
ATOM      1  C   UNL     1       1.196  17.665  23.884  1.00  0.00     0.281 C 
ATOM      2  C   UNL     1       1.089  16.126  23.829  1.00  0.00     0.202 C 
ATOM      3  C   UNL     1      -0.269  15.647  24.363  1.00  0.00     0.179 C 
ATOM      4  C   UNL     1      -0.617  16.310  25.713  1.00  0.00     0.177 C 
ATOM      5  C   UNL     1      -0.253  17.826  25.781  1.00  0.00     0.178 C 
ATOM      6  O   UNL     1       1.005  18.158  25.200  1.00  0.00    -0.341 OA
ENDROOT
BRANCH   1   7
ATOM      7  O   UNL     1       0.283  18.279  22.987  1.00  0.00    -0.350 OA
BRANCH   7   8
ATOM      8  C   UNL     1       0.754  18.262  21.653  1.00  0.00     0.160 C 
ATOM      9  C   UNL     1      -0.378  17.895  20.699  1.00  0.00     0.035 C 
ENDBRANCH   7   8
ENDBRANCH   1   7
BRANCH   2  10
ATOM     10  O   UNL     1       2.125  15.545  24.581  1.00  0.00    -0.385 OA
ATOM     11  H   UNL     1       2.751  16.275  24.824  1.00  0.00     0.211 HD
ENDBRANCH   2  10
BRANCH   3  12
ATOM     12  O   UNL     1      -1.281  15.914  23.426  1.00  0.00    -0.387 OA
ATOM     13  H   UNL     1      -0.842  16.306  22.627  1.00  0.00     0.211 HD
ENDBRANCH   3  12
BRANCH   5  14
ATOM     14  C   UNL     1      -1.383  18.796  25.366  1.00  0.00     0.191 C 
BRANCH  14  15
ATOM     15  O   UNL     1      -2.273  18.212  24.458  1.00  0.00    -0.394 OA
ATOM     16  H   UNL     1      -3.133  18.105  24.942  1.00  0.00     0.210 HD
ENDBRANCH  14  15
ENDBRANCH   5  14
BRANCH   4  17
ATOM     17  O   UNL     1      -0.010  15.603  26.770  1.00  0.00    -0.387 OA
ATOM     18  H   UNL     1      -0.573  15.716  27.579  1.00  0.00     0.211 HD
ENDBRANCH   4  17
TORSDOF 7
ENDMDL
MODEL 9
REMARK VINA RESULT:    -4.931      9.336     11.250
REMARK INTER + INTRA:          -6.977
REMARK INTER:                  -6.499
REMARK INTRA:                  -0.477
REMARK UNBOUND:                -0.604
REMARK SMILES CCO[C@H]1O[C@@H](CO)[C@H](O)[C@@H](O)[C@@H]1O
REMARK SMILES IDX 4 1 13 2 11 3 9 4 6 5 5 6 3 7 2 8 1 9 14 10 12 12 7 14 8 15
REMARK SMILES IDX 10 17
REMARK H PARENT 14 11 12 13 8 16 10 18
REMARK Flexibility Score: inf
ROOT
ATOM      1  C   UNL     1       0.521  16.869  23.915  1.00  0.00     0.281 C 
ATOM      2  C   UNL     1       0.995  17.981  24.874  1.00  0.00     0.202 C 
ATOM      3  C   UNL     1      -0.199  18.723  25.493  1.00  0.00     0.179 C 
ATOM      4  C   UNL     1      -1.231  19.136  24.421  1.00  0.00     0.177 C 
ATOM      5  C   UNL     1      -1.480  18.044  23.335  1.00  0.00     0.178 C 
ATOM      6  O   UNL     1      -0.303  17.383  22.881  1.00  0.00    -0.341 OA
ENDROOT
BRANCH   1   7
ATOM      7  O   UNL     1      -0.150  15.832  24.615  1.00  0.00    -0.350 OA
BRANCH   7   8
ATOM      8  C   UNL     1       0.743  15.031  25.366  1.00  0.00     0.160 C 
ATOM      9  C   UNL     1      -0.001  14.332  26.498  1.00  0.00     0.035 C 
ENDBRANCH   7   8
ENDBRANCH   1   7
BRANCH   2  10
ATOM     10  O   UNL     1       1.813  18.893  24.186  1.00  0.00    -0.385 OA
ATOM     11  H   UNL     1       1.881  18.572  23.250  1.00  0.00     0.211 HD
ENDBRANCH   2  10
BRANCH   3  12
ATOM     12  O   UNL     1      -0.818  17.921  26.467  1.00  0.00    -0.387 OA
ATOM     13  H   UNL     1      -1.716  18.309  26.636  1.00  0.00     0.211 HD
ENDBRANCH   3  12
BRANCH   5  14
ATOM     14  C   UNL     1      -2.642  17.068  23.633  1.00  0.00     0.191 C 
BRANCH  14  15
ATOM     15  O   UNL     1      -3.402  17.473  24.736  1.00  0.00    -0.394 OA
ATOM     16  H   UNL     1      -2.856  17.268  25.540  1.00  0.00     0.210 HD
ENDBRANCH  14  15
ENDBRANCH   5  14
BRANCH   4  17
ATOM     17  O   UNL     1      -0.849  20.354  23.826  1.00  0.00    -0.387 OA
ATOM     18  H   UNL     1      -0.068  20.708  24.324  1.00  0.00     0.211 HD
ENDBRANCH   4  17
TORSDOF 7
ENDMDL
