MODEL 1
REMARK VINA RESULT:    -2.646      0.000      0.000
REMARK INTER + INTRA:          -3.217
REMARK INTER:                  -3.110
REMARK INTRA:                  -0.107
REMARK UNBOUND:                -0.107
REMARK SMILES CCCCC(=O)[O-]
REMARK SMILES IDX 4 1 5 2 6 3 7 4 3 5 2 6 1 7
REMARK H PARENT
REMARK Flexibility Score: inf
ROOT
ATOM      1  C   UNL     1      63.583  43.225  15.055  1.00  0.00     0.053 C 
ENDROOT
BRANCH   1   2
ATOM      2  C   UNL     1      63.260  44.280  16.066  1.00  0.00     0.041 C 
ATOM      3  O   UNL     1      62.403  44.059  16.962  1.00  0.00    -0.550 OA
ATOM      4  O   UNL     1      63.929  45.497  16.039  1.00  0.00    -0.550 OA
ENDBRANCH   1   2
BRANCH   1   5
ATOM      5  C   UNL     1      64.597  42.208  15.597  1.00  0.00     0.006 C 
BRANCH   5   6
ATOM      6  C   UNL     1      63.940  40.869  15.958  1.00  0.00    -0.003 C 
ATOM      7  C   UNL     1      63.922  40.655  17.469  1.00  0.00     0.004 C 
ENDBRANCH   5   6
ENDBRANCH   1   5
TORSDOF 3
ENDMDL
MODEL 2
REMARK VINA RESULT:    -2.594     10.293     10.812
REMARK INTER + INTRA:          -3.156
REMARK INTER:                  -3.129
REMARK INTRA:                  -0.027
REMARK UNBOUND:                -0.107
REMARK SMILES CCCCC(=O)[O-]
REMARK SMILES IDX 4 1 5 2 6 3 7 4 3 5 2 6 1 7
REMARK H PARENT
REMARK Flexibility Score: inf
ROOT
ATOM      1  C   UNL     1      56.457  35.166  13.084  1.00  0.00     0.053 C 
ENDROOT
BRANCH   1   2
ATOM      2  C   UNL     1      55.794  36.274  12.327  1.00  0.00     0.041 C 
ATOM      3  O   UNL     1      54.667  36.705  12.689  1.00  0.00    -0.550 OA
ATOM      4  O   UNL     1      56.436  36.855  11.240  1.00  0.00    -0.550 OA
ENDBRANCH   1   2
BRANCH   1   5
ATOM      5  C   UNL     1      57.612  34.544  12.287  1.00  0.00     0.006 C 
BRANCH   5   6
ATOM      6  C   UNL     1      58.784  34.134  13.190  1.00  0.00    -0.003 C 
ATOM      7  C   UNL     1      60.114  34.253  12.450  1.00  0.00     0.004 C 
ENDBRANCH   5   6
ENDBRANCH   1   5
TORSDOF 3
ENDMDL
MODEL 3
REMARK VINA RESULT:    -2.571     15.258     15.883
REMARK INTER + INTRA:          -3.129
REMARK INTER:                  -3.100
REMARK INTRA:                  -0.029
REMARK UNBOUND:                -0.107
REMARK SMILES CCCCC(=O)[O-]
REMARK SMILES IDX 4 1 5 2 6 3 7 4 3 5 2 6 1 7
REMARK H PARENT
REMARK Flexibility Score: inf
ROOT
ATOM      1  C   UNL     1      50.525  51.008  10.792  1.00  0.00     0.053 C 
ENDROOT
BRANCH   1   2
ATOM      2  C   UNL     1      50.946  50.052   9.719  1.00  0.00     0.041 C 
ATOM      3  O   UNL     1      50.114  49.653   8.862  1.00  0.00    -0.550 OA
ATOM      4  O   UNL     1      52.266  49.627   9.646  1.00  0.00    -0.550 OA
ENDBRANCH   1   2
BRANCH   1   5
ATOM      5  C   UNL     1      50.917  50.505  12.188  1.00  0.00     0.006 C 
BRANCH   5   6
ATOM      6  C   UNL     1      49.694  50.263  13.083  1.00  0.00    -0.003 C 
ATOM      7  C   UNL     1      49.749  48.880  13.725  1.00  0.00     0.004 C 
ENDBRANCH   5   6
ENDBRANCH   1   5
TORSDOF 3
ENDMDL
MODEL 4
REMARK VINA RESULT:    -2.567     14.008     15.000
REMARK INTER + INTRA:          -3.124
REMARK INTER:                  -3.033
REMARK INTRA:                  -0.091
REMARK UNBOUND:                -0.107
REMARK SMILES CCCCC(=O)[O-]
REMARK SMILES IDX 4 1 5 2 6 3 7 4 3 5 2 6 1 7
REMARK H PARENT
REMARK Flexibility Score: inf
ROOT
ATOM      1  C   UNL     1      50.615  50.311  11.251  1.00  0.00     0.053 C 
ENDROOT
BRANCH   1   2
ATOM      2  C   UNL     1      51.061  49.877   9.889  1.00  0.00     0.041 C 
ATOM      3  O   UNL     1      52.281  49.665   9.658  1.00  0.00    -0.550 OA
ATOM      4  O   UNL     1      50.125  49.674   8.882  1.00  0.00    -0.550 OA
ENDBRANCH   1   2
BRANCH   1   5
ATOM      5  C   UNL     1      51.580  49.834  12.344  1.00  0.00     0.006 C 
BRANCH   5   6
ATOM      6  C   UNL     1      51.083  48.560  13.041  1.00  0.00    -0.003 C 
ATOM      7  C   UNL     1      52.105  47.434  12.922  1.00  0.00     0.004 C 
ENDBRANCH   5   6
ENDBRANCH   1   5
TORSDOF 3
ENDMDL
MODEL 5
REMARK VINA RESULT:    -2.443     14.732     15.572
REMARK INTER + INTRA:          -2.978
REMARK INTER:                  -2.867
REMARK INTRA:                  -0.110
REMARK UNBOUND:                -0.107
REMARK SMILES CCCCC(=O)[O-]
REMARK SMILES IDX 4 1 5 2 6 3 7 4 3 5 2 6 1 7
REMARK H PARENT
REMARK Flexibility Score: inf
ROOT
ATOM      1  C   UNL     1      51.415  49.215  12.413  1.00  0.00     0.053 C 
ENDROOT
BRANCH   1   2
ATOM      2  C   UNL     1      50.078  49.537  13.005  1.00  0.00     0.041 C 
ATOM      3  O   UNL     1      49.511  50.628  12.736  1.00  0.00    -0.550 OA
ATOM      4  O   UNL     1      49.442  48.615  13.827  1.00  0.00    -0.550 OA
ENDBRANCH   1   2
BRANCH   1   5
ATOM      5  C   UNL     1      51.817  50.227  11.331  1.00  0.00     0.006 C 
BRANCH   5   6
ATOM      6  C   UNL     1      51.751  49.626   9.921  1.00  0.00    -0.003 C 
ATOM      7  C   UNL     1      50.427  49.965   9.241  1.00  0.00     0.004 C 
ENDBRANCH   5   6
ENDBRANCH   1   5
TORSDOF 3
ENDMDL
MODEL 6
REMARK VINA RESULT:    -2.430     10.669     11.274
REMARK INTER + INTRA:          -2.962
REMARK INTER:                  -2.856
REMARK INTRA:                  -0.107
REMARK UNBOUND:                -0.107
REMARK SMILES CCCCC(=O)[O-]
REMARK SMILES IDX 4 1 5 2 6 3 7 4 3 5 2 6 1 7
REMARK H PARENT
REMARK Flexibility Score: inf
ROOT
ATOM      1  C   UNL     1      54.646  36.109  12.506  1.00  0.00     0.053 C 
ENDROOT
BRANCH   1   2
ATOM      2  C   UNL     1      54.155  36.913  13.670  1.00  0.00     0.041 C 
ATOM      3  O   UNL     1      54.916  37.150  14.645  1.00  0.00    -0.550 OA
ATOM      4  O   UNL     1      52.866  37.431  13.662  1.00  0.00    -0.550 OA
ENDBRANCH   1   2
BRANCH   1   5
ATOM      5  C   UNL     1      56.149  36.309  12.270  1.00  0.00     0.006 C 
BRANCH   5   6
ATOM      6  C   UNL     1      56.931  34.991  12.362  1.00  0.00    -0.003 C 
ATOM      7  C   UNL     1      57.268  34.653  13.811  1.00  0.00     0.004 C 
ENDBRANCH   5   6
ENDBRANCH   1   5
TORSDOF 3
ENDMDL
MODEL 7
REMARK VINA RESULT:    -2.377     10.942     11.594
REMARK INTER + INTRA:          -2.900
REMARK INTER:                  -2.828
REMARK INTRA:                  -0.072
REMARK UNBOUND:                -0.107
REMARK SMILES CCCCC(=O)[O-]
REMARK SMILES IDX 4 1 5 2 6 3 7 4 3 5 2 6 1 7
REMARK H PARENT
REMARK Flexibility Score: inf
ROOT
ATOM      1  C   UNL     1      56.220  35.039  12.957  1.00  0.00     0.053 C 
ENDROOT
BRANCH   1   2
ATOM      2  C   UNL     1      55.705  36.289  12.313  1.00  0.00     0.041 C 
ATOM      3  O   UNL     1      56.330  36.812  11.353  1.00  0.00    -0.550 OA
ATOM      4  O   UNL     1      54.516  36.858  12.751  1.00  0.00    -0.550 OA
ENDBRANCH   1   2
BRANCH   1   5
ATOM      5  C   UNL     1      57.593  34.637  12.401  1.00  0.00     0.006 C 
BRANCH   5   6
ATOM      6  C   UNL     1      57.609  33.190  11.887  1.00  0.00    -0.003 C 
ATOM      7  C   UNL     1      56.281  32.493  12.169  1.00  0.00     0.004 C 
ENDBRANCH   5   6
ENDBRANCH   1   5
TORSDOF 3
ENDMDL
MODEL 8
REMARK VINA RESULT:    -2.368      2.611      3.873
REMARK INTER + INTRA:          -2.890
REMARK INTER:                  -2.856
REMARK INTRA:                  -0.034
REMARK UNBOUND:                -0.107
REMARK SMILES CCCCC(=O)[O-]
REMARK SMILES IDX 4 1 5 2 6 3 7 4 3 5 2 6 1 7
REMARK H PARENT
REMARK Flexibility Score: inf
ROOT
ATOM      1  C   UNL     1      63.879  42.404  16.667  1.00  0.00     0.053 C 
ENDROOT
BRANCH   1   2
ATOM      2  C   UNL     1      64.200  40.943  16.740  1.00  0.00     0.041 C 
ATOM      3  O   UNL     1      65.071  40.446  15.978  1.00  0.00    -0.550 OA
ATOM      4  O   UNL     1      63.562  40.137  17.674  1.00  0.00    -0.550 OA
ENDBRANCH   1   2
BRANCH   1   5
ATOM      5  C   UNL     1      63.902  42.921  15.222  1.00  0.00     0.006 C 
BRANCH   5   6
ATOM      6  C   UNL     1      64.204  44.424  15.148  1.00  0.00    -0.003 C 
ATOM      7  C   UNL     1      63.532  45.176  16.294  1.00  0.00     0.004 C 
ENDBRANCH   5   6
ENDBRANCH   1   5
TORSDOF 3
ENDMDL
MODEL 9
REMARK VINA RESULT:    -2.353     10.325     11.183
REMARK INTER + INTRA:          -2.872
REMARK INTER:                  -2.857
REMARK INTRA:                  -0.015
REMARK UNBOUND:                -0.107
REMARK SMILES CCCCC(=O)[O-]
REMARK SMILES IDX 4 1 5 2 6 3 7 4 3 5 2 6 1 7
REMARK H PARENT
REMARK Flexibility Score: inf
ROOT
ATOM      1  C   UNL     1      58.659  34.228  13.244  1.00  0.00     0.053 C 
ENDROOT
BRANCH   1   2
ATOM      2  C   UNL     1      59.938  33.885  12.544  1.00  0.00     0.041 C 
ATOM      3  O   UNL     1      60.923  34.667  12.602  1.00  0.00    -0.550 OA
ATOM      4  O   UNL     1      60.053  32.684  11.856  1.00  0.00    -0.550 OA
ENDBRANCH   1   2
BRANCH   1   5
ATOM      5  C   UNL     1      57.504  34.427  12.254  1.00  0.00     0.006 C 
BRANCH   5   6
ATOM      6  C   UNL     1      56.382  35.297  12.838  1.00  0.00    -0.003 C 
ATOM      7  C   UNL     1      56.086  36.491  11.936  1.00  0.00     0.004 C 
ENDBRANCH   5   6
ENDBRANCH   1   5
TORSDOF 3
ENDMDL
