MODEL 1
REMARK VINA RESULT:    -3.190      0.000      0.000
REMARK INTER + INTRA:         -12.509
REMARK INTER:                  -8.038
REMARK INTRA:                  -4.471
REMARK UNBOUND:                -4.471
REMARK SMILES CCCCCCCCCCCCCCCCCCCCCCCCCCCC(=O)[O-]
REMARK SMILES IDX 15 1 16 2 17 3 18 4 19 5 20 6 21 7 22 8 23 9 24 10 25 11
REMARK SMILES IDX 26 12 27 13 28 14 29 15 30 16 14 17 13 18 12 19 11 20 10 21
REMARK SMILES IDX 9 22 8 23 7 24 6 25 5 26 4 27 3 28 2 29 1 30
REMARK H PARENT
REMARK Flexibility Score: inf
ROOT
ATOM      1  C   UNL     1    -115.082  36.989 -12.746  1.00  0.00     0.000 C 
ENDROOT
BRANCH   1   2
ATOM      2  C   UNL     1    -116.140  36.110 -12.058  1.00  0.00     0.000 C 
BRANCH   2   3
ATOM      3  C   UNL     1    -115.577  34.755 -11.598  1.00  0.00     0.000 C 
BRANCH   3   4
ATOM      4  C   UNL     1    -116.663  33.806 -11.061  1.00  0.00     0.000 C 
BRANCH   4   5
ATOM      5  C   UNL     1    -116.531  33.430  -9.570  1.00  0.00     0.000 C 
BRANCH   5   6
ATOM      6  C   UNL     1    -115.140  33.673  -8.951  1.00  0.00     0.000 C 
BRANCH   6   7
ATOM      7  C   UNL     1    -115.096  34.757  -7.859  1.00  0.00     0.000 C 
BRANCH   7   8
ATOM      8  C   UNL     1    -116.471  35.398  -7.599  1.00  0.00     0.000 C 
BRANCH   8   9
ATOM      9  C   UNL     1    -116.514  36.879  -8.013  1.00  0.00     0.000 C 
BRANCH   9  10
ATOM     10  C   UNL     1    -115.186  37.356  -8.627  1.00  0.00     0.000 C 
BRANCH  10  11
ATOM     11  C   UNL     1    -115.134  38.882  -8.828  1.00  0.00     0.000 C 
BRANCH  11  12
ATOM     12  C   UNL     1    -114.463  39.348 -10.137  1.00  0.00     0.006 C 
BRANCH  12  13
ATOM     13  C   UNL     1    -114.958  40.706 -10.660  1.00  0.00     0.053 C 
BRANCH  13  14
ATOM     14  C   UNL     1    -114.041  41.825 -10.272  1.00  0.00     0.041 C 
ATOM     15  O   UNL     1    -113.850  42.789 -11.061  1.00  0.00    -0.550 OA
ATOM     16  O   UNL     1    -113.376  41.793  -9.053  1.00  0.00    -0.550 OA
ENDBRANCH  13  14
ENDBRANCH  12  13
ENDBRANCH  11  12
ENDBRANCH  10  11
ENDBRANCH   9  10
ENDBRANCH   8   9
ENDBRANCH   7   8
ENDBRANCH   6   7
ENDBRANCH   5   6
ENDBRANCH   4   5
ENDBRANCH   3   4
ENDBRANCH   2   3
ENDBRANCH   1   2
BRANCH   1  17
ATOM     17  C   UNL     1    -115.245  37.140 -14.273  1.00  0.00     0.000 C 
BRANCH  17  18
ATOM     18  C   UNL     1    -115.190  35.823 -15.069  1.00  0.00     0.000 C 
BRANCH  18  19
ATOM     19  C   UNL     1    -113.811  35.149 -15.010  1.00  0.00     0.000 C 
BRANCH  19  20
ATOM     20  C   UNL     1    -112.789  35.903 -15.872  1.00  0.00     0.000 C 
BRANCH  20  21
ATOM     21  C   UNL     1    -111.358  35.791 -15.325  1.00  0.00     0.000 C 
BRANCH  21  22
ATOM     22  C   UNL     1    -110.694  37.164 -15.117  1.00  0.00    -0.000 C 
BRANCH  22  23
ATOM     23  C   UNL     1    -111.702  38.262 -14.743  1.00  0.00    -0.000 C 
BRANCH  23  24
ATOM     24  C   UNL     1    -111.797  38.481 -13.223  1.00  0.00    -0.000 C 
BRANCH  24  25
ATOM     25  C   UNL     1    -112.003  39.959 -12.843  1.00  0.00    -0.000 C 
BRANCH  25  26
ATOM     26  C   UNL     1    -112.800  40.794 -13.866  1.00  0.00    -0.000 C 
BRANCH  26  27
ATOM     27  C   UNL     1    -112.203  42.176 -14.197  1.00  0.00    -0.000 C 
BRANCH  27  28
ATOM     28  C   UNL     1    -110.676  42.279 -14.038  1.00  0.00    -0.000 C 
BRANCH  28  29
ATOM     29  C   UNL     1    -109.928  42.153 -15.374  1.00  0.00    -0.003 C 
ATOM     30  C   UNL     1    -109.069  40.892 -15.405  1.00  0.00     0.004 C 
ENDBRANCH  28  29
ENDBRANCH  27  28
ENDBRANCH  26  27
ENDBRANCH  25  26
ENDBRANCH  24  25
ENDBRANCH  23  24
ENDBRANCH  22  23
ENDBRANCH  21  22
ENDBRANCH  20  21
ENDBRANCH  19  20
ENDBRANCH  18  19
ENDBRANCH  17  18
ENDBRANCH   1  17
TORSDOF 26
ENDMDL
MODEL 2
REMARK VINA RESULT:    -3.140      2.605      4.605
REMARK INTER + INTRA:         -12.382
REMARK INTER:                  -8.365
REMARK INTRA:                  -4.017
REMARK UNBOUND:                -4.471
REMARK SMILES CCCCCCCCCCCCCCCCCCCCCCCCCCCC(=O)[O-]
REMARK SMILES IDX 15 1 16 2 17 3 18 4 19 5 20 6 21 7 22 8 23 9 24 10 25 11
REMARK SMILES IDX 26 12 27 13 28 14 29 15 30 16 14 17 13 18 12 19 11 20 10 21
REMARK SMILES IDX 9 22 8 23 7 24 6 25 5 26 4 27 3 28 2 29 1 30
REMARK H PARENT
REMARK Flexibility Score: inf
ROOT
ATOM      1  C   UNL     1    -114.383  40.134 -10.122  1.00  0.00     0.000 C 
ENDROOT
BRANCH   1   2
ATOM      2  C   UNL     1    -114.908  39.155  -9.056  1.00  0.00     0.000 C 
BRANCH   2   3
ATOM      3  C   UNL     1    -115.356  37.812  -9.655  1.00  0.00     0.000 C 
BRANCH   3   4
ATOM      4  C   UNL     1    -116.650  37.275  -9.020  1.00  0.00     0.000 C 
BRANCH   4   5
ATOM      5  C   UNL     1    -116.557  36.935  -7.518  1.00  0.00     0.000 C 
BRANCH   5   6
ATOM      6  C   UNL     1    -116.371  35.439  -7.191  1.00  0.00     0.000 C 
BRANCH   6   7
ATOM      7  C   UNL     1    -115.001  34.855  -7.579  1.00  0.00     0.000 C 
BRANCH   7   8
ATOM      8  C   UNL     1    -115.090  33.852  -8.743  1.00  0.00     0.000 C 
BRANCH   8   9
ATOM      9  C   UNL     1    -116.543  33.500  -9.103  1.00  0.00     0.000 C 
BRANCH   9  10
ATOM     10  C   UNL     1    -116.842  33.694 -10.601  1.00  0.00     0.000 C 
BRANCH  10  11
ATOM     11  C   UNL     1    -115.741  34.482 -11.333  1.00  0.00     0.000 C 
BRANCH  11  12
ATOM     12  C   UNL     1    -116.207  35.239 -12.594  1.00  0.00     0.006 C 
BRANCH  12  13
ATOM     13  C   UNL     1    -115.074  35.898 -13.398  1.00  0.00     0.053 C 
BRANCH  13  14
ATOM     14  C   UNL     1    -114.485  34.964 -14.409  1.00  0.00     0.041 C 
ATOM     15  O   UNL     1    -115.045  33.863 -14.655  1.00  0.00    -0.550 OA
ATOM     16  O   UNL     1    -113.303  35.295 -15.060  1.00  0.00    -0.550 OA
ENDBRANCH  13  14
ENDBRANCH  12  13
ENDBRANCH  11  12
ENDBRANCH  10  11
ENDBRANCH   9  10
ENDBRANCH   8   9
ENDBRANCH   7   8
ENDBRANCH   6   7
ENDBRANCH   5   6
ENDBRANCH   4   5
ENDBRANCH   3   4
ENDBRANCH   2   3
ENDBRANCH   1   2
BRANCH   1  17
ATOM     17  C   UNL     1    -113.758  39.474 -11.368  1.00  0.00     0.000 C 
BRANCH  17  18
ATOM     18  C   UNL     1    -114.353  39.925 -12.714  1.00  0.00     0.000 C 
BRANCH  18  19
ATOM     19  C   UNL     1    -113.604  39.340 -13.922  1.00  0.00     0.000 C 
BRANCH  19  20
ATOM     20  C   UNL     1    -112.490  38.384 -13.472  1.00  0.00     0.000 C 
BRANCH  20  21
ATOM     21  C   UNL     1    -111.089  38.893 -13.845  1.00  0.00     0.000 C 
BRANCH  21  22
ATOM     22  C   UNL     1    -110.526  38.208 -15.103  1.00  0.00    -0.000 C 
BRANCH  22  23
ATOM     23  C   UNL     1    -109.326  38.959 -15.702  1.00  0.00    -0.000 C 
BRANCH  23  24
ATOM     24  C   UNL     1    -108.968  40.227 -14.909  1.00  0.00    -0.000 C 
BRANCH  24  25
ATOM     25  C   UNL     1    -108.639  41.427 -15.815  1.00  0.00    -0.000 C 
BRANCH  25  26
ATOM     26  C   UNL     1    -109.722  42.525 -15.867  1.00  0.00    -0.000 C 
BRANCH  26  27
ATOM     27  C   UNL     1    -110.981  42.248 -15.021  1.00  0.00    -0.000 C 
BRANCH  27  28
ATOM     28  C   UNL     1    -111.104  43.093 -13.741  1.00  0.00    -0.000 C 
BRANCH  28  29
ATOM     29  C   UNL     1    -111.637  42.290 -12.546  1.00  0.00    -0.003 C 
ATOM     30  C   UNL     1    -112.395  43.191 -11.575  1.00  0.00     0.004 C 
ENDBRANCH  28  29
ENDBRANCH  27  28
ENDBRANCH  26  27
ENDBRANCH  25  26
ENDBRANCH  24  25
ENDBRANCH  23  24
ENDBRANCH  22  23
ENDBRANCH  21  22
ENDBRANCH  20  21
ENDBRANCH  19  20
ENDBRANCH  18  19
ENDBRANCH  17  18
ENDBRANCH   1  17
TORSDOF 26
ENDMDL
MODEL 3
REMARK VINA RESULT:    -3.134      1.840      5.830
REMARK INTER + INTRA:         -12.368
REMARK INTER:                  -7.725
REMARK INTRA:                  -4.643
REMARK UNBOUND:                -4.471
REMARK SMILES CCCCCCCCCCCCCCCCCCCCCCCCCCCC(=O)[O-]
REMARK SMILES IDX 15 1 16 2 17 3 18 4 19 5 20 6 21 7 22 8 23 9 24 10 25 11
REMARK SMILES IDX 26 12 27 13 28 14 29 15 30 16 14 17 13 18 12 19 11 20 10 21
REMARK SMILES IDX 9 22 8 23 7 24 6 25 5 26 4 27 3 28 2 29 1 30
REMARK H PARENT
REMARK Flexibility Score: inf
ROOT
ATOM      1  C   UNL     1    -115.013  34.623  -7.625  1.00  0.00     0.000 C 
ENDROOT
BRANCH   1   2
ATOM      2  C   UNL     1    -115.081  33.819  -8.936  1.00  0.00     0.000 C 
BRANCH   2   3
ATOM      3  C   UNL     1    -116.523  33.509  -9.367  1.00  0.00     0.000 C 
BRANCH   3   4
ATOM      4  C   UNL     1    -116.720  33.570 -10.892  1.00  0.00     0.000 C 
BRANCH   4   5
ATOM      5  C   UNL     1    -115.436  33.806 -11.713  1.00  0.00     0.000 C 
BRANCH   5   6
ATOM      6  C   UNL     1    -115.650  34.445 -13.101  1.00  0.00     0.000 C 
BRANCH   6   7
ATOM      7  C   UNL     1    -114.491  34.247 -14.093  1.00  0.00     0.000 C 
BRANCH   7   8
ATOM      8  C   UNL     1    -114.335  35.426 -15.070  1.00  0.00     0.000 C 
BRANCH   8   9
ATOM      9  C   UNL     1    -112.900  35.555 -15.607  1.00  0.00     0.000 C 
BRANCH   9  10
ATOM     10  C   UNL     1    -112.412  37.014 -15.639  1.00  0.00     0.000 C 
BRANCH  10  11
ATOM     11  C   UNL     1    -111.123  37.232 -14.827  1.00  0.00     0.000 C 
BRANCH  11  12
ATOM     12  C   UNL     1    -110.175  38.316 -15.380  1.00  0.00     0.006 C 
BRANCH  12  13
ATOM     13  C   UNL     1    -110.790  39.723 -15.457  1.00  0.00     0.053 C 
BRANCH  13  14
ATOM     14  C   UNL     1    -110.228  40.641 -14.415  1.00  0.00     0.041 C 
ATOM     15  O   UNL     1    -109.991  41.846 -14.696  1.00  0.00    -0.550 OA
ATOM     16  O   UNL     1    -109.939  40.160 -13.144  1.00  0.00    -0.550 OA
ENDBRANCH  13  14
ENDBRANCH  12  13
ENDBRANCH  11  12
ENDBRANCH  10  11
ENDBRANCH   9  10
ENDBRANCH   8   9
ENDBRANCH   7   8
ENDBRANCH   6   7
ENDBRANCH   5   6
ENDBRANCH   4   5
ENDBRANCH   3   4
ENDBRANCH   2   3
ENDBRANCH   1   2
BRANCH   1  17
ATOM     17  C   UNL     1    -116.039  35.768  -7.504  1.00  0.00     0.000 C 
BRANCH  17  18
ATOM     18  C   UNL     1    -115.716  37.026  -8.330  1.00  0.00     0.000 C 
BRANCH  18  19
ATOM     19  C   UNL     1    -116.856  37.427  -9.278  1.00  0.00     0.000 C 
BRANCH  19  20
ATOM     20  C   UNL     1    -116.452  37.224 -10.745  1.00  0.00     0.000 C 
BRANCH  20  21
ATOM     21  C   UNL     1    -116.605  38.505 -11.581  1.00  0.00     0.000 C 
BRANCH  21  22
ATOM     22  C   UNL     1    -115.737  38.489 -12.852  1.00  0.00    -0.000 C 
BRANCH  22  23
ATOM     23  C   UNL     1    -114.322  37.945 -12.600  1.00  0.00    -0.000 C 
BRANCH  23  24
ATOM     24  C   UNL     1    -113.270  39.063 -12.497  1.00  0.00    -0.000 C 
BRANCH  24  25
ATOM     25  C   UNL     1    -113.669  40.333 -13.271  1.00  0.00    -0.000 C 
BRANCH  25  26
ATOM     26  C   UNL     1    -113.394  41.661 -12.537  1.00  0.00    -0.000 C 
BRANCH  26  27
ATOM     27  C   UNL     1    -113.028  41.525 -11.045  1.00  0.00    -0.000 C 
BRANCH  27  28
ATOM     28  C   UNL     1    -114.210  41.664 -10.070  1.00  0.00    -0.000 C 
BRANCH  28  29
ATOM     29  C   UNL     1    -114.514  40.362  -9.314  1.00  0.00    -0.003 C 
ATOM     30  C   UNL     1    -114.537  40.598  -7.806  1.00  0.00     0.004 C 
ENDBRANCH  28  29
ENDBRANCH  27  28
ENDBRANCH  26  27
ENDBRANCH  25  26
ENDBRANCH  24  25
ENDBRANCH  23  24
ENDBRANCH  22  23
ENDBRANCH  21  22
ENDBRANCH  20  21
ENDBRANCH  19  20
ENDBRANCH  18  19
ENDBRANCH  17  18
ENDBRANCH   1  17
TORSDOF 26
ENDMDL
MODEL 4
REMARK VINA RESULT:    -3.085      3.022      5.545
REMARK INTER + INTRA:         -12.246
REMARK INTER:                  -8.364
REMARK INTRA:                  -3.881
REMARK UNBOUND:                -4.471
REMARK SMILES CCCCCCCCCCCCCCCCCCCCCCCCCCCC(=O)[O-]
REMARK SMILES IDX 15 1 16 2 17 3 18 4 19 5 20 6 21 7 22 8 23 9 24 10 25 11
REMARK SMILES IDX 26 12 27 13 28 14 29 15 30 16 14 17 13 18 12 19 11 20 10 21
REMARK SMILES IDX 9 22 8 23 7 24 6 25 5 26 4 27 3 28 2 29 1 30
REMARK H PARENT
REMARK Flexibility Score: inf
ROOT
ATOM      1  C   UNL     1    -115.130  34.929  -7.496  1.00  0.00     0.000 C 
ENDROOT
BRANCH   1   2
ATOM      2  C   UNL     1    -116.502  35.549  -7.177  1.00  0.00     0.000 C 
BRANCH   2   3
ATOM      3  C   UNL     1    -116.603  37.019  -7.614  1.00  0.00     0.000 C 
BRANCH   3   4
ATOM      4  C   UNL     1    -116.827  37.181  -9.128  1.00  0.00     0.000 C 
BRANCH   4   5
ATOM      5  C   UNL     1    -115.613  37.705  -9.922  1.00  0.00     0.000 C 
BRANCH   5   6
ATOM      6  C   UNL     1    -114.611  38.550  -9.110  1.00  0.00     0.000 C 
BRANCH   6   7
ATOM      7  C   UNL     1    -114.674  40.065  -9.375  1.00  0.00     0.000 C 
BRANCH   7   8
ATOM      8  C   UNL     1    -115.622  40.799  -8.410  1.00  0.00     0.000 C 
BRANCH   8   9
ATOM      9  C   UNL     1    -115.301  40.502  -6.936  1.00  0.00     0.000 C 
BRANCH   9  10
ATOM     10  C   UNL     1    -116.533  40.648  -6.025  1.00  0.00     0.000 C 
BRANCH  10  11
ATOM     11  C   UNL     1    -116.759  39.421  -5.122  1.00  0.00     0.000 C 
BRANCH  11  12
ATOM     12  C   UNL     1    -116.585  39.678  -3.612  1.00  0.00     0.006 C 
BRANCH  12  13
ATOM     13  C   UNL     1    -115.195  40.195  -3.207  1.00  0.00     0.053 C 
BRANCH  13  14
ATOM     14  C   UNL     1    -115.278  41.411  -2.338  1.00  0.00     0.041 C 
ATOM     15  O   UNL     1    -115.828  41.344  -1.206  1.00  0.00    -0.550 OA
ATOM     16  O   UNL     1    -114.773  42.626  -2.786  1.00  0.00    -0.550 OA
ENDBRANCH  13  14
ENDBRANCH  12  13
ENDBRANCH  11  12
ENDBRANCH  10  11
ENDBRANCH   9  10
ENDBRANCH   8   9
ENDBRANCH   7   8
ENDBRANCH   6   7
ENDBRANCH   5   6
ENDBRANCH   4   5
ENDBRANCH   3   4
ENDBRANCH   2   3
ENDBRANCH   1   2
BRANCH   1  17
ATOM     17  C   UNL     1    -115.134  33.867  -8.616  1.00  0.00     0.000 C 
BRANCH  17  18
ATOM     18  C   UNL     1    -116.525  33.497  -9.160  1.00  0.00     0.000 C 
BRANCH  18  19
ATOM     19  C   UNL     1    -116.654  33.732 -10.674  1.00  0.00     0.000 C 
BRANCH  19  20
ATOM     20  C   UNL     1    -115.289  34.040 -11.304  1.00  0.00     0.000 C 
BRANCH  20  21
ATOM     21  C   UNL     1    -115.383  34.309 -12.814  1.00  0.00     0.000 C 
BRANCH  21  22
ATOM     22  C   UNL     1    -115.267  35.805 -13.158  1.00  0.00    -0.000 C 
BRANCH  22  23
ATOM     23  C   UNL     1    -114.871  36.050 -14.622  1.00  0.00    -0.000 C 
BRANCH  23  24
ATOM     24  C   UNL     1    -113.652  35.215 -15.051  1.00  0.00    -0.000 C 
BRANCH  24  25
ATOM     25  C   UNL     1    -112.608  36.037 -15.829  1.00  0.00    -0.000 C 
BRANCH  25  26
ATOM     26  C   UNL     1    -111.584  36.791 -14.957  1.00  0.00    -0.000 C 
BRANCH  26  27
ATOM     27  C   UNL     1    -111.954  38.250 -14.620  1.00  0.00    -0.000 C 
BRANCH  27  28
ATOM     28  C   UNL     1    -111.636  38.685 -13.179  1.00  0.00    -0.000 C 
BRANCH  28  29
ATOM     29  C   UNL     1    -112.891  39.063 -12.380  1.00  0.00    -0.003 C 
ATOM     30  C   UNL     1    -114.045  39.425 -13.311  1.00  0.00     0.004 C 
ENDBRANCH  28  29
ENDBRANCH  27  28
ENDBRANCH  26  27
ENDBRANCH  25  26
ENDBRANCH  24  25
ENDBRANCH  23  24
ENDBRANCH  22  23
ENDBRANCH  21  22
ENDBRANCH  20  21
ENDBRANCH  19  20
ENDBRANCH  18  19
ENDBRANCH  17  18
ENDBRANCH   1  17
TORSDOF 26
ENDMDL
MODEL 5
REMARK VINA RESULT:    -3.032      2.576      6.088
REMARK INTER + INTRA:         -12.110
REMARK INTER:                  -7.311
REMARK INTRA:                  -4.799
REMARK UNBOUND:                -4.471
REMARK SMILES CCCCCCCCCCCCCCCCCCCCCCCCCCCC(=O)[O-]
REMARK SMILES IDX 15 1 16 2 17 3 18 4 19 5 20 6 21 7 22 8 23 9 24 10 25 11
REMARK SMILES IDX 26 12 27 13 28 14 29 15 30 16 14 17 13 18 12 19 11 20 10 21
REMARK SMILES IDX 9 22 8 23 7 24 6 25 5 26 4 27 3 28 2 29 1 30
REMARK H PARENT
REMARK Flexibility Score: inf
ROOT
ATOM      1  C   UNL     1    -115.079  37.317  -8.495  1.00  0.00     0.000 C 
ENDROOT
BRANCH   1   2
ATOM      2  C   UNL     1    -116.326  36.743  -7.801  1.00  0.00     0.000 C 
BRANCH   2   3
ATOM      3  C   UNL     1    -116.059  35.385  -7.131  1.00  0.00     0.000 C 
BRANCH   3   4
ATOM      4  C   UNL     1    -114.979  34.561  -7.856  1.00  0.00     0.000 C 
BRANCH   4   5
ATOM      5  C   UNL     1    -115.495  33.647  -8.985  1.00  0.00     0.000 C 
BRANCH   5   6
ATOM      6  C   UNL     1    -115.329  34.206 -10.413  1.00  0.00     0.000 C 
BRANCH   6   7
ATOM      7  C   UNL     1    -116.157  33.488 -11.493  1.00  0.00     0.000 C 
BRANCH   7   8
ATOM      8  C   UNL     1    -115.476  33.500 -12.873  1.00  0.00     0.000 C 
BRANCH   8   9
ATOM      9  C   UNL     1    -116.285  34.287 -13.917  1.00  0.00     0.000 C 
BRANCH   9  10
ATOM     10  C   UNL     1    -115.399  34.858 -15.039  1.00  0.00     0.000 C 
BRANCH  10  11
ATOM     11  C   UNL     1    -113.912  34.937 -14.646  1.00  0.00     0.000 C 
BRANCH  11  12
ATOM     12  C   UNL     1    -113.049  35.861 -15.529  1.00  0.00     0.006 C 
BRANCH  12  13
ATOM     13  C   UNL     1    -111.536  35.604 -15.436  1.00  0.00     0.053 C 
BRANCH  13  14
ATOM     14  C   UNL     1    -110.771  36.854 -15.131  1.00  0.00     0.041 C 
ATOM     15  O   UNL     1    -111.208  37.671 -14.278  1.00  0.00    -0.550 OA
ATOM     16  O   UNL     1    -109.589  37.131 -15.807  1.00  0.00    -0.550 OA
ENDBRANCH  13  14
ENDBRANCH  12  13
ENDBRANCH  11  12
ENDBRANCH  10  11
ENDBRANCH   9  10
ENDBRANCH   8   9
ENDBRANCH   7   8
ENDBRANCH   6   7
ENDBRANCH   5   6
ENDBRANCH   4   5
ENDBRANCH   3   4
ENDBRANCH   2   3
ENDBRANCH   1   2
BRANCH   1  17
ATOM     17  C   UNL     1    -115.350  38.072  -9.813  1.00  0.00     0.000 C 
BRANCH  17  18
ATOM     18  C   UNL     1    -116.730  37.812 -10.443  1.00  0.00     0.000 C 
BRANCH  18  19
ATOM     19  C   UNL     1    -116.639  37.354 -11.907  1.00  0.00     0.000 C 
BRANCH  19  20
ATOM     20  C   UNL     1    -115.215  37.529 -12.454  1.00  0.00     0.000 C 
BRANCH  20  21
ATOM     21  C   UNL     1    -115.166  38.437 -13.693  1.00  0.00     0.000 C 
BRANCH  21  22
ATOM     22  C   UNL     1    -114.075  39.518 -13.591  1.00  0.00    -0.000 C 
BRANCH  22  23
ATOM     23  C   UNL     1    -114.383  40.576 -12.520  1.00  0.00    -0.000 C 
BRANCH  23  24
ATOM     24  C   UNL     1    -113.321  40.615 -11.408  1.00  0.00    -0.000 C 
BRANCH  24  25
ATOM     25  C   UNL     1    -113.745  41.478 -10.205  1.00  0.00    -0.000 C 
BRANCH  25  26
ATOM     26  C   UNL     1    -115.257  41.766 -10.106  1.00  0.00    -0.000 C 
BRANCH  26  27
ATOM     27  C   UNL     1    -115.899  41.453  -8.740  1.00  0.00    -0.000 C 
BRANCH  27  28
ATOM     28  C   UNL     1    -114.908  41.053  -7.633  1.00  0.00    -0.000 C 
BRANCH  28  29
ATOM     29  C   UNL     1    -115.524  41.125  -6.228  1.00  0.00    -0.003 C 
ATOM     30  C   UNL     1    -116.514  39.986  -6.004  1.00  0.00     0.004 C 
ENDBRANCH  28  29
ENDBRANCH  27  28
ENDBRANCH  26  27
ENDBRANCH  25  26
ENDBRANCH  24  25
ENDBRANCH  23  24
ENDBRANCH  22  23
ENDBRANCH  21  22
ENDBRANCH  20  21
ENDBRANCH  19  20
ENDBRANCH  18  19
ENDBRANCH  17  18
ENDBRANCH   1  17
TORSDOF 26
ENDMDL
MODEL 6
REMARK VINA RESULT:    -3.026      2.425      7.659
REMARK INTER + INTRA:         -12.096
REMARK INTER:                  -7.439
REMARK INTRA:                  -4.656
REMARK UNBOUND:                -4.471
REMARK SMILES CCCCCCCCCCCCCCCCCCCCCCCCCCCC(=O)[O-]
REMARK SMILES IDX 15 1 16 2 17 3 18 4 19 5 20 6 21 7 22 8 23 9 24 10 25 11
REMARK SMILES IDX 26 12 27 13 28 14 29 15 30 16 14 17 13 18 12 19 11 20 10 21
REMARK SMILES IDX 9 22 8 23 7 24 6 25 5 26 4 27 3 28 2 29 1 30
REMARK H PARENT
REMARK Flexibility Score: inf
ROOT
ATOM      1  C   UNL     1    -113.615  41.756  -9.633  1.00  0.00     0.000 C 
ENDROOT
BRANCH   1   2
ATOM      2  C   UNL     1    -112.844  41.347 -10.901  1.00  0.00     0.000 C 
BRANCH   2   3
ATOM      3  C   UNL     1    -112.897  42.422 -11.998  1.00  0.00     0.000 C 
BRANCH   3   4
ATOM      4  C   UNL     1    -113.668  41.964 -13.249  1.00  0.00     0.000 C 
BRANCH   4   5
ATOM      5  C   UNL     1    -115.136  41.556 -13.007  1.00  0.00     0.000 C 
BRANCH   5   6
ATOM      6  C   UNL     1    -115.530  40.166 -13.547  1.00  0.00     0.000 C 
BRANCH   6   7
ATOM      7  C   UNL     1    -115.397  39.014 -12.536  1.00  0.00     0.000 C 
BRANCH   7   8
ATOM      8  C   UNL     1    -114.024  38.320 -12.601  1.00  0.00     0.000 C 
BRANCH   8   9
ATOM      9  C   UNL     1    -113.672  37.852 -14.023  1.00  0.00     0.000 C 
BRANCH   9  10
ATOM     10  C   UNL     1    -112.251  38.267 -14.444  1.00  0.00     0.000 C 
BRANCH  10  11
ATOM     11  C   UNL     1    -111.435  38.867 -13.284  1.00  0.00     0.000 C 
BRANCH  11  12
ATOM     12  C   UNL     1    -110.407  39.941 -13.694  1.00  0.00     0.006 C 
BRANCH  12  13
ATOM     13  C   UNL     1    -109.537  39.565 -14.904  1.00  0.00     0.053 C 
BRANCH  13  14
ATOM     14  C   UNL     1    -108.391  40.511 -15.089  1.00  0.00     0.041 C 
ATOM     15  O   UNL     1    -108.573  41.623 -15.652  1.00  0.00    -0.550 OA
ATOM     16  O   UNL     1    -107.116  40.155 -14.667  1.00  0.00    -0.550 OA
ENDBRANCH  13  14
ENDBRANCH  12  13
ENDBRANCH  11  12
ENDBRANCH  10  11
ENDBRANCH   9  10
ENDBRANCH   8   9
ENDBRANCH   7   8
ENDBRANCH   6   7
ENDBRANCH   5   6
ENDBRANCH   4   5
ENDBRANCH   3   4
ENDBRANCH   2   3
ENDBRANCH   1   2
BRANCH   1  17
ATOM     17  C   UNL     1    -114.818  40.857  -9.278  1.00  0.00     0.000 C 
BRANCH  17  18
ATOM     18  C   UNL     1    -114.477  39.379  -9.019  1.00  0.00     0.000 C 
BRANCH  18  19
ATOM     19  C   UNL     1    -115.718  38.523  -8.726  1.00  0.00     0.000 C 
BRANCH  19  20
ATOM     20  C   UNL     1    -115.444  37.038  -9.003  1.00  0.00     0.000 C 
BRANCH  20  21
ATOM     21  C   UNL     1    -115.983  36.122  -7.894  1.00  0.00     0.000 C 
BRANCH  21  22
ATOM     22  C   UNL     1    -115.029  34.958  -7.571  1.00  0.00    -0.000 C 
BRANCH  22  23
ATOM     23  C   UNL     1    -115.086  33.834  -8.617  1.00  0.00    -0.000 C 
BRANCH  23  24
ATOM     24  C   UNL     1    -116.525  33.498  -9.043  1.00  0.00    -0.000 C 
BRANCH  24  25
ATOM     25  C   UNL     1    -116.799  33.810 -10.525  1.00  0.00    -0.000 C 
BRANCH  25  26
ATOM     26  C   UNL     1    -115.546  33.888 -11.421  1.00  0.00    -0.000 C 
BRANCH  26  27
ATOM     27  C   UNL     1    -115.499  35.092 -12.383  1.00  0.00    -0.000 C 
BRANCH  27  28
ATOM     28  C   UNL     1    -116.859  35.511 -12.968  1.00  0.00    -0.000 C 
BRANCH  28  29
ATOM     29  C   UNL     1    -116.807  35.746 -14.485  1.00  0.00    -0.003 C 
ATOM     30  C   UNL     1    -115.720  34.895 -15.135  1.00  0.00     0.004 C 
ENDBRANCH  28  29
ENDBRANCH  27  28
ENDBRANCH  26  27
ENDBRANCH  25  26
ENDBRANCH  24  25
ENDBRANCH  23  24
ENDBRANCH  22  23
ENDBRANCH  21  22
ENDBRANCH  20  21
ENDBRANCH  19  20
ENDBRANCH  18  19
ENDBRANCH  17  18
ENDBRANCH   1  17
TORSDOF 26
ENDMDL
MODEL 7
REMARK VINA RESULT:    -3.020      1.197      2.124
REMARK INTER + INTRA:         -12.082
REMARK INTER:                  -7.550
REMARK INTRA:                  -4.532
REMARK UNBOUND:                -4.471
REMARK SMILES CCCCCCCCCCCCCCCCCCCCCCCCCCCC(=O)[O-]
REMARK SMILES IDX 15 1 16 2 17 3 18 4 19 5 20 6 21 7 22 8 23 9 24 10 25 11
REMARK SMILES IDX 26 12 27 13 28 14 29 15 30 16 14 17 13 18 12 19 11 20 10 21
REMARK SMILES IDX 9 22 8 23 7 24 6 25 5 26 4 27 3 28 2 29 1 30
REMARK H PARENT
REMARK Flexibility Score: inf
ROOT
ATOM      1  C   UNL     1    -115.271  33.919 -12.749  1.00  0.00     0.000 C 
ENDROOT
BRANCH   1   2
ATOM      2  C   UNL     1    -115.624  34.750 -11.503  1.00  0.00     0.000 C 
BRANCH   2   3
ATOM      3  C   UNL     1    -116.908  34.265 -10.812  1.00  0.00     0.000 C 
BRANCH   3   4
ATOM      4  C   UNL     1    -116.650  33.673  -9.415  1.00  0.00     0.000 C 
BRANCH   4   5
ATOM      5  C   UNL     1    -115.207  33.820  -8.892  1.00  0.00     0.000 C 
BRANCH   5   6
ATOM      6  C   UNL     1    -114.999  34.922  -7.833  1.00  0.00     0.000 C 
BRANCH   6   7
ATOM      7  C   UNL     1    -116.287  35.428  -7.161  1.00  0.00     0.000 C 
BRANCH   7   8
ATOM      8  C   UNL     1    -116.555  36.919  -7.432  1.00  0.00     0.000 C 
BRANCH   8   9
ATOM      9  C   UNL     1    -115.720  37.459  -8.605  1.00  0.00     0.000 C 
BRANCH   9  10
ATOM     10  C   UNL     1    -116.594  38.028  -9.737  1.00  0.00     0.000 C 
BRANCH  10  11
ATOM     11  C   UNL     1    -115.800  38.298 -11.028  1.00  0.00     0.000 C 
BRANCH  11  12
ATOM     12  C   UNL     1    -114.326  38.699 -10.820  1.00  0.00     0.006 C 
BRANCH  12  13
ATOM     13  C   UNL     1    -113.956  40.084 -11.376  1.00  0.00     0.053 C 
BRANCH  13  14
ATOM     14  C   UNL     1    -113.757  41.093 -10.287  1.00  0.00     0.041 C 
ATOM     15  O   UNL     1    -112.718  41.805 -10.266  1.00  0.00    -0.550 OA
ATOM     16  O   UNL     1    -114.705  41.229  -9.280  1.00  0.00    -0.550 OA
ENDBRANCH  13  14
ENDBRANCH  12  13
ENDBRANCH  11  12
ENDBRANCH  10  11
ENDBRANCH   9  10
ENDBRANCH   8   9
ENDBRANCH   7   8
ENDBRANCH   6   7
ENDBRANCH   5   6
ENDBRANCH   4   5
ENDBRANCH   3   4
ENDBRANCH   2   3
ENDBRANCH   1   2
BRANCH   1  17
ATOM     17  C   UNL     1    -114.887  34.739 -13.998  1.00  0.00     0.000 C 
BRANCH  17  18
ATOM     18  C   UNL     1    -115.619  36.085 -14.147  1.00  0.00     0.000 C 
BRANCH  18  19
ATOM     19  C   UNL     1    -114.660  37.262 -14.381  1.00  0.00     0.000 C 
BRANCH  19  20
ATOM     20  C   UNL     1    -113.237  36.767 -14.675  1.00  0.00     0.000 C 
BRANCH  20  21
ATOM     21  C   UNL     1    -112.158  37.667 -14.053  1.00  0.00     0.000 C 
BRANCH  21  22
ATOM     22  C   UNL     1    -110.910  37.798 -14.944  1.00  0.00    -0.000 C 
BRANCH  22  23
ATOM     23  C   UNL     1    -110.825  39.159 -15.652  1.00  0.00    -0.000 C 
BRANCH  23  24
ATOM     24  C   UNL     1    -109.462  39.843 -15.450  1.00  0.00    -0.000 C 
BRANCH  24  25
ATOM     25  C   UNL     1    -109.291  40.434 -14.039  1.00  0.00    -0.000 C 
BRANCH  25  26
ATOM     26  C   UNL     1    -110.599  40.881 -13.353  1.00  0.00    -0.000 C 
BRANCH  26  27
ATOM     27  C   UNL     1    -111.008  42.345 -13.608  1.00  0.00    -0.000 C 
BRANCH  27  28
ATOM     28  C   UNL     1    -112.508  42.564 -13.871  1.00  0.00    -0.000 C 
BRANCH  28  29
ATOM     29  C   UNL     1    -112.953  42.047 -15.247  1.00  0.00    -0.003 C 
ATOM     30  C   UNL     1    -114.022  40.967 -15.106  1.00  0.00     0.004 C 
ENDBRANCH  28  29
ENDBRANCH  27  28
ENDBRANCH  26  27
ENDBRANCH  25  26
ENDBRANCH  24  25
ENDBRANCH  23  24
ENDBRANCH  22  23
ENDBRANCH  21  22
ENDBRANCH  20  21
ENDBRANCH  19  20
ENDBRANCH  18  19
ENDBRANCH  17  18
ENDBRANCH   1  17
TORSDOF 26
ENDMDL
MODEL 8
REMARK VINA RESULT:    -3.008      1.532      7.201
REMARK INTER + INTRA:         -12.051
REMARK INTER:                  -7.713
REMARK INTRA:                  -4.338
REMARK UNBOUND:                -4.471
REMARK SMILES CCCCCCCCCCCCCCCCCCCCCCCCCCCC(=O)[O-]
REMARK SMILES IDX 15 1 16 2 17 3 18 4 19 5 20 6 21 7 22 8 23 9 24 10 25 11
REMARK SMILES IDX 26 12 27 13 28 14 29 15 30 16 14 17 13 18 12 19 11 20 10 21
REMARK SMILES IDX 9 22 8 23 7 24 6 25 5 26 4 27 3 28 2 29 1 30
REMARK H PARENT
REMARK Flexibility Score: inf
ROOT
ATOM      1  C   UNL     1    -114.870  39.500  -9.210  1.00  0.00     0.000 C 
ENDROOT
BRANCH   1   2
ATOM      2  C   UNL     1    -114.296  39.118 -10.586  1.00  0.00     0.000 C 
BRANCH   2   3
ATOM      3  C   UNL     1    -115.319  39.285 -11.721  1.00  0.00     0.000 C 
BRANCH   3   4
ATOM      4  C   UNL     1    -114.739  38.947 -13.106  1.00  0.00     0.000 C 
BRANCH   4   5
ATOM      5  C   UNL     1    -113.308  38.370 -13.099  1.00  0.00     0.000 C 
BRANCH   5   6
ATOM      6  C   UNL     1    -112.854  37.720 -14.421  1.00  0.00     0.000 C 
BRANCH   6   7
ATOM      7  C   UNL     1    -111.347  37.825 -14.714  1.00  0.00     0.000 C 
BRANCH   7   8
ATOM      8  C   UNL     1    -110.725  39.125 -14.174  1.00  0.00     0.000 C 
BRANCH   8   9
ATOM      9  C   UNL     1    -110.823  40.283 -15.183  1.00  0.00     0.000 C 
BRANCH   9  10
ATOM     10  C   UNL     1    -111.631  41.473 -14.635  1.00  0.00     0.000 C 
BRANCH  10  11
ATOM     11  C   UNL     1    -111.229  41.860 -13.200  1.00  0.00     0.000 C 
BRANCH  11  12
ATOM     12  C   UNL     1    -112.353  41.744 -12.151  1.00  0.00     0.006 C 
BRANCH  12  13
ATOM     13  C   UNL     1    -112.383  42.883 -11.118  1.00  0.00     0.053 C 
BRANCH  13  14
ATOM     14  C   UNL     1    -113.674  42.921 -10.360  1.00  0.00     0.041 C 
ATOM     15  O   UNL     1    -113.672  43.132  -9.118  1.00  0.00    -0.550 OA
ATOM     16  O   UNL     1    -114.877  42.696 -11.017  1.00  0.00    -0.550 OA
ENDBRANCH  13  14
ENDBRANCH  12  13
ENDBRANCH  11  12
ENDBRANCH  10  11
ENDBRANCH   9  10
ENDBRANCH   8   9
ENDBRANCH   7   8
ENDBRANCH   6   7
ENDBRANCH   5   6
ENDBRANCH   4   5
ENDBRANCH   3   4
ENDBRANCH   2   3
ENDBRANCH   1   2
BRANCH   1  17
ATOM     17  C   UNL     1    -115.832  38.466  -8.590  1.00  0.00     0.000 C 
BRANCH  17  18
ATOM     18  C   UNL     1    -115.445  36.994  -8.818  1.00  0.00     0.000 C 
BRANCH  18  19
ATOM     19  C   UNL     1    -116.021  36.054  -7.748  1.00  0.00     0.000 C 
BRANCH  19  20
ATOM     20  C   UNL     1    -115.091  34.856  -7.507  1.00  0.00     0.000 C 
BRANCH  20  21
ATOM     21  C   UNL     1    -115.096  33.860  -8.677  1.00  0.00     0.000 C 
BRANCH  21  22
ATOM     22  C   UNL     1    -116.518  33.509  -9.150  1.00  0.00    -0.000 C 
BRANCH  22  23
ATOM     23  C   UNL     1    -116.697  33.670 -10.668  1.00  0.00    -0.000 C 
BRANCH  23  24
ATOM     24  C   UNL     1    -115.442  34.236 -11.352  1.00  0.00    -0.000 C 
BRANCH  24  25
ATOM     25  C   UNL     1    -115.732  35.501 -12.182  1.00  0.00    -0.000 C 
BRANCH  25  26
ATOM     26  C   UNL     1    -115.658  35.312 -13.711  1.00  0.00    -0.000 C 
BRANCH  26  27
ATOM     27  C   UNL     1    -114.520  34.398 -14.207  1.00  0.00    -0.000 C 
BRANCH  27  28
ATOM     28  C   UNL     1    -114.970  33.218 -15.086  1.00  0.00    -0.000 C 
BRANCH  28  29
ATOM     29  C   UNL     1    -116.257  32.554 -14.577  1.00  0.00    -0.003 C 
ATOM     30  C   UNL     1    -115.940  31.374 -13.663  1.00  0.00     0.004 C 
ENDBRANCH  28  29
ENDBRANCH  27  28
ENDBRANCH  26  27
ENDBRANCH  25  26
ENDBRANCH  24  25
ENDBRANCH  23  24
ENDBRANCH  22  23
ENDBRANCH  21  22
ENDBRANCH  20  21
ENDBRANCH  19  20
ENDBRANCH  18  19
ENDBRANCH  17  18
ENDBRANCH   1  17
TORSDOF 26
ENDMDL
MODEL 9
REMARK VINA RESULT:    -2.990      1.885      6.036
REMARK INTER + INTRA:         -12.005
REMARK INTER:                  -7.335
REMARK INTRA:                  -4.669
REMARK UNBOUND:                -4.471
REMARK SMILES CCCCCCCCCCCCCCCCCCCCCCCCCCCC(=O)[O-]
REMARK SMILES IDX 15 1 16 2 17 3 18 4 19 5 20 6 21 7 22 8 23 9 24 10 25 11
REMARK SMILES IDX 26 12 27 13 28 14 29 15 30 16 14 17 13 18 12 19 11 20 10 21
REMARK SMILES IDX 9 22 8 23 7 24 6 25 5 26 4 27 3 28 2 29 1 30
REMARK H PARENT
REMARK Flexibility Score: inf
ROOT
ATOM      1  C   UNL     1    -116.599  33.671  -9.445  1.00  0.00     0.000 C 
ENDROOT
BRANCH   1   2
ATOM      2  C   UNL     1    -116.926  34.398 -10.761  1.00  0.00     0.000 C 
BRANCH   2   3
ATOM      3  C   UNL     1    -115.686  35.032 -11.412  1.00  0.00     0.000 C 
BRANCH   3   4
ATOM      4  C   UNL     1    -115.366  34.440 -12.796  1.00  0.00     0.000 C 
BRANCH   4   5
ATOM      5  C   UNL     1    -114.931  35.463 -13.866  1.00  0.00     0.000 C 
BRANCH   5   6
ATOM      6  C   UNL     1    -115.220  36.938 -13.523  1.00  0.00     0.000 C 
BRANCH   6   7
ATOM      7  C   UNL     1    -114.090  37.921 -13.876  1.00  0.00     0.000 C 
BRANCH   7   8
ATOM      8  C   UNL     1    -112.917  37.242 -14.607  1.00  0.00     0.000 C 
BRANCH   8   9
ATOM      9  C   UNL     1    -111.569  37.918 -14.304  1.00  0.00     0.000 C 
BRANCH   9  10
ATOM     10  C   UNL     1    -111.615  38.773 -13.025  1.00  0.00     0.000 C 
BRANCH  10  11
ATOM     11  C   UNL     1    -110.526  39.861 -12.993  1.00  0.00     0.000 C 
BRANCH  11  12
ATOM     12  C   UNL     1    -110.033  40.335 -14.375  1.00  0.00     0.006 C 
BRANCH  12  13
ATOM     13  C   UNL     1    -110.305  41.818 -14.676  1.00  0.00     0.053 C 
BRANCH  13  14
ATOM     14  C   UNL     1    -111.608  42.019 -15.386  1.00  0.00     0.041 C 
ATOM     15  O   UNL     1    -112.207  41.036 -15.899  1.00  0.00    -0.550 OA
ATOM     16  O   UNL     1    -112.149  43.293 -15.506  1.00  0.00    -0.550 OA
ENDBRANCH  13  14
ENDBRANCH  12  13
ENDBRANCH  11  12
ENDBRANCH  10  11
ENDBRANCH   9  10
ENDBRANCH   8   9
ENDBRANCH   7   8
ENDBRANCH   6   7
ENDBRANCH   5   6
ENDBRANCH   4   5
ENDBRANCH   3   4
ENDBRANCH   2   3
ENDBRANCH   1   2
BRANCH   1  17
ATOM     17  C   UNL     1    -115.185  33.932  -8.885  1.00  0.00     0.000 C 
BRANCH  17  18
ATOM     18  C   UNL     1    -115.121  34.917  -7.704  1.00  0.00     0.000 C 
BRANCH  18  19
ATOM     19  C   UNL     1    -116.507  35.256  -7.136  1.00  0.00     0.000 C 
BRANCH  19  20
ATOM     20  C   UNL     1    -116.725  36.775  -7.081  1.00  0.00     0.000 C 
BRANCH  20  21
ATOM     21  C   UNL     1    -115.987  37.518  -8.205  1.00  0.00     0.000 C 
BRANCH  21  22
ATOM     22  C   UNL     1    -116.931  37.976  -9.331  1.00  0.00    -0.000 C 
BRANCH  22  23
ATOM     23  C   UNL     1    -116.178  38.561 -10.537  1.00  0.00    -0.000 C 
BRANCH  23  24
ATOM     24  C   UNL     1    -114.672  38.722 -10.270  1.00  0.00    -0.000 C 
BRANCH  24  25
ATOM     25  C   UNL     1    -114.188  40.175 -10.424  1.00  0.00    -0.000 C 
BRANCH  25  26
ATOM     26  C   UNL     1    -114.857  40.972 -11.563  1.00  0.00    -0.000 C 
BRANCH  26  27
ATOM     27  C   UNL     1    -113.886  41.696 -12.517  1.00  0.00    -0.000 C 
BRANCH  27  28
ATOM     28  C   UNL     1    -112.720  42.424 -11.828  1.00  0.00    -0.000 C 
BRANCH  28  29
ATOM     29  C   UNL     1    -112.993  43.921 -11.616  1.00  0.00    -0.003 C 
ATOM     30  C   UNL     1    -113.963  44.454 -12.667  1.00  0.00     0.004 C 
ENDBRANCH  28  29
ENDBRANCH  27  28
ENDBRANCH  26  27
ENDBRANCH  25  26
ENDBRANCH  24  25
ENDBRANCH  23  24
ENDBRANCH  22  23
ENDBRANCH  21  22
ENDBRANCH  20  21
ENDBRANCH  19  20
ENDBRANCH  18  19
ENDBRANCH  17  18
ENDBRANCH   1  17
TORSDOF 26
ENDMDL
