MODEL 1
REMARK VINA RESULT:    -2.962      0.000      0.000
REMARK INTER + INTRA:          -3.340
REMARK INTER:                  -3.222
REMARK INTRA:                  -0.118
REMARK UNBOUND:                -0.118
REMARK SMILES C=C(C)[C@@H]1CC[C@H](C)C[C@H]1O
REMARK SMILES IDX 8 1 7 2 6 3 5 4 4 5 10 6 9 7 11 8 2 10 1 11 3 12
REMARK H PARENT 11 9
REMARK Flexibility Score: inf
ROOT
ATOM      1  C   UNL     1      39.013 -35.867  -9.670  1.00  0.00     0.008 C 
ATOM      2  C   UNL     1      38.631 -34.848 -10.755  1.00  0.00    -0.012 C 
ATOM      3  C   UNL     1      38.259 -35.530 -12.088  1.00  0.00     0.004 C 
ATOM      4  C   UNL     1      36.884 -36.210 -12.034  1.00  0.00     0.011 C 
ATOM      5  C   UNL     1      35.789 -35.217 -11.600  1.00  0.00     0.043 C 
ATOM      6  C   UNL     1      36.129 -34.573 -10.236  1.00  0.00     0.121 C 
ATOM      7  C   UNL     1      37.512 -33.893 -10.288  1.00  0.00     0.035 C 
ENDROOT
BRANCH   6   8
ATOM      8  O   UNL     1      35.151 -33.616  -9.918  1.00  0.00    -0.392 OA
ATOM      9  H   UNL     1      34.366 -34.113  -9.570  1.00  0.00     0.210 HD
ENDBRANCH   6   8
BRANCH   5  10
ATOM     10  C   UNL     1      34.419 -35.888 -11.580  1.00  0.00    -0.075 C 
ATOM     11  C   UNL     1      34.256 -37.124 -11.079  1.00  0.00     0.008 C 
ATOM     12  C   UNL     1      33.215 -35.165 -12.125  1.00  0.00     0.039 C 
ENDBRANCH   5  10
TORSDOF 2
ENDMDL
MODEL 2
REMARK VINA RESULT:    -2.538      1.504      2.089
REMARK INTER + INTRA:          -2.879
REMARK INTER:                  -2.874
REMARK INTRA:                  -0.005
REMARK UNBOUND:                -0.118
REMARK SMILES C=C(C)[C@@H]1CC[C@H](C)C[C@H]1O
REMARK SMILES IDX 8 1 7 2 6 3 5 4 4 5 10 6 9 7 11 8 2 10 1 11 3 12
REMARK H PARENT 11 9
REMARK Flexibility Score: inf
ROOT
ATOM      1  C   UNL     1      38.863 -32.756 -10.339  1.00  0.00     0.008 C 
ATOM      2  C   UNL     1      38.322 -33.169 -11.718  1.00  0.00    -0.012 C 
ATOM      3  C   UNL     1      38.759 -34.595 -12.110  1.00  0.00     0.004 C 
ATOM      4  C   UNL     1      38.003 -35.676 -11.325  1.00  0.00     0.011 C 
ATOM      5  C   UNL     1      36.478 -35.507 -11.473  1.00  0.00     0.043 C 
ATOM      6  C   UNL     1      36.028 -34.097 -11.026  1.00  0.00     0.121 C 
ATOM      7  C   UNL     1      36.790 -33.011 -11.812  1.00  0.00     0.035 C 
ENDROOT
BRANCH   6   8
ATOM      8  O   UNL     1      34.649 -33.957 -11.255  1.00  0.00    -0.392 OA
ATOM      9  H   UNL     1      34.200 -34.062 -10.376  1.00  0.00     0.210 HD
ENDBRANCH   6   8
BRANCH   5  10
ATOM     10  C   UNL     1      35.731 -36.602 -10.719  1.00  0.00    -0.075 C 
ATOM     11  C   UNL     1      34.588 -37.123 -11.195  1.00  0.00     0.008 C 
ATOM     12  C   UNL     1      36.274 -37.125  -9.414  1.00  0.00     0.039 C 
ENDBRANCH   5  10
TORSDOF 2
ENDMDL
MODEL 3
REMARK VINA RESULT:    -2.069      1.539      2.174
REMARK INTER + INTRA:          -2.368
REMARK INTER:                  -2.884
REMARK INTRA:                   0.516
REMARK UNBOUND:                -0.118
REMARK SMILES C=C(C)[C@@H]1CC[C@H](C)C[C@H]1O
REMARK SMILES IDX 8 1 7 2 6 3 5 4 4 5 10 6 9 7 11 8 2 10 1 11 3 12
REMARK H PARENT 11 9
REMARK Flexibility Score: inf
ROOT
ATOM      1  C   UNL     1      38.659 -36.569  -8.832  1.00  0.00     0.008 C 
ATOM      2  C   UNL     1      38.972 -36.407 -10.328  1.00  0.00    -0.012 C 
ATOM      3  C   UNL     1      37.938 -37.125 -11.219  1.00  0.00     0.004 C 
ATOM      4  C   UNL     1      36.594 -36.385 -11.269  1.00  0.00     0.011 C 
ATOM      5  C   UNL     1      36.781 -34.921 -11.713  1.00  0.00     0.043 C 
ATOM      6  C   UNL     1      37.773 -34.181 -10.787  1.00  0.00     0.121 C 
ATOM      7  C   UNL     1      39.122 -34.926 -10.734  1.00  0.00     0.035 C 
ENDROOT
BRANCH   6   8
ATOM      8  O   UNL     1      37.978 -32.879 -11.274  1.00  0.00    -0.392 OA
ATOM      9  H   UNL     1      37.097 -32.548 -11.588  1.00  0.00     0.210 HD
ENDBRANCH   6   8
BRANCH   5  10
ATOM     10  C   UNL     1      35.440 -34.200 -11.793  1.00  0.00    -0.075 C 
ATOM     11  C   UNL     1      35.369 -32.886 -12.067  1.00  0.00     0.008 C 
ATOM     12  C   UNL     1      34.158 -34.959 -11.567  1.00  0.00     0.039 C 
ENDBRANCH   5  10
TORSDOF 2
ENDMDL
MODEL 4
REMARK VINA RESULT:    -1.701      1.968      2.936
REMARK INTER + INTRA:          -1.968
REMARK INTER:                  -2.290
REMARK INTRA:                   0.322
REMARK UNBOUND:                -0.118
REMARK SMILES C=C(C)[C@@H]1CC[C@H](C)C[C@H]1O
REMARK SMILES IDX 8 1 7 2 6 3 5 4 4 5 10 6 9 7 11 8 2 10 1 11 3 12
REMARK H PARENT 11 9
REMARK Flexibility Score: inf
ROOT
ATOM      1  C   UNL     1      36.848 -37.079  -8.735  1.00  0.00     0.008 C 
ATOM      2  C   UNL     1      37.873 -36.952  -9.873  1.00  0.00    -0.012 C 
ATOM      3  C   UNL     1      37.212 -37.050 -11.264  1.00  0.00     0.004 C 
ATOM      4  C   UNL     1      36.426 -35.784 -11.630  1.00  0.00     0.011 C 
ATOM      5  C   UNL     1      37.316 -34.529 -11.531  1.00  0.00     0.043 C 
ATOM      6  C   UNL     1      37.935 -34.395 -10.121  1.00  0.00     0.121 C 
ATOM      7  C   UNL     1      38.721 -35.669  -9.751  1.00  0.00     0.035 C 
ENDROOT
BRANCH   6   8
ATOM      8  O   UNL     1      38.802 -33.289 -10.099  1.00  0.00    -0.392 OA
ATOM      9  H   UNL     1      39.152 -33.181 -11.022  1.00  0.00     0.210 HD
ENDBRANCH   6   8
BRANCH   5  10
ATOM     10  C   UNL     1      36.540 -33.277 -11.928  1.00  0.00    -0.075 C 
ATOM     11  C   UNL     1      37.164 -32.103 -12.125  1.00  0.00     0.008 C 
ATOM     12  C   UNL     1      35.046 -33.341 -12.110  1.00  0.00     0.039 C 
ENDBRANCH   5  10
TORSDOF 2
ENDMDL
MODEL 5
REMARK VINA RESULT:    -1.396      1.895      3.693
REMARK INTER + INTRA:          -1.637
REMARK INTER:                  -1.976
REMARK INTRA:                   0.339
REMARK UNBOUND:                -0.118
REMARK SMILES C=C(C)[C@@H]1CC[C@H](C)C[C@H]1O
REMARK SMILES IDX 8 1 7 2 6 3 5 4 4 5 10 6 9 7 11 8 2 10 1 11 3 12
REMARK H PARENT 11 9
REMARK Flexibility Score: inf
ROOT
ATOM      1  C   UNL     1      35.501 -32.550 -11.062  1.00  0.00     0.008 C 
ATOM      2  C   UNL     1      36.369 -33.411 -11.994  1.00  0.00    -0.012 C 
ATOM      3  C   UNL     1      37.853 -33.410 -11.572  1.00  0.00     0.004 C 
ATOM      4  C   UNL     1      38.105 -34.253 -10.314  1.00  0.00     0.011 C 
ATOM      5  C   UNL     1      37.585 -35.693 -10.497  1.00  0.00     0.043 C 
ATOM      6  C   UNL     1      36.084 -35.701 -10.863  1.00  0.00     0.121 C 
ATOM      7  C   UNL     1      35.829 -34.851 -12.124  1.00  0.00     0.035 C 
ENDROOT
BRANCH   6   8
ATOM      8  O   UNL     1      35.672 -37.023 -11.101  1.00  0.00    -0.392 OA
ATOM      9  H   UNL     1      35.884 -37.223 -12.050  1.00  0.00     0.210 HD
ENDBRANCH   6   8
BRANCH   5  10
ATOM     10  C   UNL     1      37.868 -36.536  -9.257  1.00  0.00    -0.075 C 
ATOM     11  C   UNL     1      39.125 -36.780  -8.851  1.00  0.00     0.008 C 
ATOM     12  C   UNL     1      36.726 -37.112  -8.460  1.00  0.00     0.039 C 
ENDBRANCH   5  10
TORSDOF 2
ENDMDL
MODEL 6
REMARK VINA RESULT:    -0.575     19.336     20.908
REMARK INTER + INTRA:          -0.744
REMARK INTER:                  -0.863
REMARK INTRA:                   0.119
REMARK UNBOUND:                -0.118
REMARK SMILES C=C(C)[C@@H]1CC[C@H](C)C[C@H]1O
REMARK SMILES IDX 8 1 7 2 6 3 5 4 4 5 10 6 9 7 11 8 2 10 1 11 3 12
REMARK H PARENT 11 9
REMARK Flexibility Score: inf
ROOT
ATOM      1  C   UNL     1      37.850 -24.766   3.093  1.00  0.00     0.008 C 
ATOM      2  C   UNL     1      39.046 -24.365   3.972  1.00  0.00    -0.012 C 
ATOM      3  C   UNL     1      39.125 -22.839   4.184  1.00  0.00     0.004 C 
ATOM      4  C   UNL     1      38.051 -22.326   5.152  1.00  0.00     0.011 C 
ATOM      5  C   UNL     1      38.114 -23.072   6.499  1.00  0.00     0.043 C 
ATOM      6  C   UNL     1      37.976 -24.599   6.297  1.00  0.00     0.121 C 
ATOM      7  C   UNL     1      39.053 -25.114   5.321  1.00  0.00     0.035 C 
ENDROOT
BRANCH   6   8
ATOM      8  O   UNL     1      38.122 -25.245   7.536  1.00  0.00    -0.392 OA
ATOM      9  H   UNL     1      38.950 -24.888   7.950  1.00  0.00     0.210 HD
ENDBRANCH   6   8
BRANCH   5  10
ATOM     10  C   UNL     1      37.066 -22.536   7.470  1.00  0.00    -0.075 C 
ATOM     11  C   UNL     1      37.249 -21.376   8.123  1.00  0.00     0.008 C 
ATOM     12  C   UNL     1      35.795 -23.308   7.711  1.00  0.00     0.039 C 
ENDBRANCH   5  10
TORSDOF 2
ENDMDL
MODEL 7
REMARK VINA RESULT:    -0.211     19.304     20.892
REMARK INTER + INTRA:          -0.348
REMARK INTER:                  -0.892
REMARK INTRA:                   0.544
REMARK UNBOUND:                -0.118
REMARK SMILES C=C(C)[C@@H]1CC[C@H](C)C[C@H]1O
REMARK SMILES IDX 8 1 7 2 6 3 5 4 4 5 10 6 9 7 11 8 2 10 1 11 3 12
REMARK H PARENT 11 9
REMARK Flexibility Score: inf
ROOT
ATOM      1  C   UNL     1      36.371 -22.537   7.967  1.00  0.00     0.008 C 
ATOM      2  C   UNL     1      37.800 -22.136   7.567  1.00  0.00    -0.012 C 
ATOM      3  C   UNL     1      38.855 -23.113   8.125  1.00  0.00     0.004 C 
ATOM      4  C   UNL     1      38.864 -24.455   7.379  1.00  0.00     0.011 C 
ATOM      5  C   UNL     1      39.053 -24.248   5.864  1.00  0.00     0.043 C 
ATOM      6  C   UNL     1      37.962 -23.315   5.289  1.00  0.00     0.121 C 
ATOM      7  C   UNL     1      37.950 -21.968   6.040  1.00  0.00     0.035 C 
ENDROOT
BRANCH   6   8
ATOM      8  O   UNL     1      38.219 -23.087   3.927  1.00  0.00    -0.392 OA
ATOM      9  H   UNL     1      39.108 -23.482   3.732  1.00  0.00     0.210 HD
ENDBRANCH   6   8
BRANCH   5  10
ATOM     10  C   UNL     1      39.094 -25.585   5.131  1.00  0.00    -0.075 C 
ATOM     11  C   UNL     1      39.123 -26.748   5.803  1.00  0.00     0.008 C 
ATOM     12  C   UNL     1      39.100 -25.621   3.625  1.00  0.00     0.039 C 
ENDBRANCH   5  10
TORSDOF 2
ENDMDL
