MODEL 1
REMARK VINA RESULT:    -3.337      0.000      0.000
REMARK INTER + INTRA:          -4.040
REMARK INTER:                  -3.922
REMARK INTRA:                  -0.118
REMARK UNBOUND:                -0.118
REMARK SMILES O=C([O-])CCC(=O)[O-]
REMARK SMILES IDX 4 1 2 2 1 3 3 4 5 5 6 6 7 7 8 8
REMARK H PARENT
REMARK Flexibility Score: inf
ROOT
ATOM      1  C   UNL     1     123.580 128.069 154.470  1.00  0.00     0.059 C 
ENDROOT
BRANCH   1   2
ATOM      2  C   UNL     1     122.151 128.342 154.121  1.00  0.00     0.042 C 
ATOM      3  O   UNL     1     121.574 129.367 154.568  1.00  0.00    -0.550 OA
ATOM      4  O   UNL     1     121.442 127.437 153.340  1.00  0.00    -0.550 OA
ENDBRANCH   1   2
BRANCH   1   5
ATOM      5  C   UNL     1     123.677 127.397 155.840  1.00  0.00     0.059 C 
BRANCH   5   6
ATOM      6  C   UNL     1     124.101 125.970 155.694  1.00  0.00     0.042 C 
ATOM      7  O   UNL     1     125.225 125.596 156.124  1.00  0.00    -0.550 OA
ATOM      8  O   UNL     1     123.278 125.063 155.040  1.00  0.00    -0.550 OA
ENDBRANCH   5   6
ENDBRANCH   1   5
TORSDOF 3
ENDMDL
MODEL 2
REMARK VINA RESULT:    -3.288      0.173      3.878
REMARK INTER + INTRA:          -3.982
REMARK INTER:                  -3.879
REMARK INTRA:                  -0.103
REMARK UNBOUND:                -0.118
REMARK SMILES O=C([O-])CCC(=O)[O-]
REMARK SMILES IDX 4 1 2 2 1 3 3 4 5 5 6 6 7 7 8 8
REMARK H PARENT
REMARK Flexibility Score: inf
ROOT
ATOM      1  C   UNL     1     123.668 127.240 155.808  1.00  0.00     0.059 C 
ENDROOT
BRANCH   1   2
ATOM      2  C   UNL     1     124.159 125.840 155.612  1.00  0.00     0.042 C 
ATOM      3  O   UNL     1     123.439 124.993 155.022  1.00  0.00    -0.550 OA
ATOM      4  O   UNL     1     125.393 125.459 156.125  1.00  0.00    -0.550 OA
ENDBRANCH   1   2
BRANCH   1   5
ATOM      5  C   UNL     1     123.662 127.997 154.479  1.00  0.00     0.059 C 
BRANCH   5   6
ATOM      6  C   UNL     1     122.263 128.341 154.080  1.00  0.00     0.042 C 
ATOM      7  O   UNL     1     121.674 129.320 154.612  1.00  0.00    -0.550 OA
ATOM      8  O   UNL     1     121.589 127.554 153.155  1.00  0.00    -0.550 OA
ENDBRANCH   5   6
ENDBRANCH   1   5
TORSDOF 3
ENDMDL
MODEL 3
REMARK VINA RESULT:    -3.275      6.949      7.956
REMARK INTER + INTRA:          -3.967
REMARK INTER:                  -3.823
REMARK INTRA:                  -0.144
REMARK UNBOUND:                -0.118
REMARK SMILES O=C([O-])CCC(=O)[O-]
REMARK SMILES IDX 4 1 2 2 1 3 3 4 5 5 6 6 7 7 8 8
REMARK H PARENT
REMARK Flexibility Score: inf
ROOT
ATOM      1  C   UNL     1     123.090 128.749 149.072  1.00  0.00     0.059 C 
ENDROOT
BRANCH   1   2
ATOM      2  C   UNL     1     123.260 127.905 147.848  1.00  0.00     0.042 C 
ATOM      3  O   UNL     1     124.409 127.556 147.473  1.00  0.00    -0.550 OA
ATOM      4  O   UNL     1     122.149 127.544 147.095  1.00  0.00    -0.550 OA
ENDBRANCH   1   2
BRANCH   1   5
ATOM      5  C   UNL     1     124.095 129.903 149.070  1.00  0.00     0.059 C 
BRANCH   5   6
ATOM      6  C   UNL     1     123.627 131.002 148.171  1.00  0.00     0.042 C 
ATOM      7  O   UNL     1     124.455 131.646 147.473  1.00  0.00    -0.550 OA
ATOM      8  O   UNL     1     122.283 131.350 148.138  1.00  0.00    -0.550 OA
ENDBRANCH   5   6
ENDBRANCH   1   5
TORSDOF 3
ENDMDL
MODEL 4
REMARK VINA RESULT:    -3.261      7.003      8.138
REMARK INTER + INTRA:          -3.951
REMARK INTER:                  -3.797
REMARK INTRA:                  -0.154
REMARK UNBOUND:                -0.118
REMARK SMILES O=C([O-])CCC(=O)[O-]
REMARK SMILES IDX 4 1 2 2 1 3 3 4 5 5 6 6 7 7 8 8
REMARK H PARENT
REMARK Flexibility Score: inf
ROOT
ATOM      1  C   UNL     1     123.203 128.883 149.048  1.00  0.00     0.059 C 
ENDROOT
BRANCH   1   2
ATOM      2  C   UNL     1     123.430 128.043 147.830  1.00  0.00     0.042 C 
ATOM      3  O   UNL     1     124.600 127.753 147.470  1.00  0.00    -0.550 OA
ATOM      4  O   UNL     1     122.349 127.621 147.066  1.00  0.00    -0.550 OA
ENDBRANCH   1   2
BRANCH   1   5
ATOM      5  C   UNL     1     124.068 130.144 148.997  1.00  0.00     0.059 C 
BRANCH   5   6
ATOM      6  C   UNL     1     123.478 131.146 148.057  1.00  0.00     0.042 C 
ATOM      7  O   UNL     1     122.244 131.400 148.094  1.00  0.00    -0.550 OA
ATOM      8  O   UNL     1     124.280 131.764 147.106  1.00  0.00    -0.550 OA
ENDBRANCH   5   6
ENDBRANCH   1   5
TORSDOF 3
ENDMDL
MODEL 5
REMARK VINA RESULT:    -3.251      6.943      7.508
REMARK INTER + INTRA:          -3.939
REMARK INTER:                  -3.797
REMARK INTRA:                  -0.142
REMARK UNBOUND:                -0.118
REMARK SMILES O=C([O-])CCC(=O)[O-]
REMARK SMILES IDX 4 1 2 2 1 3 3 4 5 5 6 6 7 7 8 8
REMARK H PARENT
REMARK Flexibility Score: inf
ROOT
ATOM      1  C   UNL     1     124.056 130.003 149.022  1.00  0.00     0.059 C 
ENDROOT
BRANCH   1   2
ATOM      2  C   UNL     1     123.487 131.078 148.150  1.00  0.00     0.042 C 
ATOM      3  O   UNL     1     122.266 131.371 148.222  1.00  0.00    -0.550 OA
ATOM      4  O   UNL     1     124.298 131.722 147.224  1.00  0.00    -0.550 OA
ENDBRANCH   1   2
BRANCH   1   5
ATOM      5  C   UNL     1     123.112 128.801 149.074  1.00  0.00     0.059 C 
BRANCH   5   6
ATOM      6  C   UNL     1     123.284 127.947 147.859  1.00  0.00     0.042 C 
ATOM      7  O   UNL     1     124.437 127.603 147.484  1.00  0.00    -0.550 OA
ATOM      8  O   UNL     1     122.177 127.569 147.111  1.00  0.00    -0.550 OA
ENDBRANCH   5   6
ENDBRANCH   1   5
TORSDOF 3
ENDMDL
MODEL 6
REMARK VINA RESULT:    -3.250      6.938      7.504
REMARK INTER + INTRA:          -3.938
REMARK INTER:                  -3.782
REMARK INTRA:                  -0.156
REMARK UNBOUND:                -0.118
REMARK SMILES O=C([O-])CCC(=O)[O-]
REMARK SMILES IDX 4 1 2 2 1 3 3 4 5 5 6 6 7 7 8 8
REMARK H PARENT
REMARK Flexibility Score: inf
ROOT
ATOM      1  C   UNL     1     124.045 130.008 149.052  1.00  0.00     0.059 C 
ENDROOT
BRANCH   1   2
ATOM      2  C   UNL     1     123.513 131.058 148.128  1.00  0.00     0.042 C 
ATOM      3  O   UNL     1     124.288 131.662 147.343  1.00  0.00    -0.550 OA
ATOM      4  O   UNL     1     122.168 131.403 148.170  1.00  0.00    -0.550 OA
ENDBRANCH   1   2
BRANCH   1   5
ATOM      5  C   UNL     1     123.107 128.800 149.087  1.00  0.00     0.059 C 
BRANCH   5   6
ATOM      6  C   UNL     1     123.282 127.967 147.858  1.00  0.00     0.042 C 
ATOM      7  O   UNL     1     124.430 127.575 147.515  1.00  0.00    -0.550 OA
ATOM      8  O   UNL     1     122.186 127.661 147.062  1.00  0.00    -0.550 OA
ENDBRANCH   5   6
ENDBRANCH   1   5
TORSDOF 3
ENDMDL
MODEL 7
REMARK VINA RESULT:    -3.192      6.583      7.351
REMARK INTER + INTRA:          -3.869
REMARK INTER:                  -3.764
REMARK INTRA:                  -0.105
REMARK UNBOUND:                -0.118
REMARK SMILES O=C([O-])CCC(=O)[O-]
REMARK SMILES IDX 4 1 2 2 1 3 3 4 5 5 6 6 7 7 8 8
REMARK H PARENT
REMARK Flexibility Score: inf
ROOT
ATOM      1  C   UNL     1     122.949 129.132 149.498  1.00  0.00     0.059 C 
ENDROOT
BRANCH   1   2
ATOM      2  C   UNL     1     123.079 130.557 149.060  1.00  0.00     0.042 C 
ATOM      3  O   UNL     1     122.053 131.268 148.902  1.00  0.00    -0.550 OA
ATOM      4  O   UNL     1     124.334 131.085 148.779  1.00  0.00    -0.550 OA
ENDBRANCH   1   2
BRANCH   1   5
ATOM      5  C   UNL     1     123.304 128.185 148.351  1.00  0.00     0.059 C 
BRANCH   5   6
ATOM      6  C   UNL     1     122.072 127.779 147.608  1.00  0.00     0.042 C 
ATOM      7  O   UNL     1     121.606 128.519 146.700  1.00  0.00    -0.550 OA
ATOM      8  O   UNL     1     121.409 126.607 147.947  1.00  0.00    -0.550 OA
ENDBRANCH   5   6
ENDBRANCH   1   5
TORSDOF 3
ENDMDL
MODEL 8
REMARK VINA RESULT:    -3.116      6.989      8.157
REMARK INTER + INTRA:          -3.780
REMARK INTER:                  -3.598
REMARK INTRA:                  -0.182
REMARK UNBOUND:                -0.118
REMARK SMILES O=C([O-])CCC(=O)[O-]
REMARK SMILES IDX 4 1 2 2 1 3 3 4 5 5 6 6 7 7 8 8
REMARK H PARENT
REMARK Flexibility Score: inf
ROOT
ATOM      1  C   UNL     1     123.673 128.570 147.290  1.00  0.00     0.059 C 
ENDROOT
BRANCH   1   2
ATOM      2  C   UNL     1     122.774 129.229 146.291  1.00  0.00     0.042 C 
ATOM      3  O   UNL     1     123.260 129.949 145.380  1.00  0.00    -0.550 OA
ATOM      4  O   UNL     1     121.396 129.086 146.395  1.00  0.00    -0.550 OA
ENDBRANCH   1   2
BRANCH   1   5
ATOM      5  C   UNL     1     123.230 128.910 148.714  1.00  0.00     0.059 C 
BRANCH   5   6
ATOM      6  C   UNL     1     123.353 130.379 148.964  1.00  0.00     0.042 C 
ATOM      7  O   UNL     1     122.344 131.050 149.309  1.00  0.00    -0.550 OA
ATOM      8  O   UNL     1     124.571 131.018 148.770  1.00  0.00    -0.550 OA
ENDBRANCH   5   6
ENDBRANCH   1   5
TORSDOF 3
ENDMDL
MODEL 9
REMARK VINA RESULT:    -1.555      1.282      3.557
REMARK INTER + INTRA:          -1.946
REMARK INTER:                  -1.833
REMARK INTRA:                  -0.113
REMARK UNBOUND:                -0.118
REMARK SMILES O=C([O-])CCC(=O)[O-]
REMARK SMILES IDX 4 1 2 2 1 3 3 4 5 5 6 6 7 7 8 8
REMARK H PARENT
REMARK Flexibility Score: inf
ROOT
ATOM      1  C   UNL     1     123.482 127.987 155.618  1.00  0.00     0.059 C 
ENDROOT
BRANCH   1   2
ATOM      2  C   UNL     1     124.704 127.162 155.875  1.00  0.00     0.042 C 
ATOM      3  O   UNL     1     125.846 127.688 155.822  1.00  0.00    -0.550 OA
ATOM      4  O   UNL     1     124.583 125.801 156.125  1.00  0.00    -0.550 OA
ENDBRANCH   1   2
BRANCH   1   5
ATOM      5  C   UNL     1     123.145 127.993 154.126  1.00  0.00     0.059 C 
BRANCH   5   6
ATOM      6  C   UNL     1     121.883 127.231 153.872  1.00  0.00     0.042 C 
ATOM      7  O   UNL     1     121.753 126.057 154.311  1.00  0.00    -0.550 OA
ATOM      8  O   UNL     1     120.870 127.796 153.109  1.00  0.00    -0.550 OA
ENDBRANCH   5   6
ENDBRANCH   1   5
TORSDOF 3
ENDMDL
