MODEL 1
REMARK VINA RESULT:    -6.111      0.000      0.000
REMARK INTER + INTRA:         -11.573
REMARK INTER:                 -10.041
REMARK INTRA:                  -1.532
REMARK UNBOUND:                -1.532
REMARK SMILES COc1ccc([C@H]2CC(=O)c3c(O)cc(O[C@H]4O[C@@H](CO[C@H]5O[C@@H](C)[C@H](O)[C@@H](O)[C@H]5O)[C@H](O)[C@H](O)[C@@H]4O)cc3O2)cc1O
REMARK SMILES IDX 19 1 32 2 34 3 36 4 17 5 18 6 20 7 21 8 22 9 25 10 24 11
REMARK SMILES IDX 26 12 23 13 28 14 30 15 27 16 29 18 31 20 33 22 35 24 16 26
REMARK SMILES IDX 15 27 14 28 38 29 12 30 39 31 11 32 40 33 9 34 7 35 10 36
REMARK SMILES IDX 8 37 13 38 6 40 41 41 5 42 42 43 4 44 3 45 43 46 2 48 1 49
REMARK SMILES IDX 37 50
REMARK H PARENT 27 17 29 19 31 21 33 23 35 25 13 39 43 47 37 51
REMARK Flexibility Score: inf
ROOT
ATOM      1  C   UNL     1      57.090  94.465   3.597  1.00  0.00     0.180 C 
ATOM      2  C   UNL     1      57.358  94.978   5.033  1.00  0.00     0.177 C 
ATOM      3  C   UNL     1      56.191  95.838   5.549  1.00  0.00     0.180 C 
ATOM      4  C   UNL     1      54.858  95.117   5.327  1.00  0.00     0.214 C 
ATOM      5  C   UNL     1      54.725  94.712   3.844  1.00  0.00     0.339 C 
ATOM      6  O   UNL     1      55.801  93.875   3.434  1.00  0.00    -0.332 OA
ENDROOT
BRANCH   1   7
ATOM      7  C   UNL     1      57.424  95.513   2.505  1.00  0.00     0.198 C 
BRANCH   7   8
ATOM      8  O   UNL     1      58.806  95.821   2.493  1.00  0.00    -0.347 OA
BRANCH   8   9
ATOM      9  C   UNL     1      59.580  94.830   1.830  1.00  0.00     0.281 C 
ATOM     10  C   UNL     1      59.347  97.457   0.176  1.00  0.00     0.041 C 
ATOM     11  C   UNL     1      60.158  96.172  -0.065  1.00  0.00     0.150 C 
ATOM     12  C   UNL     1      61.644  96.274   0.361  1.00  0.00     0.174 C 
ATOM     13  O   UNL     1      59.505  95.004   0.423  1.00  0.00    -0.344 OA
ATOM     14  C   UNL     1      61.860  96.024   1.864  1.00  0.00     0.179 C 
ATOM     15  C   UNL     1      61.031  94.814   2.356  1.00  0.00     0.202 C 
BRANCH  12  16
ATOM     16  O   UNL     1      62.426  95.380  -0.396  1.00  0.00    -0.388 OA
ATOM     17  H   UNL     1      63.372  95.670  -0.337  1.00  0.00     0.211 HD
ENDBRANCH  12  16
BRANCH  14  18
ATOM     18  O   UNL     1      61.638  97.209   2.599  1.00  0.00    -0.387 OA
ATOM     19  H   UNL     1      60.781  97.156   3.091  1.00  0.00     0.211 HD
ENDBRANCH  14  18
BRANCH  15  20
ATOM     20  O   UNL     1      61.030  94.754   3.760  1.00  0.00    -0.385 OA
ATOM     21  H   UNL     1      61.393  93.864   4.010  1.00  0.00     0.211 HD
ENDBRANCH  15  20
ENDBRANCH   8   9
ENDBRANCH   7   8
ENDBRANCH   1   7
BRANCH   2  22
ATOM     22  O   UNL     1      57.565  93.875   5.879  1.00  0.00    -0.387 OA
ATOM     23  H   UNL     1      56.978  93.148   5.550  1.00  0.00     0.211 HD
ENDBRANCH   2  22
BRANCH   3  24
ATOM     24  O   UNL     1      56.361  96.108   6.916  1.00  0.00    -0.387 OA
ATOM     25  H   UNL     1      56.765  97.010   7.005  1.00  0.00     0.211 HD
ENDBRANCH   3  24
BRANCH   5  26
ATOM     26  O   UNL     1      54.626  95.848   2.982  1.00  0.00    -0.462 OA
BRANCH  26  27
ATOM     27  C   UNL     1      53.839  95.942   1.827  1.00  0.00     0.130 A 
ATOM     28  C   UNL     1      53.850  94.962   0.824  1.00  0.00     0.093 A 
ATOM     29  C   UNL     1      53.006  97.049   1.694  1.00  0.00     0.094 A 
ATOM     30  C   UNL     1      53.010  95.065  -0.291  1.00  0.00     0.133 A 
ATOM     31  C   UNL     1      52.104  97.133   0.630  1.00  0.00     0.138 A 
ATOM     32  C   UNL     1      52.079  96.138  -0.372  1.00  0.00     0.102 A 
ATOM     33  O   UNL     1      51.203  98.198   0.592  1.00  0.00    -0.484 OA
ATOM     34  C   UNL     1      51.041  96.271  -1.434  1.00  0.00     0.174 C 
ATOM     35  C   UNL     1      49.966  98.092  -0.100  1.00  0.00     0.211 C 
ATOM     36  O   UNL     1      50.867  95.378  -2.312  1.00  0.00    -0.294 OA
ATOM     37  C   UNL     1      50.194  97.515  -1.508  1.00  0.00     0.131 C 
BRANCH  30  38
ATOM     38  O   UNL     1      53.156  94.094  -1.287  1.00  0.00    -0.507 OA
ATOM     39  H   UNL     1      52.621  93.237  -1.329  1.00  0.00     0.293 HD
ENDBRANCH  30  38
BRANCH  35  40
ATOM     40  C   UNL     1      49.303  99.449  -0.143  1.00  0.00    -0.003 A 
ATOM     41  C   UNL     1      49.116 100.198   1.032  1.00  0.00     0.057 A 
ATOM     42  C   UNL     1      48.808  99.950  -1.356  1.00  0.00     0.011 A 
ATOM     43  C   UNL     1      48.484 101.448   0.986  1.00  0.00     0.158 A 
ATOM     44  C   UNL     1      48.167 101.189  -1.400  1.00  0.00     0.051 A 
ATOM     45  C   UNL     1      48.005 101.951  -0.230  1.00  0.00     0.160 A 
BRANCH  43  46
ATOM     46  O   UNL     1      48.331 102.204   2.149  1.00  0.00    -0.504 OA
ATOM     47  H   UNL     1      48.887 102.020   2.976  1.00  0.00     0.293 HD
ENDBRANCH  43  46
BRANCH  45  48
ATOM     48  O   UNL     1      47.375 103.205  -0.236  1.00  0.00    -0.493 OA
ATOM     49  C   UNL     1      46.725 103.777  -1.367  1.00  0.00     0.278 C 
ENDBRANCH  45  48
ENDBRANCH  35  40
ENDBRANCH  26  27
ENDBRANCH   5  26
BRANCH   4  50
ATOM     50  O   UNL     1      54.791  93.971   6.138  1.00  0.00    -0.384 OA
ATOM     51  H   UNL     1      55.615  93.966   6.698  1.00  0.00     0.211 HD
ENDBRANCH   4  50
TORSDOF 15
ENDMDL
MODEL 2
REMARK VINA RESULT:    -5.735      1.918     10.636
REMARK INTER + INTRA:         -10.955
REMARK INTER:                 -10.490
REMARK INTRA:                  -0.465
REMARK UNBOUND:                -1.532
REMARK SMILES COc1ccc([C@H]2CC(=O)c3c(O)cc(O[C@H]4O[C@@H](CO[C@H]5O[C@@H](C)[C@H](O)[C@@H](O)[C@H]5O)[C@H](O)[C@H](O)[C@@H]4O)cc3O2)cc1O
REMARK SMILES IDX 19 1 32 2 34 3 36 4 17 5 18 6 20 7 21 8 22 9 25 10 24 11
REMARK SMILES IDX 26 12 23 13 28 14 30 15 27 16 29 18 31 20 33 22 35 24 16 26
REMARK SMILES IDX 15 27 14 28 38 29 12 30 39 31 11 32 40 33 9 34 7 35 10 36
REMARK SMILES IDX 8 37 13 38 6 40 41 41 5 42 42 43 4 44 3 45 43 46 2 48 1 49
REMARK SMILES IDX 37 50
REMARK H PARENT 27 17 29 19 31 21 33 23 35 25 13 39 43 47 37 51
REMARK Flexibility Score: inf
ROOT
ATOM      1  C   UNL     1      51.279  97.020  -2.158  1.00  0.00     0.180 C 
ATOM      2  C   UNL     1      52.143  98.280  -1.904  1.00  0.00     0.177 C 
ATOM      3  C   UNL     1      53.255  98.001  -0.878  1.00  0.00     0.180 C 
ATOM      4  C   UNL     1      54.015  96.724  -1.249  1.00  0.00     0.214 C 
ATOM      5  C   UNL     1      53.021  95.557  -1.422  1.00  0.00     0.339 C 
ATOM      6  O   UNL     1      52.047  95.846  -2.419  1.00  0.00    -0.332 OA
ENDROOT
BRANCH   1   7
ATOM      7  C   UNL     1      50.185  96.806  -1.081  1.00  0.00     0.198 C 
BRANCH   7   8
ATOM      8  O   UNL     1      50.312  97.743  -0.027  1.00  0.00    -0.347 OA
BRANCH   8   9
ATOM      9  C   UNL     1      49.060  98.089   0.550  1.00  0.00     0.281 C 
ATOM     10  C   UNL     1      51.449  99.480   1.981  1.00  0.00     0.041 C 
ATOM     11  C   UNL     1      49.929  99.626   2.165  1.00  0.00     0.150 C 
ATOM     12  C   UNL     1      49.321 100.853   1.440  1.00  0.00     0.174 C 
ATOM     13  O   UNL     1      49.221  98.415   1.922  1.00  0.00    -0.344 OA
ATOM     14  C   UNL     1      49.028 100.593  -0.048  1.00  0.00     0.179 C 
ATOM     15  C   UNL     1      48.367  99.209  -0.255  1.00  0.00     0.202 C 
BRANCH  12  16
ATOM     16  O   UNL     1      48.149 101.272   2.099  1.00  0.00    -0.388 OA
ATOM     17  H   UNL     1      47.979 102.219   1.859  1.00  0.00     0.211 HD
ENDBRANCH  12  16
BRANCH  14  18
ATOM     18  O   UNL     1      50.190 100.795  -0.824  1.00  0.00    -0.387 OA
ATOM     19  H   UNL     1      51.001 100.608  -0.289  1.00  0.00     0.211 HD
ENDBRANCH  14  18
BRANCH  15  20
ATOM     20  O   UNL     1      48.341  98.872  -1.619  1.00  0.00    -0.385 OA
ATOM     21  H   UNL     1      49.159  99.260  -2.026  1.00  0.00     0.211 HD
ENDBRANCH  15  20
ENDBRANCH   8   9
ENDBRANCH   7   8
ENDBRANCH   1   7
BRANCH   2  22
ATOM     22  O   UNL     1      52.698  98.705  -3.124  1.00  0.00    -0.387 OA
ATOM     23  H   UNL     1      51.979  99.177  -3.616  1.00  0.00     0.211 HD
ENDBRANCH   2  22
BRANCH   3  24
ATOM     24  O   UNL     1      54.146  99.084  -0.829  1.00  0.00    -0.387 OA
ATOM     25  H   UNL     1      54.911  98.829  -0.251  1.00  0.00     0.211 HD
ENDBRANCH   3  24
BRANCH   5  26
ATOM     26  O   UNL     1      52.381  95.207  -0.193  1.00  0.00    -0.462 OA
BRANCH  26  27
ATOM     27  C   UNL     1      53.001  95.097   1.058  1.00  0.00     0.130 A 
ATOM     28  C   UNL     1      52.280  94.895   2.244  1.00  0.00     0.093 A 
ATOM     29  C   UNL     1      54.390  95.176   1.106  1.00  0.00     0.094 A 
ATOM     30  C   UNL     1      52.940  94.738   3.468  1.00  0.00     0.133 A 
ATOM     31  C   UNL     1      55.072  94.944   2.303  1.00  0.00     0.138 A 
ATOM     32  C   UNL     1      54.361  94.706   3.501  1.00  0.00     0.102 A 
ATOM     33  O   UNL     1      56.468  94.915   2.291  1.00  0.00    -0.484 OA
ATOM     34  C   UNL     1      55.167  94.401   4.719  1.00  0.00     0.174 C 
ATOM     35  C   UNL     1      57.198  94.194   3.274  1.00  0.00     0.211 C 
ATOM     36  O   UNL     1      54.625  94.070   5.811  1.00  0.00    -0.294 OA
ATOM     37  C   UNL     1      56.668  94.529   4.679  1.00  0.00     0.131 C 
BRANCH  30  38
ATOM     38  O   UNL     1      52.140  94.637   4.611  1.00  0.00    -0.507 OA
ATOM     39  H   UNL     1      51.259  95.120   4.734  1.00  0.00     0.293 HD
ENDBRANCH  30  38
BRANCH  35  40
ATOM     40  C   UNL     1      58.668  94.510   3.131  1.00  0.00    -0.003 A 
ATOM     41  C   UNL     1      59.334  94.310   1.908  1.00  0.00     0.057 A 
ATOM     42  C   UNL     1      59.402  94.950   4.243  1.00  0.00     0.011 A 
ATOM     43  C   UNL     1      60.702  94.589   1.789  1.00  0.00     0.158 A 
ATOM     44  C   UNL     1      60.768  95.216   4.127  1.00  0.00     0.051 A 
ATOM     45  C   UNL     1      61.428  95.043   2.898  1.00  0.00     0.160 A 
BRANCH  43  46
ATOM     46  O   UNL     1      61.351  94.423   0.566  1.00  0.00    -0.504 OA
ATOM     47  H   UNL     1      61.095  93.679  -0.072  1.00  0.00     0.293 HD
ENDBRANCH  43  46
BRANCH  45  48
ATOM     48  O   UNL     1      62.797  95.309   2.740  1.00  0.00    -0.493 OA
ATOM     49  C   UNL     1      63.820  94.809   3.594  1.00  0.00     0.278 C 
ENDBRANCH  45  48
ENDBRANCH  35  40
ENDBRANCH  26  27
ENDBRANCH   5  26
BRANCH   4  50
ATOM     50  O   UNL     1      54.728  96.920  -2.445  1.00  0.00    -0.384 OA
ATOM     51  H   UNL     1      55.695  96.928  -2.206  1.00  0.00     0.211 HD
ENDBRANCH   4  50
TORSDOF 15
ENDMDL
MODEL 3
REMARK VINA RESULT:    -5.441      1.880     10.729
REMARK INTER + INTRA:         -10.472
REMARK INTER:                 -10.795
REMARK INTRA:                   0.322
REMARK UNBOUND:                -1.532
REMARK SMILES COc1ccc([C@H]2CC(=O)c3c(O)cc(O[C@H]4O[C@@H](CO[C@H]5O[C@@H](C)[C@H](O)[C@@H](O)[C@H]5O)[C@H](O)[C@H](O)[C@@H]4O)cc3O2)cc1O
REMARK SMILES IDX 19 1 32 2 34 3 36 4 17 5 18 6 20 7 21 8 22 9 25 10 24 11
REMARK SMILES IDX 26 12 23 13 28 14 30 15 27 16 29 18 31 20 33 22 35 24 16 26
REMARK SMILES IDX 15 27 14 28 38 29 12 30 39 31 11 32 40 33 9 34 7 35 10 36
REMARK SMILES IDX 8 37 13 38 6 40 41 41 5 42 42 43 4 44 3 45 43 46 2 48 1 49
REMARK SMILES IDX 37 50
REMARK H PARENT 27 17 29 19 31 21 33 23 35 25 13 39 43 47 37 51
REMARK Flexibility Score: inf
ROOT
ATOM      1  C   UNL     1      51.342  97.277  -1.988  1.00  0.00     0.180 C 
ATOM      2  C   UNL     1      52.332  98.461  -1.853  1.00  0.00     0.177 C 
ATOM      3  C   UNL     1      53.451  98.144  -0.847  1.00  0.00     0.180 C 
ATOM      4  C   UNL     1      54.071  96.777  -1.151  1.00  0.00     0.214 C 
ATOM      5  C   UNL     1      52.964  95.704  -1.208  1.00  0.00     0.339 C 
ATOM      6  O   UNL     1      51.984  96.019  -2.190  1.00  0.00    -0.332 OA
ENDROOT
BRANCH   1   7
ATOM      7  C   UNL     1      50.276  97.245  -0.863  1.00  0.00     0.198 C 
BRANCH   7   8
ATOM      8  O   UNL     1      49.463  98.404  -0.892  1.00  0.00    -0.347 OA
BRANCH   8   9
ATOM      9  C   UNL     1      50.181  99.583  -0.553  1.00  0.00     0.281 C 
ATOM     10  C   UNL     1      47.204 100.167  -1.252  1.00  0.00     0.041 C 
ATOM     11  C   UNL     1      48.324 101.081  -0.726  1.00  0.00     0.150 C 
ATOM     12  C   UNL     1      48.275 101.323   0.803  1.00  0.00     0.174 C 
ATOM     13  O   UNL     1      49.613 100.711  -1.202  1.00  0.00    -0.344 OA
ATOM     14  C   UNL     1      48.935 100.195   1.615  1.00  0.00     0.179 C 
ATOM     15  C   UNL     1      50.276  99.757   0.978  1.00  0.00     0.202 C 
BRANCH  12  16
ATOM     16  O   UNL     1      48.872 102.559   1.117  1.00  0.00    -0.388 OA
ATOM     17  H   UNL     1      48.448 102.908   1.942  1.00  0.00     0.211 HD
ENDBRANCH  12  16
BRANCH  14  18
ATOM     18  O   UNL     1      48.025  99.135   1.821  1.00  0.00    -0.387 OA
ATOM     19  H   UNL     1      48.008  98.535   1.034  1.00  0.00     0.211 HD
ENDBRANCH  14  18
BRANCH  15  20
ATOM     20  O   UNL     1      50.738  98.567   1.566  1.00  0.00    -0.385 OA
ATOM     21  H   UNL     1      50.780  98.728   2.545  1.00  0.00     0.211 HD
ENDBRANCH  15  20
ENDBRANCH   8   9
ENDBRANCH   7   8
ENDBRANCH   1   7
BRANCH   2  22
ATOM     22  O   UNL     1      52.876  98.745  -3.117  1.00  0.00    -0.387 OA
ATOM     23  H   UNL     1      53.323  97.918  -3.429  1.00  0.00     0.211 HD
ENDBRANCH   2  22
BRANCH   3  24
ATOM     24  O   UNL     1      54.444  99.135  -0.904  1.00  0.00    -0.387 OA
ATOM     25  H   UNL     1      54.048  99.945  -1.319  1.00  0.00     0.211 HD
ENDBRANCH   3  24
BRANCH   5  26
ATOM     26  O   UNL     1      52.342  95.502   0.064  1.00  0.00    -0.462 OA
BRANCH  26  27
ATOM     27  C   UNL     1      53.003  95.296   1.282  1.00  0.00     0.130 A 
ATOM     28  C   UNL     1      52.321  94.998   2.471  1.00  0.00     0.093 A 
ATOM     29  C   UNL     1      54.393  95.378   1.292  1.00  0.00     0.094 A 
ATOM     30  C   UNL     1      53.020  94.747   3.657  1.00  0.00     0.133 A 
ATOM     31  C   UNL     1      55.113  95.055   2.444  1.00  0.00     0.138 A 
ATOM     32  C   UNL     1      54.442  94.720   3.642  1.00  0.00     0.102 A 
ATOM     33  O   UNL     1      56.508  95.033   2.385  1.00  0.00    -0.484 OA
ATOM     34  C   UNL     1      55.288  94.323   4.805  1.00  0.00     0.174 C 
ATOM     35  C   UNL     1      57.271  94.240   3.284  1.00  0.00     0.211 C 
ATOM     36  O   UNL     1      54.781  93.904   5.884  1.00  0.00    -0.294 OA
ATOM     37  C   UNL     1      56.786  94.460   4.728  1.00  0.00     0.131 C 
BRANCH  30  38
ATOM     38  O   UNL     1      52.257  94.553   4.813  1.00  0.00    -0.507 OA
ATOM     39  H   UNL     1      52.470  93.868   5.527  1.00  0.00     0.293 HD
ENDBRANCH  30  38
BRANCH  35  40
ATOM     40  C   UNL     1      58.735  94.574   3.119  1.00  0.00    -0.003 A 
ATOM     41  C   UNL     1      59.366  94.456   1.868  1.00  0.00     0.057 A 
ATOM     42  C   UNL     1      59.499  94.947   4.235  1.00  0.00     0.011 A 
ATOM     43  C   UNL     1      60.729  94.751   1.728  1.00  0.00     0.158 A 
ATOM     44  C   UNL     1      60.860  95.228   4.098  1.00  0.00     0.051 A 
ATOM     45  C   UNL     1      61.485  95.137   2.842  1.00  0.00     0.160 A 
BRANCH  43  46
ATOM     46  O   UNL     1      61.343  94.667   0.478  1.00  0.00    -0.504 OA
ATOM     47  H   UNL     1      61.443  95.480  -0.118  1.00  0.00     0.293 HD
ENDBRANCH  43  46
BRANCH  45  48
ATOM     48  O   UNL     1      62.847  95.421   2.663  1.00  0.00    -0.493 OA
ATOM     49  C   UNL     1      63.910  94.698   3.276  1.00  0.00     0.278 C 
ENDBRANCH  45  48
ENDBRANCH  35  40
ENDBRANCH  26  27
ENDBRANCH   5  26
BRANCH   4  50
ATOM     50  O   UNL     1      54.751  96.820  -2.380  1.00  0.00    -0.384 OA
ATOM     51  H   UNL     1      55.078  97.754  -2.496  1.00  0.00     0.211 HD
ENDBRANCH   4  50
TORSDOF 15
ENDMDL
MODEL 4
REMARK VINA RESULT:    -4.569      2.583     10.893
REMARK INTER + INTRA:          -9.039
REMARK INTER:                  -9.029
REMARK INTRA:                  -0.010
REMARK UNBOUND:                -1.532
REMARK SMILES COc1ccc([C@H]2CC(=O)c3c(O)cc(O[C@H]4O[C@@H](CO[C@H]5O[C@@H](C)[C@H](O)[C@@H](O)[C@H]5O)[C@H](O)[C@H](O)[C@@H]4O)cc3O2)cc1O
REMARK SMILES IDX 19 1 32 2 34 3 36 4 17 5 18 6 20 7 21 8 22 9 25 10 24 11
REMARK SMILES IDX 26 12 23 13 28 14 30 15 27 16 29 18 31 20 33 22 35 24 16 26
REMARK SMILES IDX 15 27 14 28 38 29 12 30 39 31 11 32 40 33 9 34 7 35 10 36
REMARK SMILES IDX 8 37 13 38 6 40 41 41 5 42 42 43 4 44 3 45 43 46 2 48 1 49
REMARK SMILES IDX 37 50
REMARK H PARENT 27 17 29 19 31 21 33 23 35 25 13 39 43 47 37 51
REMARK Flexibility Score: inf
ROOT
ATOM      1  C   UNL     1      50.251 100.251   0.307  1.00  0.00     0.180 C 
ATOM      2  C   UNL     1      49.041 100.022   1.246  1.00  0.00     0.177 C 
ATOM      3  C   UNL     1      49.021  98.586   1.796  1.00  0.00     0.180 C 
ATOM      4  C   UNL     1      50.394  98.211   2.361  1.00  0.00     0.214 C 
ATOM      5  C   UNL     1      51.481  98.454   1.292  1.00  0.00     0.339 C 
ATOM      6  O   UNL     1      51.490  99.809   0.858  1.00  0.00    -0.332 OA
ENDROOT
BRANCH   1   7
ATOM      7  C   UNL     1      50.006  99.739  -1.135  1.00  0.00     0.198 C 
BRANCH   7   8
ATOM      8  O   UNL     1      48.654  99.911  -1.519  1.00  0.00    -0.347 OA
BRANCH   8   9
ATOM      9  C   UNL     1      48.517 100.697  -2.696  1.00  0.00     0.281 C 
ATOM     10  C   UNL     1      45.907 100.636  -0.999  1.00  0.00     0.041 C 
ATOM     11  C   UNL     1      46.278 101.424  -2.268  1.00  0.00     0.150 C 
ATOM     12  C   UNL     1      46.720 102.884  -1.997  1.00  0.00     0.174 C 
ATOM     13  O   UNL     1      47.164 100.711  -3.125  1.00  0.00    -0.344 OA
ATOM     14  C   UNL     1      48.200 103.003  -1.597  1.00  0.00     0.179 C 
ATOM     15  C   UNL     1      49.096 102.112  -2.490  1.00  0.00     0.202 C 
BRANCH  12  16
ATOM     16  O   UNL     1      46.457 103.685  -3.125  1.00  0.00    -0.388 OA
ATOM     17  H   UNL     1      46.628 104.631  -2.881  1.00  0.00     0.211 HD
ENDBRANCH  12  16
BRANCH  14  18
ATOM     18  O   UNL     1      48.359 102.770  -0.213  1.00  0.00    -0.387 OA
ATOM     19  H   UNL     1      47.822 101.989   0.071  1.00  0.00     0.211 HD
ENDBRANCH  14  18
BRANCH  15  20
ATOM     20  O   UNL     1      50.395 102.026  -1.959  1.00  0.00    -0.385 OA
ATOM     21  H   UNL     1      51.022 102.250  -2.695  1.00  0.00     0.211 HD
ENDBRANCH  15  20
ENDBRANCH   8   9
ENDBRANCH   7   8
ENDBRANCH   1   7
BRANCH   2  22
ATOM     22  O   UNL     1      49.102 100.949   2.301  1.00  0.00    -0.387 OA
ATOM     23  H   UNL     1      48.193 100.998   2.693  1.00  0.00     0.211 HD
ENDBRANCH   2  22
BRANCH   3  24
ATOM     24  O   UNL     1      48.049  98.470   2.803  1.00  0.00    -0.387 OA
ATOM     25  H   UNL     1      47.472  99.276   2.769  1.00  0.00     0.211 HD
ENDBRANCH   3  24
BRANCH   5  26
ATOM     26  O   UNL     1      51.341  97.576   0.172  1.00  0.00    -0.462 OA
BRANCH  26  27
ATOM     27  C   UNL     1      52.333  96.734  -0.346  1.00  0.00     0.130 A 
ATOM     28  C   UNL     1      52.124  95.924  -1.471  1.00  0.00     0.093 A 
ATOM     29  C   UNL     1      53.575  96.726   0.283  1.00  0.00     0.094 A 
ATOM     30  C   UNL     1      53.157  95.136  -1.991  1.00  0.00     0.133 A 
ATOM     31  C   UNL     1      54.641  96.008  -0.263  1.00  0.00     0.138 A 
ATOM     32  C   UNL     1      54.457  95.213  -1.417  1.00  0.00     0.102 A 
ATOM     33  O   UNL     1      55.902  96.117   0.327  1.00  0.00    -0.484 OA
ATOM     34  C   UNL     1      55.663  94.533  -1.972  1.00  0.00     0.174 C 
ATOM     35  C   UNL     1      57.088  95.881  -0.420  1.00  0.00     0.211 C 
ATOM     36  O   UNL     1      55.623  93.888  -3.058  1.00  0.00    -0.294 OA
ATOM     37  C   UNL     1      56.963  94.567  -1.211  1.00  0.00     0.131 C 
BRANCH  30  38
ATOM     38  O   UNL     1      52.834  94.288  -3.055  1.00  0.00    -0.507 OA
ATOM     39  H   UNL     1      53.468  93.609  -3.455  1.00  0.00     0.293 HD
ENDBRANCH  30  38
BRANCH  35  40
ATOM     40  C   UNL     1      58.270  95.869   0.519  1.00  0.00    -0.003 A 
ATOM     41  C   UNL     1      59.512  96.398   0.123  1.00  0.00     0.057 A 
ATOM     42  C   UNL     1      58.158  95.267   1.781  1.00  0.00     0.011 A 
ATOM     43  C   UNL     1      60.609  96.366   0.994  1.00  0.00     0.158 A 
ATOM     44  C   UNL     1      59.254  95.223   2.644  1.00  0.00     0.051 A 
ATOM     45  C   UNL     1      60.488  95.778   2.259  1.00  0.00     0.160 A 
BRANCH  43  46
ATOM     46  O   UNL     1      61.829  96.923   0.611  1.00  0.00    -0.504 OA
ATOM     47  H   UNL     1      62.710  96.475   0.834  1.00  0.00     0.293 HD
ENDBRANCH  43  46
BRANCH  45  48
ATOM     48  O   UNL     1      61.610  95.762   3.102  1.00  0.00    -0.493 OA
ATOM     49  C   UNL     1      61.649  96.341   4.403  1.00  0.00     0.278 C 
ENDBRANCH  45  48
ENDBRANCH  35  40
ENDBRANCH  26  27
ENDBRANCH   5  26
BRANCH   4  50
ATOM     50  O   UNL     1      50.672  98.984   3.501  1.00  0.00    -0.384 OA
ATOM     51  H   UNL     1      50.974  98.353   4.211  1.00  0.00     0.211 HD
ENDBRANCH   4  50
TORSDOF 15
ENDMDL
MODEL 5
REMARK VINA RESULT:    -3.369      2.764     10.997
REMARK INTER + INTRA:          -7.068
REMARK INTER:                  -6.057
REMARK INTRA:                  -1.012
REMARK UNBOUND:                -1.532
REMARK SMILES COc1ccc([C@H]2CC(=O)c3c(O)cc(O[C@H]4O[C@@H](CO[C@H]5O[C@@H](C)[C@H](O)[C@@H](O)[C@H]5O)[C@H](O)[C@H](O)[C@@H]4O)cc3O2)cc1O
REMARK SMILES IDX 19 1 32 2 34 3 36 4 17 5 18 6 20 7 21 8 22 9 25 10 24 11
REMARK SMILES IDX 26 12 23 13 28 14 30 15 27 16 29 18 31 20 33 22 35 24 16 26
REMARK SMILES IDX 15 27 14 28 38 29 12 30 39 31 11 32 40 33 9 34 7 35 10 36
REMARK SMILES IDX 8 37 13 38 6 40 41 41 5 42 42 43 4 44 3 45 43 46 2 48 1 49
REMARK SMILES IDX 37 50
REMARK H PARENT 27 17 29 19 31 21 33 23 35 25 13 39 43 47 37 51
REMARK Flexibility Score: inf
ROOT
ATOM      1  C   UNL     1      53.436  97.105   2.094  1.00  0.00     0.180 C 
ATOM      2  C   UNL     1      52.225  96.154   2.262  1.00  0.00     0.177 C 
ATOM      3  C   UNL     1      52.675  94.686   2.362  1.00  0.00     0.180 C 
ATOM      4  C   UNL     1      53.797  94.540   3.393  1.00  0.00     0.214 C 
ATOM      5  C   UNL     1      54.942  95.520   3.060  1.00  0.00     0.339 C 
ATOM      6  O   UNL     1      54.483  96.866   3.033  1.00  0.00    -0.332 OA
ENDROOT
BRANCH   1   7
ATOM      7  C   UNL     1      53.939  97.195   0.630  1.00  0.00     0.198 C 
BRANCH   7   8
ATOM      8  O   UNL     1      53.051  97.952  -0.173  1.00  0.00    -0.347 OA
BRANCH   8   9
ATOM      9  C   UNL     1      52.562  97.217  -1.287  1.00  0.00     0.281 C 
ATOM     10  C   UNL     1      50.276  98.187   0.590  1.00  0.00     0.041 C 
ATOM     11  C   UNL     1      50.240  97.470  -0.771  1.00  0.00     0.150 C 
ATOM     12  C   UNL     1      49.995  98.415  -1.974  1.00  0.00     0.174 C 
ATOM     13  O   UNL     1      51.336  96.582  -0.961  1.00  0.00    -0.344 OA
ATOM     14  C   UNL     1      51.276  99.107  -2.471  1.00  0.00     0.179 C 
ATOM     15  C   UNL     1      52.459  98.112  -2.541  1.00  0.00     0.202 C 
BRANCH  12  16
ATOM     16  O   UNL     1      49.387  97.706  -3.029  1.00  0.00    -0.388 OA
ATOM     17  H   UNL     1      49.392  98.284  -3.835  1.00  0.00     0.211 HD
ENDBRANCH  12  16
BRANCH  14  18
ATOM     18  O   UNL     1      51.543 100.262  -1.705  1.00  0.00    -0.387 OA
ATOM     19  H   UNL     1      51.178 100.164  -0.791  1.00  0.00     0.211 HD
ENDBRANCH  14  18
BRANCH  15  20
ATOM     20  O   UNL     1      53.670  98.796  -2.741  1.00  0.00    -0.385 OA
ATOM     21  H   UNL     1      53.879  98.732  -3.709  1.00  0.00     0.211 HD
ENDBRANCH  15  20
ENDBRANCH   8   9
ENDBRANCH   7   8
ENDBRANCH   1   7
BRANCH   2  22
ATOM     22  O   UNL     1      51.512  96.527   3.414  1.00  0.00    -0.387 OA
ATOM     23  H   UNL     1      51.452  97.516   3.406  1.00  0.00     0.211 HD
ENDBRANCH   2  22
BRANCH   3  24
ATOM     24  O   UNL     1      51.589  93.875   2.727  1.00  0.00    -0.387 OA
ATOM     25  H   UNL     1      50.764  94.272   2.344  1.00  0.00     0.211 HD
ENDBRANCH   3  24
BRANCH   5  26
ATOM     26  O   UNL     1      55.589  95.193   1.828  1.00  0.00    -0.462 OA
BRANCH  26  27
ATOM     27  C   UNL     1      56.933  95.433   1.513  1.00  0.00     0.130 A 
ATOM     28  C   UNL     1      57.336  95.977   0.285  1.00  0.00     0.093 A 
ATOM     29  C   UNL     1      57.892  95.129   2.475  1.00  0.00     0.094 A 
ATOM     30  C   UNL     1      58.684  96.251   0.027  1.00  0.00     0.133 A 
ATOM     31  C   UNL     1      59.232  95.467   2.270  1.00  0.00     0.138 A 
ATOM     32  C   UNL     1      59.650  96.046   1.051  1.00  0.00     0.102 A 
ATOM     33  O   UNL     1      60.148  95.255   3.303  1.00  0.00    -0.484 OA
ATOM     34  C   UNL     1      61.086  96.436   0.942  1.00  0.00     0.174 C 
ATOM     35  C   UNL     1      61.345  96.016   3.394  1.00  0.00     0.211 C 
ATOM     36  O   UNL     1      61.533  97.057  -0.064  1.00  0.00    -0.294 OA
ATOM     37  C   UNL     1      62.055  96.050   2.029  1.00  0.00     0.131 C 
BRANCH  30  38
ATOM     38  O   UNL     1      59.005  96.702  -1.257  1.00  0.00    -0.507 OA
ATOM     39  H   UNL     1      59.115  96.099  -2.061  1.00  0.00     0.293 HD
ENDBRANCH  30  38
BRANCH  35  40
ATOM     40  C   UNL     1      62.222  95.432   4.476  1.00  0.00    -0.003 A 
ATOM     41  C   UNL     1      62.054  95.807   5.821  1.00  0.00     0.057 A 
ATOM     42  C   UNL     1      63.262  94.553   4.138  1.00  0.00     0.011 A 
ATOM     43  C   UNL     1      62.885  95.274   6.817  1.00  0.00     0.158 A 
ATOM     44  C   UNL     1      64.098  94.033   5.128  1.00  0.00     0.051 A 
ATOM     45  C   UNL     1      63.912  94.385   6.477  1.00  0.00     0.160 A 
BRANCH  43  46
ATOM     46  O   UNL     1      62.692  95.620   8.154  1.00  0.00    -0.504 OA
ATOM     47  H   UNL     1      63.457  95.949   8.731  1.00  0.00     0.293 HD
ENDBRANCH  43  46
BRANCH  45  48
ATOM     48  O   UNL     1      64.724  93.875   7.501  1.00  0.00    -0.493 OA
ATOM     49  C   UNL     1      65.486  94.674   8.400  1.00  0.00     0.278 C 
ENDBRANCH  45  48
ENDBRANCH  35  40
ENDBRANCH  26  27
ENDBRANCH   5  26
BRANCH   4  50
ATOM     50  O   UNL     1      53.304  94.809   4.681  1.00  0.00    -0.384 OA
ATOM     51  H   UNL     1      54.076  95.129   5.224  1.00  0.00     0.211 HD
ENDBRANCH   4  50
TORSDOF 15
ENDMDL
