MODEL 1
REMARK VINA RESULT:    -2.258      0.000      0.000
REMARK INTER + INTRA:          -2.258
REMARK INTER:                  -2.258
REMARK INTRA:                   0.000
REMARK UNBOUND:                 0.000
REMARK SMILES CC(=O)[O-]
REMARK SMILES IDX 1 1 2 2 3 3 4 4
REMARK H PARENT
REMARK Flexibility Score: inf
ROOT
ATOM      1  C   UNL     1      23.326  38.911 147.641  1.00  0.00     0.063 C 
ATOM      2  C   UNL     1      24.065  37.624 147.495  1.00  0.00     0.038 C 
ATOM      3  O   UNL     1      25.319  37.626 147.374  1.00  0.00    -0.550 OA
ATOM      4  O   UNL     1      23.370  36.424 147.441  1.00  0.00    -0.550 OA
ENDROOT
TORSDOF 0
ENDMDL
MODEL 2
REMARK VINA RESULT:    -2.224      1.940      2.118
REMARK INTER + INTRA:          -2.224
REMARK INTER:                  -2.224
REMARK INTRA:                   0.000
REMARK UNBOUND:                 0.000
REMARK SMILES CC(=O)[O-]
REMARK SMILES IDX 1 1 2 2 3 3 4 4
REMARK H PARENT
REMARK Flexibility Score: inf
ROOT
ATOM      1  C   UNL     1      23.334  38.730 147.707  1.00  0.00     0.063 C 
ATOM      2  C   UNL     1      23.341  37.847 148.909  1.00  0.00     0.038 C 
ATOM      3  O   UNL     1      22.918  38.279 150.013  1.00  0.00    -0.550 OA
ATOM      4  O   UNL     1      23.863  36.563 148.825  1.00  0.00    -0.550 OA
ENDROOT
TORSDOF 0
ENDMDL
MODEL 3
REMARK VINA RESULT:    -2.216      0.301      1.631
REMARK INTER + INTRA:          -2.216
REMARK INTER:                  -2.216
REMARK INTRA:                   0.000
REMARK UNBOUND:                 0.000
REMARK SMILES CC(=O)[O-]
REMARK SMILES IDX 1 1 2 2 3 3 4 4
REMARK H PARENT
REMARK Flexibility Score: inf
ROOT
ATOM      1  C   UNL     1      23.578  38.765 147.721  1.00  0.00     0.063 C 
ATOM      2  C   UNL     1      24.117  37.397 147.474  1.00  0.00     0.038 C 
ATOM      3  O   UNL     1      23.334  36.413 147.403  1.00  0.00    -0.550 OA
ATOM      4  O   UNL     1      25.487  37.196 147.374  1.00  0.00    -0.550 OA
ENDROOT
TORSDOF 0
ENDMDL
MODEL 4
REMARK VINA RESULT:    -2.198      3.605      4.117
REMARK INTER + INTRA:          -2.198
REMARK INTER:                  -2.198
REMARK INTRA:                   0.000
REMARK UNBOUND:                 0.000
REMARK SMILES CC(=O)[O-]
REMARK SMILES IDX 1 1 2 2 3 3 4 4
REMARK H PARENT
REMARK Flexibility Score: inf
ROOT
ATOM      1  C   UNL     1      23.693  34.936 147.151  1.00  0.00     0.063 C 
ATOM      2  C   UNL     1      23.987  33.822 148.098  1.00  0.00     0.038 C 
ATOM      3  O   UNL     1      24.031  32.634 147.682  1.00  0.00    -0.550 OA
ATOM      4  O   UNL     1      24.161  34.085 149.450  1.00  0.00    -0.550 OA
ENDROOT
TORSDOF 0
ENDMDL
MODEL 5
REMARK VINA RESULT:    -2.177      2.016      2.261
REMARK INTER + INTRA:          -2.177
REMARK INTER:                  -2.177
REMARK INTRA:                   0.000
REMARK UNBOUND:                 0.000
REMARK SMILES CC(=O)[O-]
REMARK SMILES IDX 1 1 2 2 3 3 4 4
REMARK H PARENT
REMARK Flexibility Score: inf
ROOT
ATOM      1  C   UNL     1      23.759  36.939 147.535  1.00  0.00     0.063 C 
ATOM      2  C   UNL     1      23.228  38.187 148.156  1.00  0.00     0.038 C 
ATOM      3  O   UNL     1      23.163  39.249 147.483  1.00  0.00    -0.550 OA
ATOM      4  O   UNL     1      22.854  38.194 149.493  1.00  0.00    -0.550 OA
ENDROOT
TORSDOF 0
ENDMDL
MODEL 6
REMARK VINA RESULT:    -2.118      3.747      4.190
REMARK INTER + INTRA:          -2.118
REMARK INTER:                  -2.118
REMARK INTRA:                   0.000
REMARK UNBOUND:                 0.000
REMARK SMILES CC(=O)[O-]
REMARK SMILES IDX 1 1 2 2 3 3 4 4
REMARK H PARENT
REMARK Flexibility Score: inf
ROOT
ATOM      1  C   UNL     1      23.995  34.746 147.369  1.00  0.00     0.063 C 
ATOM      2  C   UNL     1      24.193  33.712 148.425  1.00  0.00     0.038 C 
ATOM      3  O   UNL     1      24.400  34.059 149.617  1.00  0.00    -0.550 OA
ATOM      4  O   UNL     1      24.203  32.365 148.087  1.00  0.00    -0.550 OA
ENDROOT
TORSDOF 0
ENDMDL
MODEL 7
REMARK VINA RESULT:    -2.112      4.397      4.828
REMARK INTER + INTRA:          -2.112
REMARK INTER:                  -2.112
REMARK INTRA:                   0.000
REMARK UNBOUND:                 0.000
REMARK SMILES CC(=O)[O-]
REMARK SMILES IDX 1 1 2 2 3 3 4 4
REMARK H PARENT
REMARK Flexibility Score: inf
ROOT
ATOM      1  C   UNL     1      27.445  35.017 150.418  1.00  0.00     0.063 C 
ATOM      2  C   UNL     1      26.560  34.481 149.344  1.00  0.00     0.038 C 
ATOM      3  O   UNL     1      25.392  34.931 149.205  1.00  0.00    -0.550 OA
ATOM      4  O   UNL     1      27.003  33.448 148.528  1.00  0.00    -0.550 OA
ENDROOT
TORSDOF 0
ENDMDL
MODEL 8
REMARK VINA RESULT:    -2.100     16.712     16.914
REMARK INTER + INTRA:          -2.100
REMARK INTER:                  -2.100
REMARK INTRA:                   0.000
REMARK UNBOUND:                 0.000
REMARK SMILES CC(=O)[O-]
REMARK SMILES IDX 1 1 2 2 3 3 4 4
REMARK H PARENT
REMARK Flexibility Score: inf
ROOT
ATOM      1  C   UNL     1      22.320  43.481 130.968  1.00  0.00     0.063 C 
ATOM      2  C   UNL     1      23.627  43.123 131.589  1.00  0.00     0.038 C 
ATOM      3  O   UNL     1      24.032  41.931 131.564  1.00  0.00    -0.550 OA
ATOM      4  O   UNL     1      24.376  44.092 132.242  1.00  0.00    -0.550 OA
ENDROOT
TORSDOF 0
ENDMDL
MODEL 9
REMARK VINA RESULT:    -2.095      3.368      3.935
REMARK INTER + INTRA:          -2.095
REMARK INTER:                  -2.095
REMARK INTRA:                   0.000
REMARK UNBOUND:                 0.000
REMARK SMILES CC(=O)[O-]
REMARK SMILES IDX 1 1 2 2 3 3 4 4
REMARK H PARENT
REMARK Flexibility Score: inf
ROOT
ATOM      1  C   UNL     1      24.266  33.256 149.507  1.00  0.00     0.063 C 
ATOM      2  C   UNL     1      24.270  34.379 148.526  1.00  0.00     0.038 C 
ATOM      3  O   UNL     1      24.257  35.571 148.931  1.00  0.00    -0.550 OA
ATOM      4  O   UNL     1      24.233  34.113 147.164  1.00  0.00    -0.550 OA
ENDROOT
TORSDOF 0
ENDMDL
