MODEL 1
REMARK VINA RESULT:    -3.541      0.000      0.000
REMARK INTER + INTRA:          -5.499
REMARK INTER:                  -4.783
REMARK INTRA:                  -0.716
REMARK UNBOUND:                -0.716
REMARK SMILES C[C@H](O)[C@H](O)[C@@H](O)[C@@H](O)C=O
REMARK SMILES IDX 4 1 2 2 1 3 3 4 6 6 8 7 10 8 11 9 9 10 7 12 5 14
REMARK H PARENT 3 5 9 11 7 13 5 15
REMARK Flexibility Score: inf
ROOT
ATOM      1  C   UNL     1      -1.669  -5.310  31.359  1.00  0.00     0.174 C 
ENDROOT
BRANCH   1   2
ATOM      2  C   UNL     1      -2.224  -5.158  32.799  1.00  0.00     0.142 C 
ATOM      3  C   UNL     1      -2.802  -3.759  33.045  1.00  0.00     0.041 C 
BRANCH   2   4
ATOM      4  O   UNL     1      -1.233  -5.440  33.756  1.00  0.00    -0.391 OA
ATOM      5  H   UNL     1      -1.158  -4.648  34.352  1.00  0.00     0.211 HD
ENDBRANCH   2   4
ENDBRANCH   1   2
BRANCH   1   6
ATOM      6  C   UNL     1      -1.918  -6.735  30.796  1.00  0.00     0.181 C 
BRANCH   6   7
ATOM      7  C   UNL     1      -3.414  -7.133  30.854  1.00  0.00     0.209 C 
BRANCH   7   8
ATOM      8  C   UNL     1      -3.606  -8.562  30.417  1.00  0.00     0.258 C 
ATOM      9  O   UNL     1      -3.449  -9.479  31.207  1.00  0.00    -0.300 OA
ENDBRANCH   7   8
BRANCH   7  10
ATOM     10  O   UNL     1      -4.155  -6.290  30.009  1.00  0.00    -0.383 OA
ATOM     11  H   UNL     1      -4.012  -5.362  30.332  1.00  0.00     0.211 HD
ENDBRANCH   7  10
ENDBRANCH   6   7
BRANCH   6  12
ATOM     12  O   UNL     1      -1.118  -7.682  31.466  1.00  0.00    -0.387 OA
ATOM     13  H   UNL     1      -0.483  -8.062  30.804  1.00  0.00     0.211 HD
ENDBRANCH   6  12
ENDBRANCH   1   6
BRANCH   1  14
ATOM     14  O   UNL     1      -2.274  -4.361  30.514  1.00  0.00    -0.388 OA
ATOM     15  H   UNL     1      -2.997  -4.827  30.017  1.00  0.00     0.211 HD
ENDBRANCH   1  14
TORSDOF 8
ENDMDL
MODEL 2
REMARK VINA RESULT:    -3.522      0.986      4.216
REMARK INTER + INTRA:          -5.473
REMARK INTER:                  -4.712
REMARK INTRA:                  -0.760
REMARK UNBOUND:                -0.716
REMARK SMILES C[C@H](O)[C@H](O)[C@@H](O)[C@@H](O)C=O
REMARK SMILES IDX 4 1 2 2 1 3 3 4 6 6 8 7 10 8 11 9 9 10 7 12 5 14
REMARK H PARENT 3 5 9 11 7 13 5 15
REMARK Flexibility Score: inf
ROOT
ATOM      1  C   UNL     1      -1.745  -6.789  30.802  1.00  0.00     0.174 C 
ENDROOT
BRANCH   1   2
ATOM      2  C   UNL     1      -3.214  -7.281  30.870  1.00  0.00     0.142 C 
ATOM      3  C   UNL     1      -3.305  -8.812  30.881  1.00  0.00     0.041 C 
BRANCH   2   4
ATOM      4  O   UNL     1      -3.971  -6.766  29.802  1.00  0.00    -0.391 OA
ATOM      5  H   UNL     1      -3.644  -7.198  28.969  1.00  0.00     0.211 HD
ENDBRANCH   2   4
ENDBRANCH   1   2
BRANCH   1   6
ATOM      6  C   UNL     1      -1.595  -5.353  31.373  1.00  0.00     0.181 C 
BRANCH   6   7
ATOM      7  C   UNL     1      -2.014  -5.268  32.862  1.00  0.00     0.209 C 
BRANCH   7   8
ATOM      8  C   UNL     1      -2.687  -3.953  33.155  1.00  0.00     0.258 C 
ATOM      9  O   UNL     1      -3.903  -3.853  33.103  1.00  0.00    -0.300 OA
ENDBRANCH   7   8
BRANCH   7  10
ATOM     10  O   UNL     1      -0.876  -5.395  33.676  1.00  0.00    -0.383 OA
ATOM     11  H   UNL     1      -0.281  -4.629  33.460  1.00  0.00     0.211 HD
ENDBRANCH   7  10
ENDBRANCH   6   7
BRANCH   6  12
ATOM     12  O   UNL     1      -2.317  -4.429  30.592  1.00  0.00    -0.387 OA
ATOM     13  H   UNL     1      -2.569  -4.881  29.745  1.00  0.00     0.211 HD
ENDBRANCH   6  12
ENDBRANCH   1   6
BRANCH   1  14
ATOM     14  O   UNL     1      -0.916  -7.667  31.524  1.00  0.00    -0.388 OA
ATOM     15  H   UNL     1      -0.622  -8.379  30.898  1.00  0.00     0.211 HD
ENDBRANCH   1  14
TORSDOF 8
ENDMDL
MODEL 3
REMARK VINA RESULT:    -3.411      1.527      3.617
REMARK INTER + INTRA:          -5.323
REMARK INTER:                  -4.734
REMARK INTRA:                  -0.590
REMARK UNBOUND:                -0.716
REMARK SMILES C[C@H](O)[C@H](O)[C@@H](O)[C@@H](O)C=O
REMARK SMILES IDX 4 1 2 2 1 3 3 4 6 6 8 7 10 8 11 9 9 10 7 12 5 14
REMARK H PARENT 3 5 9 11 7 13 5 15
REMARK Flexibility Score: inf
ROOT
ATOM      1  C   UNL     1      -2.259  -5.565  31.261  1.00  0.00     0.174 C 
ENDROOT
BRANCH   1   2
ATOM      2  C   UNL     1      -1.936  -7.015  30.817  1.00  0.00     0.142 C 
ATOM      3  C   UNL     1      -3.161  -7.932  30.919  1.00  0.00     0.041 C 
BRANCH   2   4
ATOM      4  O   UNL     1      -0.876  -7.551  31.571  1.00  0.00    -0.391 OA
ATOM      5  H   UNL     1      -0.342  -8.131  30.967  1.00  0.00     0.211 HD
ENDBRANCH   2   4
ENDBRANCH   1   2
BRANCH   1   6
ATOM      6  C   UNL     1      -2.269  -5.428  32.807  1.00  0.00     0.181 C 
BRANCH   6   7
ATOM      7  C   UNL     1      -3.129  -4.230  33.283  1.00  0.00     0.209 C 
BRANCH   7   8
ATOM      8  C   UNL     1      -4.447  -4.195  32.553  1.00  0.00     0.258 C 
ATOM      9  O   UNL     1      -5.362  -4.931  32.888  1.00  0.00    -0.300 OA
ENDBRANCH   7   8
BRANCH   7  10
ATOM     10  O   UNL     1      -2.438  -3.032  33.042  1.00  0.00    -0.383 OA
ATOM     11  H   UNL     1      -2.958  -2.307  33.477  1.00  0.00     0.211 HD
ENDBRANCH   7  10
ENDBRANCH   6   7
BRANCH   6  12
ATOM     12  O   UNL     1      -0.955  -5.335  33.307  1.00  0.00    -0.387 OA
ATOM     13  H   UNL     1      -0.971  -5.632  34.254  1.00  0.00     0.211 HD
ENDBRANCH   6  12
ENDBRANCH   1   6
BRANCH   1  14
ATOM     14  O   UNL     1      -1.308  -4.679  30.719  1.00  0.00    -0.388 OA
ATOM     15  H   UNL     1      -1.636  -3.757  30.885  1.00  0.00     0.211 HD
ENDBRANCH   1  14
TORSDOF 8
ENDMDL
MODEL 4
REMARK VINA RESULT:    -3.410      1.219      2.326
REMARK INTER + INTRA:          -5.322
REMARK INTER:                  -4.691
REMARK INTRA:                  -0.631
REMARK UNBOUND:                -0.716
REMARK SMILES C[C@H](O)[C@H](O)[C@@H](O)[C@@H](O)C=O
REMARK SMILES IDX 4 1 2 2 1 3 3 4 6 6 8 7 10 8 11 9 9 10 7 12 5 14
REMARK H PARENT 3 5 9 11 7 13 5 15
REMARK Flexibility Score: inf
ROOT
ATOM      1  C   UNL     1      -2.282  -5.455  32.827  1.00  0.00     0.174 C 
ENDROOT
BRANCH   1   2
ATOM      2  C   UNL     1      -3.109  -4.223  33.276  1.00  0.00     0.142 C 
ATOM      3  C   UNL     1      -4.494  -4.193  32.618  1.00  0.00     0.041 C 
BRANCH   2   4
ATOM      4  O   UNL     1      -2.425  -3.025  33.002  1.00  0.00    -0.391 OA
ATOM      5  H   UNL     1      -1.771  -2.879  33.735  1.00  0.00     0.211 HD
ENDBRANCH   2   4
ENDBRANCH   1   2
BRANCH   1   6
ATOM      6  C   UNL     1      -2.236  -5.581  31.280  1.00  0.00     0.181 C 
BRANCH   6   7
ATOM      7  C   UNL     1      -1.982  -7.039  30.820  1.00  0.00     0.209 C 
BRANCH   7   8
ATOM      8  C   UNL     1      -3.186  -7.903  31.091  1.00  0.00     0.258 C 
ATOM      9  O   UNL     1      -4.290  -7.573  30.690  1.00  0.00    -0.300 OA
ENDBRANCH   7   8
BRANCH   7  10
ATOM     10  O   UNL     1      -0.876  -7.561  31.510  1.00  0.00    -0.383 OA
ATOM     11  H   UNL     1      -0.742  -8.488  31.180  1.00  0.00     0.211 HD
ENDBRANCH   7  10
ENDBRANCH   6   7
BRANCH   6  12
ATOM     12  O   UNL     1      -1.276  -4.706  30.737  1.00  0.00    -0.387 OA
ATOM     13  H   UNL     1      -0.379  -5.087  30.925  1.00  0.00     0.211 HD
ENDBRANCH   6  12
ENDBRANCH   1   6
BRANCH   1  14
ATOM     14  O   UNL     1      -0.969  -5.353  33.326  1.00  0.00    -0.388 OA
ATOM     15  H   UNL     1      -0.703  -6.256  33.643  1.00  0.00     0.211 HD
ENDBRANCH   1  14
TORSDOF 8
ENDMDL
MODEL 5
REMARK VINA RESULT:    -3.353     14.199     15.264
REMARK INTER + INTRA:          -5.245
REMARK INTER:                  -4.639
REMARK INTRA:                  -0.606
REMARK UNBOUND:                -0.716
REMARK SMILES C[C@H](O)[C@H](O)[C@@H](O)[C@@H](O)C=O
REMARK SMILES IDX 4 1 2 2 1 3 3 4 6 6 8 7 10 8 11 9 9 10 7 12 5 14
REMARK H PARENT 3 5 9 11 7 13 5 15
REMARK Flexibility Score: inf
ROOT
ATOM      1  C   UNL     1     -15.843   1.419  31.662  1.00  0.00     0.174 C 
ENDROOT
BRANCH   1   2
ATOM      2  C   UNL     1     -16.572   0.111  32.061  1.00  0.00     0.142 C 
ATOM      3  C   UNL     1     -15.611  -0.916  32.673  1.00  0.00     0.041 C 
BRANCH   2   4
ATOM      4  O   UNL     1     -17.235  -0.456  30.957  1.00  0.00    -0.391 OA
ATOM      5  H   UNL     1     -17.657   0.285  30.449  1.00  0.00     0.211 HD
ENDBRANCH   2   4
ENDBRANCH   1   2
BRANCH   1   6
ATOM      6  C   UNL     1     -14.480   1.129  30.975  1.00  0.00     0.181 C 
BRANCH   6   7
ATOM      7  C   UNL     1     -13.524   2.347  31.035  1.00  0.00     0.209 C 
BRANCH   7   8
ATOM      8  C   UNL     1     -13.286   2.770  32.461  1.00  0.00     0.258 C 
ATOM      9  O   UNL     1     -13.512   3.917  32.814  1.00  0.00    -0.300 OA
ENDBRANCH   7   8
BRANCH   7  10
ATOM     10  O   UNL     1     -14.086   3.419  30.324  1.00  0.00    -0.383 OA
ATOM     11  H   UNL     1     -14.988   3.128  30.029  1.00  0.00     0.211 HD
ENDBRANCH   7  10
ENDBRANCH   6   7
BRANCH   6  12
ATOM     12  O   UNL     1     -14.673   0.705  29.646  1.00  0.00    -0.387 OA
ATOM     13  H   UNL     1     -14.666   1.511  29.067  1.00  0.00     0.211 HD
ENDBRANCH   6  12
ENDBRANCH   1   6
BRANCH   1  14
ATOM     14  O   UNL     1     -16.654   2.170  30.790  1.00  0.00    -0.388 OA
ATOM     15  H   UNL     1     -16.544   3.126  31.032  1.00  0.00     0.211 HD
ENDBRANCH   1  14
TORSDOF 8
ENDMDL
MODEL 6
REMARK VINA RESULT:    -3.321     15.781     16.635
REMARK INTER + INTRA:          -5.202
REMARK INTER:                  -4.734
REMARK INTRA:                  -0.468
REMARK UNBOUND:                -0.716
REMARK SMILES C[C@H](O)[C@H](O)[C@@H](O)[C@@H](O)C=O
REMARK SMILES IDX 4 1 2 2 1 3 3 4 6 6 8 7 10 8 11 9 9 10 7 12 5 14
REMARK H PARENT 3 5 9 11 7 13 5 15
REMARK Flexibility Score: inf
ROOT
ATOM      1  C   UNL     1     -12.038   6.740  29.490  1.00  0.00     0.174 C 
ENDROOT
BRANCH   1   2
ATOM      2  C   UNL     1     -13.024   6.017  30.443  1.00  0.00     0.142 C 
ATOM      3  C   UNL     1     -12.326   5.507  31.710  1.00  0.00     0.041 C 
BRANCH   2   4
ATOM      4  O   UNL     1     -13.668   4.950  29.791  1.00  0.00    -0.391 OA
ATOM      5  H   UNL     1     -14.576   4.862  30.186  1.00  0.00     0.211 HD
ENDBRANCH   2   4
ENDBRANCH   1   2
BRANCH   1   6
ATOM      6  C   UNL     1     -12.159   6.214  28.034  1.00  0.00     0.181 C 
BRANCH   6   7
ATOM      7  C   UNL     1     -11.093   6.835  27.097  1.00  0.00     0.209 C 
BRANCH   7   8
ATOM      8  C   UNL     1      -9.773   6.979  27.809  1.00  0.00     0.258 C 
ATOM      9  O   UNL     1      -9.375   8.077  28.162  1.00  0.00    -0.300 OA
ENDBRANCH   7   8
BRANCH   7  10
ATOM     10  O   UNL     1     -11.525   8.101  26.669  1.00  0.00    -0.383 OA
ATOM     11  H   UNL     1     -11.649   8.045  25.685  1.00  0.00     0.211 HD
ENDBRANCH   7  10
ENDBRANCH   6   7
BRANCH   6  12
ATOM     12  O   UNL     1     -13.458   6.431  27.533  1.00  0.00    -0.387 OA
ATOM     13  H   UNL     1     -14.071   5.809  28.007  1.00  0.00     0.211 HD
ENDBRANCH   6  12
ENDBRANCH   1   6
BRANCH   1  14
ATOM     14  O   UNL     1     -12.287   8.125  29.509  1.00  0.00    -0.388 OA
ATOM     15  H   UNL     1     -12.392   8.394  30.459  1.00  0.00     0.211 HD
ENDBRANCH   1  14
TORSDOF 8
ENDMDL
MODEL 7
REMARK VINA RESULT:    -3.299     13.813     15.262
REMARK INTER + INTRA:          -5.172
REMARK INTER:                  -4.476
REMARK INTRA:                  -0.696
REMARK UNBOUND:                -0.716
REMARK SMILES C[C@H](O)[C@H](O)[C@@H](O)[C@@H](O)C=O
REMARK SMILES IDX 4 1 2 2 1 3 3 4 6 6 8 7 10 8 11 9 9 10 7 12 5 14
REMARK H PARENT 3 5 9 11 7 13 5 15
REMARK Flexibility Score: inf
ROOT
ATOM      1  C   UNL     1     -16.620  -1.478  30.713  1.00  0.00     0.174 C 
ENDROOT
BRANCH   1   2
ATOM      2  C   UNL     1     -16.874  -2.671  31.671  1.00  0.00     0.142 C 
ATOM      3  C   UNL     1     -16.362  -3.993  31.086  1.00  0.00     0.041 C 
BRANCH   2   4
ATOM      4  O   UNL     1     -18.240  -2.785  31.985  1.00  0.00    -0.391 OA
ATOM      5  H   UNL     1     -18.342  -2.590  32.954  1.00  0.00     0.211 HD
ENDBRANCH   2   4
ENDBRANCH   1   2
BRANCH   1   6
ATOM      6  C   UNL     1     -16.797  -0.115  31.436  1.00  0.00     0.181 C 
BRANCH   6   7
ATOM      7  C   UNL     1     -15.760   0.935  30.965  1.00  0.00     0.209 C 
BRANCH   7   8
ATOM      8  C   UNL     1     -14.740   1.200  32.042  1.00  0.00     0.258 C 
ATOM      9  O   UNL     1     -13.987   0.315  32.415  1.00  0.00    -0.300 OA
ENDBRANCH   7   8
BRANCH   7  10
ATOM     10  O   UNL     1     -16.419   2.135  30.650  1.00  0.00    -0.383 OA
ATOM     11  H   UNL     1     -16.627   2.584  31.511  1.00  0.00     0.211 HD
ENDBRANCH   7  10
ENDBRANCH   6   7
BRANCH   6  12
ATOM     12  O   UNL     1     -16.748  -0.283  32.834  1.00  0.00    -0.387 OA
ATOM     13  H   UNL     1     -17.012  -1.218  33.035  1.00  0.00     0.211 HD
ENDBRANCH   6  12
ENDBRANCH   1   6
BRANCH   1  14
ATOM     14  O   UNL     1     -15.318  -1.561  30.186  1.00  0.00    -0.388 OA
ATOM     15  H   UNL     1     -14.983  -2.478  30.367  1.00  0.00     0.211 HD
ENDBRANCH   1  14
TORSDOF 8
ENDMDL
MODEL 8
REMARK VINA RESULT:    -3.241     13.643     14.845
REMARK INTER + INTRA:          -5.094
REMARK INTER:                  -4.356
REMARK INTRA:                  -0.739
REMARK UNBOUND:                -0.716
REMARK SMILES C[C@H](O)[C@H](O)[C@@H](O)[C@@H](O)C=O
REMARK SMILES IDX 4 1 2 2 1 3 3 4 6 6 8 7 10 8 11 9 9 10 7 12 5 14
REMARK H PARENT 3 5 9 11 7 13 5 15
REMARK Flexibility Score: inf
ROOT
ATOM      1  C   UNL     1     -14.890   1.393  30.618  1.00  0.00     0.174 C 
ENDROOT
BRANCH   1   2
ATOM      2  C   UNL     1     -13.665   2.289  30.934  1.00  0.00     0.142 C 
ATOM      3  C   UNL     1     -13.612   3.527  30.030  1.00  0.00     0.041 C 
BRANCH   2   4
ATOM      4  O   UNL     1     -12.465   1.564  30.821  1.00  0.00    -0.391 OA
ATOM      5  H   UNL     1     -12.078   1.763  29.928  1.00  0.00     0.211 HD
ENDBRANCH   2   4
ENDBRANCH   1   2
BRANCH   1   6
ATOM      6  C   UNL     1     -15.099   0.304  31.705  1.00  0.00     0.181 C 
BRANCH   6   7
ATOM      7  C   UNL     1     -16.576   0.214  32.165  1.00  0.00     0.209 C 
BRANCH   7   8
ATOM      8  C   UNL     1     -16.699  -0.629  33.408  1.00  0.00     0.258 C 
ATOM      9  O   UNL     1     -16.558  -0.130  34.513  1.00  0.00    -0.300 OA
ENDBRANCH   7   8
BRANCH   7  10
ATOM     10  O   UNL     1     -17.351  -0.358  31.143  1.00  0.00    -0.383 OA
ATOM     11  H   UNL     1     -16.717  -0.766  30.495  1.00  0.00     0.211 HD
ENDBRANCH   7  10
ENDBRANCH   6   7
BRANCH   6  12
ATOM     12  O   UNL     1     -14.241   0.523  32.801  1.00  0.00    -0.387 OA
ATOM     13  H   UNL     1     -14.747   1.039  33.481  1.00  0.00     0.211 HD
ENDBRANCH   6  12
ENDBRANCH   1   6
BRANCH   1  14
ATOM     14  O   UNL     1     -16.048   2.188  30.524  1.00  0.00    -0.388 OA
ATOM     15  H   UNL     1     -16.760   1.735  31.047  1.00  0.00     0.211 HD
ENDBRANCH   1  14
TORSDOF 8
ENDMDL
MODEL 9
REMARK VINA RESULT:    -3.239     14.307     15.597
REMARK INTER + INTRA:          -5.091
REMARK INTER:                  -4.370
REMARK INTRA:                  -0.721
REMARK UNBOUND:                -0.716
REMARK SMILES C[C@H](O)[C@H](O)[C@@H](O)[C@@H](O)C=O
REMARK SMILES IDX 4 1 2 2 1 3 3 4 6 6 8 7 10 8 11 9 9 10 7 12 5 14
REMARK H PARENT 3 5 9 11 7 13 5 15
REMARK Flexibility Score: inf
ROOT
ATOM      1  C   UNL     1     -12.512   5.767  29.354  1.00  0.00     0.174 C 
ENDROOT
BRANCH   1   2
ATOM      2  C   UNL     1     -11.492   6.828  28.865  1.00  0.00     0.142 C 
ATOM      3  C   UNL     1     -12.181   7.993  28.143  1.00  0.00     0.041 C 
BRANCH   2   4
ATOM      4  O   UNL     1     -10.525   6.250  28.023  1.00  0.00    -0.391 OA
ATOM      5  H   UNL     1     -10.696   6.579  27.101  1.00  0.00     0.211 HD
ENDBRANCH   2   4
ENDBRANCH   1   2
BRANCH   1   6
ATOM      6  C   UNL     1     -11.930   4.902  30.506  1.00  0.00     0.181 C 
BRANCH   6   7
ATOM      7  C   UNL     1     -12.584   5.231  31.872  1.00  0.00     0.209 C 
BRANCH   7   8
ATOM      8  C   UNL     1     -11.585   5.093  32.991  1.00  0.00     0.258 C 
ATOM      9  O   UNL     1     -11.091   4.008  33.251  1.00  0.00    -0.300 OA
ENDBRANCH   7   8
BRANCH   7  10
ATOM     10  O   UNL     1     -13.656   4.354  32.101  1.00  0.00    -0.383 OA
ATOM     11  H   UNL     1     -13.263   3.459  32.279  1.00  0.00     0.211 HD
ENDBRANCH   7  10
ENDBRANCH   6   7
BRANCH   6  12
ATOM     12  O   UNL     1     -10.530   5.036  30.571  1.00  0.00    -0.387 OA
ATOM     13  H   UNL     1     -10.314   6.000  30.470  1.00  0.00     0.211 HD
ENDBRANCH   6  12
ENDBRANCH   1   6
BRANCH   1  14
ATOM     14  O   UNL     1     -13.686   6.405  29.797  1.00  0.00    -0.388 OA
ATOM     15  H   UNL     1     -13.775   7.250  29.284  1.00  0.00     0.211 HD
ENDBRANCH   1  14
TORSDOF 8
ENDMDL
