MODEL 1
REMARK VINA RESULT:    -6.042      0.000      0.000
REMARK INTER + INTRA:          -6.798
REMARK INTER:                  -6.572
REMARK INTRA:                  -0.226
REMARK UNBOUND:                -0.226
REMARK SMILES O=C([O-])c1ccccc1O
REMARK SMILES IDX 4 1 9 2 5 3 8 4 6 5 7 6 2 7 1 8 3 9 10 10
REMARK H PARENT 10 11
REMARK Flexibility Score: inf
ROOT
ATOM      1  C   UNL     1      11.868 -11.712  28.856  1.00  0.00     0.039 A 
ATOM      2  C   UNL     1      13.165 -12.147  29.222  1.00  0.00     0.124 A 
ATOM      3  C   UNL     1      11.223 -12.339  27.772  1.00  0.00     0.014 A 
ATOM      4  C   UNL     1      13.783 -13.185  28.507  1.00  0.00     0.047 A 
ATOM      5  C   UNL     1      11.850 -13.372  27.069  1.00  0.00     0.001 A 
ATOM      6  C   UNL     1      13.127 -13.793  27.436  1.00  0.00     0.004 A 
ENDROOT
BRANCH   1   7
ATOM      7  C   UNL     1      11.176 -10.617  29.586  1.00  0.00     0.075 C 
ATOM      8  O   UNL     1      11.839  -9.672  30.091  1.00  0.00    -0.545 OA
ATOM      9  O   UNL     1       9.794 -10.612  29.728  1.00  0.00    -0.545 OA
ENDBRANCH   1   7
BRANCH   2  10
ATOM     10  O   UNL     1      13.842 -11.556  30.289  1.00  0.00    -0.507 OA
ATOM     11  H   UNL     1      13.407 -11.440  31.197  1.00  0.00     0.293 HD
ENDBRANCH   2  10
TORSDOF 2
ENDMDL
MODEL 2
REMARK VINA RESULT:    -6.024      1.385      2.186
REMARK INTER + INTRA:          -6.778
REMARK INTER:                  -6.573
REMARK INTRA:                  -0.205
REMARK UNBOUND:                -0.226
REMARK SMILES O=C([O-])c1ccccc1O
REMARK SMILES IDX 4 1 9 2 5 3 8 4 6 5 7 6 2 7 1 8 3 9 10 10
REMARK H PARENT 10 11
REMARK Flexibility Score: inf
ROOT
ATOM      1  C   UNL     1      12.445 -11.825  28.663  1.00  0.00     0.039 A 
ATOM      2  C   UNL     1      12.083 -13.017  27.989  1.00  0.00     0.124 A 
ATOM      3  C   UNL     1      13.812 -11.513  28.801  1.00  0.00     0.014 A 
ATOM      4  C   UNL     1      13.081 -13.861  27.476  1.00  0.00     0.047 A 
ATOM      5  C   UNL     1      14.795 -12.362  28.285  1.00  0.00     0.001 A 
ATOM      6  C   UNL     1      14.429 -13.534  27.624  1.00  0.00     0.004 A 
ENDROOT
BRANCH   1   7
ATOM      7  C   UNL     1      11.423 -10.902  29.221  1.00  0.00     0.075 C 
ATOM      8  O   UNL     1      11.731 -10.091  30.136  1.00  0.00    -0.545 OA
ATOM      9  O   UNL     1      10.115 -10.912  28.753  1.00  0.00    -0.545 OA
ENDBRANCH   1   7
BRANCH   2  10
ATOM     10  O   UNL     1      10.743 -13.366  27.828  1.00  0.00    -0.507 OA
ATOM     11  H   UNL     1      10.081 -13.301  28.592  1.00  0.00     0.293 HD
ENDBRANCH   2  10
TORSDOF 2
ENDMDL
MODEL 3
REMARK VINA RESULT:    -5.977     11.134     12.049
REMARK INTER + INTRA:          -6.727
REMARK INTER:                  -6.507
REMARK INTRA:                  -0.219
REMARK UNBOUND:                -0.226
REMARK SMILES O=C([O-])c1ccccc1O
REMARK SMILES IDX 4 1 9 2 5 3 8 4 6 5 7 6 2 7 1 8 3 9 10 10
REMARK H PARENT 10 11
REMARK Flexibility Score: inf
ROOT
ATOM      1  C   UNL     1      17.689  -2.125  27.076  1.00  0.00     0.039 A 
ATOM      2  C   UNL     1      18.122  -1.070  26.238  1.00  0.00     0.124 A 
ATOM      3  C   UNL     1      16.309  -2.386  27.180  1.00  0.00     0.014 A 
ATOM      4  C   UNL     1      17.179  -0.306  25.531  1.00  0.00     0.047 A 
ATOM      5  C   UNL     1      15.381  -1.618  26.470  1.00  0.00     0.001 A 
ATOM      6  C   UNL     1      15.816  -0.581  25.648  1.00  0.00     0.004 A 
ENDROOT
BRANCH   1   7
ATOM      7  C   UNL     1      18.651  -2.960  27.842  1.00  0.00     0.075 C 
ATOM      8  O   UNL     1      19.811  -3.166  27.394  1.00  0.00    -0.545 OA
ATOM      9  O   UNL     1      18.297  -3.528  29.060  1.00  0.00    -0.545 OA
ENDBRANCH   1   7
BRANCH   2  10
ATOM     10  O   UNL     1      19.478  -0.775  26.104  1.00  0.00    -0.507 OA
ATOM     11  H   UNL     1      20.193  -1.347  26.539  1.00  0.00     0.293 HD
ENDBRANCH   2  10
TORSDOF 2
ENDMDL
MODEL 4
REMARK VINA RESULT:    -5.963      0.944      2.278
REMARK INTER + INTRA:          -6.712
REMARK INTER:                  -6.473
REMARK INTRA:                  -0.239
REMARK UNBOUND:                -0.226
REMARK SMILES O=C([O-])c1ccccc1O
REMARK SMILES IDX 4 1 9 2 5 3 8 4 6 5 7 6 2 7 1 8 3 9 10 10
REMARK H PARENT 10 11
REMARK Flexibility Score: inf
ROOT
ATOM      1  C   UNL     1      12.769 -11.755  29.177  1.00  0.00     0.039 A 
ATOM      2  C   UNL     1      11.583 -12.141  28.508  1.00  0.00     0.124 A 
ATOM      3  C   UNL     1      13.975 -12.404  28.847  1.00  0.00     0.014 A 
ATOM      4  C   UNL     1      11.625 -13.155  27.537  1.00  0.00     0.047 A 
ATOM      5  C   UNL     1      14.003 -13.411  27.879  1.00  0.00     0.001 A 
ATOM      6  C   UNL     1      12.830 -13.786  27.226  1.00  0.00     0.004 A 
ENDROOT
BRANCH   1   7
ATOM      7  C   UNL     1      12.770 -10.687  30.210  1.00  0.00     0.075 C 
ATOM      8  O   UNL     1      13.562 -10.750  31.188  1.00  0.00    -0.545 OA
ATOM      9  O   UNL     1      11.905  -9.603  30.122  1.00  0.00    -0.545 OA
ENDBRANCH   1   7
BRANCH   2  10
ATOM     10  O   UNL     1      10.365 -11.527  28.800  1.00  0.00    -0.507 OA
ATOM     11  H   UNL     1       9.507 -11.797  28.334  1.00  0.00     0.293 HD
ENDBRANCH   2  10
TORSDOF 2
ENDMDL
MODEL 5
REMARK VINA RESULT:    -5.726      1.048      2.922
REMARK INTER + INTRA:          -6.454
REMARK INTER:                  -6.222
REMARK INTRA:                  -0.232
REMARK UNBOUND:                -0.226
REMARK SMILES O=C([O-])c1ccccc1O
REMARK SMILES IDX 4 1 9 2 5 3 8 4 6 5 7 6 2 7 1 8 3 9 10 10
REMARK H PARENT 10 11
REMARK Flexibility Score: inf
ROOT
ATOM      1  C   UNL     1      13.102 -12.526  29.193  1.00  0.00     0.039 A 
ATOM      2  C   UNL     1      11.851 -11.862  29.201  1.00  0.00     0.124 A 
ATOM      3  C   UNL     1      13.402 -13.395  28.125  1.00  0.00     0.014 A 
ATOM      4  C   UNL     1      10.938 -12.078  28.157  1.00  0.00     0.047 A 
ATOM      5  C   UNL     1      12.483 -13.600  27.092  1.00  0.00     0.001 A 
ATOM      6  C   UNL     1      11.254 -12.942  27.108  1.00  0.00     0.004 A 
ENDROOT
BRANCH   1   7
ATOM      7  C   UNL     1      14.099 -12.327  30.278  1.00  0.00     0.075 C 
ATOM      8  O   UNL     1      14.216 -11.203  30.835  1.00  0.00    -0.545 OA
ATOM      9  O   UNL     1      14.919 -13.368  30.697  1.00  0.00    -0.545 OA
ENDBRANCH   1   7
BRANCH   2  10
ATOM     10  O   UNL     1      11.511 -10.993  30.237  1.00  0.00    -0.507 OA
ATOM     11  H   UNL     1      11.763 -10.011  30.212  1.00  0.00     0.293 HD
ENDBRANCH   2  10
TORSDOF 2
ENDMDL
MODEL 6
REMARK VINA RESULT:    -5.649      2.064      3.883
REMARK INTER + INTRA:          -6.371
REMARK INTER:                  -6.149
REMARK INTRA:                  -0.221
REMARK UNBOUND:                -0.226
REMARK SMILES O=C([O-])c1ccccc1O
REMARK SMILES IDX 4 1 9 2 5 3 8 4 6 5 7 6 2 7 1 8 3 9 10 10
REMARK H PARENT 10 11
REMARK Flexibility Score: inf
ROOT
ATOM      1  C   UNL     1      13.512 -13.563  28.125  1.00  0.00     0.039 A 
ATOM      2  C   UNL     1      13.277 -12.607  29.143  1.00  0.00     0.124 A 
ATOM      3  C   UNL     1      12.546 -13.725  27.112  1.00  0.00     0.014 A 
ATOM      4  C   UNL     1      12.097 -11.845  29.128  1.00  0.00     0.047 A 
ATOM      5  C   UNL     1      11.377 -12.960  27.109  1.00  0.00     0.001 A 
ATOM      6  C   UNL     1      11.154 -12.022  28.116  1.00  0.00     0.004 A 
ENDROOT
BRANCH   1   7
ATOM      7  C   UNL     1      14.746 -14.391  28.100  1.00  0.00     0.075 C 
ATOM      8  O   UNL     1      14.965 -15.233  29.011  1.00  0.00    -0.545 OA
ATOM      9  O   UNL     1      15.680 -14.255  27.080  1.00  0.00    -0.545 OA
ENDBRANCH   1   7
BRANCH   2  10
ATOM     10  O   UNL     1      14.204 -12.411  30.165  1.00  0.00    -0.507 OA
ATOM     11  H   UNL     1      15.105 -11.982  29.992  1.00  0.00     0.293 HD
ENDBRANCH   2  10
TORSDOF 2
ENDMDL
MODEL 7
REMARK VINA RESULT:    -5.646      1.587      2.355
REMARK INTER + INTRA:          -6.367
REMARK INTER:                  -6.123
REMARK INTRA:                  -0.243
REMARK UNBOUND:                -0.226
REMARK SMILES O=C([O-])c1ccccc1O
REMARK SMILES IDX 4 1 9 2 5 3 8 4 6 5 7 6 2 7 1 8 3 9 10 10
REMARK H PARENT 10 11
REMARK Flexibility Score: inf
ROOT
ATOM      1  C   UNL     1      12.519 -12.810  28.339  1.00  0.00     0.039 A 
ATOM      2  C   UNL     1      13.179 -12.390  29.519  1.00  0.00     0.124 A 
ATOM      3  C   UNL     1      13.140 -13.777  27.524  1.00  0.00     0.014 A 
ATOM      4  C   UNL     1      14.427 -12.936  29.856  1.00  0.00     0.047 A 
ATOM      5  C   UNL     1      14.383 -14.313  27.871  1.00  0.00     0.001 A 
ATOM      6  C   UNL     1      15.025 -13.893  29.034  1.00  0.00     0.004 A 
ENDROOT
BRANCH   1   7
ATOM      7  C   UNL     1      11.197 -12.259  27.944  1.00  0.00     0.075 C 
ATOM      8  O   UNL     1      10.346 -12.994  27.375  1.00  0.00    -0.545 OA
ATOM      9  O   UNL     1      10.871 -10.931  28.191  1.00  0.00    -0.545 OA
ENDBRANCH   1   7
BRANCH   2  10
ATOM     10  O   UNL     1      12.603 -11.435  30.358  1.00  0.00    -0.507 OA
ATOM     11  H   UNL     1      12.666 -10.444  30.157  1.00  0.00     0.293 HD
ENDBRANCH   2  10
TORSDOF 2
ENDMDL
MODEL 8
REMARK VINA RESULT:    -5.617     11.540     12.336
REMARK INTER + INTRA:          -6.336
REMARK INTER:                  -6.162
REMARK INTRA:                  -0.174
REMARK UNBOUND:                -0.226
REMARK SMILES O=C([O-])c1ccccc1O
REMARK SMILES IDX 4 1 9 2 5 3 8 4 6 5 7 6 2 7 1 8 3 9 10 10
REMARK H PARENT 10 11
REMARK Flexibility Score: inf
ROOT
ATOM      1  C   UNL     1      16.737  -0.695  26.164  1.00  0.00     0.039 A 
ATOM      2  C   UNL     1      16.596  -1.696  27.154  1.00  0.00     0.124 A 
ATOM      3  C   UNL     1      17.935  -0.635  25.426  1.00  0.00     0.014 A 
ATOM      4  C   UNL     1      17.642  -2.604  27.386  1.00  0.00     0.047 A 
ATOM      5  C   UNL     1      18.968  -1.545  25.666  1.00  0.00     0.001 A 
ATOM      6  C   UNL     1      18.821  -2.527  26.644  1.00  0.00     0.004 A 
ENDROOT
BRANCH   1   7
ATOM      7  C   UNL     1      15.655   0.286  25.885  1.00  0.00     0.075 C 
ATOM      8  O   UNL     1      14.618  -0.071  25.265  1.00  0.00    -0.545 OA
ATOM      9  O   UNL     1      15.763   1.609  26.296  1.00  0.00    -0.545 OA
ENDBRANCH   1   7
BRANCH   2  10
ATOM     10  O   UNL     1      15.427  -1.794  27.909  1.00  0.00    -0.507 OA
ATOM     11  H   UNL     1      14.516  -1.612  27.505  1.00  0.00     0.293 HD
ENDBRANCH   2  10
TORSDOF 2
ENDMDL
MODEL 9
REMARK VINA RESULT:    -5.582      2.137      4.092
REMARK INTER + INTRA:          -6.298
REMARK INTER:                  -6.075
REMARK INTRA:                  -0.223
REMARK UNBOUND:                -0.226
REMARK SMILES O=C([O-])c1ccccc1O
REMARK SMILES IDX 4 1 9 2 5 3 8 4 6 5 7 6 2 7 1 8 3 9 10 10
REMARK H PARENT 10 11
REMARK Flexibility Score: inf
ROOT
ATOM      1  C   UNL     1      12.645 -12.268  28.729  1.00  0.00     0.039 A 
ATOM      2  C   UNL     1      11.247 -12.256  28.508  1.00  0.00     0.124 A 
ATOM      3  C   UNL     1      13.226 -11.205  29.449  1.00  0.00     0.014 A 
ATOM      4  C   UNL     1      10.469 -11.197  29.001  1.00  0.00     0.047 A 
ATOM      5  C   UNL     1      12.440 -10.157  29.935  1.00  0.00     0.001 A 
ATOM      6  C   UNL     1      11.064 -10.153  29.711  1.00  0.00     0.004 A 
ENDROOT
BRANCH   1   7
ATOM      7  C   UNL     1      13.507 -13.369  28.225  1.00  0.00     0.075 C 
ATOM      8  O   UNL     1      13.210 -13.972  27.160  1.00  0.00    -0.545 OA
ATOM      9  O   UNL     1      14.649 -13.758  28.914  1.00  0.00    -0.545 OA
ENDBRANCH   1   7
BRANCH   2  10
ATOM     10  O   UNL     1      10.627 -13.287  27.802  1.00  0.00    -0.507 OA
ATOM     11  H   UNL     1       9.985 -13.929  28.251  1.00  0.00     0.293 HD
ENDBRANCH   2  10
TORSDOF 2
ENDMDL
