MODEL 1
REMARK VINA RESULT:    -5.423      0.000      0.000
REMARK INTER + INTRA:         -10.479
REMARK INTER:                  -9.545
REMARK INTRA:                  -0.934
REMARK UNBOUND:                -0.934
REMARK SMILES CCCCCCC=CCCCCCCCC(=O)[O-]
REMARK SMILES IDX 10 1 11 2 12 3 13 4 14 5 15 6 16 7 17 8 18 9 9 10 8 11 7 12
REMARK SMILES IDX 6 13 5 14 4 15 3 16 2 17 1 18
REMARK H PARENT
REMARK Flexibility Score: inf
ROOT
ATOM      1  C   UNL     1      44.747  44.263  32.504  1.00  0.00     0.004 C 
ENDROOT
BRANCH   1   2
ATOM      2  C   UNL     1      45.603  44.329  33.782  1.00  0.00     0.000 C 
BRANCH   2   3
ATOM      3  C   UNL     1      45.946  45.768  34.195  1.00  0.00     0.000 C 
BRANCH   3   4
ATOM      4  C   UNL     1      44.811  46.444  34.984  1.00  0.00     0.000 C 
BRANCH   4   5
ATOM      5  C   UNL     1      45.301  47.667  35.777  1.00  0.00     0.006 C 
BRANCH   5   6
ATOM      6  C   UNL     1      46.786  47.569  36.152  1.00  0.00     0.053 C 
BRANCH   6   7
ATOM      7  C   UNL     1      47.493  48.845  35.820  1.00  0.00     0.041 C 
ATOM      8  O   UNL     1      46.975  49.668  35.021  1.00  0.00    -0.550 OA
ATOM      9  O   UNL     1      48.706  49.147  36.428  1.00  0.00    -0.550 OA
ENDBRANCH   6   7
ENDBRANCH   5   6
ENDBRANCH   4   5
ENDBRANCH   3   4
ENDBRANCH   2   3
ENDBRANCH   1   2
BRANCH   1  10
ATOM     10  C   UNL     1      45.540  43.710  31.308  1.00  0.00     0.027 C 
BRANCH  10  11
ATOM     11  C   UNL     1      45.132  44.359  30.013  1.00  0.00    -0.031 C 
ATOM     12  C   UNL     1      45.999  45.073  29.282  1.00  0.00    -0.031 C 
BRANCH  12  13
ATOM     13  C   UNL     1      45.623  45.628  27.935  1.00  0.00     0.027 C 
BRANCH  13  14
ATOM     14  C   UNL     1      46.304  44.867  26.784  1.00  0.00     0.004 C 
BRANCH  14  15
ATOM     15  C   UNL     1      45.322  44.217  25.790  1.00  0.00     0.000 C 
BRANCH  15  16
ATOM     16  C   UNL     1      43.870  44.721  25.941  1.00  0.00    -0.000 C 
BRANCH  16  17
ATOM     17  C   UNL     1      42.908  43.605  26.373  1.00  0.00    -0.003 C 
ATOM     18  C   UNL     1      43.501  42.226  26.093  1.00  0.00     0.004 C 
ENDBRANCH  16  17
ENDBRANCH  15  16
ENDBRANCH  14  15
ENDBRANCH  13  14
ENDBRANCH  12  13
ENDBRANCH  10  11
ENDBRANCH   1  10
TORSDOF 13
ENDMDL
MODEL 2
REMARK VINA RESULT:    -5.327      6.477     13.676
REMARK INTER + INTRA:         -10.310
REMARK INTER:                  -9.356
REMARK INTRA:                  -0.954
REMARK UNBOUND:                -0.934
REMARK SMILES CCCCCCC=CCCCCCCCC(=O)[O-]
REMARK SMILES IDX 10 1 11 2 12 3 13 4 14 5 15 6 16 7 17 8 18 9 9 10 8 11 7 12
REMARK SMILES IDX 6 13 5 14 4 15 3 16 2 17 1 18
REMARK H PARENT
REMARK Flexibility Score: inf
ROOT
ATOM      1  C   UNL     1      51.136  50.196  38.134  1.00  0.00     0.004 C 
ENDROOT
BRANCH   1   2
ATOM      2  C   UNL     1      50.928  50.601  36.663  1.00  0.00     0.000 C 
BRANCH   2   3
ATOM      3  C   UNL     1      49.802  49.810  35.982  1.00  0.00     0.000 C 
BRANCH   3   4
ATOM      4  C   UNL     1      48.926  50.690  35.074  1.00  0.00     0.000 C 
BRANCH   4   5
ATOM      5  C   UNL     1      47.508  50.120  34.901  1.00  0.00     0.006 C 
BRANCH   5   6
ATOM      6  C   UNL     1      47.302  48.812  35.676  1.00  0.00     0.053 C 
BRANCH   6   7
ATOM      7  C   UNL     1      46.684  47.774  34.794  1.00  0.00     0.041 C 
ATOM      8  O   UNL     1      47.305  47.347  33.786  1.00  0.00    -0.550 OA
ATOM      9  O   UNL     1      45.437  47.245  35.108  1.00  0.00    -0.550 OA
ENDBRANCH   6   7
ENDBRANCH   5   6
ENDBRANCH   4   5
ENDBRANCH   3   4
ENDBRANCH   2   3
ENDBRANCH   1   2
BRANCH   1  10
ATOM     10  C   UNL     1      51.970  51.234  38.905  1.00  0.00     0.027 C 
BRANCH  10  11
ATOM     11  C   UNL     1      51.581  51.303  40.356  1.00  0.00    -0.031 C 
ATOM     12  C   UNL     1      50.750  50.406  40.904  1.00  0.00    -0.031 C 
BRANCH  12  13
ATOM     13  C   UNL     1      50.449  50.408  42.378  1.00  0.00     0.027 C 
BRANCH  13  14
ATOM     14  C   UNL     1      51.501  51.190  43.183  1.00  0.00     0.004 C 
BRANCH  14  15
ATOM     15  C   UNL     1      50.948  52.443  43.891  1.00  0.00     0.000 C 
BRANCH  15  16
ATOM     16  C   UNL     1      51.636  53.753  43.450  1.00  0.00    -0.000 C 
BRANCH  16  17
ATOM     17  C   UNL     1      53.144  53.572  43.225  1.00  0.00    -0.003 C 
ATOM     18  C   UNL     1      53.921  53.738  44.529  1.00  0.00     0.004 C 
ENDBRANCH  16  17
ENDBRANCH  15  16
ENDBRANCH  14  15
ENDBRANCH  13  14
ENDBRANCH  12  13
ENDBRANCH  10  11
ENDBRANCH   1  10
TORSDOF 13
ENDMDL
MODEL 3
REMARK VINA RESULT:    -5.289      2.809      8.149
REMARK INTER + INTRA:         -10.242
REMARK INTER:                  -9.526
REMARK INTRA:                  -0.717
REMARK UNBOUND:                -0.934
REMARK SMILES CCCCCCC=CCCCCCCCC(=O)[O-]
REMARK SMILES IDX 10 1 11 2 12 3 13 4 14 5 15 6 16 7 17 8 18 9 9 10 8 11 7 12
REMARK SMILES IDX 6 13 5 14 4 15 3 16 2 17 1 18
REMARK H PARENT
REMARK Flexibility Score: inf
ROOT
ATOM      1  C   UNL     1      45.969  44.233  32.211  1.00  0.00     0.004 C 
ENDROOT
BRANCH   1   2
ATOM      2  C   UNL     1      45.141  43.875  30.963  1.00  0.00     0.000 C 
BRANCH   2   3
ATOM      3  C   UNL     1      45.923  44.070  29.655  1.00  0.00     0.000 C 
BRANCH   3   4
ATOM      4  C   UNL     1      45.248  45.075  28.706  1.00  0.00     0.000 C 
BRANCH   4   5
ATOM      5  C   UNL     1      46.267  45.983  27.998  1.00  0.00     0.006 C 
BRANCH   5   6
ATOM      6  C   UNL     1      47.703  45.751  28.489  1.00  0.00     0.053 C 
BRANCH   6   7
ATOM      7  C   UNL     1      48.384  47.057  28.747  1.00  0.00     0.041 C 
ATOM      8  O   UNL     1      48.240  48.017  27.946  1.00  0.00    -0.550 OA
ATOM      9  O   UNL     1      49.146  47.230  29.897  1.00  0.00    -0.550 OA
ENDBRANCH   6   7
ENDBRANCH   5   6
ENDBRANCH   4   5
ENDBRANCH   3   4
ENDBRANCH   2   3
ENDBRANCH   1   2
BRANCH   1  10
ATOM     10  C   UNL     1      45.076  44.552  33.422  1.00  0.00     0.027 C 
BRANCH  10  11
ATOM     11  C   UNL     1      45.726  45.535  34.357  1.00  0.00    -0.031 C 
ATOM     12  C   UNL     1      45.001  46.397  35.083  1.00  0.00    -0.031 C 
BRANCH  12  13
ATOM     13  C   UNL     1      45.641  47.303  36.100  1.00  0.00     0.027 C 
BRANCH  13  14
ATOM     14  C   UNL     1      45.914  48.707  35.534  1.00  0.00     0.004 C 
BRANCH  14  15
ATOM     15  C   UNL     1      47.411  49.056  35.408  1.00  0.00     0.000 C 
BRANCH  15  16
ATOM     16  C   UNL     1      47.669  50.440  34.774  1.00  0.00    -0.000 C 
BRANCH  16  17
ATOM     17  C   UNL     1      49.068  50.980  35.105  1.00  0.00    -0.003 C 
ATOM     18  C   UNL     1      49.795  50.066  36.089  1.00  0.00     0.004 C 
ENDBRANCH  16  17
ENDBRANCH  15  16
ENDBRANCH  14  15
ENDBRANCH  13  14
ENDBRANCH  12  13
ENDBRANCH  10  11
ENDBRANCH   1  10
TORSDOF 13
ENDMDL
MODEL 4
REMARK VINA RESULT:    -5.275      8.211     13.694
REMARK INTER + INTRA:         -10.219
REMARK INTER:                  -9.576
REMARK INTRA:                  -0.643
REMARK UNBOUND:                -0.934
REMARK SMILES CCCCCCC=CCCCCCCCC(=O)[O-]
REMARK SMILES IDX 10 1 11 2 12 3 13 4 14 5 15 6 16 7 17 8 18 9 9 10 8 11 7 12
REMARK SMILES IDX 6 13 5 14 4 15 3 16 2 17 1 18
REMARK H PARENT
REMARK Flexibility Score: inf
ROOT
ATOM      1  C   UNL     1      43.639  52.790  34.982  1.00  0.00     0.004 C 
ENDROOT
BRANCH   1   2
ATOM      2  C   UNL     1      42.827  51.640  35.607  1.00  0.00     0.000 C 
BRANCH   2   3
ATOM      3  C   UNL     1      41.375  51.597  35.108  1.00  0.00     0.000 C 
BRANCH   3   4
ATOM      4  C   UNL     1      41.278  51.464  33.579  1.00  0.00     0.000 C 
BRANCH   4   5
ATOM      5  C   UNL     1      39.921  50.900  33.127  1.00  0.00     0.006 C 
BRANCH   5   6
ATOM      6  C   UNL     1      40.060  49.588  32.343  1.00  0.00     0.053 C 
BRANCH   6   7
ATOM      7  C   UNL     1      38.754  48.859  32.309  1.00  0.00     0.041 C 
ATOM      8  O   UNL     1      38.724  47.622  32.081  1.00  0.00    -0.550 OA
ATOM      9  O   UNL     1      37.570  49.539  32.570  1.00  0.00    -0.550 OA
ENDBRANCH   6   7
ENDBRANCH   5   6
ENDBRANCH   4   5
ENDBRANCH   3   4
ENDBRANCH   2   3
ENDBRANCH   1   2
BRANCH   1  10
ATOM     10  C   UNL     1      43.127  54.168  35.432  1.00  0.00     0.027 C 
BRANCH  10  11
ATOM     11  C   UNL     1      44.046  54.810  36.436  1.00  0.00    -0.031 C 
ATOM     12  C   UNL     1      43.571  55.487  37.490  1.00  0.00    -0.031 C 
BRANCH  12  13
ATOM     13  C   UNL     1      44.486  56.033  38.553  1.00  0.00     0.027 C 
BRANCH  13  14
ATOM     14  C   UNL     1      45.505  57.034  37.980  1.00  0.00     0.004 C 
BRANCH  14  15
ATOM     15  C   UNL     1      45.874  58.179  38.946  1.00  0.00     0.000 C 
BRANCH  15  16
ATOM     16  C   UNL     1      45.070  58.155  40.264  1.00  0.00    -0.000 C 
BRANCH  16  17
ATOM     17  C   UNL     1      45.647  59.113  41.316  1.00  0.00    -0.003 C 
ATOM     18  C   UNL     1      47.096  58.763  41.645  1.00  0.00     0.004 C 
ENDBRANCH  16  17
ENDBRANCH  15  16
ENDBRANCH  14  15
ENDBRANCH  13  14
ENDBRANCH  12  13
ENDBRANCH  10  11
ENDBRANCH   1  10
TORSDOF 13
ENDMDL
MODEL 5
REMARK VINA RESULT:    -5.260      6.139     11.953
REMARK INTER + INTRA:         -10.191
REMARK INTER:                  -9.280
REMARK INTRA:                  -0.911
REMARK UNBOUND:                -0.934
REMARK SMILES CCCCCCC=CCCCCCCCC(=O)[O-]
REMARK SMILES IDX 10 1 11 2 12 3 13 4 14 5 15 6 16 7 17 8 18 9 9 10 8 11 7 12
REMARK SMILES IDX 6 13 5 14 4 15 3 16 2 17 1 18
REMARK H PARENT
REMARK Flexibility Score: inf
ROOT
ATOM      1  C   UNL     1      49.973  49.967  36.296  1.00  0.00     0.004 C 
ENDROOT
BRANCH   1   2
ATOM      2  C   UNL     1      49.257  50.994  35.400  1.00  0.00     0.000 C 
BRANCH   2   3
ATOM      3  C   UNL     1      48.106  50.377  34.591  1.00  0.00     0.000 C 
BRANCH   3   4
ATOM      4  C   UNL     1      48.489  49.036  33.944  1.00  0.00     0.000 C 
BRANCH   4   5
ATOM      5  C   UNL     1      47.437  47.944  34.198  1.00  0.00     0.006 C 
BRANCH   5   6
ATOM      6  C   UNL     1      46.410  48.353  35.262  1.00  0.00     0.053 C 
BRANCH   6   7
ATOM      7  C   UNL     1      45.754  47.142  35.848  1.00  0.00     0.041 C 
ATOM      8  O   UNL     1      44.702  46.680  35.335  1.00  0.00    -0.550 OA
ATOM      9  O   UNL     1      46.330  46.497  36.936  1.00  0.00    -0.550 OA
ENDBRANCH   6   7
ENDBRANCH   5   6
ENDBRANCH   4   5
ENDBRANCH   3   4
ENDBRANCH   2   3
ENDBRANCH   1   2
BRANCH   1  10
ATOM     10  C   UNL     1      51.427  50.373  36.588  1.00  0.00     0.027 C 
BRANCH  10  11
ATOM     11  C   UNL     1      51.532  51.264  37.796  1.00  0.00    -0.031 C 
ATOM     12  C   UNL     1      51.371  50.785  39.037  1.00  0.00    -0.031 C 
BRANCH  12  13
ATOM     13  C   UNL     1      51.585  51.652  40.249  1.00  0.00     0.027 C 
BRANCH  13  14
ATOM     14  C   UNL     1      51.937  50.825  41.498  1.00  0.00     0.004 C 
BRANCH  14  15
ATOM     15  C   UNL     1      51.271  51.328  42.794  1.00  0.00     0.000 C 
BRANCH  15  16
ATOM     16  C   UNL     1      49.998  50.542  43.177  1.00  0.00    -0.000 C 
BRANCH  16  17
ATOM     17  C   UNL     1      50.139  49.037  42.907  1.00  0.00    -0.003 C 
ATOM     18  C   UNL     1      48.879  48.473  42.254  1.00  0.00     0.004 C 
ENDBRANCH  16  17
ENDBRANCH  15  16
ENDBRANCH  14  15
ENDBRANCH  13  14
ENDBRANCH  12  13
ENDBRANCH  10  11
ENDBRANCH   1  10
TORSDOF 13
ENDMDL
MODEL 6
REMARK VINA RESULT:    -5.177      8.027      9.796
REMARK INTER + INTRA:         -10.046
REMARK INTER:                  -9.349
REMARK INTRA:                  -0.697
REMARK UNBOUND:                -0.934
REMARK SMILES CCCCCCC=CCCCCCCCC(=O)[O-]
REMARK SMILES IDX 10 1 11 2 12 3 13 4 14 5 15 6 16 7 17 8 18 9 9 10 8 11 7 12
REMARK SMILES IDX 6 13 5 14 4 15 3 16 2 17 1 18
REMARK H PARENT
REMARK Flexibility Score: inf
ROOT
ATOM      1  C   UNL     1      44.053  52.877  34.942  1.00  0.00     0.004 C 
ENDROOT
BRANCH   1   2
ATOM      2  C   UNL     1      43.686  54.337  35.266  1.00  0.00     0.000 C 
BRANCH   2   3
ATOM      3  C   UNL     1      43.570  54.601  36.774  1.00  0.00     0.000 C 
BRANCH   3   4
ATOM      4  C   UNL     1      44.865  55.174  37.377  1.00  0.00     0.000 C 
BRANCH   4   5
ATOM      5  C   UNL     1      44.750  56.676  37.684  1.00  0.00     0.006 C 
BRANCH   5   6
ATOM      6  C   UNL     1      44.640  56.962  39.188  1.00  0.00     0.053 C 
BRANCH   6   7
ATOM      7  C   UNL     1      45.610  58.028  39.589  1.00  0.00     0.041 C 
ATOM      8  O   UNL     1      45.471  58.632  40.685  1.00  0.00    -0.550 OA
ATOM      9  O   UNL     1      46.694  58.326  38.772  1.00  0.00    -0.550 OA
ENDBRANCH   6   7
ENDBRANCH   5   6
ENDBRANCH   4   5
ENDBRANCH   3   4
ENDBRANCH   2   3
ENDBRANCH   1   2
BRANCH   1  10
ATOM     10  C   UNL     1      42.967  51.893  35.409  1.00  0.00     0.027 C 
BRANCH  10  11
ATOM     11  C   UNL     1      41.616  52.236  34.843  1.00  0.00    -0.031 C 
ATOM     12  C   UNL     1      41.200  51.738  33.670  1.00  0.00    -0.031 C 
BRANCH  12  13
ATOM     13  C   UNL     1      39.808  51.990  33.157  1.00  0.00     0.027 C 
BRANCH  13  14
ATOM     14  C   UNL     1      38.988  50.692  33.045  1.00  0.00     0.004 C 
BRANCH  14  15
ATOM     15  C   UNL     1      39.780  49.494  32.483  1.00  0.00     0.000 C 
BRANCH  15  16
ATOM     16  C   UNL     1      38.889  48.289  32.111  1.00  0.00    -0.000 C 
BRANCH  16  17
ATOM     17  C   UNL     1      37.438  48.702  31.827  1.00  0.00    -0.003 C 
ATOM     18  C   UNL     1      37.229  48.997  30.343  1.00  0.00     0.004 C 
ENDBRANCH  16  17
ENDBRANCH  15  16
ENDBRANCH  14  15
ENDBRANCH  13  14
ENDBRANCH  12  13
ENDBRANCH  10  11
ENDBRANCH   1  10
TORSDOF 13
ENDMDL
MODEL 7
REMARK VINA RESULT:    -5.175      7.642      8.994
REMARK INTER + INTRA:         -10.042
REMARK INTER:                  -9.045
REMARK INTRA:                  -0.997
REMARK UNBOUND:                -0.934
REMARK SMILES CCCCCCC=CCCCCCCCC(=O)[O-]
REMARK SMILES IDX 10 1 11 2 12 3 13 4 14 5 15 6 16 7 17 8 18 9 9 10 8 11 7 12
REMARK SMILES IDX 6 13 5 14 4 15 3 16 2 17 1 18
REMARK H PARENT
REMARK Flexibility Score: inf
ROOT
ATOM      1  C   UNL     1      41.232  52.224  35.295  1.00  0.00     0.004 C 
ENDROOT
BRANCH   1   2
ATOM      2  C   UNL     1      42.713  52.084  34.899  1.00  0.00     0.000 C 
BRANCH   2   3
ATOM      3  C   UNL     1      43.405  53.440  34.696  1.00  0.00     0.000 C 
BRANCH   3   4
ATOM      4  C   UNL     1      44.248  53.862  35.911  1.00  0.00     0.000 C 
BRANCH   4   5
ATOM      5  C   UNL     1      43.518  54.881  36.802  1.00  0.00     0.006 C 
BRANCH   5   6
ATOM      6  C   UNL     1      44.385  55.372  37.969  1.00  0.00     0.053 C 
BRANCH   6   7
ATOM      7  C   UNL     1      44.937  56.730  37.674  1.00  0.00     0.041 C 
ATOM      8  O   UNL     1      44.235  57.756  37.868  1.00  0.00    -0.550 OA
ATOM      9  O   UNL     1      46.245  56.867  37.224  1.00  0.00    -0.550 OA
ENDBRANCH   6   7
ENDBRANCH   5   6
ENDBRANCH   4   5
ENDBRANCH   3   4
ENDBRANCH   2   3
ENDBRANCH   1   2
BRANCH   1  10
ATOM     10  C   UNL     1      40.312  52.311  34.066  1.00  0.00     0.027 C 
BRANCH  10  11
ATOM     11  C   UNL     1      39.891  50.951  33.580  1.00  0.00    -0.031 C 
ATOM     12  C   UNL     1      40.332  50.454  32.416  1.00  0.00    -0.031 C 
BRANCH  12  13
ATOM     13  C   UNL     1      40.000  49.052  31.982  1.00  0.00     0.027 C 
BRANCH  13  14
ATOM     14  C   UNL     1      38.570  48.646  32.377  1.00  0.00     0.004 C 
BRANCH  14  15
ATOM     15  C   UNL     1      37.556  48.702  31.216  1.00  0.00     0.000 C 
BRANCH  15  16
ATOM     16  C   UNL     1      36.919  50.095  31.022  1.00  0.00    -0.000 C 
BRANCH  16  17
ATOM     17  C   UNL     1      37.354  50.755  29.705  1.00  0.00    -0.003 C 
ATOM     18  C   UNL     1      37.332  49.755  28.552  1.00  0.00     0.004 C 
ENDBRANCH  16  17
ENDBRANCH  15  16
ENDBRANCH  14  15
ENDBRANCH  13  14
ENDBRANCH  12  13
ENDBRANCH  10  11
ENDBRANCH   1  10
TORSDOF 13
ENDMDL
MODEL 8
REMARK VINA RESULT:    -5.137      3.621      9.368
REMARK INTER + INTRA:          -9.975
REMARK INTER:                  -9.347
REMARK INTRA:                  -0.628
REMARK UNBOUND:                -0.934
REMARK SMILES CCCCCCC=CCCCCCCCC(=O)[O-]
REMARK SMILES IDX 10 1 11 2 12 3 13 4 14 5 15 6 16 7 17 8 18 9 9 10 8 11 7 12
REMARK SMILES IDX 6 13 5 14 4 15 3 16 2 17 1 18
REMARK H PARENT
REMARK Flexibility Score: inf
ROOT
ATOM      1  C   UNL     1      44.947  46.476  35.005  1.00  0.00     0.004 C 
ENDROOT
BRANCH   1   2
ATOM      2  C   UNL     1      45.714  45.362  34.269  1.00  0.00     0.000 C 
BRANCH   2   3
ATOM      3  C   UNL     1      44.805  44.504  33.376  1.00  0.00     0.000 C 
BRANCH   3   4
ATOM      4  C   UNL     1      45.535  43.284  32.787  1.00  0.00     0.000 C 
BRANCH   4   5
ATOM      5  C   UNL     1      45.458  43.245  31.251  1.00  0.00     0.006 C 
BRANCH   5   6
ATOM      6  C   UNL     1      45.979  44.535  30.603  1.00  0.00     0.053 C 
BRANCH   6   7
ATOM      7  C   UNL     1      45.527  44.623  29.180  1.00  0.00     0.041 C 
ATOM      8  O   UNL     1      45.882  45.593  28.461  1.00  0.00    -0.550 OA
ATOM      9  O   UNL     1      44.747  43.611  28.633  1.00  0.00    -0.550 OA
ENDBRANCH   6   7
ENDBRANCH   5   6
ENDBRANCH   4   5
ENDBRANCH   3   4
ENDBRANCH   2   3
ENDBRANCH   1   2
BRANCH   1  10
ATOM     10  C   UNL     1      45.852  47.254  35.974  1.00  0.00     0.027 C 
BRANCH  10  11
ATOM     11  C   UNL     1      46.247  48.597  35.420  1.00  0.00    -0.031 C 
ATOM     12  C   UNL     1      47.526  48.996  35.394  1.00  0.00    -0.031 C 
BRANCH  12  13
ATOM     13  C   UNL     1      47.934  50.289  34.740  1.00  0.00     0.027 C 
BRANCH  13  14
ATOM     14  C   UNL     1      49.138  50.939  35.444  1.00  0.00     0.004 C 
BRANCH  14  15
ATOM     15  C   UNL     1      50.112  49.931  36.085  1.00  0.00     0.000 C 
BRANCH  15  16
ATOM     16  C   UNL     1      51.448  50.564  36.530  1.00  0.00    -0.000 C 
BRANCH  16  17
ATOM     17  C   UNL     1      51.485  50.846  38.038  1.00  0.00    -0.003 C 
ATOM     18  C   UNL     1      51.132  49.597  38.843  1.00  0.00     0.004 C 
ENDBRANCH  16  17
ENDBRANCH  15  16
ENDBRANCH  14  15
ENDBRANCH  13  14
ENDBRANCH  12  13
ENDBRANCH  10  11
ENDBRANCH   1  10
TORSDOF 13
ENDMDL
MODEL 9
REMARK VINA RESULT:    -5.052      3.961      7.838
REMARK INTER + INTRA:          -9.826
REMARK INTER:                  -9.049
REMARK INTRA:                  -0.777
REMARK UNBOUND:                -0.934
REMARK SMILES CCCCCCC=CCCCCCCCC(=O)[O-]
REMARK SMILES IDX 10 1 11 2 12 3 13 4 14 5 15 6 16 7 17 8 18 9 9 10 8 11 7 12
REMARK SMILES IDX 6 13 5 14 4 15 3 16 2 17 1 18
REMARK H PARENT
REMARK Flexibility Score: inf
ROOT
ATOM      1  C   UNL     1      49.534  49.670  35.751  1.00  0.00     0.004 C 
ENDROOT
BRANCH   1   2
ATOM      2  C   UNL     1      50.400  50.645  36.570  1.00  0.00     0.000 C 
BRANCH   2   3
ATOM      3  C   UNL     1      51.403  49.927  37.485  1.00  0.00     0.000 C 
BRANCH   3   4
ATOM      4  C   UNL     1      52.121  50.889  38.447  1.00  0.00     0.000 C 
BRANCH   4   5
ATOM      5  C   UNL     1      51.139  51.627  39.372  1.00  0.00     0.006 C 
BRANCH   5   6
ATOM      6  C   UNL     1      51.582  51.601  40.841  1.00  0.00     0.053 C 
BRANCH   6   7
ATOM      7  C   UNL     1      50.807  50.572  41.602  1.00  0.00     0.041 C 
ATOM      8  O   UNL     1      50.397  50.820  42.766  1.00  0.00    -0.550 OA
ATOM      9  O   UNL     1      50.500  49.353  41.009  1.00  0.00    -0.550 OA
ENDBRANCH   6   7
ENDBRANCH   5   6
ENDBRANCH   4   5
ENDBRANCH   3   4
ENDBRANCH   2   3
ENDBRANCH   1   2
BRANCH   1  10
ATOM     10  C   UNL     1      48.494  50.406  34.891  1.00  0.00     0.027 C 
BRANCH  10  11
ATOM     11  C   UNL     1      47.132  49.776  34.993  1.00  0.00    -0.031 C 
ATOM     12  C   UNL     1      46.953  48.581  35.573  1.00  0.00    -0.031 C 
BRANCH  12  13
ATOM     13  C   UNL     1      45.578  48.001  35.774  1.00  0.00     0.027 C 
BRANCH  13  14
ATOM     14  C   UNL     1      45.413  46.644  35.068  1.00  0.00     0.004 C 
BRANCH  14  15
ATOM     15  C   UNL     1      46.743  45.925  34.768  1.00  0.00     0.000 C 
BRANCH  15  16
ATOM     16  C   UNL     1      46.684  45.020  33.518  1.00  0.00    -0.000 C 
BRANCH  16  17
ATOM     17  C   UNL     1      45.283  44.438  33.286  1.00  0.00    -0.003 C 
ATOM     18  C   UNL     1      45.103  43.992  31.836  1.00  0.00     0.004 C 
ENDBRANCH  16  17
ENDBRANCH  15  16
ENDBRANCH  14  15
ENDBRANCH  13  14
ENDBRANCH  12  13
ENDBRANCH  10  11
ENDBRANCH   1  10
TORSDOF 13
ENDMDL
