MODEL 1
REMARK VINA RESULT:    18.988      0.000      0.000
REMARK INTER + INTRA:          27.699
REMARK INTER:                  26.759
REMARK INTRA:                   0.941
REMARK UNBOUND:                 0.941
REMARK SMILES C=C(CC[C@@H](C(=O)[O-])[C@H]1[C@@H](O)C[C@]2(C)C3=C(CC[C@]12C)[C@]1(C)CC[C@@H](O)C(C)(C)[C@@H]1CC3)C(C)C
REMARK SMILES IDX 4 1 5 2 6 3 7 4 8 5 9 6 10 7 19 8 12 9 13 10 18 11 20 12
REMARK SMILES IDX 14 13 15 14 17 15 16 16 32 17 21 18 31 19 30 20 23 21 22 22
REMARK SMILES IDX 27 23 24 24 25 25 28 26 29 27 11 28 26 30 3 32 2 33 1 34
REMARK SMILES IDX 33 35 34 36 35 37
REMARK H PARENT 11 29 26 31
REMARK Flexibility Score: inf
ROOT
ATOM      1  C   UNL     1      77.318  17.999   2.292  1.00  0.00     0.014 C 
ENDROOT
BRANCH   1   2
ATOM      2  C   UNL     1      77.433  16.468   2.104  1.00  0.00     0.042 C 
BRANCH   2   3
ATOM      3  C   UNL     1      77.904  16.093   0.716  1.00  0.00     0.045 C 
ATOM      4  O   UNL     1      78.778  16.794   0.145  1.00  0.00    -0.550 OA
ATOM      5  O   UNL     1      77.434  14.953   0.075  1.00  0.00    -0.550 OA
ENDBRANCH   2   3
BRANCH   2   6
ATOM      6  C   UNL     1      78.165  15.758   3.303  1.00  0.00     0.033 C 
ATOM      7  C   UNL     1      78.465  14.277   3.073  1.00  0.00     0.119 C 
ATOM      8  C   UNL     1      79.455  16.342   3.985  1.00  0.00    -0.017 C 
ATOM      9  C   UNL     1      79.198  13.875   4.340  1.00  0.00     0.043 C 
ATOM     10  C   UNL     1      80.090  15.080   4.761  1.00  0.00    -0.003 C 
ATOM     11  C   UNL     1      79.072  17.482   4.977  1.00  0.00     0.012 C 
ATOM     12  C   UNL     1      80.418  16.949   2.922  1.00  0.00     0.013 C 
ATOM     13  C   UNL     1      81.558  14.765   4.356  1.00  0.00     0.017 C 
ATOM     14  C   UNL     1      80.098  15.211   6.310  1.00  0.00    -0.064 C 
ATOM     15  C   UNL     1      80.148  17.653   6.038  1.00  0.00     0.032 C 
ATOM     16  C   UNL     1      80.176  16.424   6.926  1.00  0.00    -0.064 C 
ATOM     17  C   UNL     1      80.156  13.952   7.140  1.00  0.00     0.032 C 
ATOM     18  C   UNL     1      80.366  16.603   8.467  1.00  0.00    -0.008 C 
ATOM     19  C   UNL     1      81.055  14.131   8.348  1.00  0.00     0.009 C 
ATOM     20  C   UNL     1      80.468  15.227   9.270  1.00  0.00     0.007 C 
ATOM     21  C   UNL     1      81.670  17.434   8.638  1.00  0.00     0.014 C 
ATOM     22  C   UNL     1      79.132  17.401   8.972  1.00  0.00     0.016 C 
ATOM     23  C   UNL     1      81.178  15.286  10.709  1.00  0.00    -0.006 C 
ATOM     24  C   UNL     1      82.145  17.573  10.076  1.00  0.00     0.033 C 
ATOM     25  C   UNL     1      82.440  16.197  10.676  1.00  0.00     0.120 C 
ATOM     26  C   UNL     1      81.641  13.876  11.180  1.00  0.00     0.014 C 
ATOM     27  C   UNL     1      80.183  15.772  11.807  1.00  0.00     0.014 C 
BRANCH   7  28
ATOM     28  O   UNL     1      79.296  14.085   1.959  1.00  0.00    -0.393 OA
ATOM     29  H   UNL     1      79.355  14.957   1.488  1.00  0.00     0.210 HD
ENDBRANCH   7  28
BRANCH  25  30
ATOM     30  O   UNL     1      82.962  16.356  11.973  1.00  0.00    -0.393 OA
ATOM     31  H   UNL     1      83.710  15.707  12.066  1.00  0.00     0.210 HD
ENDBRANCH  25  30
ENDBRANCH   2   6
ENDBRANCH   1   2
BRANCH   1  32
ATOM     32  C   UNL     1      77.461  18.810   0.988  1.00  0.00     0.031 C 
BRANCH  32  33
ATOM     33  C   UNL     1      76.412  19.892   0.815  1.00  0.00    -0.075 C 
ATOM     34  C   UNL     1      75.370  19.680  -0.009  1.00  0.00     0.008 C 
BRANCH  33  35
ATOM     35  C   UNL     1      76.496  21.160   1.655  1.00  0.00     0.008 C 
ATOM     36  C   UNL     1      75.099  21.741   1.913  1.00  0.00     0.012 C 
ATOM     37  C   UNL     1      77.417  22.210   1.020  1.00  0.00     0.012 C 
ENDBRANCH  33  35
ENDBRANCH  32  33
ENDBRANCH   1  32
TORSDOF 8
ENDMDL
