MODEL 1
REMARK VINA RESULT:    -4.634      0.000      0.000
REMARK INTER + INTRA:          -6.725
REMARK INTER:                  -6.260
REMARK INTRA:                  -0.465
REMARK UNBOUND:                -0.465
REMARK SMILES [NH3+]CCCC[C@@H]([NH3+])C(=O)[O-]
REMARK SMILES IDX 4 1 3 2 2 3 1 4 5 8 6 9 7 10 8 14 9 15 10 16
REMARK H PARENT 1 5 1 6 1 7 7 11 7 12 7 13
REMARK Flexibility Score: inf
ROOT
ATOM      1  C   UNL     1     -20.091 -13.204  13.256  1.00  0.00     0.012 C 
ENDROOT
BRANCH   1   2
ATOM      2  C   UNL     1     -20.055 -11.946  12.370  1.00  0.00     0.061 C 
BRANCH   2   3
ATOM      3  C   UNL     1     -19.486 -12.214  10.969  1.00  0.00     0.258 C 
BRANCH   3   4
ATOM      4  N   UNL     1     -18.800 -13.504  10.923  1.00  0.00    -0.358 N 
ATOM      5  H   UNL     1     -19.499 -14.281  10.877  1.00  0.00     0.344 HD
ATOM      6  H   UNL     1     -18.167 -13.547  10.091  1.00  0.00     0.344 HD
ATOM      7  H   UNL     1     -18.224 -13.618  11.790  1.00  0.00     0.344 HD
ENDBRANCH   3   4
ENDBRANCH   2   3
ENDBRANCH   1   2
BRANCH   1   8
ATOM      8  C   UNL     1     -19.022 -13.254  14.368  1.00  0.00     0.072 C 
BRANCH   8   9
ATOM      9  C   UNL     1     -17.948 -12.145  14.278  1.00  0.00     0.227 C 
BRANCH   9  10
ATOM     10  N   UNL     1     -17.743 -11.526  15.594  1.00  0.00    -0.350 N 
ATOM     11  H   UNL     1     -16.935 -11.968  16.090  1.00  0.00     0.345 HD
ATOM     12  H   UNL     1     -18.605 -11.640  16.176  1.00  0.00     0.345 HD
ATOM     13  H   UNL     1     -17.559 -10.502  15.480  1.00  0.00     0.345 HD
ENDBRANCH   9  10
BRANCH   9  14
ATOM     14  C   UNL     1     -16.644 -12.685  13.751  1.00  0.00     0.099 C 
ATOM     15  O   UNL     1     -15.547 -12.221  14.164  1.00  0.00    -0.544 OA
ATOM     16  O   UNL     1     -16.645 -13.705  12.810  1.00  0.00    -0.544 OA
ENDBRANCH   9  14
ENDBRANCH   8   9
ENDBRANCH   1   8
TORSDOF 7
ENDMDL
MODEL 2
REMARK VINA RESULT:    -4.593      2.443      4.129
REMARK INTER + INTRA:          -6.669
REMARK INTER:                  -6.226
REMARK INTRA:                  -0.443
REMARK UNBOUND:                -0.465
REMARK SMILES [NH3+]CCCC[C@@H]([NH3+])C(=O)[O-]
REMARK SMILES IDX 4 1 3 2 2 3 1 4 5 8 6 9 7 10 8 14 9 15 10 16
REMARK H PARENT 1 5 1 6 1 7 7 11 7 12 7 13
REMARK Flexibility Score: inf
ROOT
ATOM      1  C   UNL     1     -17.480 -13.733  12.456  1.00  0.00     0.012 C 
ENDROOT
BRANCH   1   2
ATOM      2  C   UNL     1     -16.756 -12.562  13.147  1.00  0.00     0.061 C 
BRANCH   2   3
ATOM      3  C   UNL     1     -16.645 -12.739  14.668  1.00  0.00     0.258 C 
BRANCH   3   4
ATOM      4  N   UNL     1     -17.477 -11.761  15.369  1.00  0.00    -0.358 N 
ATOM      5  H   UNL     1     -18.194 -12.252  15.951  1.00  0.00     0.344 HD
ATOM      6  H   UNL     1     -16.883 -11.152  15.977  1.00  0.00     0.344 HD
ATOM      7  H   UNL     1     -17.966 -11.160  14.665  1.00  0.00     0.344 HD
ENDBRANCH   3   4
ENDBRANCH   2   3
ENDBRANCH   1   2
BRANCH   1   8
ATOM      8  C   UNL     1     -18.813 -13.367  11.771  1.00  0.00     0.072 C 
BRANCH   8   9
ATOM      9  C   UNL     1     -19.593 -12.220  12.454  1.00  0.00     0.227 C 
BRANCH   9  10
ATOM     10  N   UNL     1     -20.308 -11.422  11.449  1.00  0.00    -0.350 N 
ATOM     11  H   UNL     1     -19.819 -11.464  10.525  1.00  0.00     0.345 HD
ATOM     12  H   UNL     1     -20.361 -10.425  11.762  1.00  0.00     0.345 HD
ATOM     13  H   UNL     1     -21.284 -11.782  11.338  1.00  0.00     0.345 HD
ENDBRANCH   9  10
BRANCH   9  14
ATOM     14  C   UNL     1     -20.563 -12.749  13.479  1.00  0.00     0.099 C 
ATOM     15  O   UNL     1     -20.148 -13.403  14.473  1.00  0.00    -0.544 OA
ATOM     16  O   UNL     1     -21.923 -12.510  13.335  1.00  0.00    -0.544 OA
ENDBRANCH   9  14
ENDBRANCH   8   9
ENDBRANCH   1   8
TORSDOF 7
ENDMDL
MODEL 3
REMARK VINA RESULT:    -4.468      1.820      2.168
REMARK INTER + INTRA:          -6.500
REMARK INTER:                  -6.307
REMARK INTRA:                  -0.193
REMARK UNBOUND:                -0.465
REMARK SMILES [NH3+]CCCC[C@@H]([NH3+])C(=O)[O-]
REMARK SMILES IDX 4 1 3 2 2 3 1 4 5 8 6 9 7 10 8 14 9 15 10 16
REMARK H PARENT 1 5 1 6 1 7 7 11 7 12 7 13
REMARK Flexibility Score: inf
ROOT
ATOM      1  C   UNL     1     -18.952 -13.037  11.148  1.00  0.00     0.012 C 
ENDROOT
BRANCH   1   2
ATOM      2  C   UNL     1     -19.262 -11.533  11.269  1.00  0.00     0.061 C 
BRANCH   2   3
ATOM      3  C   UNL     1     -20.689 -11.177  10.829  1.00  0.00     0.258 C 
BRANCH   3   4
ATOM      4  N   UNL     1     -21.608 -11.209  11.966  1.00  0.00    -0.358 N 
ATOM      5  H   UNL     1     -21.577 -10.297  12.478  1.00  0.00     0.344 HD
ATOM      6  H   UNL     1     -22.584 -11.397  11.637  1.00  0.00     0.344 HD
ATOM      7  H   UNL     1     -21.320 -11.974  12.620  1.00  0.00     0.344 HD
ENDBRANCH   3   4
ENDBRANCH   2   3
ENDBRANCH   1   2
BRANCH   1   8
ATOM      8  C   UNL     1     -18.216 -13.654  12.356  1.00  0.00     0.072 C 
BRANCH   8   9
ATOM      9  C   UNL     1     -18.116 -12.727  13.590  1.00  0.00     0.227 C 
BRANCH   9  10
ATOM     10  N   UNL     1     -19.126 -13.099  14.589  1.00  0.00    -0.350 N 
ATOM     11  H   UNL     1     -18.903 -14.029  15.013  1.00  0.00     0.345 HD
ATOM     12  H   UNL     1     -20.068 -13.145  14.138  1.00  0.00     0.345 HD
ATOM     13  H   UNL     1     -19.160 -12.376  15.345  1.00  0.00     0.345 HD
ENDBRANCH   9  10
BRANCH   9  14
ATOM     14  C   UNL     1     -16.740 -12.775  14.202  1.00  0.00     0.099 C 
ATOM     15  O   UNL     1     -15.832 -13.475  13.679  1.00  0.00    -0.544 OA
ATOM     16  O   UNL     1     -16.464 -12.038  15.346  1.00  0.00    -0.544 OA
ENDBRANCH   9  14
ENDBRANCH   8   9
ENDBRANCH   1   8
TORSDOF 7
ENDMDL
MODEL 4
REMARK VINA RESULT:    -4.246     18.800     19.909
REMARK INTER + INTRA:          -6.200
REMARK INTER:                  -6.055
REMARK INTRA:                  -0.145
REMARK UNBOUND:                -0.465
REMARK SMILES [NH3+]CCCC[C@@H]([NH3+])C(=O)[O-]
REMARK SMILES IDX 4 1 3 2 2 3 1 4 5 8 6 9 7 10 8 14 9 15 10 16
REMARK H PARENT 1 5 1 6 1 7 7 11 7 12 7 13
REMARK Flexibility Score: inf
ROOT
ATOM      1  C   UNL     1     -11.871   4.272  22.193  1.00  0.00     0.012 C 
ENDROOT
BRANCH   1   2
ATOM      2  C   UNL     1     -11.795   4.481  20.670  1.00  0.00     0.061 C 
BRANCH   2   3
ATOM      3  C   UNL     1     -12.247   3.250  19.871  1.00  0.00     0.258 C 
BRANCH   3   4
ATOM      4  N   UNL     1     -13.704   3.214  19.748  1.00  0.00    -0.358 N 
ATOM      5  H   UNL     1     -14.103   4.164  19.928  1.00  0.00     0.344 HD
ATOM      6  H   UNL     1     -13.978   2.891  18.791  1.00  0.00     0.344 HD
ATOM      7  H   UNL     1     -14.092   2.545  20.453  1.00  0.00     0.344 HD
ENDBRANCH   3   4
ENDBRANCH   2   3
ENDBRANCH   1   2
BRANCH   1   8
ATOM      8  C   UNL     1     -13.102   4.899  22.880  1.00  0.00     0.072 C 
BRANCH   8   9
ATOM      9  C   UNL     1     -14.171   3.881  23.340  1.00  0.00     0.227 C 
BRANCH   9  10
ATOM     10  N   UNL     1     -13.701   3.150  24.525  1.00  0.00    -0.350 N 
ATOM     11  H   UNL     1     -13.740   3.758  25.375  1.00  0.00     0.345 HD
ATOM     12  H   UNL     1     -12.716   2.832  24.376  1.00  0.00     0.345 HD
ATOM     13  H   UNL     1     -14.297   2.304  24.680  1.00  0.00     0.345 HD
ENDBRANCH   9  10
BRANCH   9  14
ATOM     14  C   UNL     1     -15.483   4.558  23.637  1.00  0.00     0.099 C 
ATOM     15  O   UNL     1     -15.927   5.454  22.871  1.00  0.00    -0.544 OA
ATOM     16  O   UNL     1     -16.216   4.189  24.757  1.00  0.00    -0.544 OA
ENDBRANCH   9  14
ENDBRANCH   8   9
ENDBRANCH   1   8
TORSDOF 7
ENDMDL
MODEL 5
REMARK VINA RESULT:    -4.239     18.616     19.693
REMARK INTER + INTRA:          -6.191
REMARK INTER:                  -5.970
REMARK INTRA:                  -0.222
REMARK UNBOUND:                -0.465
REMARK SMILES [NH3+]CCCC[C@@H]([NH3+])C(=O)[O-]
REMARK SMILES IDX 4 1 3 2 2 3 1 4 5 8 6 9 7 10 8 14 9 15 10 16
REMARK H PARENT 1 5 1 6 1 7 7 11 7 12 7 13
REMARK Flexibility Score: inf
ROOT
ATOM      1  C   UNL     1     -12.409   4.316  24.072  1.00  0.00     0.012 C 
ENDROOT
BRANCH   1   2
ATOM      2  C   UNL     1     -12.876   2.886  24.396  1.00  0.00     0.061 C 
BRANCH   2   3
ATOM      3  C   UNL     1     -13.948   2.838  25.494  1.00  0.00     0.258 C 
BRANCH   3   4
ATOM      4  N   UNL     1     -15.263   3.180  24.953  1.00  0.00    -0.358 N 
ATOM      5  H   UNL     1     -15.924   2.380  25.082  1.00  0.00     0.344 HD
ATOM      6  H   UNL     1     -15.640   4.031  25.432  1.00  0.00     0.344 HD
ATOM      7  H   UNL     1     -15.172   3.383  23.931  1.00  0.00     0.344 HD
ENDBRANCH   3   4
ENDBRANCH   2   3
ENDBRANCH   1   2
BRANCH   1   8
ATOM      8  C   UNL     1     -12.544   4.731  22.592  1.00  0.00     0.072 C 
BRANCH   8   9
ATOM      9  C   UNL     1     -13.086   3.622  21.660  1.00  0.00     0.227 C 
BRANCH   9  10
ATOM     10  N   UNL     1     -14.521   3.818  21.417  1.00  0.00    -0.350 N 
ATOM     11  H   UNL     1     -14.676   4.508  20.646  1.00  0.00     0.345 HD
ATOM     12  H   UNL     1     -14.983   4.169  22.287  1.00  0.00     0.345 HD
ATOM     13  H   UNL     1     -14.965   2.906  21.156  1.00  0.00     0.345 HD
ENDBRANCH   9  10
BRANCH   9  14
ATOM     14  C   UNL     1     -12.339   3.590  20.352  1.00  0.00     0.099 C 
ATOM     15  O   UNL     1     -11.145   3.987  20.288  1.00  0.00    -0.544 OA
ATOM     16  O   UNL     1     -12.964   3.112  19.208  1.00  0.00    -0.544 OA
ENDBRANCH   9  14
ENDBRANCH   8   9
ENDBRANCH   1   8
TORSDOF 7
ENDMDL
MODEL 6
REMARK VINA RESULT:    -4.234      1.881      2.532
REMARK INTER + INTRA:          -6.184
REMARK INTER:                  -6.080
REMARK INTRA:                  -0.104
REMARK UNBOUND:                -0.465
REMARK SMILES [NH3+]CCCC[C@@H]([NH3+])C(=O)[O-]
REMARK SMILES IDX 4 1 3 2 2 3 1 4 5 8 6 9 7 10 8 14 9 15 10 16
REMARK H PARENT 1 5 1 6 1 7 7 11 7 12 7 13
REMARK Flexibility Score: inf
ROOT
ATOM      1  C   UNL     1     -19.768 -13.064  13.150  1.00  0.00     0.012 C 
ENDROOT
BRANCH   1   2
ATOM      2  C   UNL     1     -21.106 -13.290  13.878  1.00  0.00     0.061 C 
BRANCH   2   3
ATOM      3  C   UNL     1     -22.296 -12.633  13.165  1.00  0.00     0.258 C 
BRANCH   3   4
ATOM      4  N   UNL     1     -21.857 -11.498  12.354  1.00  0.00    -0.358 N 
ATOM      5  H   UNL     1     -21.928 -10.613  12.906  1.00  0.00     0.344 HD
ATOM      6  H   UNL     1     -20.869 -11.641  12.039  1.00  0.00     0.344 HD
ATOM      7  H   UNL     1     -22.471 -11.421  11.510  1.00  0.00     0.344 HD
ENDBRANCH   3   4
ENDBRANCH   2   3
ENDBRANCH   1   2
BRANCH   1   8
ATOM      8  C   UNL     1     -18.584 -12.673  14.060  1.00  0.00     0.072 C 
BRANCH   8   9
ATOM      9  C   UNL     1     -17.254 -13.388  13.726  1.00  0.00     0.227 C 
BRANCH   9  10
ATOM     10  N   UNL     1     -17.233 -13.791  12.314  1.00  0.00    -0.350 N 
ATOM     11  H   UNL     1     -18.099 -13.471  11.824  1.00  0.00     0.345 HD
ATOM     12  H   UNL     1     -17.165 -14.832  12.245  1.00  0.00     0.345 HD
ATOM     13  H   UNL     1     -16.397 -13.376  11.840  1.00  0.00     0.345 HD
ENDBRANCH   9  10
BRANCH   9  14
ATOM     14  C   UNL     1     -16.068 -12.511  14.032  1.00  0.00     0.099 C 
ATOM     15  O   UNL     1     -15.166 -12.333  13.171  1.00  0.00    -0.544 OA
ATOM     16  O   UNL     1     -15.968 -11.885  15.268  1.00  0.00    -0.544 OA
ENDBRANCH   9  14
ENDBRANCH   8   9
ENDBRANCH   1   8
TORSDOF 7
ENDMDL
MODEL 7
REMARK VINA RESULT:    -4.194      2.547      4.343
REMARK INTER + INTRA:          -6.130
REMARK INTER:                  -5.991
REMARK INTRA:                  -0.139
REMARK UNBOUND:                -0.465
REMARK SMILES [NH3+]CCCC[C@@H]([NH3+])C(=O)[O-]
REMARK SMILES IDX 4 1 3 2 2 3 1 4 5 8 6 9 7 10 8 14 9 15 10 16
REMARK H PARENT 1 5 1 6 1 7 7 11 7 12 7 13
REMARK Flexibility Score: inf
ROOT
ATOM      1  C   UNL     1     -16.507 -13.429  13.780  1.00  0.00     0.012 C 
ENDROOT
BRANCH   1   2
ATOM      2  C   UNL     1     -15.702 -12.140  14.021  1.00  0.00     0.061 C 
BRANCH   2   3
ATOM      3  C   UNL     1     -15.942 -11.533  15.412  1.00  0.00     0.258 C 
BRANCH   3   4
ATOM      4  N   UNL     1     -14.786 -10.749  15.846  1.00  0.00    -0.358 N 
ATOM      5  H   UNL     1     -14.031 -10.794  15.124  1.00  0.00     0.344 HD
ATOM      6  H   UNL     1     -15.065  -9.754  16.006  1.00  0.00     0.344 HD
ATOM      7  H   UNL     1     -14.421 -11.145  16.743  1.00  0.00     0.344 HD
ENDBRANCH   3   4
ENDBRANCH   2   3
ENDBRANCH   1   2
BRANCH   1   8
ATOM      8  C   UNL     1     -17.524 -13.360  12.622  1.00  0.00     0.072 C 
BRANCH   8   9
ATOM      9  C   UNL     1     -19.006 -13.390  13.064  1.00  0.00     0.227 C 
BRANCH   9  10
ATOM     10  N   UNL     1     -19.110 -13.156  14.511  1.00  0.00    -0.350 N 
ATOM     11  H   UNL     1     -20.030 -13.493  14.876  1.00  0.00     0.345 HD
ATOM     12  H   UNL     1     -19.015 -12.134  14.711  1.00  0.00     0.345 HD
ATOM     13  H   UNL     1     -18.338 -13.659  15.008  1.00  0.00     0.345 HD
ENDBRANCH   9  10
BRANCH   9  14
ATOM     14  C   UNL     1     -19.823 -12.370  12.315  1.00  0.00     0.099 C 
ATOM     15  O   UNL     1     -19.368 -11.825  11.274  1.00  0.00    -0.544 OA
ATOM     16  O   UNL     1     -21.091 -12.030  12.767  1.00  0.00    -0.544 OA
ENDBRANCH   9  14
ENDBRANCH   8   9
ENDBRANCH   1   8
TORSDOF 7
ENDMDL
MODEL 8
REMARK VINA RESULT:    -4.131      2.109      4.071
REMARK INTER + INTRA:          -6.046
REMARK INTER:                  -5.883
REMARK INTRA:                  -0.163
REMARK UNBOUND:                -0.465
REMARK SMILES [NH3+]CCCC[C@@H]([NH3+])C(=O)[O-]
REMARK SMILES IDX 4 1 3 2 2 3 1 4 5 8 6 9 7 10 8 14 9 15 10 16
REMARK H PARENT 1 5 1 6 1 7 7 11 7 12 7 13
REMARK Flexibility Score: inf
ROOT
ATOM      1  C   UNL     1     -18.550 -12.205  14.341  1.00  0.00     0.012 C 
ENDROOT
BRANCH   1   2
ATOM      2  C   UNL     1     -17.063 -12.604  14.367  1.00  0.00     0.061 C 
BRANCH   2   3
ATOM      3  C   UNL     1     -16.255 -11.841  15.427  1.00  0.00     0.258 C 
BRANCH   3   4
ATOM      4  N   UNL     1     -17.138 -11.062  16.295  1.00  0.00    -0.358 N 
ATOM      5  H   UNL     1     -18.117 -11.091  15.929  1.00  0.00     0.344 HD
ATOM      6  H   UNL     1     -17.112 -11.442  17.269  1.00  0.00     0.344 HD
ATOM      7  H   UNL     1     -16.812 -10.068  16.313  1.00  0.00     0.344 HD
ENDBRANCH   3   4
ENDBRANCH   2   3
ENDBRANCH   1   2
BRANCH   1   8
ATOM      8  C   UNL     1     -19.514 -13.301  13.842  1.00  0.00     0.072 C 
BRANCH   8   9
ATOM      9  C   UNL     1     -20.307 -12.929  12.568  1.00  0.00     0.227 C 
BRANCH   9  10
ATOM     10  N   UNL     1     -21.263 -11.852  12.859  1.00  0.00    -0.350 N 
ATOM     11  H   UNL     1     -22.230 -12.235  12.968  1.00  0.00     0.345 HD
ATOM     12  H   UNL     1     -21.257 -11.154  12.081  1.00  0.00     0.345 HD
ATOM     13  H   UNL     1     -20.986 -11.361  13.741  1.00  0.00     0.345 HD
ENDBRANCH   9  10
BRANCH   9  14
ATOM     14  C   UNL     1     -19.387 -12.514  11.449  1.00  0.00     0.099 C 
ATOM     15  O   UNL     1     -18.431 -13.256  11.100  1.00  0.00    -0.544 OA
ATOM     16  O   UNL     1     -19.594 -11.309  10.792  1.00  0.00    -0.544 OA
ENDBRANCH   9  14
ENDBRANCH   8   9
ENDBRANCH   1   8
TORSDOF 7
ENDMDL
MODEL 9
REMARK VINA RESULT:    -4.036     18.756     19.790
REMARK INTER + INTRA:          -5.917
REMARK INTER:                  -5.693
REMARK INTRA:                  -0.224
REMARK UNBOUND:                -0.465
REMARK SMILES [NH3+]CCCC[C@@H]([NH3+])C(=O)[O-]
REMARK SMILES IDX 4 1 3 2 2 3 1 4 5 8 6 9 7 10 8 14 9 15 10 16
REMARK H PARENT 1 5 1 6 1 7 7 11 7 12 7 13
REMARK Flexibility Score: inf
ROOT
ATOM      1  C   UNL     1     -12.102   4.256  23.556  1.00  0.00     0.012 C 
ENDROOT
BRANCH   1   2
ATOM      2  C   UNL     1     -13.189   3.452  24.291  1.00  0.00     0.061 C 
BRANCH   2   3
ATOM      3  C   UNL     1     -14.613   3.847  23.875  1.00  0.00     0.258 C 
BRANCH   3   4
ATOM      4  N   UNL     1     -15.587   3.427  24.882  1.00  0.00    -0.358 N 
ATOM      5  H   UNL     1     -16.143   4.251  25.209  1.00  0.00     0.344 HD
ATOM      6  H   UNL     1     -16.228   2.702  24.484  1.00  0.00     0.344 HD
ATOM      7  H   UNL     1     -15.079   3.016  25.700  1.00  0.00     0.344 HD
ENDBRANCH   3   4
ENDBRANCH   2   3
ENDBRANCH   1   2
BRANCH   1   8
ATOM      8  C   UNL     1     -12.582   5.011  22.299  1.00  0.00     0.072 C 
BRANCH   8   9
ATOM      9  C   UNL     1     -11.857   4.613  20.993  1.00  0.00     0.227 C 
BRANCH   9  10
ATOM     10  N   UNL     1     -10.466   4.236  21.277  1.00  0.00    -0.350 N 
ATOM     11  H   UNL     1     -10.157   3.458  20.651  1.00  0.00     0.345 HD
ATOM     12  H   UNL     1     -10.380   3.929  22.273  1.00  0.00     0.345 HD
ATOM     13  H   UNL     1      -9.838   5.062  21.135  1.00  0.00     0.345 HD
ENDBRANCH   9  10
BRANCH   9  14
ATOM     14  C   UNL     1     -12.566   3.483  20.293  1.00  0.00     0.099 C 
ATOM     15  O   UNL     1     -11.946   2.742  19.484  1.00  0.00    -0.544 OA
ATOM     16  O   UNL     1     -13.911   3.246  20.545  1.00  0.00    -0.544 OA
ENDBRANCH   9  14
ENDBRANCH   8   9
ENDBRANCH   1   8
TORSDOF 7
ENDMDL
