MODEL 1
REMARK VINA RESULT:    -4.541      0.000      0.000
REMARK INTER + INTRA:          -6.414
REMARK INTER:                  -5.602
REMARK INTRA:                  -0.812
REMARK UNBOUND:                -0.812
REMARK SMILES CC(C)=CCC[C@H](C)c1ccc(C)cc1
REMARK SMILES IDX 6 1 7 2 8 3 9 4 13 5 12 6 11 7 14 8 10 9 15 10 5 11 4 12
REMARK SMILES IDX 2 13 1 14 3 15
REMARK H PARENT
REMARK Flexibility Score: inf
ROOT
ATOM      1  C   UNL     1     -13.116  22.410   9.935  1.00  0.00     0.012 C 
ENDROOT
BRANCH   1   2
ATOM      2  C   UNL     1     -13.791  23.797  10.019  1.00  0.00     0.016 C 
ATOM      3  C   UNL     1     -14.798  24.027   8.881  1.00  0.00     0.013 C 
BRANCH   2   4
ATOM      4  C   UNL     1     -12.742  24.895  10.026  1.00  0.00    -0.045 A 
ATOM      5  C   UNL     1      -9.785  28.044  10.097  1.00  0.00     0.044 C 
ATOM      6  C   UNL     1     -10.812  26.951  10.042  1.00  0.00    -0.051 A 
ATOM      7  C   UNL     1     -10.413  25.607  10.043  1.00  0.00     0.004 A 
ATOM      8  C   UNL     1     -12.178  27.264  10.060  1.00  0.00     0.004 A 
ATOM      9  C   UNL     1     -11.369  24.587  10.029  1.00  0.00     0.004 A 
ATOM     10  C   UNL     1     -13.135  26.245  10.046  1.00  0.00     0.004 A 
ENDBRANCH   2   4
ENDBRANCH   1   2
BRANCH   1  11
ATOM     11  C   UNL     1     -13.629  21.436  11.006  1.00  0.00     0.028 C 
BRANCH  11  12
ATOM     12  C   UNL     1     -14.570  20.425  10.400  1.00  0.00    -0.028 C 
ATOM     13  C   UNL     1     -15.917  20.499  10.467  1.00  0.00    -0.080 C 
ATOM     14  C   UNL     1     -16.623  21.662  11.125  1.00  0.00     0.039 C 
ATOM     15  C   UNL     1     -16.730  19.391   9.848  1.00  0.00     0.039 C 
ENDBRANCH  11  12
ENDBRANCH   1  11
TORSDOF 4
ENDMDL
MODEL 2
REMARK VINA RESULT:    -4.387      1.158      6.754
REMARK INTER + INTRA:          -6.224
REMARK INTER:                  -5.620
REMARK INTRA:                  -0.604
REMARK UNBOUND:                -0.812
REMARK SMILES CC(C)=CCC[C@H](C)c1ccc(C)cc1
REMARK SMILES IDX 6 1 7 2 8 3 9 4 13 5 12 6 11 7 14 8 10 9 15 10 5 11 4 12
REMARK SMILES IDX 2 13 1 14 3 15
REMARK H PARENT
REMARK Flexibility Score: inf
ROOT
ATOM      1  C   UNL     1     -14.054  24.899   9.399  1.00  0.00     0.012 C 
ENDROOT
BRANCH   1   2
ATOM      2  C   UNL     1     -13.442  23.690  10.140  1.00  0.00     0.016 C 
ATOM      3  C   UNL     1     -12.107  23.241   9.525  1.00  0.00     0.013 C 
BRANCH   2   4
ATOM      4  C   UNL     1     -14.426  22.534  10.167  1.00  0.00    -0.045 A 
ATOM      5  C   UNL     1     -17.247  19.262  10.185  1.00  0.00     0.044 C 
ATOM      6  C   UNL     1     -16.271  20.401  10.209  1.00  0.00    -0.051 A 
ATOM      7  C   UNL     1     -14.898  20.150  10.345  1.00  0.00     0.004 A 
ATOM      8  C   UNL     1     -16.716  21.718  10.025  1.00  0.00     0.004 A 
ATOM      9  C   UNL     1     -13.984  21.208  10.330  1.00  0.00     0.004 A 
ATOM     10  C   UNL     1     -15.803  22.775  10.010  1.00  0.00     0.004 A 
ENDBRANCH   2   4
ENDBRANCH   1   2
BRANCH   1  11
ATOM     11  C   UNL     1     -14.017  26.187  10.236  1.00  0.00     0.028 C 
BRANCH  11  12
ATOM     12  C   UNL     1     -12.603  26.696  10.369  1.00  0.00    -0.028 C 
ATOM     13  C   UNL     1     -12.129  27.802   9.756  1.00  0.00    -0.080 C 
ATOM     14  C   UNL     1     -13.010  28.685   8.903  1.00  0.00     0.039 C 
ATOM     15  C   UNL     1     -10.679  28.166   9.950  1.00  0.00     0.039 C 
ENDBRANCH  11  12
ENDBRANCH   1  11
TORSDOF 4
ENDMDL
MODEL 3
REMARK VINA RESULT:    -4.254      6.731      8.943
REMARK INTER + INTRA:          -6.060
REMARK INTER:                  -5.095
REMARK INTRA:                  -0.965
REMARK UNBOUND:                -0.812
REMARK SMILES CC(C)=CCC[C@H](C)c1ccc(C)cc1
REMARK SMILES IDX 6 1 7 2 8 3 9 4 13 5 12 6 11 7 14 8 10 9 15 10 5 11 4 12
REMARK SMILES IDX 2 13 1 14 3 15
REMARK H PARENT
REMARK Flexibility Score: inf
ROOT
ATOM      1  C   UNL     1     -14.099  17.449   8.143  1.00  0.00     0.012 C 
ENDROOT
BRANCH   1   2
ATOM      2  C   UNL     1     -14.313  17.556   9.669  1.00  0.00     0.016 C 
ATOM      3  C   UNL     1     -13.705  16.365  10.429  1.00  0.00     0.013 C 
BRANCH   2   4
ATOM      4  C   UNL     1     -15.791  17.687   9.988  1.00  0.00    -0.045 A 
ATOM      5  C   UNL     1     -19.988  18.035  10.951  1.00  0.00     0.044 C 
ATOM      6  C   UNL     1     -18.538  17.908  10.588  1.00  0.00    -0.051 A 
ATOM      7  C   UNL     1     -17.802  19.043  10.218  1.00  0.00     0.004 A 
ATOM      8  C   UNL     1     -17.891  16.668  10.682  1.00  0.00     0.004 A 
ATOM      9  C   UNL     1     -16.441  18.933   9.915  1.00  0.00     0.004 A 
ATOM     10  C   UNL     1     -16.531  16.557  10.379  1.00  0.00     0.004 A 
ENDBRANCH   2   4
ENDBRANCH   1   2
BRANCH   1  11
ATOM     11  C   UNL     1     -13.257  16.226   7.747  1.00  0.00     0.028 C 
BRANCH  11  12
ATOM     12  C   UNL     1     -13.851  15.536   6.544  1.00  0.00    -0.028 C 
ATOM     13  C   UNL     1     -14.702  14.489   6.606  1.00  0.00    -0.080 C 
ATOM     14  C   UNL     1     -15.191  13.933   7.924  1.00  0.00     0.039 C 
ATOM     15  C   UNL     1     -15.183  13.875   5.317  1.00  0.00     0.039 C 
ENDBRANCH  11  12
ENDBRANCH   1  11
TORSDOF 4
ENDMDL
MODEL 4
REMARK VINA RESULT:    -4.149      1.135      1.974
REMARK INTER + INTRA:          -5.931
REMARK INTER:                  -5.272
REMARK INTRA:                  -0.658
REMARK UNBOUND:                -0.812
REMARK SMILES CC(C)=CCC[C@H](C)c1ccc(C)cc1
REMARK SMILES IDX 6 1 7 2 8 3 9 4 13 5 12 6 11 7 14 8 10 9 15 10 5 11 4 12
REMARK SMILES IDX 2 13 1 14 3 15
REMARK H PARENT
REMARK Flexibility Score: inf
ROOT
ATOM      1  C   UNL     1     -12.874  22.859   9.519  1.00  0.00     0.012 C 
ENDROOT
BRANCH   1   2
ATOM      2  C   UNL     1     -11.594  23.665   9.834  1.00  0.00     0.016 C 
ATOM      3  C   UNL     1     -10.907  23.189  11.125  1.00  0.00     0.013 C 
BRANCH   2   4
ATOM      4  C   UNL     1     -11.911  25.147   9.920  1.00  0.00    -0.045 A 
ATOM      5  C   UNL     1     -12.847  29.354  10.215  1.00  0.00     0.044 C 
ATOM      6  C   UNL     1     -12.522  27.896  10.082  1.00  0.00    -0.051 A 
ATOM      7  C   UNL     1     -11.187  27.467  10.092  1.00  0.00     0.004 A 
ATOM      8  C   UNL     1     -13.550  26.945  10.018  1.00  0.00     0.004 A 
ATOM      9  C   UNL     1     -10.883  26.105  10.005  1.00  0.00     0.004 A 
ATOM     10  C   UNL     1     -13.248  25.583   9.933  1.00  0.00     0.004 A 
ENDBRANCH   2   4
ENDBRANCH   1   2
BRANCH   1  11
ATOM     11  C   UNL     1     -13.441  22.141  10.754  1.00  0.00     0.028 C 
BRANCH  11  12
ATOM     12  C   UNL     1     -14.632  21.296  10.379  1.00  0.00    -0.028 C 
ATOM     13  C   UNL     1     -15.907  21.740  10.355  1.00  0.00    -0.080 C 
ATOM     14  C   UNL     1     -16.259  23.179  10.657  1.00  0.00     0.039 C 
ATOM     15  C   UNL     1     -17.002  20.767   9.999  1.00  0.00     0.039 C 
ENDBRANCH  11  12
ENDBRANCH   1  11
TORSDOF 4
ENDMDL
MODEL 5
REMARK VINA RESULT:    -4.146      1.122      2.856
REMARK INTER + INTRA:          -5.927
REMARK INTER:                  -5.148
REMARK INTRA:                  -0.778
REMARK UNBOUND:                -0.812
REMARK SMILES CC(C)=CCC[C@H](C)c1ccc(C)cc1
REMARK SMILES IDX 6 1 7 2 8 3 9 4 13 5 12 6 11 7 14 8 10 9 15 10 5 11 4 12
REMARK SMILES IDX 2 13 1 14 3 15
REMARK H PARENT
REMARK Flexibility Score: inf
ROOT
ATOM      1  C   UNL     1     -15.530  22.008  10.586  1.00  0.00     0.012 C 
ENDROOT
BRANCH   1   2
ATOM      2  C   UNL     1     -14.092  21.629  10.167  1.00  0.00     0.016 C 
ATOM      3  C   UNL     1     -13.503  20.513  11.044  1.00  0.00     0.013 C 
BRANCH   2   4
ATOM      4  C   UNL     1     -13.193  22.852  10.196  1.00  0.00    -0.045 A 
ATOM      5  C   UNL     1     -10.598  26.306  10.234  1.00  0.00     0.044 C 
ATOM      6  C   UNL     1     -11.505  25.111  10.251  1.00  0.00    -0.051 A 
ATOM      7  C   UNL     1     -12.865  25.253   9.943  1.00  0.00     0.004 A 
ATOM      8  C   UNL     1     -10.986  23.833  10.505  1.00  0.00     0.004 A 
ATOM      9  C   UNL     1     -13.704  24.135   9.921  1.00  0.00     0.004 A 
ATOM     10  C   UNL     1     -11.823  22.715  10.483  1.00  0.00     0.004 A 
ENDBRANCH   2   4
ENDBRANCH   1   2
BRANCH   1  11
ATOM     11  C   UNL     1     -16.597  21.367   9.685  1.00  0.00     0.028 C 
BRANCH  11  12
ATOM     12  C   UNL     1     -17.364  20.310  10.438  1.00  0.00    -0.028 C 
ATOM     13  C   UNL     1     -17.137  18.982  10.337  1.00  0.00    -0.080 C 
ATOM     14  C   UNL     1     -16.026  18.425   9.477  1.00  0.00     0.039 C 
ATOM     15  C   UNL     1     -18.013  18.040  11.121  1.00  0.00     0.039 C 
ENDBRANCH  11  12
ENDBRANCH   1  11
TORSDOF 4
ENDMDL
MODEL 6
REMARK VINA RESULT:    -4.140      1.156      2.412
REMARK INTER + INTRA:          -5.920
REMARK INTER:                  -5.290
REMARK INTRA:                  -0.630
REMARK UNBOUND:                -0.812
REMARK SMILES CC(C)=CCC[C@H](C)c1ccc(C)cc1
REMARK SMILES IDX 6 1 7 2 8 3 9 4 13 5 12 6 11 7 14 8 10 9 15 10 5 11 4 12
REMARK SMILES IDX 2 13 1 14 3 15
REMARK H PARENT
REMARK Flexibility Score: inf
ROOT
ATOM      1  C   UNL     1     -13.313  24.620  10.159  1.00  0.00     0.012 C 
ENDROOT
BRANCH   1   2
ATOM      2  C   UNL     1     -11.789  24.570   9.912  1.00  0.00     0.016 C 
ATOM      3  C   UNL     1     -11.095  23.495  10.763  1.00  0.00     0.013 C 
BRANCH   2   4
ATOM      4  C   UNL     1     -11.167  25.931  10.170  1.00  0.00    -0.045 A 
ATOM      5  C   UNL     1      -9.451  29.822  10.931  1.00  0.00     0.044 C 
ATOM      6  C   UNL     1     -10.031  28.469  10.641  1.00  0.00    -0.051 A 
ATOM      7  C   UNL     1      -9.403  27.313  11.125  1.00  0.00     0.004 A 
ATOM      8  C   UNL     1     -11.243  28.355   9.944  1.00  0.00     0.004 A 
ATOM      9  C   UNL     1      -9.962  26.054  10.887  1.00  0.00     0.004 A 
ATOM     10  C   UNL     1     -11.803  27.096   9.706  1.00  0.00     0.004 A 
ENDBRANCH   2   4
ENDBRANCH   1   2
BRANCH   1  11
ATOM     11  C   UNL     1     -14.115  23.908   9.059  1.00  0.00     0.028 C 
BRANCH  11  12
ATOM     12  C   UNL     1     -15.388  23.325   9.619  1.00  0.00    -0.028 C 
ATOM     13  C   UNL     1     -15.487  22.096  10.169  1.00  0.00    -0.080 C 
ATOM     14  C   UNL     1     -14.288  21.190  10.326  1.00  0.00     0.039 C 
ATOM     15  C   UNL     1     -16.837  21.630  10.652  1.00  0.00     0.039 C 
ENDBRANCH  11  12
ENDBRANCH   1  11
TORSDOF 4
ENDMDL
MODEL 7
REMARK VINA RESULT:    -4.129      2.708      4.761
REMARK INTER + INTRA:          -5.906
REMARK INTER:                  -5.377
REMARK INTRA:                  -0.529
REMARK UNBOUND:                -0.812
REMARK SMILES CC(C)=CCC[C@H](C)c1ccc(C)cc1
REMARK SMILES IDX 6 1 7 2 8 3 9 4 13 5 12 6 11 7 14 8 10 9 15 10 5 11 4 12
REMARK SMILES IDX 2 13 1 14 3 15
REMARK H PARENT
REMARK Flexibility Score: inf
ROOT
ATOM      1  C   UNL     1     -14.362  19.289  10.054  1.00  0.00     0.012 C 
ENDROOT
BRANCH   1   2
ATOM      2  C   UNL     1     -15.445  20.253  10.589  1.00  0.00     0.016 C 
ATOM      3  C   UNL     1     -16.828  19.972   9.980  1.00  0.00     0.013 C 
BRANCH   2   4
ATOM      4  C   UNL     1     -15.040  21.694  10.338  1.00  0.00    -0.045 A 
ATOM      5  C   UNL     1     -13.865  25.779   9.567  1.00  0.00     0.044 C 
ATOM      6  C   UNL     1     -14.267  24.365   9.864  1.00  0.00    -0.051 A 
ATOM      7  C   UNL     1     -15.608  24.055  10.134  1.00  0.00     0.004 A 
ATOM      8  C   UNL     1     -13.320  23.333   9.806  1.00  0.00     0.004 A 
ATOM      9  C   UNL     1     -15.991  22.732  10.375  1.00  0.00     0.004 A 
ATOM     10  C   UNL     1     -13.702  22.010  10.045  1.00  0.00     0.004 A 
ENDBRANCH   2   4
ENDBRANCH   1   2
BRANCH   1  11
ATOM     11  C   UNL     1     -14.958  18.054   9.363  1.00  0.00     0.028 C 
BRANCH  11  12
ATOM     12  C   UNL     1     -14.070  17.595   8.233  1.00  0.00    -0.028 C 
ATOM     13  C   UNL     1     -13.869  16.303   7.895  1.00  0.00    -0.080 C 
ATOM     14  C   UNL     1     -14.579  15.172   8.602  1.00  0.00     0.039 C 
ATOM     15  C   UNL     1     -12.920  15.993   6.766  1.00  0.00     0.039 C 
ENDBRANCH  11  12
ENDBRANCH   1  11
TORSDOF 4
ENDMDL
MODEL 8
REMARK VINA RESULT:    -4.102      1.289      6.563
REMARK INTER + INTRA:          -5.873
REMARK INTER:                  -5.290
REMARK INTRA:                  -0.583
REMARK UNBOUND:                -0.812
REMARK SMILES CC(C)=CCC[C@H](C)c1ccc(C)cc1
REMARK SMILES IDX 6 1 7 2 8 3 9 4 13 5 12 6 11 7 14 8 10 9 15 10 5 11 4 12
REMARK SMILES IDX 2 13 1 14 3 15
REMARK H PARENT
REMARK Flexibility Score: inf
ROOT
ATOM      1  C   UNL     1     -14.055  24.551   9.631  1.00  0.00     0.012 C 
ENDROOT
BRANCH   1   2
ATOM      2  C   UNL     1     -15.474  23.980   9.849  1.00  0.00     0.016 C 
ATOM      3  C   UNL     1     -16.190  24.634  11.042  1.00  0.00     0.013 C 
BRANCH   2   4
ATOM      4  C   UNL     1     -15.416  22.474  10.029  1.00  0.00    -0.045 A 
ATOM      5  C   UNL     1     -15.282  18.181  10.488  1.00  0.00     0.044 C 
ATOM      6  C   UNL     1     -15.331  19.674  10.359  1.00  0.00    -0.051 A 
ATOM      7  C   UNL     1     -14.144  20.421  10.346  1.00  0.00     0.004 A 
ATOM      8  C   UNL     1     -16.558  20.329  10.180  1.00  0.00     0.004 A 
ATOM      9  C   UNL     1     -14.186  21.810  10.189  1.00  0.00     0.004 A 
ATOM     10  C   UNL     1     -16.601  21.717  10.022  1.00  0.00     0.004 A 
ENDBRANCH   2   4
ENDBRANCH   1   2
BRANCH   1  11
ATOM     11  C   UNL     1     -13.568  25.396  10.818  1.00  0.00     0.028 C 
BRANCH  11  12
ATOM     12  C   UNL     1     -12.536  26.399  10.369  1.00  0.00    -0.028 C 
ATOM     13  C   UNL     1     -11.204  26.172  10.356  1.00  0.00    -0.080 C 
ATOM     14  C   UNL     1     -10.616  24.837  10.749  1.00  0.00     0.039 C 
ATOM     15  C   UNL     1     -10.288  27.287   9.919  1.00  0.00     0.039 C 
ENDBRANCH  11  12
ENDBRANCH   1  11
TORSDOF 4
ENDMDL
MODEL 9
REMARK VINA RESULT:    -4.027      1.114      6.759
REMARK INTER + INTRA:          -5.780
REMARK INTER:                  -5.022
REMARK INTRA:                  -0.758
REMARK UNBOUND:                -0.812
REMARK SMILES CC(C)=CCC[C@H](C)c1ccc(C)cc1
REMARK SMILES IDX 6 1 7 2 8 3 9 4 13 5 12 6 11 7 14 8 10 9 15 10 5 11 4 12
REMARK SMILES IDX 2 13 1 14 3 15
REMARK H PARENT
REMARK Flexibility Score: inf
ROOT
ATOM      1  C   UNL     1     -11.883  25.009  10.731  1.00  0.00     0.012 C 
ENDROOT
BRANCH   1   2
ATOM      2  C   UNL     1     -13.310  25.362  10.257  1.00  0.00     0.016 C 
ATOM      3  C   UNL     1     -13.951  26.470  11.110  1.00  0.00     0.013 C 
BRANCH   2   4
ATOM      4  C   UNL     1     -14.188  24.124  10.255  1.00  0.00    -0.045 A 
ATOM      5  C   UNL     1     -16.658  20.580  10.300  1.00  0.00     0.044 C 
ATOM      6  C   UNL     1     -15.800  21.809  10.254  1.00  0.00    -0.051 A 
ATOM      7  C   UNL     1     -16.390  23.081  10.247  1.00  0.00     0.004 A 
ATOM      8  C   UNL     1     -14.403  21.698  10.288  1.00  0.00     0.004 A 
ATOM      9  C   UNL     1     -15.592  24.229  10.242  1.00  0.00     0.004 A 
ATOM     10  C   UNL     1     -13.604  22.845  10.283  1.00  0.00     0.004 A 
ENDBRANCH   2   4
ENDBRANCH   1   2
BRANCH   1  11
ATOM     11  C   UNL     1     -10.795  25.593   9.817  1.00  0.00     0.028 C 
BRANCH  11  12
ATOM     12  C   UNL     1     -10.057  26.710  10.513  1.00  0.00    -0.028 C 
ATOM     13  C   UNL     1     -10.340  28.022  10.364  1.00  0.00    -0.080 C 
ATOM     14  C   UNL     1     -11.487  28.500   9.504  1.00  0.00     0.039 C 
ATOM     15  C   UNL     1      -9.490  29.029  11.094  1.00  0.00     0.039 C 
ENDBRANCH  11  12
ENDBRANCH   1  11
TORSDOF 4
ENDMDL
