MODEL 1
REMARK VINA RESULT:    -6.663      0.000      0.000
REMARK INTER + INTRA:          -9.778
REMARK INTER:                  -9.000
REMARK INTRA:                  -0.778
REMARK UNBOUND:                -0.778
REMARK SMILES O=c1c(-c2ccc(O)cc2)coc2c([C@H]3O[C@@H](CO)[C@@H](O)[C@H](O)[C@H]3O)c(O)ccc12
REMARK SMILES IDX 3 1 11 2 12 3 13 4 30 5 2 6 1 7 29 8 28 9 26 10 14 11 4 12
REMARK SMILES IDX 5 13 6 14 7 15 10 16 9 17 8 18 15 20 24 21 16 22 22 23 17 24
REMARK SMILES IDX 20 25 25 26 23 28 18 30 19 31 21 33 27 35
REMARK H PARENT 8 19 25 27 23 29 19 32 21 34 27 36
REMARK Flexibility Score: inf
ROOT
ATOM      1  C   UNL     1     107.179 121.319 119.763  1.00  0.00     0.065 A 
ATOM      2  C   UNL     1     106.070 120.669 120.345  1.00  0.00     0.208 A 
ATOM      3  O   UNL     1     104.835 121.110 120.137  1.00  0.00    -0.463 OA
ATOM      4  C   UNL     1     104.560 122.202 119.425  1.00  0.00     0.147 A 
ATOM      5  C   UNL     1     105.612 122.951 118.859  1.00  0.00     0.066 A 
ATOM      6  C   UNL     1     106.927 122.472 118.992  1.00  0.00     0.200 A 
ATOM      7  O   UNL     1     107.873 123.048 118.391  1.00  0.00    -0.288 OA
ATOM      8  C   UNL     1     105.323 124.135 118.165  1.00  0.00     0.020 A 
ATOM      9  C   UNL     1     104.011 124.579 118.043  1.00  0.00     0.047 A 
ATOM     10  C   UNL     1     102.953 123.805 118.544  1.00  0.00     0.125 A 
ATOM     11  C   UNL     1     103.219 122.599 119.217  1.00  0.00     0.069 A 
ENDROOT
BRANCH   1  12
ATOM     12  C   UNL     1     108.548 120.784 119.981  1.00  0.00    -0.011 A 
ATOM     13  C   UNL     1     109.366 121.273 121.016  1.00  0.00     0.013 A 
ATOM     14  C   UNL     1     110.643 120.750 121.223  1.00  0.00     0.047 A 
ATOM     15  C   UNL     1     111.115 119.710 120.413  1.00  0.00     0.115 A 
ATOM     16  C   UNL     1     109.034 119.735 119.168  1.00  0.00     0.013 A 
ATOM     17  C   UNL     1     110.305 119.200 119.391  1.00  0.00     0.047 A 
BRANCH  15  18
ATOM     18  O   UNL     1     112.380 119.175 120.615  1.00  0.00    -0.508 OA
ATOM     19  H   UNL     1     113.100 119.711 121.071  1.00  0.00     0.293 HD
ENDBRANCH  15  18
ENDBRANCH   1  12
BRANCH  11  20
ATOM     20  C   UNL     1     102.070 121.683 119.616  1.00  0.00     0.188 C 
ATOM     21  C   UNL     1     101.648 121.870 121.093  1.00  0.00     0.179 C 
ATOM     22  O   UNL     1     102.433 120.336 119.346  1.00  0.00    -0.362 OA
ATOM     23  C   UNL     1     100.487 120.911 121.435  1.00  0.00     0.177 C 
ATOM     24  C   UNL     1     101.309 119.484 119.494  1.00  0.00     0.176 C 
ATOM     25  C   UNL     1     100.808 119.476 120.965  1.00  0.00     0.177 C 
BRANCH  21  26
ATOM     26  O   UNL     1     102.732 121.631 121.954  1.00  0.00    -0.387 OA
ATOM     27  H   UNL     1     103.381 121.075 121.441  1.00  0.00     0.211 HD
ENDBRANCH  21  26
BRANCH  23  28
ATOM     28  O   UNL     1      99.311 121.351 120.803  1.00  0.00    -0.387 OA
ATOM     29  H   UNL     1      98.748 121.800 121.497  1.00  0.00     0.211 HD
ENDBRANCH  23  28
BRANCH  24  30
ATOM     30  C   UNL     1     101.673 118.072 119.008  1.00  0.00     0.191 C 
BRANCH  30  31
ATOM     31  O   UNL     1     102.992 117.739 119.345  1.00  0.00    -0.394 OA
ATOM     32  H   UNL     1     103.348 118.482 119.902  1.00  0.00     0.210 HD
ENDBRANCH  30  31
ENDBRANCH  24  30
BRANCH  25  33
ATOM     33  O   UNL     1     101.768 118.918 121.829  1.00  0.00    -0.388 OA
ATOM     34  H   UNL     1     102.524 119.563 121.874  1.00  0.00     0.211 HD
ENDBRANCH  25  33
ENDBRANCH  11  20
BRANCH  10  35
ATOM     35  O   UNL     1     101.633 124.231 118.362  1.00  0.00    -0.507 OA
ATOM     36  H   UNL     1     101.284 125.062 118.832  1.00  0.00     0.293 HD
ENDBRANCH  10  35
TORSDOF 9
ENDMDL
MODEL 2
REMARK VINA RESULT:    -6.507      1.264      2.715
REMARK INTER + INTRA:          -9.568
REMARK INTER:                  -8.481
REMARK INTRA:                  -1.086
REMARK UNBOUND:                -0.778
REMARK SMILES O=c1c(-c2ccc(O)cc2)coc2c([C@H]3O[C@@H](CO)[C@@H](O)[C@H](O)[C@H]3O)c(O)ccc12
REMARK SMILES IDX 3 1 11 2 12 3 13 4 30 5 2 6 1 7 29 8 28 9 26 10 14 11 4 12
REMARK SMILES IDX 5 13 6 14 7 15 10 16 9 17 8 18 15 20 24 21 16 22 22 23 17 24
REMARK SMILES IDX 20 25 25 26 23 28 18 30 19 31 21 33 27 35
REMARK H PARENT 8 19 25 27 23 29 19 32 21 34 27 36
REMARK Flexibility Score: inf
ROOT
ATOM      1  C   UNL     1     107.088 121.345 119.765  1.00  0.00     0.065 A 
ATOM      2  C   UNL     1     105.952 120.751 120.353  1.00  0.00     0.208 A 
ATOM      3  O   UNL     1     104.738 121.249 120.148  1.00  0.00    -0.463 OA
ATOM      4  C   UNL     1     104.513 122.351 119.434  1.00  0.00     0.147 A 
ATOM      5  C   UNL     1     105.597 123.048 118.863  1.00  0.00     0.066 A 
ATOM      6  C   UNL     1     106.889 122.508 118.993  1.00  0.00     0.200 A 
ATOM      7  O   UNL     1     107.859 123.037 118.387  1.00  0.00    -0.288 OA
ATOM      8  C   UNL     1     105.363 124.243 118.168  1.00  0.00     0.020 A 
ATOM      9  C   UNL     1     104.073 124.749 118.049  1.00  0.00     0.047 A 
ATOM     10  C   UNL     1     102.981 124.027 118.555  1.00  0.00     0.125 A 
ATOM     11  C   UNL     1     103.192 122.811 119.230  1.00  0.00     0.069 A 
ENDROOT
BRANCH   1  12
ATOM     12  C   UNL     1     108.431 120.747 119.980  1.00  0.00    -0.011 A 
ATOM     13  C   UNL     1     108.931 119.747 119.125  1.00  0.00     0.013 A 
ATOM     14  C   UNL     1     110.202 119.207 119.326  1.00  0.00     0.047 A 
ATOM     15  C   UNL     1     111.006 119.675 120.372  1.00  0.00     0.115 A 
ATOM     16  C   UNL     1     109.251 121.212 121.034  1.00  0.00     0.013 A 
ATOM     17  C   UNL     1     110.529 120.683 121.220  1.00  0.00     0.047 A 
BRANCH  15  18
ATOM     18  O   UNL     1     112.276 119.152 120.576  1.00  0.00    -0.508 OA
ATOM     19  H   UNL     1     112.619 118.396 120.007  1.00  0.00     0.293 HD
ENDBRANCH  15  18
ENDBRANCH   1  12
BRANCH  11  20
ATOM     20  C   UNL     1     102.002 121.952 119.634  1.00  0.00     0.188 C 
ATOM     21  C   UNL     1     101.492 121.062 118.476  1.00  0.00     0.179 C 
ATOM     22  O   UNL     1     100.971 122.791 120.137  1.00  0.00    -0.362 OA
ATOM     23  C   UNL     1     100.284 120.223 118.948  1.00  0.00     0.177 C 
ATOM     24  C   UNL     1      99.945 122.010 120.728  1.00  0.00     0.176 C 
ATOM     25  C   UNL     1      99.248 121.113 119.667  1.00  0.00     0.177 C 
BRANCH  21  26
ATOM     26  O   UNL     1     101.123 121.847 117.371  1.00  0.00    -0.387 OA
ATOM     27  H   UNL     1     101.784 121.649 116.651  1.00  0.00     0.211 HD
ENDBRANCH  21  26
BRANCH  23  28
ATOM     28  O   UNL     1     100.723 119.220 119.830  1.00  0.00    -0.387 OA
ATOM     29  H   UNL     1     100.955 119.664 120.696  1.00  0.00     0.211 HD
ENDBRANCH  23  28
BRANCH  24  30
ATOM     30  C   UNL     1      98.945 122.937 121.437  1.00  0.00     0.191 C 
BRANCH  30  31
ATOM     31  O   UNL     1      98.742 124.120 120.714  1.00  0.00    -0.394 OA
ATOM     32  H   UNL     1      98.648 124.856 121.376  1.00  0.00     0.210 HD
ENDBRANCH  30  31
ENDBRANCH  24  30
BRANCH  25  33
ATOM     33  O   UNL     1      98.570 121.889 118.708  1.00  0.00    -0.388 OA
ATOM     34  H   UNL     1      97.636 121.994 119.032  1.00  0.00     0.211 HD
ENDBRANCH  25  33
ENDBRANCH  11  20
BRANCH  10  35
ATOM     35  O   UNL     1     101.683 124.515 118.377  1.00  0.00    -0.507 OA
ATOM     36  H   UNL     1     101.225 124.463 117.471  1.00  0.00     0.293 HD
ENDBRANCH  10  35
TORSDOF 9
ENDMDL
MODEL 3
REMARK VINA RESULT:    -6.449      1.678      2.922
REMARK INTER + INTRA:          -9.490
REMARK INTER:                  -8.439
REMARK INTRA:                  -1.051
REMARK UNBOUND:                -0.778
REMARK SMILES O=c1c(-c2ccc(O)cc2)coc2c([C@H]3O[C@@H](CO)[C@@H](O)[C@H](O)[C@H]3O)c(O)ccc12
REMARK SMILES IDX 3 1 11 2 12 3 13 4 30 5 2 6 1 7 29 8 28 9 26 10 14 11 4 12
REMARK SMILES IDX 5 13 6 14 7 15 10 16 9 17 8 18 15 20 24 21 16 22 22 23 17 24
REMARK SMILES IDX 20 25 25 26 23 28 18 30 19 31 21 33 27 35
REMARK H PARENT 8 19 25 27 23 29 19 32 21 34 27 36
REMARK Flexibility Score: inf
ROOT
ATOM      1  C   UNL     1     107.401 120.814 119.496  1.00  0.00     0.065 A 
ATOM      2  C   UNL     1     106.330 119.908 119.653  1.00  0.00     0.208 A 
ATOM      3  O   UNL     1     105.100 120.234 119.275  1.00  0.00    -0.463 OA
ATOM      4  C   UNL     1     104.782 121.430 118.780  1.00  0.00     0.147 A 
ATOM      5  C   UNL     1     105.777 122.419 118.647  1.00  0.00     0.066 A 
ATOM      6  C   UNL     1     107.105 122.086 118.965  1.00  0.00     0.200 A 
ATOM      7  O   UNL     1     108.035 122.905 118.737  1.00  0.00    -0.288 OA
ATOM      8  C   UNL     1     105.426 123.697 118.187  1.00  0.00     0.020 A 
ATOM      9  C   UNL     1     104.104 123.995 117.873  1.00  0.00     0.047 A 
ATOM     10  C   UNL     1     103.120 122.997 117.936  1.00  0.00     0.125 A 
ATOM     11  C   UNL     1     103.456 121.701 118.367  1.00  0.00     0.069 A 
ENDROOT
BRANCH   1  12
ATOM     12  C   UNL     1     108.774 120.412 119.894  1.00  0.00    -0.011 A 
ATOM     13  C   UNL     1     109.568 119.601 119.062  1.00  0.00     0.013 A 
ATOM     14  C   UNL     1     110.864 119.246 119.438  1.00  0.00     0.047 A 
ATOM     15  C   UNL     1     111.399 119.716 120.644  1.00  0.00     0.115 A 
ATOM     16  C   UNL     1     109.323 120.880 121.110  1.00  0.00     0.013 A 
ATOM     17  C   UNL     1     110.627 120.539 121.474  1.00  0.00     0.047 A 
BRANCH  15  18
ATOM     18  O   UNL     1     112.690 119.378 121.024  1.00  0.00    -0.508 OA
ATOM     19  H   UNL     1     112.862 118.896 121.891  1.00  0.00     0.293 HD
ENDBRANCH  15  18
ENDBRANCH   1  12
BRANCH  11  20
ATOM     20  C   UNL     1     102.428 120.582 118.281  1.00  0.00     0.188 C 
ATOM     21  C   UNL     1     102.391 119.915 116.885  1.00  0.00     0.179 C 
ATOM     22  O   UNL     1     101.153 121.092 118.647  1.00  0.00    -0.362 OA
ATOM     23  C   UNL     1     101.327 118.797 116.863  1.00  0.00     0.177 C 
ATOM     24  C   UNL     1     100.223 120.032 118.795  1.00  0.00     0.176 C 
ATOM     25  C   UNL     1      99.989 119.304 117.442  1.00  0.00     0.177 C 
BRANCH  21  26
ATOM     26  O   UNL     1     102.106 120.864 115.889  1.00  0.00    -0.387 OA
ATOM     27  H   UNL     1     101.398 120.463 115.313  1.00  0.00     0.211 HD
ENDBRANCH  21  26
BRANCH  23  28
ATOM     28  O   UNL     1     101.775 117.705 117.626  1.00  0.00    -0.387 OA
ATOM     29  H   UNL     1     102.767 117.646 117.511  1.00  0.00     0.211 HD
ENDBRANCH  23  28
BRANCH  24  30
ATOM     30  C   UNL     1      98.913 120.583 119.381  1.00  0.00     0.191 C 
BRANCH  30  31
ATOM     31  O   UNL     1      98.613 121.849 118.861  1.00  0.00    -0.394 OA
ATOM     32  H   UNL     1      98.932 121.862 117.919  1.00  0.00     0.210 HD
ENDBRANCH  30  31
ENDBRANCH  24  30
BRANCH  25  33
ATOM     33  O   UNL     1      99.380 120.157 116.502  1.00  0.00    -0.388 OA
ATOM     34  H   UNL     1      99.958 120.963 116.428  1.00  0.00     0.211 HD
ENDBRANCH  25  33
ENDBRANCH  11  20
BRANCH  10  35
ATOM     35  O   UNL     1     101.805 123.292 117.560  1.00  0.00    -0.507 OA
ATOM     36  H   UNL     1     101.541 123.340 116.580  1.00  0.00     0.293 HD
ENDBRANCH  10  35
TORSDOF 9
ENDMDL
MODEL 4
REMARK VINA RESULT:    -6.431      4.297      6.492
REMARK INTER + INTRA:          -9.465
REMARK INTER:                  -8.728
REMARK INTRA:                  -0.737
REMARK UNBOUND:                -0.778
REMARK SMILES O=c1c(-c2ccc(O)cc2)coc2c([C@H]3O[C@@H](CO)[C@@H](O)[C@H](O)[C@H]3O)c(O)ccc12
REMARK SMILES IDX 3 1 11 2 12 3 13 4 30 5 2 6 1 7 29 8 28 9 26 10 14 11 4 12
REMARK SMILES IDX 5 13 6 14 7 15 10 16 9 17 8 18 15 20 24 21 16 22 22 23 17 24
REMARK SMILES IDX 20 25 25 26 23 28 18 30 19 31 21 33 27 35
REMARK H PARENT 8 19 25 27 23 29 19 32 21 34 27 36
REMARK Flexibility Score: inf
ROOT
ATOM      1  C   UNL     1     105.121 121.510 121.116  1.00  0.00     0.065 A 
ATOM      2  C   UNL     1     104.452 122.187 122.157  1.00  0.00     0.208 A 
ATOM      3  O   UNL     1     103.918 121.520 123.173  1.00  0.00    -0.463 OA
ATOM      4  C   UNL     1     103.927 120.190 123.257  1.00  0.00     0.147 A 
ATOM      5  C   UNL     1     104.518 119.428 122.229  1.00  0.00     0.066 A 
ATOM      6  C   UNL     1     105.162 120.102 121.176  1.00  0.00     0.200 A 
ATOM      7  O   UNL     1     105.808 119.452 120.311  1.00  0.00    -0.288 OA
ATOM      8  C   UNL     1     104.468 118.028 122.289  1.00  0.00     0.020 A 
ATOM      9  C   UNL     1     103.831 117.389 123.348  1.00  0.00     0.047 A 
ATOM     10  C   UNL     1     103.301 118.138 124.409  1.00  0.00     0.125 A 
ATOM     11  C   UNL     1     103.367 119.543 124.383  1.00  0.00     0.069 A 
ENDROOT
BRANCH   1  12
ATOM     12  C   UNL     1     105.742 122.282 120.009  1.00  0.00    -0.011 A 
ATOM     13  C   UNL     1     105.018 123.266 119.309  1.00  0.00     0.013 A 
ATOM     14  C   UNL     1     105.618 123.998 118.284  1.00  0.00     0.047 A 
ATOM     15  C   UNL     1     106.961 123.777 117.957  1.00  0.00     0.115 A 
ATOM     16  C   UNL     1     107.097 122.066 119.670  1.00  0.00     0.013 A 
ATOM     17  C   UNL     1     107.699 122.815 118.657  1.00  0.00     0.047 A 
BRANCH  15  18
ATOM     18  O   UNL     1     107.572 124.506 116.945  1.00  0.00    -0.508 OA
ATOM     19  H   UNL     1     108.187 125.272 117.162  1.00  0.00     0.293 HD
ENDBRANCH  15  18
ENDBRANCH   1  12
BRANCH  11  20
ATOM     20  C   UNL     1     102.939 120.345 125.603  1.00  0.00     0.188 C 
ATOM     21  C   UNL     1     104.089 120.534 126.623  1.00  0.00     0.179 C 
ATOM     22  O   UNL     1     101.812 119.719 126.202  1.00  0.00    -0.362 OA
ATOM     23  C   UNL     1     103.590 121.347 127.837  1.00  0.00     0.177 C 
ATOM     24  C   UNL     1     101.255 120.558 127.200  1.00  0.00     0.176 C 
ATOM     25  C   UNL     1     102.258 120.775 128.367  1.00  0.00     0.177 C 
BRANCH  21  26
ATOM     26  O   UNL     1     104.580 119.289 127.053  1.00  0.00    -0.387 OA
ATOM     27  H   UNL     1     104.299 118.623 126.366  1.00  0.00     0.211 HD
ENDBRANCH  21  26
BRANCH  23  28
ATOM     28  O   UNL     1     103.398 122.688 127.458  1.00  0.00    -0.387 OA
ATOM     29  H   UNL     1     103.147 123.198 128.280  1.00  0.00     0.211 HD
ENDBRANCH  23  28
BRANCH  24  30
ATOM     30  C   UNL     1      99.930 119.953 127.691  1.00  0.00     0.191 C 
BRANCH  30  31
ATOM     31  O   UNL     1     100.066 118.589 127.978  1.00  0.00    -0.394 OA
ATOM     32  H   UNL     1      99.543 118.091 127.294  1.00  0.00     0.210 HD
ENDBRANCH  30  31
ENDBRANCH  24  30
BRANCH  25  33
ATOM     33  O   UNL     1     102.518 119.571 129.048  1.00  0.00    -0.388 OA
ATOM     34  H   UNL     1     102.393 118.836 128.389  1.00  0.00     0.211 HD
ENDBRANCH  25  33
ENDBRANCH  11  20
BRANCH  10  35
ATOM     35  O   UNL     1     102.716 117.483 125.498  1.00  0.00    -0.507 OA
ATOM     36  H   UNL     1     103.077 117.611 126.439  1.00  0.00     0.293 HD
ENDBRANCH  10  35
TORSDOF 9
ENDMDL
MODEL 5
REMARK VINA RESULT:    -6.424      5.082      7.085
REMARK INTER + INTRA:          -9.455
REMARK INTER:                  -8.418
REMARK INTRA:                  -1.037
REMARK UNBOUND:                -0.778
REMARK SMILES O=c1c(-c2ccc(O)cc2)coc2c([C@H]3O[C@@H](CO)[C@@H](O)[C@H](O)[C@H]3O)c(O)ccc12
REMARK SMILES IDX 3 1 11 2 12 3 13 4 30 5 2 6 1 7 29 8 28 9 26 10 14 11 4 12
REMARK SMILES IDX 5 13 6 14 7 15 10 16 9 17 8 18 15 20 24 21 16 22 22 23 17 24
REMARK SMILES IDX 20 25 25 26 23 28 18 30 19 31 21 33 27 35
REMARK H PARENT 8 19 25 27 23 29 19 32 21 34 27 36
REMARK Flexibility Score: inf
ROOT
ATOM      1  C   UNL     1     105.708 120.155 122.572  1.00  0.00     0.065 A 
ATOM      2  C   UNL     1     105.292 120.985 123.634  1.00  0.00     0.208 A 
ATOM      3  O   UNL     1     104.395 120.565 124.518  1.00  0.00    -0.463 OA
ATOM      4  C   UNL     1     103.797 119.377 124.441  1.00  0.00     0.147 A 
ATOM      5  C   UNL     1     104.104 118.506 123.376  1.00  0.00     0.066 A 
ATOM      6  C   UNL     1     105.104 118.885 122.463  1.00  0.00     0.200 A 
ATOM      7  O   UNL     1     105.491 118.077 121.578  1.00  0.00    -0.288 OA
ATOM      8  C   UNL     1     103.424 117.285 123.262  1.00  0.00     0.020 A 
ATOM      9  C   UNL     1     102.444 116.934 124.184  1.00  0.00     0.047 A 
ATOM     10  C   UNL     1     102.180 117.763 125.286  1.00  0.00     0.125 A 
ATOM     11  C   UNL     1     102.872 118.978 125.435  1.00  0.00     0.069 A 
ENDROOT
BRANCH   1  12
ATOM     12  C   UNL     1     106.739 120.635 121.616  1.00  0.00    -0.011 A 
ATOM     13  C   UNL     1     106.380 121.239 120.397  1.00  0.00     0.013 A 
ATOM     14  C   UNL     1     107.358 121.704 119.517  1.00  0.00     0.047 A 
ATOM     15  C   UNL     1     108.713 121.595 119.852  1.00  0.00     0.115 A 
ATOM     16  C   UNL     1     108.110 120.530 121.944  1.00  0.00     0.013 A 
ATOM     17  C   UNL     1     109.085 121.013 121.070  1.00  0.00     0.047 A 
BRANCH  15  18
ATOM     18  O   UNL     1     109.695 122.063 118.988  1.00  0.00    -0.508 OA
ATOM     19  H   UNL     1     110.580 122.386 119.341  1.00  0.00     0.293 HD
ENDBRANCH  15  18
ENDBRANCH   1  12
BRANCH  11  20
ATOM     20  C   UNL     1     102.705 119.796 126.708  1.00  0.00     0.188 C 
ATOM     21  C   UNL     1     103.533 119.233 127.888  1.00  0.00     0.179 C 
ATOM     22  O   UNL     1     101.323 119.873 127.033  1.00  0.00    -0.362 OA
ATOM     23  C   UNL     1     103.314 120.100 129.147  1.00  0.00     0.177 C 
ATOM     24  C   UNL     1     101.115 120.809 128.078  1.00  0.00     0.176 C 
ATOM     25  C   UNL     1     101.809 120.342 129.388  1.00  0.00     0.177 C 
BRANCH  21  26
ATOM     26  O   UNL     1     103.172 117.902 128.158  1.00  0.00    -0.387 OA
ATOM     27  H   UNL     1     103.037 117.842 129.144  1.00  0.00     0.211 HD
ENDBRANCH  21  26
BRANCH  23  28
ATOM     28  O   UNL     1     103.960 121.338 128.984  1.00  0.00    -0.387 OA
ATOM     29  H   UNL     1     104.942 121.158 128.923  1.00  0.00     0.211 HD
ENDBRANCH  23  28
BRANCH  24  30
ATOM     30  C   UNL     1      99.606 121.023 128.277  1.00  0.00     0.191 C 
BRANCH  30  31
ATOM     31  O   UNL     1      99.307 121.357 129.604  1.00  0.00    -0.394 OA
ATOM     32  H   UNL     1      99.499 120.553 130.159  1.00  0.00     0.210 HD
ENDBRANCH  30  31
ENDBRANCH  24  30
BRANCH  25  33
ATOM     33  O   UNL     1     101.230 119.157 129.879  1.00  0.00    -0.388 OA
ATOM     34  H   UNL     1     100.494 118.916 129.254  1.00  0.00     0.211 HD
ENDBRANCH  25  33
ENDBRANCH  11  20
BRANCH  10  35
ATOM     35  O   UNL     1     101.236 117.371 126.240  1.00  0.00    -0.507 OA
ATOM     36  H   UNL     1     101.493 117.271 127.218  1.00  0.00     0.293 HD
ENDBRANCH  10  35
TORSDOF 9
ENDMDL
MODEL 6
REMARK VINA RESULT:    -6.406      2.016      4.163
REMARK INTER + INTRA:          -9.431
REMARK INTER:                  -8.801
REMARK INTRA:                  -0.630
REMARK UNBOUND:                -0.778
REMARK SMILES O=c1c(-c2ccc(O)cc2)coc2c([C@H]3O[C@@H](CO)[C@@H](O)[C@H](O)[C@H]3O)c(O)ccc12
REMARK SMILES IDX 3 1 11 2 12 3 13 4 30 5 2 6 1 7 29 8 28 9 26 10 14 11 4 12
REMARK SMILES IDX 5 13 6 14 7 15 10 16 9 17 8 18 15 20 24 21 16 22 22 23 17 24
REMARK SMILES IDX 20 25 25 26 23 28 18 30 19 31 21 33 27 35
REMARK H PARENT 8 19 25 27 23 29 19 32 21 34 27 36
REMARK Flexibility Score: inf
ROOT
ATOM      1  C   UNL     1     107.494 120.439 120.570  1.00  0.00     0.065 A 
ATOM      2  C   UNL     1     106.868 120.947 119.413  1.00  0.00     0.208 A 
ATOM      3  O   UNL     1     105.545 120.988 119.315  1.00  0.00    -0.463 OA
ATOM      4  C   UNL     1     104.729 120.515 120.256  1.00  0.00     0.147 A 
ATOM      5  C   UNL     1     105.268 119.931 121.420  1.00  0.00     0.066 A 
ATOM      6  C   UNL     1     106.663 119.939 121.594  1.00  0.00     0.200 A 
ATOM      7  O   UNL     1     107.167 119.541 122.678  1.00  0.00    -0.288 OA
ATOM      8  C   UNL     1     104.407 119.375 122.378  1.00  0.00     0.020 A 
ATOM      9  C   UNL     1     103.031 119.389 122.182  1.00  0.00     0.047 A 
ATOM     10  C   UNL     1     102.482 120.029 121.060  1.00  0.00     0.125 A 
ATOM     11  C   UNL     1     103.327 120.618 120.102  1.00  0.00     0.069 A 
ENDROOT
BRANCH   1  12
ATOM     12  C   UNL     1     108.977 120.437 120.670  1.00  0.00    -0.011 A 
ATOM     13  C   UNL     1     109.648 121.277 121.578  1.00  0.00     0.013 A 
ATOM     14  C   UNL     1     111.040 121.253 121.676  1.00  0.00     0.047 A 
ATOM     15  C   UNL     1     111.784 120.369 120.885  1.00  0.00     0.115 A 
ATOM     16  C   UNL     1     109.737 119.550 119.875  1.00  0.00     0.013 A 
ATOM     17  C   UNL     1     111.128 119.514 119.990  1.00  0.00     0.047 A 
BRANCH  15  18
ATOM     18  O   UNL     1     113.168 120.329 120.980  1.00  0.00    -0.508 OA
ATOM     19  H   UNL     1     113.742 120.314 120.153  1.00  0.00     0.293 HD
ENDBRANCH  15  18
ENDBRANCH   1  12
BRANCH  11  20
ATOM     20  C   UNL     1     102.731 121.450 118.975  1.00  0.00     0.188 C 
ATOM     21  C   UNL     1     102.622 120.660 117.648  1.00  0.00     0.179 C 
ATOM     22  O   UNL     1     103.501 122.634 118.812  1.00  0.00    -0.362 OA
ATOM     23  C   UNL     1     102.019 121.559 116.547  1.00  0.00     0.177 C 
ATOM     24  C   UNL     1     102.846 123.530 117.929  1.00  0.00     0.176 C 
ATOM     25  C   UNL     1     102.738 122.924 116.502  1.00  0.00     0.177 C 
BRANCH  21  26
ATOM     26  O   UNL     1     103.884 120.192 117.243  1.00  0.00    -0.387 OA
ATOM     27  H   UNL     1     104.551 120.626 117.844  1.00  0.00     0.211 HD
ENDBRANCH  21  26
BRANCH  23  28
ATOM     28  O   UNL     1     100.652 121.764 116.803  1.00  0.00    -0.387 OA
ATOM     29  H   UNL     1     100.144 121.070 116.294  1.00  0.00     0.211 HD
ENDBRANCH  23  28
BRANCH  24  30
ATOM     30  C   UNL     1     103.590 124.874 117.924  1.00  0.00     0.191 C 
BRANCH  30  31
ATOM     31  O   UNL     1     104.979 124.689 117.909  1.00  0.00    -0.394 OA
ATOM     32  H   UNL     1     105.335 125.204 117.136  1.00  0.00     0.210 HD
ENDBRANCH  30  31
ENDBRANCH  24  30
BRANCH  25  33
ATOM     33  O   UNL     1     104.009 122.751 115.923  1.00  0.00    -0.388 OA
ATOM     34  H   UNL     1     104.420 123.655 115.858  1.00  0.00     0.211 HD
ENDBRANCH  25  33
ENDBRANCH  11  20
BRANCH  10  35
ATOM     35  O   UNL     1     101.094 120.089 120.904  1.00  0.00    -0.507 OA
ATOM     36  H   UNL     1     100.674 120.133 119.979  1.00  0.00     0.293 HD
ENDBRANCH  10  35
TORSDOF 9
ENDMDL
MODEL 7
REMARK VINA RESULT:    -6.396      1.879      3.969
REMARK INTER + INTRA:          -9.418
REMARK INTER:                  -8.412
REMARK INTRA:                  -1.007
REMARK UNBOUND:                -0.778
REMARK SMILES O=c1c(-c2ccc(O)cc2)coc2c([C@H]3O[C@@H](CO)[C@@H](O)[C@H](O)[C@H]3O)c(O)ccc12
REMARK SMILES IDX 3 1 11 2 12 3 13 4 30 5 2 6 1 7 29 8 28 9 26 10 14 11 4 12
REMARK SMILES IDX 5 13 6 14 7 15 10 16 9 17 8 18 15 20 24 21 16 22 22 23 17 24
REMARK SMILES IDX 20 25 25 26 23 28 18 30 19 31 21 33 27 35
REMARK H PARENT 8 19 25 27 23 29 19 32 21 34 27 36
REMARK Flexibility Score: inf
ROOT
ATOM      1  C   UNL     1     107.612 120.694 120.202  1.00  0.00     0.065 A 
ATOM      2  C   UNL     1     107.154 121.411 119.077  1.00  0.00     0.208 A 
ATOM      3  O   UNL     1     105.855 121.579 118.857  1.00  0.00    -0.463 OA
ATOM      4  C   UNL     1     104.910 121.050 119.634  1.00  0.00     0.147 A 
ATOM      5  C   UNL     1     105.277 120.264 120.745  1.00  0.00     0.066 A 
ATOM      6  C   UNL     1     106.641 120.129 121.054  1.00  0.00     0.200 A 
ATOM      7  O   UNL     1     106.995 119.541 122.111  1.00  0.00    -0.288 OA
ATOM      8  C   UNL     1     104.280 119.656 121.522  1.00  0.00     0.020 A 
ATOM      9  C   UNL     1     102.937 119.814 121.196  1.00  0.00     0.047 A 
ATOM     10  C   UNL     1     102.560 120.650 120.134  1.00  0.00     0.125 A 
ATOM     11  C   UNL     1     103.544 121.293 119.361  1.00  0.00     0.069 A 
ENDROOT
BRANCH   1  12
ATOM     12  C   UNL     1     109.071 120.552 120.445  1.00  0.00    -0.011 A 
ATOM     13  C   UNL     1     109.842 119.612 119.735  1.00  0.00     0.013 A 
ATOM     14  C   UNL     1     111.215 119.501 119.958  1.00  0.00     0.047 A 
ATOM     15  C   UNL     1     111.847 120.346 120.879  1.00  0.00     0.115 A 
ATOM     16  C   UNL     1     109.719 121.399 121.373  1.00  0.00     0.013 A 
ATOM     17  C   UNL     1     111.096 121.299 121.579  1.00  0.00     0.047 A 
BRANCH  15  18
ATOM     18  O   UNL     1     113.213 120.252 121.103  1.00  0.00    -0.508 OA
ATOM     19  H   UNL     1     113.800 119.710 120.489  1.00  0.00     0.293 HD
ENDBRANCH  15  18
ENDBRANCH   1  12
BRANCH  11  20
ATOM     20  C   UNL     1     103.135 122.322 118.316  1.00  0.00     0.188 C 
ATOM     21  C   UNL     1     102.815 123.703 118.937  1.00  0.00     0.179 C 
ATOM     22  O   UNL     1     102.033 121.820 117.573  1.00  0.00    -0.362 OA
ATOM     23  C   UNL     1     102.402 124.697 117.830  1.00  0.00     0.177 C 
ATOM     24  C   UNL     1     101.774 122.650 116.453  1.00  0.00     0.176 C 
ATOM     25  C   UNL     1     101.336 124.071 116.904  1.00  0.00     0.177 C 
BRANCH  21  26
ATOM     26  O   UNL     1     101.785 123.594 119.887  1.00  0.00    -0.387 OA
ATOM     27  H   UNL     1     101.624 124.515 120.234  1.00  0.00     0.211 HD
ENDBRANCH  21  26
BRANCH  23  28
ATOM     28  O   UNL     1     103.530 125.046 117.066  1.00  0.00    -0.387 OA
ATOM     29  H   UNL     1     104.095 125.652 117.625  1.00  0.00     0.211 HD
ENDBRANCH  23  28
BRANCH  24  30
ATOM     30  C   UNL     1     100.716 121.984 115.559  1.00  0.00     0.191 C 
BRANCH  30  31
ATOM     31  O   UNL     1      99.903 122.937 114.932  1.00  0.00    -0.394 OA
ATOM     32  H   UNL     1      99.652 123.608 115.623  1.00  0.00     0.210 HD
ENDBRANCH  30  31
ENDBRANCH  24  30
BRANCH  25  33
ATOM     33  O   UNL     1     100.106 124.034 117.586  1.00  0.00    -0.388 OA
ATOM     34  H   UNL     1      99.495 123.463 117.047  1.00  0.00     0.211 HD
ENDBRANCH  25  33
ENDBRANCH  11  20
BRANCH  10  35
ATOM     35  O   UNL     1     101.205 120.850 119.853  1.00  0.00    -0.507 OA
ATOM     36  H   UNL     1     100.913 121.507 119.135  1.00  0.00     0.293 HD
ENDBRANCH  10  35
TORSDOF 9
ENDMDL
MODEL 8
REMARK VINA RESULT:    -6.394      3.575      4.788
REMARK INTER + INTRA:          -9.416
REMARK INTER:                  -8.506
REMARK INTRA:                  -0.909
REMARK UNBOUND:                -0.778
REMARK SMILES O=c1c(-c2ccc(O)cc2)coc2c([C@H]3O[C@@H](CO)[C@@H](O)[C@H](O)[C@H]3O)c(O)ccc12
REMARK SMILES IDX 3 1 11 2 12 3 13 4 30 5 2 6 1 7 29 8 28 9 26 10 14 11 4 12
REMARK SMILES IDX 5 13 6 14 7 15 10 16 9 17 8 18 15 20 24 21 16 22 22 23 17 24
REMARK SMILES IDX 20 25 25 26 23 28 18 30 19 31 21 33 27 35
REMARK H PARENT 8 19 25 27 23 29 19 32 21 34 27 36
REMARK Flexibility Score: inf
ROOT
ATOM      1  C   UNL     1     107.074 120.660 121.365  1.00  0.00     0.065 A 
ATOM      2  C   UNL     1     106.790 120.055 122.608  1.00  0.00     0.208 A 
ATOM      3  O   UNL     1     105.722 120.411 123.312  1.00  0.00    -0.463 OA
ATOM      4  C   UNL     1     104.887 121.378 122.932  1.00  0.00     0.147 A 
ATOM      5  C   UNL     1     105.129 122.080 121.734  1.00  0.00     0.066 A 
ATOM      6  C   UNL     1     106.206 121.680 120.924  1.00  0.00     0.200 A 
ATOM      7  O   UNL     1     106.372 122.202 119.789  1.00  0.00    -0.288 OA
ATOM      8  C   UNL     1     104.286 123.141 121.371  1.00  0.00     0.020 A 
ATOM      9  C   UNL     1     103.223 123.509 122.189  1.00  0.00     0.047 A 
ATOM     10  C   UNL     1     102.934 122.772 123.347  1.00  0.00     0.125 A 
ATOM     11  C   UNL     1     103.750 121.686 123.714  1.00  0.00     0.069 A 
ENDROOT
BRANCH   1  12
ATOM     12  C   UNL     1     108.255 120.218 120.580  1.00  0.00    -0.011 A 
ATOM     13  C   UNL     1     109.565 120.432 121.049  1.00  0.00     0.013 A 
ATOM     14  C   UNL     1     110.666 119.996 120.312  1.00  0.00     0.047 A 
ATOM     15  C   UNL     1     110.477 119.315 119.103  1.00  0.00     0.115 A 
ATOM     16  C   UNL     1     108.075 119.531 119.359  1.00  0.00     0.013 A 
ATOM     17  C   UNL     1     109.179 119.078 118.633  1.00  0.00     0.047 A 
BRANCH  15  18
ATOM     18  O   UNL     1     111.565 118.867 118.366  1.00  0.00    -0.508 OA
ATOM     19  H   UNL     1     111.942 117.946 118.512  1.00  0.00     0.293 HD
ENDBRANCH  15  18
ENDBRANCH   1  12
BRANCH  11  20
ATOM     20  C   UNL     1     103.344 120.791 124.876  1.00  0.00     0.188 C 
ATOM     21  C   UNL     1     102.366 119.670 124.449  1.00  0.00     0.179 C 
ATOM     22  O   UNL     1     102.794 121.593 125.913  1.00  0.00    -0.362 OA
ATOM     23  C   UNL     1     101.989 118.805 125.671  1.00  0.00     0.177 C 
ATOM     24  C   UNL     1     102.615 120.823 127.090  1.00  0.00     0.176 C 
ATOM     25  C   UNL     1     101.572 119.693 126.862  1.00  0.00     0.177 C 
BRANCH  21  26
ATOM     26  O   UNL     1     101.205 120.217 123.876  1.00  0.00    -0.387 OA
ATOM     27  H   UNL     1     101.360 121.199 123.808  1.00  0.00     0.211 HD
ENDBRANCH  21  26
BRANCH  23  28
ATOM     28  O   UNL     1     103.091 118.016 126.046  1.00  0.00    -0.387 OA
ATOM     29  H   UNL     1     103.234 117.338 125.325  1.00  0.00     0.211 HD
ENDBRANCH  23  28
BRANCH  24  30
ATOM     30  C   UNL     1     102.210 121.749 128.247  1.00  0.00     0.191 C 
BRANCH  30  31
ATOM     31  O   UNL     1     101.396 121.084 129.174  1.00  0.00    -0.394 OA
ATOM     32  H   UNL     1     100.732 121.744 129.508  1.00  0.00     0.210 HD
ENDBRANCH  30  31
ENDBRANCH  24  30
BRANCH  25  33
ATOM     33  O   UNL     1     100.293 120.223 126.610  1.00  0.00    -0.388 OA
ATOM     34  H   UNL     1      99.687 119.449 126.456  1.00  0.00     0.211 HD
ENDBRANCH  25  33
ENDBRANCH  11  20
BRANCH  10  35
ATOM     35  O   UNL     1     101.827 123.114 124.130  1.00  0.00    -0.507 OA
ATOM     36  H   UNL     1     101.839 123.943 124.717  1.00  0.00     0.293 HD
ENDBRANCH  10  35
TORSDOF 9
ENDMDL
MODEL 9
REMARK VINA RESULT:    -6.285      3.059      3.791
REMARK INTER + INTRA:          -9.268
REMARK INTER:                  -8.762
REMARK INTRA:                  -0.507
REMARK UNBOUND:                -0.778
REMARK SMILES O=c1c(-c2ccc(O)cc2)coc2c([C@H]3O[C@@H](CO)[C@@H](O)[C@H](O)[C@H]3O)c(O)ccc12
REMARK SMILES IDX 3 1 11 2 12 3 13 4 30 5 2 6 1 7 29 8 28 9 26 10 14 11 4 12
REMARK SMILES IDX 5 13 6 14 7 15 10 16 9 17 8 18 15 20 24 21 16 22 22 23 17 24
REMARK SMILES IDX 20 25 25 26 23 28 18 30 19 31 21 33 27 35
REMARK H PARENT 8 19 25 27 23 29 19 32 21 34 27 36
REMARK Flexibility Score: inf
ROOT
ATOM      1  C   UNL     1     106.955 120.746 121.731  1.00  0.00     0.065 A 
ATOM      2  C   UNL     1     106.385 120.136 122.869  1.00  0.00     0.208 A 
ATOM      3  O   UNL     1     105.131 120.391 123.223  1.00  0.00    -0.463 OA
ATOM      4  C   UNL     1     104.353 121.259 122.578  1.00  0.00     0.147 A 
ATOM      5  C   UNL     1     104.861 121.963 121.467  1.00  0.00     0.066 A 
ATOM      6  C   UNL     1     106.159 121.663 121.016  1.00  0.00     0.200 A 
ATOM      7  O   UNL     1     106.593 122.180 119.952  1.00  0.00    -0.288 OA
ATOM      8  C   UNL     1     104.062 122.924 120.831  1.00  0.00     0.020 A 
ATOM      9  C   UNL     1     102.779 123.193 121.295  1.00  0.00     0.047 A 
ATOM     10  C   UNL     1     102.240 122.450 122.357  1.00  0.00     0.125 A 
ATOM     11  C   UNL     1     103.015 121.461 122.989  1.00  0.00     0.069 A 
ENDROOT
BRANCH   1  12
ATOM     12  C   UNL     1     108.349 120.416 121.336  1.00  0.00    -0.011 A 
ATOM     13  C   UNL     1     109.431 120.661 122.201  1.00  0.00     0.013 A 
ATOM     14  C   UNL     1     110.733 120.330 121.826  1.00  0.00     0.047 A 
ATOM     15  C   UNL     1     110.974 119.724 120.587  1.00  0.00     0.115 A 
ATOM     16  C   UNL     1     108.603 119.806 120.087  1.00  0.00     0.013 A 
ATOM     17  C   UNL     1     109.905 119.457 119.722  1.00  0.00     0.047 A 
BRANCH  15  18
ATOM     18  O   UNL     1     112.264 119.381 120.206  1.00  0.00    -0.508 OA
ATOM     19  H   UNL     1     112.704 119.826 119.418  1.00  0.00     0.293 HD
ENDBRANCH  15  18
ENDBRANCH   1  12
BRANCH  11  20
ATOM     20  C   UNL     1     102.379 120.548 124.028  1.00  0.00     0.188 C 
ATOM     21  C   UNL     1     102.638 121.027 125.477  1.00  0.00     0.179 C 
ATOM     22  O   UNL     1     102.845 119.220 123.829  1.00  0.00    -0.362 OA
ATOM     23  C   UNL     1     101.975 120.057 126.479  1.00  0.00     0.177 C 
ATOM     24  C   UNL     1     102.105 118.313 124.629  1.00  0.00     0.176 C 
ATOM     25  C   UNL     1     102.332 118.594 126.141  1.00  0.00     0.177 C 
BRANCH  21  26
ATOM     26  O   UNL     1     104.017 121.108 125.734  1.00  0.00    -0.387 OA
ATOM     27  H   UNL     1     104.152 120.759 126.658  1.00  0.00     0.211 HD
ENDBRANCH  21  26
BRANCH  23  28
ATOM     28  O   UNL     1     100.578 120.214 126.432  1.00  0.00    -0.387 OA
ATOM     29  H   UNL     1     100.172 119.303 126.496  1.00  0.00     0.211 HD
ENDBRANCH  23  28
BRANCH  24  30
ATOM     30  C   UNL     1     102.487 116.873 124.253  1.00  0.00     0.191 C 
BRANCH  30  31
ATOM     31  O   UNL     1     102.464 116.029 125.370  1.00  0.00    -0.394 OA
ATOM     32  H   UNL     1     102.425 116.610 126.177  1.00  0.00     0.210 HD
ENDBRANCH  30  31
ENDBRANCH  24  30
BRANCH  25  33
ATOM     33  O   UNL     1     103.669 118.354 126.510  1.00  0.00    -0.388 OA
ATOM     34  H   UNL     1     103.875 117.416 126.251  1.00  0.00     0.211 HD
ENDBRANCH  25  33
ENDBRANCH  11  20
BRANCH  10  35
ATOM     35  O   UNL     1     100.927 122.688 122.776  1.00  0.00    -0.507 OA
ATOM     36  H   UNL     1     100.414 123.501 122.448  1.00  0.00     0.293 HD
ENDBRANCH  10  35
TORSDOF 9
ENDMDL
