MODEL 1
REMARK VINA RESULT:    -3.930      0.000      0.000
REMARK INTER + INTRA:          -4.739
REMARK INTER:                  -4.619
REMARK INTRA:                  -0.119
REMARK UNBOUND:                -0.119
REMARK SMILES O=C([O-])CCC(=O)[O-]
REMARK SMILES IDX 4 1 2 2 1 3 3 4 5 5 6 6 7 7 8 8
REMARK H PARENT
REMARK Flexibility Score: inf
ROOT
ATOM      1  C   UNL     1     -11.755 -40.248 -16.206  1.00  0.00     0.059 C 
ENDROOT
BRANCH   1   2
ATOM      2  C   UNL     1     -11.653 -39.864 -17.647  1.00  0.00     0.042 C 
ATOM      3  O   UNL     1     -10.578 -40.050 -18.277  1.00  0.00    -0.550 OA
ATOM      4  O   UNL     1     -12.727 -39.256 -18.284  1.00  0.00    -0.550 OA
ENDBRANCH   1   2
BRANCH   1   5
ATOM      5  C   UNL     1     -11.934 -41.762 -16.066  1.00  0.00     0.059 C 
BRANCH   5   6
ATOM      6  C   UNL     1     -10.799 -42.354 -15.293  1.00  0.00     0.042 C 
ATOM      7  O   UNL     1      -9.618 -41.968 -15.504  1.00  0.00    -0.550 OA
ATOM      8  O   UNL     1     -11.047 -43.295 -14.303  1.00  0.00    -0.550 OA
ENDBRANCH   5   6
ENDBRANCH   1   5
TORSDOF 3
ENDMDL
MODEL 2
REMARK VINA RESULT:    -3.928      0.143      3.992
REMARK INTER + INTRA:          -4.736
REMARK INTER:                  -4.618
REMARK INTRA:                  -0.119
REMARK UNBOUND:                -0.119
REMARK SMILES O=C([O-])CCC(=O)[O-]
REMARK SMILES IDX 4 1 2 2 1 3 3 4 5 5 6 6 7 7 8 8
REMARK H PARENT
REMARK Flexibility Score: inf
ROOT
ATOM      1  C   UNL     1     -11.866 -41.876 -16.129  1.00  0.00     0.059 C 
ENDROOT
BRANCH   1   2
ATOM      2  C   UNL     1     -10.763 -42.486 -15.323  1.00  0.00     0.042 C 
ATOM      3  O   UNL     1     -11.027 -43.337 -14.433  1.00  0.00    -0.550 OA
ATOM      4  O   UNL     1      -9.450 -42.081 -15.521  1.00  0.00    -0.550 OA
ENDBRANCH   1   2
BRANCH   1   5
ATOM      5  C   UNL     1     -11.726 -40.352 -16.158  1.00  0.00     0.059 C 
BRANCH   5   6
ATOM      6  C   UNL     1     -11.566 -39.868 -17.564  1.00  0.00     0.042 C 
ATOM      7  O   UNL     1     -10.479 -40.045 -18.175  1.00  0.00    -0.550 OA
ATOM      8  O   UNL     1     -12.633 -39.265 -18.219  1.00  0.00    -0.550 OA
ENDBRANCH   5   6
ENDBRANCH   1   5
TORSDOF 3
ENDMDL
MODEL 3
REMARK VINA RESULT:    -3.927      0.144      4.051
REMARK INTER + INTRA:          -4.735
REMARK INTER:                  -4.622
REMARK INTRA:                  -0.114
REMARK UNBOUND:                -0.119
REMARK SMILES O=C([O-])CCC(=O)[O-]
REMARK SMILES IDX 4 1 2 2 1 3 3 4 5 5 6 6 7 7 8 8
REMARK H PARENT
REMARK Flexibility Score: inf
ROOT
ATOM      1  C   UNL     1     -11.870 -41.874 -16.107  1.00  0.00     0.059 C 
ENDROOT
BRANCH   1   2
ATOM      2  C   UNL     1     -10.750 -42.467 -15.313  1.00  0.00     0.042 C 
ATOM      3  O   UNL     1     -10.992 -43.314 -14.412  1.00  0.00    -0.550 OA
ATOM      4  O   UNL     1      -9.444 -42.050 -15.533  1.00  0.00    -0.550 OA
ENDBRANCH   1   2
BRANCH   1   5
ATOM      5  C   UNL     1     -11.743 -40.349 -16.156  1.00  0.00     0.059 C 
BRANCH   5   6
ATOM      6  C   UNL     1     -11.642 -39.878 -17.572  1.00  0.00     0.042 C 
ATOM      7  O   UNL     1     -12.602 -39.259 -18.104  1.00  0.00    -0.550 OA
ATOM      8  O   UNL     1     -10.469 -40.076 -18.289  1.00  0.00    -0.550 OA
ENDBRANCH   5   6
ENDBRANCH   1   5
TORSDOF 3
ENDMDL
MODEL 4
REMARK VINA RESULT:    -3.903      0.188      4.009
REMARK INTER + INTRA:          -4.706
REMARK INTER:                  -4.596
REMARK INTRA:                  -0.110
REMARK UNBOUND:                -0.119
REMARK SMILES O=C([O-])CCC(=O)[O-]
REMARK SMILES IDX 4 1 2 2 1 3 3 4 5 5 6 6 7 7 8 8
REMARK H PARENT
REMARK Flexibility Score: inf
ROOT
ATOM      1  C   UNL     1     -11.821 -41.895 -16.101  1.00  0.00     0.059 C 
ENDROOT
BRANCH   1   2
ATOM      2  C   UNL     1     -10.721 -42.495 -15.285  1.00  0.00     0.042 C 
ATOM      3  O   UNL     1      -9.521 -42.194 -15.521  1.00  0.00    -0.550 OA
ATOM      4  O   UNL     1     -11.016 -43.425 -14.296  1.00  0.00    -0.550 OA
ENDBRANCH   1   2
BRANCH   1   5
ATOM      5  C   UNL     1     -11.699 -40.369 -16.123  1.00  0.00     0.059 C 
BRANCH   5   6
ATOM      6  C   UNL     1     -11.618 -39.872 -17.531  1.00  0.00     0.042 C 
ATOM      7  O   UNL     1     -12.571 -39.214 -18.027  1.00  0.00    -0.550 OA
ATOM      8  O   UNL     1     -10.469 -40.090 -18.281  1.00  0.00    -0.550 OA
ENDBRANCH   5   6
ENDBRANCH   1   5
TORSDOF 3
ENDMDL
MODEL 5
REMARK VINA RESULT:    -3.833     11.139     12.031
REMARK INTER + INTRA:          -4.624
REMARK INTER:                  -4.517
REMARK INTRA:                  -0.108
REMARK UNBOUND:                -0.119
REMARK SMILES O=C([O-])CCC(=O)[O-]
REMARK SMILES IDX 4 1 2 2 1 3 3 4 5 5 6 6 7 7 8 8
REMARK H PARENT
REMARK Flexibility Score: inf
ROOT
ATOM      1  C   UNL     1      -0.542 -43.674 -16.816  1.00  0.00     0.059 C 
ENDROOT
BRANCH   1   2
ATOM      2  C   UNL     1      -0.146 -42.846 -17.997  1.00  0.00     0.042 C 
ATOM      3  O   UNL     1      -0.864 -42.835 -19.032  1.00  0.00    -0.550 OA
ATOM      4  O   UNL     1       1.040 -42.124 -17.974  1.00  0.00    -0.550 OA
ENDBRANCH   1   2
BRANCH   1   5
ATOM      5  C   UNL     1       0.580 -44.645 -16.442  1.00  0.00     0.059 C 
BRANCH   5   6
ATOM      6  C   UNL     1       0.994 -44.443 -15.019  1.00  0.00     0.042 C 
ATOM      7  O   UNL     1       1.764 -43.494 -14.712  1.00  0.00    -0.550 OA
ATOM      8  O   UNL     1       0.492 -45.271 -14.024  1.00  0.00    -0.550 OA
ENDBRANCH   5   6
ENDBRANCH   1   5
TORSDOF 3
ENDMDL
MODEL 6
REMARK VINA RESULT:    -3.819     11.197     12.670
REMARK INTER + INTRA:          -4.608
REMARK INTER:                  -4.491
REMARK INTRA:                  -0.116
REMARK UNBOUND:                -0.119
REMARK SMILES O=C([O-])CCC(=O)[O-]
REMARK SMILES IDX 4 1 2 2 1 3 3 4 5 5 6 6 7 7 8 8
REMARK H PARENT
REMARK Flexibility Score: inf
ROOT
ATOM      1  C   UNL     1       0.583 -44.706 -16.403  1.00  0.00     0.059 C 
ENDROOT
BRANCH   1   2
ATOM      2  C   UNL     1       1.098 -44.496 -15.014  1.00  0.00     0.042 C 
ATOM      3  O   UNL     1       0.906 -45.371 -14.129  1.00  0.00    -0.550 OA
ATOM      4  O   UNL     1       1.746 -43.313 -14.684  1.00  0.00    -0.550 OA
ENDBRANCH   1   2
BRANCH   1   5
ATOM      5  C   UNL     1      -0.470 -43.650 -16.749  1.00  0.00     0.059 C 
BRANCH   5   6
ATOM      6  C   UNL     1      -0.061 -42.881 -17.964  1.00  0.00     0.042 C 
ATOM      7  O   UNL     1       1.016 -42.227 -17.968  1.00  0.00    -0.550 OA
ATOM      8  O   UNL     1      -0.841 -42.926 -19.112  1.00  0.00    -0.550 OA
ENDBRANCH   5   6
ENDBRANCH   1   5
TORSDOF 3
ENDMDL
MODEL 7
REMARK VINA RESULT:    -3.805     11.228     12.148
REMARK INTER + INTRA:          -4.591
REMARK INTER:                  -4.477
REMARK INTRA:                  -0.114
REMARK UNBOUND:                -0.119
REMARK SMILES O=C([O-])CCC(=O)[O-]
REMARK SMILES IDX 4 1 2 2 1 3 3 4 5 5 6 6 7 7 8 8
REMARK H PARENT
REMARK Flexibility Score: inf
ROOT
ATOM      1  C   UNL     1      -0.456 -43.690 -16.772  1.00  0.00     0.059 C 
ENDROOT
BRANCH   1   2
ATOM      2  C   UNL     1      -0.026 -42.923 -17.981  1.00  0.00     0.042 C 
ATOM      3  O   UNL     1       1.022 -42.224 -17.949  1.00  0.00    -0.550 OA
ATOM      4  O   UNL     1      -0.806 -42.940 -19.130  1.00  0.00    -0.550 OA
ENDBRANCH   1   2
BRANCH   1   5
ATOM      5  C   UNL     1       0.606 -44.723 -16.387  1.00  0.00     0.059 C 
BRANCH   5   6
ATOM      6  C   UNL     1       1.077 -44.493 -14.987  1.00  0.00     0.042 C 
ATOM      7  O   UNL     1       0.859 -45.355 -14.095  1.00  0.00    -0.550 OA
ATOM      8  O   UNL     1       1.801 -43.349 -14.675  1.00  0.00    -0.550 OA
ENDBRANCH   5   6
ENDBRANCH   1   5
TORSDOF 3
ENDMDL
MODEL 8
REMARK VINA RESULT:    -3.651     10.656     11.970
REMARK INTER + INTRA:          -4.410
REMARK INTER:                  -4.292
REMARK INTRA:                  -0.118
REMARK UNBOUND:                -0.119
REMARK SMILES O=C([O-])CCC(=O)[O-]
REMARK SMILES IDX 4 1 2 2 1 3 3 4 5 5 6 6 7 7 8 8
REMARK H PARENT
REMARK Flexibility Score: inf
ROOT
ATOM      1  C   UNL     1      -0.510 -43.612 -17.378  1.00  0.00     0.059 C 
ENDROOT
BRANCH   1   2
ATOM      2  C   UNL     1       0.959 -43.487 -17.129  1.00  0.00     0.042 C 
ATOM      3  O   UNL     1       1.432 -43.738 -15.988  1.00  0.00    -0.550 OA
ATOM      4  O   UNL     1       1.802 -43.045 -18.140  1.00  0.00    -0.550 OA
ENDBRANCH   1   2
BRANCH   1   5
ATOM      5  C   UNL     1      -0.958 -42.615 -18.449  1.00  0.00     0.059 C 
BRANCH   5   6
ATOM      6  C   UNL     1      -1.523 -43.335 -19.631  1.00  0.00     0.042 C 
ATOM      7  O   UNL     1      -2.719 -43.142 -19.979  1.00  0.00    -0.550 OA
ATOM      8  O   UNL     1      -0.717 -44.181 -20.382  1.00  0.00    -0.550 OA
ENDBRANCH   5   6
ENDBRANCH   1   5
TORSDOF 3
ENDMDL
MODEL 9
REMARK VINA RESULT:    -3.615      1.716      2.307
REMARK INTER + INTRA:          -4.368
REMARK INTER:                  -4.248
REMARK INTRA:                  -0.119
REMARK UNBOUND:                -0.119
REMARK SMILES O=C([O-])CCC(=O)[O-]
REMARK SMILES IDX 4 1 2 2 1 3 3 4 5 5 6 6 7 7 8 8
REMARK H PARENT
REMARK Flexibility Score: inf
ROOT
ATOM      1  C   UNL     1     -12.553 -41.433 -17.092  1.00  0.00     0.059 C 
ENDROOT
BRANCH   1   2
ATOM      2  C   UNL     1     -13.642 -40.436 -16.854  1.00  0.00     0.042 C 
ATOM      3  O   UNL     1     -13.364 -39.287 -16.419  1.00  0.00    -0.550 OA
ATOM      4  O   UNL     1     -14.969 -40.790 -17.065  1.00  0.00    -0.550 OA
ENDBRANCH   1   2
BRANCH   1   5
ATOM      5  C   UNL     1     -11.725 -41.636 -15.821  1.00  0.00     0.059 C 
BRANCH   5   6
ATOM      6  C   UNL     1     -10.328 -41.144 -16.023  1.00  0.00     0.042 C 
ATOM      7  O   UNL     1     -10.115 -40.096 -16.689  1.00  0.00    -0.550 OA
ATOM      8  O   UNL     1      -9.262 -41.813 -15.434  1.00  0.00    -0.550 OA
ENDBRANCH   5   6
ENDBRANCH   1   5
TORSDOF 3
ENDMDL
