MODEL 1
REMARK VINA RESULT:    -3.371      0.000      0.000
REMARK INTER + INTRA:          -3.731
REMARK INTER:                  -3.666
REMARK INTRA:                  -0.065
REMARK UNBOUND:                -0.065
REMARK SMILES COc1cc2ccc(=O)oc2cc1O
REMARK SMILES IDX 3 1 13 2 12 3 11 4 5 5 4 6 6 7 7 8 8 9 9 10 10 11 2 12 1 13
REMARK SMILES IDX 14 14
REMARK H PARENT 14 15
REMARK Flexibility Score: inf
ROOT
ATOM      1  C   UNL     1      21.107  -1.227  -8.643  1.00  0.00     0.161 A 
ATOM      2  C   UNL     1      21.798  -0.008  -8.722  1.00  0.00     0.161 A 
ATOM      3  C   UNL     1      21.171   1.128  -9.252  1.00  0.00     0.098 A 
ATOM      4  C   UNL     1      19.852   1.058  -9.707  1.00  0.00     0.142 A 
ATOM      5  C   UNL     1      19.149  -0.163  -9.631  1.00  0.00     0.022 A 
ATOM      6  C   UNL     1      19.776  -1.301  -9.102  1.00  0.00     0.062 A 
ATOM      7  C   UNL     1      17.831  -0.203 -10.096  1.00  0.00     0.019 A 
ATOM      8  C   UNL     1      17.252   0.955 -10.614  1.00  0.00     0.094 A 
ATOM      9  C   UNL     1      18.010   2.130 -10.657  1.00  0.00     0.336 A 
ATOM     10  O   UNL     1      17.506   3.186 -11.122  1.00  0.00    -0.246 OA
ATOM     11  O   UNL     1      19.263   2.140 -10.209  1.00  0.00    -0.423 OA
ENDROOT
BRANCH   1  12
ATOM     12  O   UNL     1      21.773  -2.340  -8.105  1.00  0.00    -0.493 OA
ATOM     13  C   UNL     1      21.517  -2.888  -6.816  1.00  0.00     0.278 C 
ENDBRANCH   1  12
BRANCH   2  14
ATOM     14  O   UNL     1      23.114   0.066  -8.268  1.00  0.00    -0.504 OA
ATOM     15  H   UNL     1      23.898  -0.110  -8.885  1.00  0.00     0.293 HD
ENDBRANCH   2  14
TORSDOF 2
ENDMDL
MODEL 2
REMARK VINA RESULT:    -3.051      1.362      5.381
REMARK INTER + INTRA:          -3.384
REMARK INTER:                  -3.392
REMARK INTRA:                   0.008
REMARK UNBOUND:                -0.065
REMARK SMILES COc1cc2ccc(=O)oc2cc1O
REMARK SMILES IDX 3 1 13 2 12 3 11 4 5 5 4 6 6 7 7 8 8 9 9 10 10 11 2 12 1 13
REMARK SMILES IDX 14 14
REMARK H PARENT 14 15
REMARK Flexibility Score: inf
ROOT
ATOM      1  C   UNL     1      19.242   1.085 -10.356  1.00  0.00     0.161 A 
ATOM      2  C   UNL     1      18.670  -0.176 -10.127  1.00  0.00     0.161 A 
ATOM      3  C   UNL     1      19.351  -1.135  -9.365  1.00  0.00     0.098 A 
ATOM      4  C   UNL     1      20.606  -0.845  -8.826  1.00  0.00     0.142 A 
ATOM      5  C   UNL     1      21.190   0.420  -9.051  1.00  0.00     0.022 A 
ATOM      6  C   UNL     1      20.509   1.380  -9.813  1.00  0.00     0.062 A 
ATOM      7  C   UNL     1      22.448   0.680  -8.499  1.00  0.00     0.019 A 
ATOM      8  C   UNL     1      23.085  -0.307  -7.748  1.00  0.00     0.094 A 
ATOM      9  C   UNL     1      22.445  -1.538  -7.567  1.00  0.00     0.336 A 
ATOM     10  O   UNL     1      23.004  -2.443  -6.893  1.00  0.00    -0.246 OA
ATOM     11  O   UNL     1      21.248  -1.760  -8.103  1.00  0.00    -0.423 OA
ENDROOT
BRANCH   1  12
ATOM     12  O   UNL     1      18.525   2.015 -11.125  1.00  0.00    -0.493 OA
ATOM     13  C   UNL     1      17.490   2.853 -10.620  1.00  0.00     0.278 C 
ENDBRANCH   1  12
BRANCH   2  14
ATOM     14  O   UNL     1      17.416  -0.469 -10.663  1.00  0.00    -0.504 OA
ATOM     15  H   UNL     1      16.949  -1.347 -10.470  1.00  0.00     0.293 HD
ENDBRANCH   2  14
TORSDOF 2
ENDMDL
MODEL 3
REMARK VINA RESULT:    -2.605      1.808      2.721
REMARK INTER + INTRA:          -2.898
REMARK INTER:                  -2.853
REMARK INTRA:                  -0.045
REMARK UNBOUND:                -0.065
REMARK SMILES COc1cc2ccc(=O)oc2cc1O
REMARK SMILES IDX 3 1 13 2 12 3 11 4 5 5 4 6 6 7 7 8 8 9 9 10 10 11 2 12 1 13
REMARK SMILES IDX 14 14
REMARK H PARENT 14 15
REMARK Flexibility Score: inf
ROOT
ATOM      1  C   UNL     1      20.526  -1.251  -9.965  1.00  0.00     0.161 A 
ATOM      2  C   UNL     1      19.221  -1.714  -9.738  1.00  0.00     0.161 A 
ATOM      3  C   UNL     1      18.125  -0.858  -9.918  1.00  0.00     0.098 A 
ATOM      4  C   UNL     1      18.322   0.464 -10.324  1.00  0.00     0.142 A 
ATOM      5  C   UNL     1      19.631   0.938 -10.554  1.00  0.00     0.022 A 
ATOM      6  C   UNL     1      20.728   0.083 -10.375  1.00  0.00     0.062 A 
ATOM      7  C   UNL     1      19.796   2.266 -10.960  1.00  0.00     0.019 A 
ATOM      8  C   UNL     1      18.674   3.077 -11.124  1.00  0.00     0.094 A 
ATOM      9  C   UNL     1      17.407   2.538 -10.878  1.00  0.00     0.336 A 
ATOM     10  O   UNL     1      16.381   3.254 -11.020  1.00  0.00    -0.246 OA
ATOM     11  O   UNL     1      17.277   1.271 -10.493  1.00  0.00    -0.423 OA
ENDROOT
BRANCH   1  12
ATOM     12  O   UNL     1      21.594  -2.142  -9.773  1.00  0.00    -0.493 OA
ATOM     13  C   UNL     1      22.967  -1.804  -9.941  1.00  0.00     0.278 C 
ENDBRANCH   1  12
BRANCH   2  14
ATOM     14  O   UNL     1      19.021  -3.033  -9.333  1.00  0.00    -0.504 OA
ATOM     15  H   UNL     1      18.214  -3.301  -8.781  1.00  0.00     0.293 HD
ENDBRANCH   2  14
TORSDOF 2
ENDMDL
MODEL 4
REMARK VINA RESULT:    -2.570     11.809     14.394
REMARK INTER + INTRA:          -2.860
REMARK INTER:                  -2.801
REMARK INTRA:                  -0.059
REMARK UNBOUND:                -0.065
REMARK SMILES COc1cc2ccc(=O)oc2cc1O
REMARK SMILES IDX 3 1 13 2 12 3 11 4 5 5 4 6 6 7 7 8 8 9 9 10 10 11 2 12 1 13
REMARK SMILES IDX 14 14
REMARK H PARENT 14 15
REMARK Flexibility Score: inf
ROOT
ATOM      1  C   UNL     1      19.581  15.544  -9.677  1.00  0.00     0.161 A 
ATOM      2  C   UNL     1      18.597  15.824 -10.639  1.00  0.00     0.161 A 
ATOM      3  C   UNL     1      17.758  14.805 -11.111  1.00  0.00     0.098 A 
ATOM      4  C   UNL     1      17.893  13.501 -10.629  1.00  0.00     0.142 A 
ATOM      5  C   UNL     1      18.879  13.210  -9.662  1.00  0.00     0.022 A 
ATOM      6  C   UNL     1      19.719  14.228  -9.190  1.00  0.00     0.062 A 
ATOM      7  C   UNL     1      18.990  11.895  -9.200  1.00  0.00     0.019 A 
ATOM      8  C   UNL     1      18.131  10.917  -9.700  1.00  0.00     0.094 A 
ATOM      9  C   UNL     1      17.178  11.280 -10.657  1.00  0.00     0.336 A 
ATOM     10  O   UNL     1      16.393  10.412 -11.123  1.00  0.00    -0.246 OA
ATOM     11  O   UNL     1      17.093  12.539 -11.081  1.00  0.00    -0.423 OA
ENDROOT
BRANCH   1  12
ATOM     12  O   UNL     1      20.399  16.594  -9.233  1.00  0.00    -0.493 OA
ATOM     13  C   UNL     1      21.820  16.606  -9.328  1.00  0.00     0.278 C 
ENDBRANCH   1  12
BRANCH   2  14
ATOM     14  O   UNL     1      18.460  17.125 -11.122  1.00  0.00    -0.504 OA
ATOM     15  H   UNL     1      18.739  17.373 -12.064  1.00  0.00     0.293 HD
ENDBRANCH   2  14
TORSDOF 2
ENDMDL
MODEL 5
REMARK VINA RESULT:    -2.534     10.284     12.180
REMARK INTER + INTRA:          -2.821
REMARK INTER:                  -2.921
REMARK INTRA:                   0.100
REMARK UNBOUND:                -0.065
REMARK SMILES COc1cc2ccc(=O)oc2cc1O
REMARK SMILES IDX 3 1 13 2 12 3 11 4 5 5 4 6 6 7 7 8 8 9 9 10 10 11 2 12 1 13
REMARK SMILES IDX 14 14
REMARK H PARENT 14 15
REMARK Flexibility Score: inf
ROOT
ATOM      1  C   UNL     1      20.288  10.360  -8.822  1.00  0.00     0.161 A 
ATOM      2  C   UNL     1      18.942  10.586  -8.495  1.00  0.00     0.161 A 
ATOM      3  C   UNL     1      18.300  11.760  -8.911  1.00  0.00     0.098 A 
ATOM      4  C   UNL     1      18.993  12.717  -9.655  1.00  0.00     0.142 A 
ATOM      5  C   UNL     1      20.347  12.499  -9.989  1.00  0.00     0.022 A 
ATOM      6  C   UNL     1      20.991  11.325  -9.573  1.00  0.00     0.062 A 
ATOM      7  C   UNL     1      21.014  13.476 -10.735  1.00  0.00     0.019 A 
ATOM      8  C   UNL     1      20.331  14.627 -11.125  1.00  0.00     0.094 A 
ATOM      9  C   UNL     1      18.989  14.774 -10.758  1.00  0.00     0.336 A 
ATOM     10  O   UNL     1      18.354  15.806 -11.100  1.00  0.00    -0.246 OA
ATOM     11  O   UNL     1      18.377  13.830 -10.048  1.00  0.00    -0.423 OA
ENDROOT
BRANCH   1  12
ATOM     12  O   UNL     1      20.892   9.171  -8.384  1.00  0.00    -0.493 OA
ATOM     13  C   UNL     1      21.256   8.900  -7.035  1.00  0.00     0.278 C 
ENDBRANCH   1  12
BRANCH   2  14
ATOM     14  O   UNL     1      18.247   9.632  -7.752  1.00  0.00    -0.504 OA
ATOM     15  H   UNL     1      17.304   9.802  -7.423  1.00  0.00     0.293 HD
ENDBRANCH   2  14
TORSDOF 2
ENDMDL
MODEL 6
REMARK VINA RESULT:    -2.311     12.286     14.871
REMARK INTER + INTRA:          -2.578
REMARK INTER:                  -2.532
REMARK INTRA:                  -0.046
REMARK UNBOUND:                -0.065
REMARK SMILES COc1cc2ccc(=O)oc2cc1O
REMARK SMILES IDX 3 1 13 2 12 3 11 4 5 5 4 6 6 7 7 8 8 9 9 10 10 11 2 12 1 13
REMARK SMILES IDX 14 14
REMARK H PARENT 14 15
REMARK Flexibility Score: inf
ROOT
ATOM      1  C   UNL     1      17.528  13.208 -11.069  1.00  0.00     0.161 A 
ATOM      2  C   UNL     1      17.121  14.552 -11.085  1.00  0.00     0.161 A 
ATOM      3  C   UNL     1      18.073  15.580 -11.062  1.00  0.00     0.098 A 
ATOM      4  C   UNL     1      19.437  15.278 -11.022  1.00  0.00     0.142 A 
ATOM      5  C   UNL     1      19.855  13.931 -11.006  1.00  0.00     0.022 A 
ATOM      6  C   UNL     1      18.904  12.901 -11.029  1.00  0.00     0.062 A 
ATOM      7  C   UNL     1      21.227  13.660 -10.966  1.00  0.00     0.019 A 
ATOM      8  C   UNL     1      22.134  14.718 -10.944  1.00  0.00     0.094 A 
ATOM      9  C   UNL     1      21.646  16.029 -10.962  1.00  0.00     0.336 A 
ATOM     10  O   UNL     1      22.448  16.999 -10.943  1.00  0.00    -0.246 OA
ATOM     11  O   UNL     1      20.336  16.259 -11.001  1.00  0.00    -0.423 OA
ENDROOT
BRANCH   1  12
ATOM     12  O   UNL     1      16.541  12.210 -11.094  1.00  0.00    -0.493 OA
ATOM     13  C   UNL     1      16.759  10.851 -10.732  1.00  0.00     0.278 C 
ENDBRANCH   1  12
BRANCH   2  14
ATOM     14  O   UNL     1      15.761  14.857 -11.125  1.00  0.00    -0.504 OA
ATOM     15  H   UNL     1      15.159  14.500 -11.858  1.00  0.00     0.293 HD
ENDBRANCH   2  14
TORSDOF 2
ENDMDL
MODEL 7
REMARK VINA RESULT:    -2.264     13.242     15.332
REMARK INTER + INTRA:          -2.528
REMARK INTER:                  -2.482
REMARK INTRA:                  -0.046
REMARK UNBOUND:                -0.065
REMARK SMILES COc1cc2ccc(=O)oc2cc1O
REMARK SMILES IDX 3 1 13 2 12 3 11 4 5 5 4 6 6 7 7 8 8 9 9 10 10 11 2 12 1 13
REMARK SMILES IDX 14 14
REMARK H PARENT 14 15
REMARK Flexibility Score: inf
ROOT
ATOM      1  C   UNL     1      17.126  15.086 -11.060  1.00  0.00     0.161 A 
ATOM      2  C   UNL     1      17.180  13.683 -11.061  1.00  0.00     0.161 A 
ATOM      3  C   UNL     1      18.415  13.022 -10.998  1.00  0.00     0.098 A 
ATOM      4  C   UNL     1      19.603  13.754 -10.933  1.00  0.00     0.142 A 
ATOM      5  C   UNL     1      19.559  15.164 -10.932  1.00  0.00     0.022 A 
ATOM      6  C   UNL     1      18.324  15.826 -10.996  1.00  0.00     0.062 A 
ATOM      7  C   UNL     1      20.765  15.868 -10.867  1.00  0.00     0.019 A 
ATOM      8  C   UNL     1      21.967  15.164 -10.806  1.00  0.00     0.094 A 
ATOM      9  C   UNL     1      21.934  13.766 -10.811  1.00  0.00     0.336 A 
ATOM     10  O   UNL     1      23.008  13.111 -10.756  1.00  0.00    -0.246 OA
ATOM     11  O   UNL     1      20.772  13.120 -10.873  1.00  0.00    -0.423 OA
ENDROOT
BRANCH   1  12
ATOM     12  O   UNL     1      15.868  15.706 -11.125  1.00  0.00    -0.493 OA
ATOM     13  C   UNL     1      15.625  17.073 -10.807  1.00  0.00     0.278 C 
ENDBRANCH   1  12
BRANCH   2  14
ATOM     14  O   UNL     1      15.996  12.951 -11.125  1.00  0.00    -0.504 OA
ATOM     15  H   UNL     1      15.290  13.020 -10.401  1.00  0.00     0.293 HD
ENDBRANCH   2  14
TORSDOF 2
ENDMDL
MODEL 8
REMARK VINA RESULT:    -2.002      2.044      5.310
REMARK INTER + INTRA:          -2.242
REMARK INTER:                  -2.177
REMARK INTRA:                  -0.065
REMARK UNBOUND:                -0.065
REMARK SMILES COc1cc2ccc(=O)oc2cc1O
REMARK SMILES IDX 3 1 13 2 12 3 11 4 5 5 4 6 6 7 7 8 8 9 9 10 10 11 2 12 1 13
REMARK SMILES IDX 14 14
REMARK H PARENT 14 15
REMARK Flexibility Score: inf
ROOT
ATOM      1  C   UNL     1      18.181   1.503 -10.117  1.00  0.00     0.161 A 
ATOM      2  C   UNL     1      17.805   0.156  -9.999  1.00  0.00     0.161 A 
ATOM      3  C   UNL     1      18.767  -0.859 -10.093  1.00  0.00     0.098 A 
ATOM      4  C   UNL     1      20.110  -0.538 -10.304  1.00  0.00     0.142 A 
ATOM      5  C   UNL     1      20.498   0.813 -10.424  1.00  0.00     0.022 A 
ATOM      6  C   UNL     1      19.536   1.829 -10.331  1.00  0.00     0.062 A 
ATOM      7  C   UNL     1      21.850   1.102 -10.636  1.00  0.00     0.019 A 
ATOM      8  C   UNL     1      22.769   0.057 -10.722  1.00  0.00     0.094 A 
ATOM      9  C   UNL     1      22.311  -1.259 -10.593  1.00  0.00     0.336 A 
ATOM     10  O   UNL     1      23.125  -2.217 -10.668  1.00  0.00    -0.246 OA
ATOM     11  O   UNL     1      21.020  -1.507 -10.392  1.00  0.00    -0.423 OA
ENDROOT
BRANCH   1  12
ATOM     12  O   UNL     1      17.184   2.487 -10.017  1.00  0.00    -0.493 OA
ATOM     13  C   UNL     1      16.645   3.205 -11.122  1.00  0.00     0.278 C 
ENDBRANCH   1  12
BRANCH   2  14
ATOM     14  O   UNL     1      16.465  -0.167  -9.787  1.00  0.00    -0.504 OA
ATOM     15  H   UNL     1      16.149  -0.575  -8.915  1.00  0.00     0.293 HD
ENDBRANCH   2  14
TORSDOF 2
ENDMDL
