MODEL 1
REMARK VINA RESULT:    -6.482      0.000      0.000
REMARK INTER + INTRA:         -10.254
REMARK INTER:                  -9.325
REMARK INTRA:                  -0.929
REMARK UNBOUND:                -0.929
REMARK SMILES O=c1c(O[C@H]2O[C@@H](CO)[C@H](O)[C@H](O)[C@H]2O)c(-c2ccc(O)cc2)oc2cc(O)cc(O)c12
REMARK SMILES IDX 4 1 3 2 16 3 24 4 2 5 25 6 1 7 32 8 26 9 30 10 27 11 29 12
REMARK SMILES IDX 17 13 18 14 19 15 20 16 23 17 22 18 21 19 31 21 28 23 5 25
REMARK SMILES IDX 14 26 6 27 12 28 7 29 10 30 15 31 13 33 8 35 9 36 11 38
REMARK H PARENT 21 20 31 22 28 24 15 32 13 34 9 37 11 39
REMARK Flexibility Score: inf
ROOT
ATOM      1  O   UNL     1     -13.808  38.270  -2.475  1.00  0.00    -0.454 OA
ENDROOT
BRANCH   1   2
ATOM      2  C   UNL     1     -14.021  37.106  -1.712  1.00  0.00     0.214 A 
ATOM      3  C   UNL     1     -15.294  36.899  -1.142  1.00  0.00     0.180 A 
ATOM      4  O   UNL     1     -15.518  35.834  -0.378  1.00  0.00    -0.452 OA
ATOM      5  C   UNL     1     -13.016  36.144  -1.476  1.00  0.00     0.239 A 
ATOM      6  C   UNL     1     -14.600  34.911  -0.125  1.00  0.00     0.146 A 
ATOM      7  O   UNL     1     -11.876  36.277  -1.994  1.00  0.00    -0.285 OA
ATOM      8  C   UNL     1     -13.300  35.022  -0.667  1.00  0.00     0.111 A 
ATOM      9  C   UNL     1     -14.937  33.825   0.688  1.00  0.00     0.094 A 
ATOM     10  C   UNL     1     -12.346  34.014  -0.377  1.00  0.00     0.134 A 
ATOM     11  C   UNL     1     -13.991  32.834   0.970  1.00  0.00     0.123 A 
ATOM     12  C   UNL     1     -12.703  32.931   0.438  1.00  0.00     0.093 A 
BRANCH   3  13
ATOM     13  C   UNL     1     -16.399  37.866  -1.323  1.00  0.00     0.021 A 
ATOM     14  C   UNL     1     -16.967  38.483  -0.197  1.00  0.00     0.016 A 
ATOM     15  C   UNL     1     -18.013  39.400  -0.345  1.00  0.00     0.047 A 
ATOM     16  C   UNL     1     -18.512  39.699  -1.616  1.00  0.00     0.115 A 
ATOM     17  C   UNL     1     -16.921  38.153  -2.596  1.00  0.00     0.016 A 
ATOM     18  C   UNL     1     -17.965  39.071  -2.742  1.00  0.00     0.047 A 
BRANCH  16  19
ATOM     19  O   UNL     1     -19.552  40.616  -1.749  1.00  0.00    -0.508 OA
ATOM     20  H   UNL     1     -20.174  40.598  -2.548  1.00  0.00     0.293 HD
ENDBRANCH  16  19
ENDBRANCH   3  13
BRANCH  10  21
ATOM     21  O   UNL     1     -11.050  34.082  -0.892  1.00  0.00    -0.507 OA
ATOM     22  H   UNL     1     -10.604  34.968  -1.097  1.00  0.00     0.293 HD
ENDBRANCH  10  21
BRANCH  11  23
ATOM     23  O   UNL     1     -14.320  31.748   1.778  1.00  0.00    -0.508 OA
ATOM     24  H   UNL     1     -14.207  30.794   1.456  1.00  0.00     0.293 HD
ENDBRANCH  11  23
ENDBRANCH   1   2
BRANCH   1  25
ATOM     25  C   UNL     1     -12.890  39.325  -2.173  1.00  0.00     0.339 C 
ATOM     26  C   UNL     1     -13.622  40.679  -2.168  1.00  0.00     0.214 C 
ATOM     27  O   UNL     1     -11.763  39.320  -3.040  1.00  0.00    -0.332 OA
ATOM     28  C   UNL     1     -14.038  41.063  -3.589  1.00  0.00     0.180 C 
ATOM     29  C   UNL     1     -12.055  39.658  -4.392  1.00  0.00     0.179 C 
ATOM     30  C   UNL     1     -12.828  40.996  -4.539  1.00  0.00     0.177 C 
BRANCH  26  31
ATOM     31  O   UNL     1     -14.767  40.605  -1.356  1.00  0.00    -0.384 OA
ATOM     32  H   UNL     1     -15.449  41.197  -1.767  1.00  0.00     0.211 HD
ENDBRANCH  26  31
BRANCH  28  33
ATOM     33  O   UNL     1     -14.584  42.357  -3.584  1.00  0.00    -0.387 OA
ATOM     34  H   UNL     1     -13.863  42.970  -3.285  1.00  0.00     0.211 HD
ENDBRANCH  28  33
BRANCH  29  35
ATOM     35  C   UNL     1     -12.704  38.490  -5.160  1.00  0.00     0.191 C 
BRANCH  35  36
ATOM     36  O   UNL     1     -13.447  38.984  -6.240  1.00  0.00    -0.394 OA
ATOM     37  H   UNL     1     -14.054  39.674  -5.864  1.00  0.00     0.210 HD
ENDBRANCH  35  36
ENDBRANCH  29  35
BRANCH  30  38
ATOM     38  O   UNL     1     -11.972  42.097  -4.342  1.00  0.00    -0.387 OA
ATOM     39  H   UNL     1     -11.581  42.029  -3.433  1.00  0.00     0.211 HD
ENDBRANCH  30  38
ENDBRANCH   1  25
TORSDOF 11
ENDMDL
MODEL 2
REMARK VINA RESULT:    -6.428      2.500      6.584
REMARK INTER + INTRA:         -10.175
REMARK INTER:                  -8.801
REMARK INTRA:                  -1.375
REMARK UNBOUND:                -0.929
REMARK SMILES O=c1c(O[C@H]2O[C@@H](CO)[C@H](O)[C@H](O)[C@H]2O)c(-c2ccc(O)cc2)oc2cc(O)cc(O)c12
REMARK SMILES IDX 4 1 3 2 16 3 24 4 2 5 25 6 1 7 32 8 26 9 30 10 27 11 29 12
REMARK SMILES IDX 17 13 18 14 19 15 20 16 23 17 22 18 21 19 31 21 28 23 5 25
REMARK SMILES IDX 14 26 6 27 12 28 7 29 10 30 15 31 13 33 8 35 9 36 11 38
REMARK H PARENT 21 20 31 22 28 24 15 32 13 34 9 37 11 39
REMARK Flexibility Score: inf
ROOT
ATOM      1  O   UNL     1     -13.367  35.735  -1.297  1.00  0.00    -0.454 OA
ENDROOT
BRANCH   1   2
ATOM      2  C   UNL     1     -14.396  36.370  -0.576  1.00  0.00     0.214 A 
ATOM      3  C   UNL     1     -14.760  35.846   0.681  1.00  0.00     0.180 A 
ATOM      4  O   UNL     1     -15.758  36.392   1.368  1.00  0.00    -0.452 OA
ATOM      5  C   UNL     1     -15.094  37.497  -1.060  1.00  0.00     0.239 A 
ATOM      6  C   UNL     1     -16.444  37.445   0.947  1.00  0.00     0.146 A 
ATOM      7  O   UNL     1     -14.777  38.013  -2.164  1.00  0.00    -0.285 OA
ATOM      8  C   UNL     1     -16.141  38.053  -0.293  1.00  0.00     0.111 A 
ATOM      9  C   UNL     1     -17.474  37.949   1.747  1.00  0.00     0.094 A 
ATOM     10  C   UNL     1     -16.893  39.179  -0.709  1.00  0.00     0.134 A 
ATOM     11  C   UNL     1     -18.213  39.061   1.330  1.00  0.00     0.123 A 
ATOM     12  C   UNL     1     -17.921  39.671   0.108  1.00  0.00     0.093 A 
BRANCH   3  13
ATOM     13  C   UNL     1     -14.094  34.656   1.254  1.00  0.00     0.021 A 
ATOM     14  C   UNL     1     -14.726  33.404   1.172  1.00  0.00     0.016 A 
ATOM     15  C   UNL     1     -14.115  32.267   1.708  1.00  0.00     0.047 A 
ATOM     16  C   UNL     1     -12.874  32.368   2.345  1.00  0.00     0.115 A 
ATOM     17  C   UNL     1     -12.858  34.755   1.917  1.00  0.00     0.016 A 
ATOM     18  C   UNL     1     -12.249  33.616   2.451  1.00  0.00     0.047 A 
BRANCH  16  19
ATOM     19  O   UNL     1     -12.276  31.226   2.873  1.00  0.00    -0.508 OA
ATOM     20  H   UNL     1     -12.508  30.887   3.799  1.00  0.00     0.293 HD
ENDBRANCH  16  19
ENDBRANCH   3  13
BRANCH  10  21
ATOM     21  O   UNL     1     -16.628  39.811  -1.925  1.00  0.00    -0.507 OA
ATOM     22  H   UNL     1     -16.154  39.333  -2.682  1.00  0.00     0.293 HD
ENDBRANCH  10  21
BRANCH  11  23
ATOM     23  O   UNL     1     -19.240  39.568   2.123  1.00  0.00    -0.508 OA
ATOM     24  H   UNL     1     -20.207  39.306   1.970  1.00  0.00     0.293 HD
ENDBRANCH  11  23
ENDBRANCH   1   2
BRANCH   1  25
ATOM     25  C   UNL     1     -13.434  35.286  -2.653  1.00  0.00     0.339 C 
ATOM     26  C   UNL     1     -12.783  33.897  -2.786  1.00  0.00     0.214 C 
ATOM     27  O   UNL     1     -12.881  36.233  -3.560  1.00  0.00    -0.332 OA
ATOM     28  C   UNL     1     -11.269  34.001  -2.595  1.00  0.00     0.180 C 
ATOM     29  C   UNL     1     -11.472  36.404  -3.450  1.00  0.00     0.179 C 
ATOM     30  C   UNL     1     -10.681  35.071  -3.534  1.00  0.00     0.177 C 
BRANCH  26  31
ATOM     31  O   UNL     1     -13.312  33.024  -1.820  1.00  0.00    -0.384 OA
ATOM     32  H   UNL     1     -12.894  33.267  -0.953  1.00  0.00     0.211 HD
ENDBRANCH  26  31
BRANCH  28  33
ATOM     33  O   UNL     1     -10.679  32.752  -2.850  1.00  0.00    -0.387 OA
ATOM     34  H   UNL     1     -11.419  32.094  -2.914  1.00  0.00     0.211 HD
ENDBRANCH  28  33
BRANCH  29  35
ATOM     35  C   UNL     1     -11.080  37.272  -2.238  1.00  0.00     0.191 C 
BRANCH  35  36
ATOM     36  O   UNL     1     -11.906  38.402  -2.175  1.00  0.00    -0.394 OA
ATOM     37  H   UNL     1     -11.317  39.184  -2.339  1.00  0.00     0.210 HD
ENDBRANCH  35  36
ENDBRANCH  29  35
BRANCH  30  38
ATOM     38  O   UNL     1     -10.624  34.601  -4.860  1.00  0.00    -0.387 OA
ATOM     39  H   UNL     1     -11.452  34.885  -5.328  1.00  0.00     0.211 HD
ENDBRANCH  30  38
ENDBRANCH   1  25
TORSDOF 11
ENDMDL
MODEL 3
REMARK VINA RESULT:    -6.358      2.071      5.417
REMARK INTER + INTRA:         -10.075
REMARK INTER:                  -9.051
REMARK INTRA:                  -1.024
REMARK UNBOUND:                -0.929
REMARK SMILES O=c1c(O[C@H]2O[C@@H](CO)[C@H](O)[C@H](O)[C@H]2O)c(-c2ccc(O)cc2)oc2cc(O)cc(O)c12
REMARK SMILES IDX 4 1 3 2 16 3 24 4 2 5 25 6 1 7 32 8 26 9 30 10 27 11 29 12
REMARK SMILES IDX 17 13 18 14 19 15 20 16 23 17 22 18 21 19 31 21 28 23 5 25
REMARK SMILES IDX 14 26 6 27 12 28 7 29 10 30 15 31 13 33 8 35 9 36 11 38
REMARK H PARENT 21 20 31 22 28 24 15 32 13 34 9 37 11 39
REMARK Flexibility Score: inf
ROOT
ATOM      1  O   UNL     1     -14.152  37.971  -2.293  1.00  0.00    -0.454 OA
ENDROOT
BRANCH   1   2
ATOM      2  C   UNL     1     -15.009  37.483  -1.290  1.00  0.00     0.214 A 
ATOM      3  C   UNL     1     -14.807  36.173  -0.809  1.00  0.00     0.180 A 
ATOM      4  O   UNL     1     -15.626  35.662   0.105  1.00  0.00    -0.452 OA
ATOM      5  C   UNL     1     -16.075  38.236  -0.752  1.00  0.00     0.239 A 
ATOM      6  C   UNL     1     -16.643  36.333   0.629  1.00  0.00     0.146 A 
ATOM      7  O   UNL     1     -16.269  39.420  -1.133  1.00  0.00    -0.285 OA
ATOM      8  C   UNL     1     -16.915  37.660   0.225  1.00  0.00     0.111 A 
ATOM      9  C   UNL     1     -17.444  35.709   1.590  1.00  0.00     0.094 A 
ATOM     10  C   UNL     1     -18.008  38.346   0.810  1.00  0.00     0.134 A 
ATOM     11  C   UNL     1     -18.522  36.392   2.164  1.00  0.00     0.123 A 
ATOM     12  C   UNL     1     -18.799  37.705   1.773  1.00  0.00     0.093 A 
BRANCH   3  13
ATOM     13  C   UNL     1     -13.726  35.307  -1.331  1.00  0.00     0.021 A 
ATOM     14  C   UNL     1     -14.057  34.117  -2.000  1.00  0.00     0.016 A 
ATOM     15  C   UNL     1     -13.051  33.284  -2.500  1.00  0.00     0.047 A 
ATOM     16  C   UNL     1     -11.706  33.621  -2.325  1.00  0.00     0.115 A 
ATOM     17  C   UNL     1     -12.371  35.628  -1.137  1.00  0.00     0.016 A 
ATOM     18  C   UNL     1     -11.368  34.794  -1.638  1.00  0.00     0.047 A 
BRANCH  16  19
ATOM     19  O   UNL     1     -10.715  32.782  -2.830  1.00  0.00    -0.508 OA
ATOM     20  H   UNL     1     -10.026  33.118  -3.493  1.00  0.00     0.293 HD
ENDBRANCH  16  19
ENDBRANCH   3  13
BRANCH  10  21
ATOM     21  O   UNL     1     -18.313  39.658   0.442  1.00  0.00    -0.507 OA
ATOM     22  H   UNL     1     -17.590  40.352   0.295  1.00  0.00     0.293 HD
ENDBRANCH  10  21
BRANCH  11  23
ATOM     23  O   UNL     1     -19.323  35.776   3.122  1.00  0.00    -0.508 OA
ATOM     24  H   UNL     1     -20.054  35.125   2.862  1.00  0.00     0.293 HD
ENDBRANCH  11  23
ENDBRANCH   1   2
BRANCH   1  25
ATOM     25  C   UNL     1     -14.514  38.278  -3.642  1.00  0.00     0.339 C 
ATOM     26  C   UNL     1     -13.390  37.852  -4.604  1.00  0.00     0.214 C 
ATOM     27  O   UNL     1     -14.876  39.644  -3.803  1.00  0.00    -0.332 OA
ATOM     28  C   UNL     1     -12.168  38.755  -4.426  1.00  0.00     0.180 C 
ATOM     29  C   UNL     1     -13.801  40.564  -3.644  1.00  0.00     0.179 C 
ATOM     30  C   UNL     1     -12.574  40.236  -4.537  1.00  0.00     0.177 C 
BRANCH  26  31
ATOM     31  O   UNL     1     -13.020  36.520  -4.353  1.00  0.00    -0.384 OA
ATOM     32  H   UNL     1     -12.030  36.501  -4.301  1.00  0.00     0.211 HD
ENDBRANCH  26  31
BRANCH  28  33
ATOM     33  O   UNL     1     -11.206  38.438  -5.398  1.00  0.00    -0.387 OA
ATOM     34  H   UNL     1     -10.599  39.221  -5.466  1.00  0.00     0.211 HD
ENDBRANCH  28  33
BRANCH  29  35
ATOM     35  C   UNL     1     -13.437  40.790  -2.164  1.00  0.00     0.191 C 
BRANCH  35  36
ATOM     36  O   UNL     1     -12.197  41.436  -2.072  1.00  0.00    -0.394 OA
ATOM     37  H   UNL     1     -12.365  42.285  -1.585  1.00  0.00     0.210 HD
ENDBRANCH  35  36
ENDBRANCH  29  35
BRANCH  30  38
ATOM     38  O   UNL     1     -12.816  40.592  -5.878  1.00  0.00    -0.387 OA
ATOM     39  H   UNL     1     -12.345  39.943  -6.463  1.00  0.00     0.211 HD
ENDBRANCH  30  38
ENDBRANCH   1  25
TORSDOF 11
ENDMDL
MODEL 4
REMARK VINA RESULT:    -6.316      1.977      5.021
REMARK INTER + INTRA:         -10.014
REMARK INTER:                  -8.779
REMARK INTRA:                  -1.235
REMARK UNBOUND:                -0.929
REMARK SMILES O=c1c(O[C@H]2O[C@@H](CO)[C@H](O)[C@H](O)[C@H]2O)c(-c2ccc(O)cc2)oc2cc(O)cc(O)c12
REMARK SMILES IDX 4 1 3 2 16 3 24 4 2 5 25 6 1 7 32 8 26 9 30 10 27 11 29 12
REMARK SMILES IDX 17 13 18 14 19 15 20 16 23 17 22 18 21 19 31 21 28 23 5 25
REMARK SMILES IDX 14 26 6 27 12 28 7 29 10 30 15 31 13 33 8 35 9 36 11 38
REMARK H PARENT 21 20 31 22 28 24 15 32 13 34 9 37 11 39
REMARK Flexibility Score: inf
ROOT
ATOM      1  O   UNL     1     -14.272  38.215  -2.183  1.00  0.00    -0.454 OA
ENDROOT
BRANCH   1   2
ATOM      2  C   UNL     1     -15.123  37.669  -1.204  1.00  0.00     0.214 A 
ATOM      3  C   UNL     1     -14.909  36.339  -0.791  1.00  0.00     0.180 A 
ATOM      4  O   UNL     1     -15.721  35.776   0.098  1.00  0.00    -0.452 OA
ATOM      5  C   UNL     1     -16.193  38.386  -0.627  1.00  0.00     0.239 A 
ATOM      6  C   UNL     1     -16.742  36.410   0.658  1.00  0.00     0.146 A 
ATOM      7  O   UNL     1     -16.398  39.586  -0.947  1.00  0.00    -0.285 OA
ATOM      8  C   UNL     1     -17.026  37.754   0.322  1.00  0.00     0.111 A 
ATOM      9  C   UNL     1     -17.535  35.732   1.588  1.00  0.00     0.094 A 
ATOM     10  C   UNL     1     -18.123  38.400   0.943  1.00  0.00     0.134 A 
ATOM     11  C   UNL     1     -18.617  36.376   2.198  1.00  0.00     0.123 A 
ATOM     12  C   UNL     1     -18.906  37.704   1.875  1.00  0.00     0.093 A 
BRANCH   3  13
ATOM     13  C   UNL     1     -13.822  35.509  -1.358  1.00  0.00     0.021 A 
ATOM     14  C   UNL     1     -14.105  34.628  -2.413  1.00  0.00     0.016 A 
ATOM     15  C   UNL     1     -13.093  33.834  -2.963  1.00  0.00     0.047 A 
ATOM     16  C   UNL     1     -11.792  33.901  -2.456  1.00  0.00     0.115 A 
ATOM     17  C   UNL     1     -12.517  35.555  -0.836  1.00  0.00     0.016 A 
ATOM     18  C   UNL     1     -11.507  34.761  -1.388  1.00  0.00     0.047 A 
BRANCH  16  19
ATOM     19  O   UNL     1     -10.794  33.107  -3.015  1.00  0.00    -0.508 OA
ATOM     20  H   UNL     1      -9.828  33.187  -2.722  1.00  0.00     0.293 HD
ENDBRANCH  16  19
ENDBRANCH   3  13
BRANCH  10  21
ATOM     21  O   UNL     1     -18.441  39.726   0.642  1.00  0.00    -0.507 OA
ATOM     22  H   UNL     1     -18.846  39.987  -0.249  1.00  0.00     0.293 HD
ENDBRANCH  10  21
BRANCH  11  23
ATOM     23  O   UNL     1     -19.411  35.706   3.125  1.00  0.00    -0.508 OA
ATOM     24  H   UNL     1     -20.408  35.590   2.984  1.00  0.00     0.293 HD
ENDBRANCH  11  23
ENDBRANCH   1   2
BRANCH   1  25
ATOM     25  C   UNL     1     -13.102  39.003  -1.946  1.00  0.00     0.339 C 
ATOM     26  C   UNL     1     -13.284  40.414  -2.534  1.00  0.00     0.214 C 
ATOM     27  O   UNL     1     -11.921  38.365  -2.419  1.00  0.00    -0.332 OA
ATOM     28  C   UNL     1     -13.282  40.356  -4.063  1.00  0.00     0.180 C 
ATOM     29  C   UNL     1     -11.835  38.257  -3.836  1.00  0.00     0.179 C 
ATOM     30  C   UNL     1     -12.034  39.610  -4.571  1.00  0.00     0.177 C 
BRANCH  26  31
ATOM     31  O   UNL     1     -14.499  40.966  -2.095  1.00  0.00    -0.384 OA
ATOM     32  H   UNL     1     -14.902  41.431  -2.873  1.00  0.00     0.211 HD
ENDBRANCH  26  31
BRANCH  28  33
ATOM     33  O   UNL     1     -13.315  41.660  -4.581  1.00  0.00    -0.387 OA
ATOM     34  H   UNL     1     -13.561  41.582  -5.539  1.00  0.00     0.211 HD
ENDBRANCH  28  33
BRANCH  29  35
ATOM     35  C   UNL     1     -12.720  37.124  -4.391  1.00  0.00     0.191 C 
BRANCH  35  36
ATOM     36  O   UNL     1     -13.772  37.666  -5.141  1.00  0.00    -0.394 OA
ATOM     37  H   UNL     1     -13.691  37.279  -6.051  1.00  0.00     0.210 HD
ENDBRANCH  35  36
ENDBRANCH  29  35
BRANCH  30  38
ATOM     38  O   UNL     1     -10.885  40.418  -4.460  1.00  0.00    -0.387 OA
ATOM     39  H   UNL     1     -10.828  40.752  -3.527  1.00  0.00     0.211 HD
ENDBRANCH  30  38
ENDBRANCH   1  25
TORSDOF 11
ENDMDL
MODEL 5
REMARK VINA RESULT:    -6.238      1.869      7.047
REMARK INTER + INTRA:          -9.902
REMARK INTER:                  -8.544
REMARK INTRA:                  -1.358
REMARK UNBOUND:                -0.929
REMARK SMILES O=c1c(O[C@H]2O[C@@H](CO)[C@H](O)[C@H](O)[C@H]2O)c(-c2ccc(O)cc2)oc2cc(O)cc(O)c12
REMARK SMILES IDX 4 1 3 2 16 3 24 4 2 5 25 6 1 7 32 8 26 9 30 10 27 11 29 12
REMARK SMILES IDX 17 13 18 14 19 15 20 16 23 17 22 18 21 19 31 21 28 23 5 25
REMARK SMILES IDX 14 26 6 27 12 28 7 29 10 30 15 31 13 33 8 35 9 36 11 38
REMARK H PARENT 21 20 31 22 28 24 15 32 13 34 9 37 11 39
REMARK Flexibility Score: inf
ROOT
ATOM      1  O   UNL     1     -15.024  38.701  -1.514  1.00  0.00    -0.454 OA
ENDROOT
BRANCH   1   2
ATOM      2  C   UNL     1     -14.099  38.854  -2.564  1.00  0.00     0.214 A 
ATOM      3  C   UNL     1     -13.287  37.755  -2.911  1.00  0.00     0.180 A 
ATOM      4  O   UNL     1     -12.371  37.876  -3.866  1.00  0.00    -0.452 OA
ATOM      5  C   UNL     1     -13.933  40.061  -3.275  1.00  0.00     0.239 A 
ATOM      6  C   UNL     1     -12.177  38.994  -4.553  1.00  0.00     0.146 A 
ATOM      7  O   UNL     1     -14.660  41.056  -3.016  1.00  0.00    -0.285 OA
ATOM      8  C   UNL     1     -12.955  40.145  -4.290  1.00  0.00     0.111 A 
ATOM      9  C   UNL     1     -11.190  39.020  -5.543  1.00  0.00     0.094 A 
ATOM     10  C   UNL     1     -12.721  41.320  -5.046  1.00  0.00     0.134 A 
ATOM     11  C   UNL     1     -10.964  40.183  -6.286  1.00  0.00     0.123 A 
ATOM     12  C   UNL     1     -11.729  41.326  -6.036  1.00  0.00     0.093 A 
BRANCH   3  13
ATOM     13  C   UNL     1     -13.382  36.458  -2.204  1.00  0.00     0.021 A 
ATOM     14  C   UNL     1     -14.115  35.409  -2.782  1.00  0.00     0.016 A 
ATOM     15  C   UNL     1     -14.218  34.176  -2.131  1.00  0.00     0.047 A 
ATOM     16  C   UNL     1     -13.604  33.981  -0.890  1.00  0.00     0.115 A 
ATOM     17  C   UNL     1     -12.787  36.264  -0.945  1.00  0.00     0.016 A 
ATOM     18  C   UNL     1     -12.891  35.030  -0.297  1.00  0.00     0.047 A 
BRANCH  16  19
ATOM     19  O   UNL     1     -13.713  32.746  -0.255  1.00  0.00    -0.508 OA
ATOM     20  H   UNL     1     -14.509  32.522   0.332  1.00  0.00     0.293 HD
ENDBRANCH  16  19
ENDBRANCH   3  13
BRANCH  10  21
ATOM     21  O   UNL     1     -13.466  42.480  -4.822  1.00  0.00    -0.507 OA
ATOM     22  H   UNL     1     -14.458  42.522  -5.020  1.00  0.00     0.293 HD
ENDBRANCH  10  21
BRANCH  11  23
ATOM     23  O   UNL     1      -9.984  40.215  -7.274  1.00  0.00    -0.508 OA
ATOM     24  H   UNL     1      -9.011  40.389  -7.050  1.00  0.00     0.293 HD
ENDBRANCH  11  23
ENDBRANCH   1   2
BRANCH   1  25
ATOM     25  C   UNL     1     -16.304  38.067  -1.597  1.00  0.00     0.339 C 
ATOM     26  C   UNL     1     -17.424  39.122  -1.552  1.00  0.00     0.214 C 
ATOM     27  O   UNL     1     -16.468  37.059  -0.606  1.00  0.00    -0.332 OA
ATOM     28  C   UNL     1     -17.507  39.749  -0.158  1.00  0.00     0.180 C 
ATOM     29  C   UNL     1     -16.546  37.548   0.728  1.00  0.00     0.179 C 
ATOM     30  C   UNL     1     -17.621  38.652   0.917  1.00  0.00     0.177 C 
BRANCH  26  31
ATOM     31  O   UNL     1     -17.173  40.131  -2.497  1.00  0.00    -0.384 OA
ATOM     32  H   UNL     1     -17.125  40.988  -1.998  1.00  0.00     0.211 HD
ENDBRANCH  26  31
BRANCH  28  33
ATOM     33  O   UNL     1     -18.614  40.610  -0.097  1.00  0.00    -0.387 OA
ATOM     34  H   UNL     1     -18.327  41.474  -0.489  1.00  0.00     0.211 HD
ENDBRANCH  28  33
BRANCH  29  35
ATOM     35  C   UNL     1     -15.166  37.937   1.291  1.00  0.00     0.191 C 
BRANCH  35  36
ATOM     36  O   UNL     1     -15.303  38.414   2.602  1.00  0.00    -0.394 OA
ATOM     37  H   UNL     1     -14.403  38.731   2.875  1.00  0.00     0.210 HD
ENDBRANCH  35  36
ENDBRANCH  29  35
BRANCH  30  38
ATOM     38  O   UNL     1     -18.916  38.098   0.935  1.00  0.00    -0.387 OA
ATOM     39  H   UNL     1     -19.563  38.825   1.131  1.00  0.00     0.211 HD
ENDBRANCH  30  38
ENDBRANCH   1  25
TORSDOF 11
ENDMDL
MODEL 6
REMARK VINA RESULT:    -6.099      2.496      3.397
REMARK INTER + INTRA:          -9.703
REMARK INTER:                  -8.673
REMARK INTRA:                  -1.029
REMARK UNBOUND:                -0.929
REMARK SMILES O=c1c(O[C@H]2O[C@@H](CO)[C@H](O)[C@H](O)[C@H]2O)c(-c2ccc(O)cc2)oc2cc(O)cc(O)c12
REMARK SMILES IDX 4 1 3 2 16 3 24 4 2 5 25 6 1 7 32 8 26 9 30 10 27 11 29 12
REMARK SMILES IDX 17 13 18 14 19 15 20 16 23 17 22 18 21 19 31 21 28 23 5 25
REMARK SMILES IDX 14 26 6 27 12 28 7 29 10 30 15 31 13 33 8 35 9 36 11 38
REMARK H PARENT 21 20 31 22 28 24 15 32 13 34 9 37 11 39
REMARK Flexibility Score: inf
ROOT
ATOM      1  O   UNL     1     -13.051  40.081  -4.094  1.00  0.00    -0.454 OA
ENDROOT
BRANCH   1   2
ATOM      2  C   UNL     1     -12.720  38.733  -3.861  1.00  0.00     0.214 A 
ATOM      3  C   UNL     1     -13.634  37.927  -3.152  1.00  0.00     0.180 A 
ATOM      4  O   UNL     1     -13.335  36.662  -2.874  1.00  0.00    -0.452 OA
ATOM      5  C   UNL     1     -11.507  38.152  -4.289  1.00  0.00     0.239 A 
ATOM      6  C   UNL     1     -12.204  36.081  -3.251  1.00  0.00     0.146 A 
ATOM      7  O   UNL     1     -10.679  38.830  -4.952  1.00  0.00    -0.285 OA
ATOM      8  C   UNL     1     -11.232  36.802  -3.982  1.00  0.00     0.111 A 
ATOM      9  C   UNL     1     -11.984  34.742  -2.913  1.00  0.00     0.094 A 
ATOM     10  C   UNL     1     -10.037  36.146  -4.370  1.00  0.00     0.134 A 
ATOM     11  C   UNL     1     -10.802  34.100  -3.299  1.00  0.00     0.123 A 
ATOM     12  C   UNL     1      -9.836  34.802  -4.024  1.00  0.00     0.093 A 
BRANCH   3  13
ATOM     13  C   UNL     1     -14.920  38.460  -2.650  1.00  0.00     0.021 A 
ATOM     14  C   UNL     1     -15.037  38.823  -1.299  1.00  0.00     0.016 A 
ATOM     15  C   UNL     1     -16.243  39.328  -0.804  1.00  0.00     0.047 A 
ATOM     16  C   UNL     1     -17.350  39.462  -1.647  1.00  0.00     0.115 A 
ATOM     17  C   UNL     1     -16.043  38.574  -3.488  1.00  0.00     0.016 A 
ATOM     18  C   UNL     1     -17.248  39.080  -2.991  1.00  0.00     0.047 A 
BRANCH  16  19
ATOM     19  O   UNL     1     -18.545  39.968  -1.141  1.00  0.00    -0.508 OA
ATOM     20  H   UNL     1     -19.213  40.442  -1.737  1.00  0.00     0.293 HD
ENDBRANCH  16  19
ENDBRANCH   3  13
BRANCH  10  21
ATOM     21  O   UNL     1      -9.051  36.818  -5.094  1.00  0.00    -0.507 OA
ATOM     22  H   UNL     1      -8.159  36.387  -5.305  1.00  0.00     0.293 HD
ENDBRANCH  10  21
BRANCH  11  23
ATOM     23  O   UNL     1     -10.578  32.767  -2.967  1.00  0.00    -0.508 OA
ATOM     24  H   UNL     1     -10.035  32.507  -2.151  1.00  0.00     0.293 HD
ENDBRANCH  11  23
ENDBRANCH   1   2
BRANCH   1  25
ATOM     25  C   UNL     1     -12.576  41.210  -3.355  1.00  0.00     0.339 C 
ATOM     26  C   UNL     1     -13.659  42.303  -3.302  1.00  0.00     0.214 C 
ATOM     27  O   UNL     1     -11.337  41.697  -3.857  1.00  0.00    -0.332 OA
ATOM     28  C   UNL     1     -13.850  42.928  -4.685  1.00  0.00     0.180 C 
ATOM     29  C   UNL     1     -11.415  42.291  -5.149  1.00  0.00     0.179 C 
ATOM     30  C   UNL     1     -12.498  43.398  -5.254  1.00  0.00     0.177 C 
BRANCH  26  31
ATOM     31  O   UNL     1     -14.878  41.753  -2.872  1.00  0.00    -0.384 OA
ATOM     32  H   UNL     1     -14.664  40.888  -2.434  1.00  0.00     0.211 HD
ENDBRANCH  26  31
BRANCH  28  33
ATOM     33  O   UNL     1     -14.742  44.009  -4.591  1.00  0.00    -0.387 OA
ATOM     34  H   UNL     1     -14.946  44.128  -3.628  1.00  0.00     0.211 HD
ENDBRANCH  28  33
BRANCH  29  35
ATOM     35  C   UNL     1     -11.506  41.239  -6.272  1.00  0.00     0.191 C 
BRANCH  35  36
ATOM     36  O   UNL     1     -10.242  41.045  -6.846  1.00  0.00    -0.394 OA
ATOM     37  H   UNL     1      -9.919  41.944  -7.111  1.00  0.00     0.210 HD
ENDBRANCH  35  36
ENDBRANCH  29  35
BRANCH  30  38
ATOM     38  O   UNL     1     -12.071  44.583  -4.623  1.00  0.00    -0.387 OA
ATOM     39  H   UNL     1     -11.101  44.500  -4.428  1.00  0.00     0.211 HD
ENDBRANCH  30  38
ENDBRANCH   1  25
TORSDOF 11
ENDMDL
MODEL 7
REMARK VINA RESULT:    -6.095      2.036      5.855
REMARK INTER + INTRA:          -9.696
REMARK INTER:                  -8.743
REMARK INTRA:                  -0.953
REMARK UNBOUND:                -0.929
REMARK SMILES O=c1c(O[C@H]2O[C@@H](CO)[C@H](O)[C@H](O)[C@H]2O)c(-c2ccc(O)cc2)oc2cc(O)cc(O)c12
REMARK SMILES IDX 4 1 3 2 16 3 24 4 2 5 25 6 1 7 32 8 26 9 30 10 27 11 29 12
REMARK SMILES IDX 17 13 18 14 19 15 20 16 23 17 22 18 21 19 31 21 28 23 5 25
REMARK SMILES IDX 14 26 6 27 12 28 7 29 10 30 15 31 13 33 8 35 9 36 11 38
REMARK H PARENT 21 20 31 22 28 24 15 32 13 34 9 37 11 39
REMARK Flexibility Score: inf
ROOT
ATOM      1  O   UNL     1     -13.392  36.031  -2.142  1.00  0.00    -0.454 OA
ENDROOT
BRANCH   1   2
ATOM      2  C   UNL     1     -14.454  36.669  -1.473  1.00  0.00     0.214 A 
ATOM      3  C   UNL     1     -14.820  37.969  -1.877  1.00  0.00     0.180 A 
ATOM      4  O   UNL     1     -15.788  38.620  -1.239  1.00  0.00    -0.452 OA
ATOM      5  C   UNL     1     -15.159  36.076  -0.404  1.00  0.00     0.239 A 
ATOM      6  C   UNL     1     -16.469  38.102  -0.226  1.00  0.00     0.146 A 
ATOM      7  O   UNL     1     -14.882  34.905  -0.035  1.00  0.00    -0.285 OA
ATOM      8  C   UNL     1     -16.187  36.798   0.240  1.00  0.00     0.111 A 
ATOM      9  C   UNL     1     -17.473  38.866   0.377  1.00  0.00     0.094 A 
ATOM     10  C   UNL     1     -16.939  36.277   1.323  1.00  0.00     0.134 A 
ATOM     11  C   UNL     1     -18.211  38.346   1.446  1.00  0.00     0.123 A 
ATOM     12  C   UNL     1     -17.943  37.057   1.913  1.00  0.00     0.093 A 
BRANCH   3  13
ATOM     13  C   UNL     1     -14.121  38.673  -2.975  1.00  0.00     0.021 A 
ATOM     14  C   UNL     1     -13.188  39.676  -2.669  1.00  0.00     0.016 A 
ATOM     15  C   UNL     1     -12.517  40.354  -3.692  1.00  0.00     0.047 A 
ATOM     16  C   UNL     1     -12.780  40.049  -5.031  1.00  0.00     0.115 A 
ATOM     17  C   UNL     1     -14.400  38.387  -4.324  1.00  0.00     0.016 A 
ATOM     18  C   UNL     1     -13.727  39.065  -5.344  1.00  0.00     0.047 A 
BRANCH  16  19
ATOM     19  O   UNL     1     -12.103  40.730  -6.038  1.00  0.00    -0.508 OA
ATOM     20  H   UNL     1     -12.110  40.402  -6.996  1.00  0.00     0.293 HD
ENDBRANCH  16  19
ENDBRANCH   3  13
BRANCH  10  21
ATOM     21  O   UNL     1     -16.695  34.994   1.815  1.00  0.00    -0.507 OA
ATOM     22  H   UNL     1     -15.993  34.390   1.405  1.00  0.00     0.293 HD
ENDBRANCH  10  21
BRANCH  11  23
ATOM     23  O   UNL     1     -19.213  39.101   2.050  1.00  0.00    -0.508 OA
ATOM     24  H   UNL     1     -19.688  39.846   1.553  1.00  0.00     0.293 HD
ENDBRANCH  11  23
ENDBRANCH   1   2
BRANCH   1  25
ATOM     25  C   UNL     1     -12.029  35.979  -1.711  1.00  0.00     0.339 C 
ATOM     26  C   UNL     1     -11.086  35.991  -2.928  1.00  0.00     0.214 C 
ATOM     27  O   UNL     1     -11.782  34.878  -0.844  1.00  0.00    -0.332 OA
ATOM     28  C   UNL     1     -11.193  34.671  -3.695  1.00  0.00     0.180 C 
ATOM     29  C   UNL     1     -11.869  33.602  -1.470  1.00  0.00     0.179 C 
ATOM     30  C   UNL     1     -10.988  33.479  -2.742  1.00  0.00     0.177 C 
BRANCH  26  31
ATOM     31  O   UNL     1     -11.422  37.052  -3.787  1.00  0.00    -0.384 OA
ATOM     32  H   UNL     1     -11.513  36.667  -4.697  1.00  0.00     0.211 HD
ENDBRANCH  26  31
BRANCH  28  33
ATOM     33  O   UNL     1     -10.235  34.647  -4.721  1.00  0.00    -0.387 OA
ATOM     34  H   UNL     1      -9.767  33.774  -4.654  1.00  0.00     0.211 HD
ENDBRANCH  28  33
BRANCH  29  35
ATOM     35  C   UNL     1     -13.327  33.156  -1.690  1.00  0.00     0.191 C 
BRANCH  35  36
ATOM     36  O   UNL     1     -13.756  32.377  -0.608  1.00  0.00    -0.394 OA
ATOM     37  H   UNL     1     -13.827  31.447  -0.948  1.00  0.00     0.210 HD
ENDBRANCH  35  36
ENDBRANCH  29  35
BRANCH  30  38
ATOM     38  O   UNL     1      -9.628  33.334  -2.403  1.00  0.00    -0.387 OA
ATOM     39  H   UNL     1      -9.295  34.208  -2.073  1.00  0.00     0.211 HD
ENDBRANCH  30  38
ENDBRANCH   1  25
TORSDOF 11
ENDMDL
MODEL 8
REMARK VINA RESULT:    -6.067      2.049      7.728
REMARK INTER + INTRA:          -9.656
REMARK INTER:                  -8.370
REMARK INTRA:                  -1.286
REMARK UNBOUND:                -0.929
REMARK SMILES O=c1c(O[C@H]2O[C@@H](CO)[C@H](O)[C@H](O)[C@H]2O)c(-c2ccc(O)cc2)oc2cc(O)cc(O)c12
REMARK SMILES IDX 4 1 3 2 16 3 24 4 2 5 25 6 1 7 32 8 26 9 30 10 27 11 29 12
REMARK SMILES IDX 17 13 18 14 19 15 20 16 23 17 22 18 21 19 31 21 28 23 5 25
REMARK SMILES IDX 14 26 6 27 12 28 7 29 10 30 15 31 13 33 8 35 9 36 11 38
REMARK H PARENT 21 20 31 22 28 24 15 32 13 34 9 37 11 39
REMARK Flexibility Score: inf
ROOT
ATOM      1  O   UNL     1     -14.263  38.221  -2.382  1.00  0.00    -0.454 OA
ENDROOT
BRANCH   1   2
ATOM      2  C   UNL     1     -13.576  39.014  -3.321  1.00  0.00     0.214 A 
ATOM      3  C   UNL     1     -12.499  38.440  -4.027  1.00  0.00     0.180 A 
ATOM      4  O   UNL     1     -11.798  39.171  -4.888  1.00  0.00    -0.452 OA
ATOM      5  C   UNL     1     -13.902  40.363  -3.577  1.00  0.00     0.239 A 
ATOM      6  C   UNL     1     -12.066  40.443  -5.151  1.00  0.00     0.146 A 
ATOM      7  O   UNL     1     -14.876  40.902  -2.990  1.00  0.00    -0.285 OA
ATOM      8  C   UNL     1     -13.139  41.101  -4.507  1.00  0.00     0.111 A 
ATOM      9  C   UNL     1     -11.273  41.126  -6.078  1.00  0.00     0.094 A 
ATOM     10  C   UNL     1     -13.397  42.460  -4.817  1.00  0.00     0.134 A 
ATOM     11  C   UNL     1     -11.533  42.467  -6.379  1.00  0.00     0.123 A 
ATOM     12  C   UNL     1     -12.591  43.127  -5.750  1.00  0.00     0.093 A 
BRANCH   3  13
ATOM     13  C   UNL     1     -12.077  37.039  -3.806  1.00  0.00     0.021 A 
ATOM     14  C   UNL     1     -10.798  36.776  -3.290  1.00  0.00     0.016 A 
ATOM     15  C   UNL     1     -10.379  35.459  -3.074  1.00  0.00     0.047 A 
ATOM     16  C   UNL     1     -11.226  34.391  -3.385  1.00  0.00     0.115 A 
ATOM     17  C   UNL     1     -12.915  35.960  -4.139  1.00  0.00     0.016 A 
ATOM     18  C   UNL     1     -12.494  34.645  -3.921  1.00  0.00     0.047 A 
BRANCH  16  19
ATOM     19  O   UNL     1     -10.796  33.085  -3.163  1.00  0.00    -0.508 OA
ATOM     20  H   UNL     1     -11.232  32.496  -2.463  1.00  0.00     0.293 HD
ENDBRANCH  16  19
ENDBRANCH   3  13
BRANCH  10  21
ATOM     21  O   UNL     1     -14.445  43.150  -4.205  1.00  0.00    -0.507 OA
ATOM     22  H   UNL     1     -15.112  43.690  -4.743  1.00  0.00     0.293 HD
ENDBRANCH  10  21
BRANCH  11  23
ATOM     23  O   UNL     1     -10.747  43.153  -7.302  1.00  0.00    -0.508 OA
ATOM     24  H   UNL     1     -10.214  42.663  -8.011  1.00  0.00     0.293 HD
ENDBRANCH  11  23
ENDBRANCH   1   2
BRANCH   1  25
ATOM     25  C   UNL     1     -14.268  38.401  -0.963  1.00  0.00     0.339 C 
ATOM     26  C   UNL     1     -14.218  37.035  -0.254  1.00  0.00     0.214 C 
ATOM     27  O   UNL     1     -15.362  39.199  -0.527  1.00  0.00    -0.332 OA
ATOM     28  C   UNL     1     -15.538  36.287  -0.451  1.00  0.00     0.180 C 
ATOM     29  C   UNL     1     -16.639  38.586  -0.680  1.00  0.00     0.179 C 
ATOM     30  C   UNL     1     -16.726  37.176  -0.037  1.00  0.00     0.177 C 
BRANCH  26  31
ATOM     31  O   UNL     1     -13.167  36.261  -0.774  1.00  0.00    -0.384 OA
ATOM     32  H   UNL     1     -13.489  35.323  -0.805  1.00  0.00     0.211 HD
ENDBRANCH  26  31
BRANCH  28  33
ATOM     33  O   UNL     1     -15.525  35.107   0.309  1.00  0.00    -0.387 OA
ATOM     34  H   UNL     1     -15.129  34.401  -0.265  1.00  0.00     0.211 HD
ENDBRANCH  28  33
BRANCH  29  35
ATOM     35  C   UNL     1     -17.135  38.625  -2.139  1.00  0.00     0.191 C 
BRANCH  35  36
ATOM     36  O   UNL     1     -17.471  39.939  -2.492  1.00  0.00    -0.394 OA
ATOM     37  H   UNL     1     -17.916  39.881  -3.378  1.00  0.00     0.210 HD
ENDBRANCH  35  36
ENDBRANCH  29  35
BRANCH  30  38
ATOM     38  O   UNL     1     -16.823  37.266   1.365  1.00  0.00    -0.387 OA
ATOM     39  H   UNL     1     -16.793  38.225   1.618  1.00  0.00     0.211 HD
ENDBRANCH  30  38
ENDBRANCH   1  25
TORSDOF 11
ENDMDL
MODEL 9
REMARK VINA RESULT:    -5.975      2.351      5.569
REMARK INTER + INTRA:          -9.523
REMARK INTER:                  -8.139
REMARK INTRA:                  -1.384
REMARK UNBOUND:                -0.929
REMARK SMILES O=c1c(O[C@H]2O[C@@H](CO)[C@H](O)[C@H](O)[C@H]2O)c(-c2ccc(O)cc2)oc2cc(O)cc(O)c12
REMARK SMILES IDX 4 1 3 2 16 3 24 4 2 5 25 6 1 7 32 8 26 9 30 10 27 11 29 12
REMARK SMILES IDX 17 13 18 14 19 15 20 16 23 17 22 18 21 19 31 21 28 23 5 25
REMARK SMILES IDX 14 26 6 27 12 28 7 29 10 30 15 31 13 33 8 35 9 36 11 38
REMARK H PARENT 21 20 31 22 28 24 15 32 13 34 9 37 11 39
REMARK Flexibility Score: inf
ROOT
ATOM      1  O   UNL     1     -12.877  36.653  -2.167  1.00  0.00    -0.454 OA
ENDROOT
BRANCH   1   2
ATOM      2  C   UNL     1     -14.001  37.175  -1.499  1.00  0.00     0.214 A 
ATOM      3  C   UNL     1     -14.438  38.474  -1.829  1.00  0.00     0.180 A 
ATOM      4  O   UNL     1     -15.467  39.017  -1.186  1.00  0.00    -0.452 OA
ATOM      5  C   UNL     1     -14.701  36.467  -0.499  1.00  0.00     0.239 A 
ATOM      6  C   UNL     1     -16.146  38.389  -0.236  1.00  0.00     0.146 A 
ATOM      7  O   UNL     1     -14.360  35.293  -0.197  1.00  0.00    -0.285 OA
ATOM      8  C   UNL     1     -15.795  37.076   0.153  1.00  0.00     0.111 A 
ATOM      9  C   UNL     1     -17.218  39.045   0.378  1.00  0.00     0.094 A 
ATOM     10  C   UNL     1     -16.546  36.436   1.170  1.00  0.00     0.134 A 
ATOM     11  C   UNL     1     -17.955  38.407   1.381  1.00  0.00     0.123 A 
ATOM     12  C   UNL     1     -17.619  37.109   1.772  1.00  0.00     0.093 A 
BRANCH   3  13
ATOM     13  C   UNL     1     -13.751  39.294  -2.852  1.00  0.00     0.021 A 
ATOM     14  C   UNL     1     -12.673  40.110  -2.472  1.00  0.00     0.016 A 
ATOM     15  C   UNL     1     -12.010  40.893  -3.422  1.00  0.00     0.047 A 
ATOM     16  C   UNL     1     -12.424  40.882  -4.757  1.00  0.00     0.115 A 
ATOM     17  C   UNL     1     -14.178  39.304  -4.191  1.00  0.00     0.016 A 
ATOM     18  C   UNL     1     -13.512  40.087  -5.139  1.00  0.00     0.047 A 
BRANCH  16  19
ATOM     19  O   UNL     1     -11.753  41.666  -5.693  1.00  0.00    -0.508 OA
ATOM     20  H   UNL     1     -10.768  41.527  -5.889  1.00  0.00     0.293 HD
ENDBRANCH  16  19
ENDBRANCH   3  13
BRANCH  10  21
ATOM     21  O   UNL     1     -16.236  35.140   1.585  1.00  0.00    -0.507 OA
ATOM     22  H   UNL     1     -15.511  34.595   1.132  1.00  0.00     0.293 HD
ENDBRANCH  10  21
BRANCH  11  23
ATOM     23  O   UNL     1     -19.024  39.055   1.996  1.00  0.00    -0.508 OA
ATOM     24  H   UNL     1     -19.217  40.035   1.829  1.00  0.00     0.293 HD
ENDBRANCH  11  23
ENDBRANCH   1   2
BRANCH   1  25
ATOM     25  C   UNL     1     -12.858  36.098  -3.485  1.00  0.00     0.339 C 
ATOM     26  C   UNL     1     -12.521  34.597  -3.425  1.00  0.00     0.214 C 
ATOM     27  O   UNL     1     -11.990  36.815  -4.356  1.00  0.00    -0.332 OA
ATOM     28  C   UNL     1     -11.062  34.397  -3.011  1.00  0.00     0.180 C 
ATOM     29  C   UNL     1     -10.607  36.695  -4.042  1.00  0.00     0.179 C 
ATOM     30  C   UNL     1     -10.129  35.223  -3.916  1.00  0.00     0.177 C 
BRANCH  26  31
ATOM     31  O   UNL     1     -13.357  33.953  -2.497  1.00  0.00    -0.384 OA
ATOM     32  H   UNL     1     -12.998  34.160  -1.595  1.00  0.00     0.211 HD
ENDBRANCH  26  31
BRANCH  28  33
ATOM     33  O   UNL     1     -10.736  33.034  -3.089  1.00  0.00    -0.387 OA
ATOM     34  H   UNL     1     -10.574  32.724  -2.160  1.00  0.00     0.211 HD
ENDBRANCH  28  33
BRANCH  29  35
ATOM     35  C   UNL     1     -10.200  37.575  -2.844  1.00  0.00     0.191 C 
BRANCH  35  36
ATOM     36  O   UNL     1      -8.972  37.140  -2.328  1.00  0.00    -0.394 OA
ATOM     37  H   UNL     1      -8.273  37.646  -2.818  1.00  0.00     0.210 HD
ENDBRANCH  35  36
ENDBRANCH  29  35
BRANCH  30  38
ATOM     38  O   UNL     1      -9.998  34.625  -5.184  1.00  0.00    -0.387 OA
ATOM     39  H   UNL     1     -10.473  33.754  -5.168  1.00  0.00     0.211 HD
ENDBRANCH  30  38
ENDBRANCH   1  25
TORSDOF 11
ENDMDL
