MODEL 1
REMARK VINA RESULT:    -4.355      0.000      0.000
REMARK INTER + INTRA:          -5.393
REMARK INTER:                  -5.119
REMARK INTRA:                  -0.274
REMARK UNBOUND:                -0.274
REMARK SMILES O=c1cc(-c2ccc(O)c(O)c2)oc2cc(O)cc(O)c12
REMARK SMILES IDX 4 1 3 2 2 3 1 4 21 5 19 6 18 7 16 8 15 9 14 10 13 11 5 12
REMARK SMILES IDX 6 13 7 14 8 15 12 16 10 17 9 18 11 20 20 22 17 24
REMARK H PARENT 9 19 11 21 20 23 17 25
REMARK Flexibility Score: inf
ROOT
ATOM      1  C   UNL     1      22.272 -46.170   7.345  1.00  0.00     0.138 A 
ATOM      2  C   UNL     1      21.392 -47.017   8.034  1.00  0.00     0.100 A 
ATOM      3  C   UNL     1      21.152 -48.303   7.551  1.00  0.00     0.197 A 
ATOM      4  O   UNL     1      20.310 -49.017   8.156  1.00  0.00    -0.289 OA
ATOM      5  C   UNL     1      21.821 -48.755   6.388  1.00  0.00     0.107 A 
ATOM      6  C   UNL     1      21.686 -50.060   5.829  1.00  0.00     0.134 A 
ATOM      7  C   UNL     1      22.309 -50.356   4.610  1.00  0.00     0.093 A 
ATOM      8  C   UNL     1      23.109 -49.415   3.963  1.00  0.00     0.123 A 
ATOM      9  C   UNL     1      23.293 -48.153   4.530  1.00  0.00     0.094 A 
ATOM     10  C   UNL     1      22.657 -47.816   5.727  1.00  0.00     0.146 A 
ATOM     11  O   UNL     1      22.846 -46.600   6.226  1.00  0.00    -0.456 OA
ENDROOT
BRANCH   1  12
ATOM     12  C   UNL     1      22.564 -44.792   7.815  1.00  0.00     0.021 A 
ATOM     13  C   UNL     1      23.880 -44.292   7.867  1.00  0.00     0.016 A 
ATOM     14  C   UNL     1      24.125 -42.988   8.304  1.00  0.00     0.051 A 
ATOM     15  C   UNL     1      23.063 -42.160   8.687  1.00  0.00     0.157 A 
ATOM     16  C   UNL     1      21.504 -43.948   8.189  1.00  0.00     0.062 A 
ATOM     17  C   UNL     1      21.750 -42.639   8.629  1.00  0.00     0.158 A 
BRANCH  15  18
ATOM     18  O   UNL     1      23.306 -40.858   9.125  1.00  0.00    -0.504 OA
ATOM     19  H   UNL     1      22.648 -40.369   9.720  1.00  0.00     0.293 HD
ENDBRANCH  15  18
BRANCH  17  20
ATOM     20  O   UNL     1      20.695 -41.812   9.007  1.00  0.00    -0.504 OA
ATOM     21  H   UNL     1      20.803 -40.806   9.064  1.00  0.00     0.293 HD
ENDBRANCH  17  20
ENDBRANCH   1  12
BRANCH   6  22
ATOM     22  O   UNL     1      20.978 -51.102   6.436  1.00  0.00    -0.507 OA
ATOM     23  H   UNL     1      20.581 -51.066   7.363  1.00  0.00     0.293 HD
ENDBRANCH   6  22
BRANCH   8  24
ATOM     24  O   UNL     1      23.726 -49.750   2.758  1.00  0.00    -0.508 OA
ATOM     25  H   UNL     1      24.564 -50.318   2.732  1.00  0.00     0.293 HD
ENDBRANCH   8  24
TORSDOF 5
ENDMDL
MODEL 2
REMARK VINA RESULT:    -4.045      1.573      3.072
REMARK INTER + INTRA:          -5.028
REMARK INTER:                  -4.717
REMARK INTRA:                  -0.311
REMARK UNBOUND:                -0.274
REMARK SMILES O=c1cc(-c2ccc(O)c(O)c2)oc2cc(O)cc(O)c12
REMARK SMILES IDX 4 1 3 2 2 3 1 4 21 5 19 6 18 7 16 8 15 9 14 10 13 11 5 12
REMARK SMILES IDX 6 13 7 14 8 15 12 16 10 17 9 18 11 20 20 22 17 24
REMARK H PARENT 9 19 11 21 20 23 17 25
REMARK Flexibility Score: inf
ROOT
ATOM      1  C   UNL     1      22.085 -46.292   7.767  1.00  0.00     0.138 A 
ATOM      2  C   UNL     1      22.932 -47.117   7.014  1.00  0.00     0.100 A 
ATOM      3  C   UNL     1      22.532 -48.416   6.702  1.00  0.00     0.197 A 
ATOM      4  O   UNL     1      23.339 -49.154   6.078  1.00  0.00    -0.289 OA
ATOM      5  C   UNL     1      21.262 -48.882   7.121  1.00  0.00     0.107 A 
ATOM      6  C   UNL     1      20.732 -50.173   6.825  1.00  0.00     0.134 A 
ATOM      7  C   UNL     1      19.512 -50.564   7.391  1.00  0.00     0.093 A 
ATOM      8  C   UNL     1      18.776 -49.690   8.190  1.00  0.00     0.123 A 
ATOM      9  C   UNL     1      19.259 -48.405   8.441  1.00  0.00     0.094 A 
ATOM     10  C   UNL     1      20.489 -47.998   7.920  1.00  0.00     0.146 A 
ATOM     11  O   UNL     1      20.921 -46.772   8.194  1.00  0.00    -0.456 OA
ENDROOT
BRANCH   1  12
ATOM     12  C   UNL     1      22.460 -44.901   8.126  1.00  0.00     0.021 A 
ATOM     13  C   UNL     1      23.802 -44.472   8.117  1.00  0.00     0.016 A 
ATOM     14  C   UNL     1      24.125 -43.154   8.450  1.00  0.00     0.051 A 
ATOM     15  C   UNL     1      23.118 -42.243   8.789  1.00  0.00     0.157 A 
ATOM     16  C   UNL     1      21.455 -43.975   8.455  1.00  0.00     0.062 A 
ATOM     17  C   UNL     1      21.780 -42.653   8.790  1.00  0.00     0.158 A 
BRANCH  15  18
ATOM     18  O   UNL     1      23.438 -40.927   9.123  1.00  0.00    -0.504 OA
ATOM     19  H   UNL     1      23.827 -40.287   8.440  1.00  0.00     0.293 HD
ENDBRANCH  15  18
BRANCH  17  20
ATOM     20  O   UNL     1      20.779 -41.743   9.124  1.00  0.00    -0.504 OA
ATOM     21  H   UNL     1      19.797 -41.987   9.060  1.00  0.00     0.293 HD
ENDBRANCH  17  20
ENDBRANCH   1  12
BRANCH   6  22
ATOM     22  O   UNL     1      21.345 -51.093   5.969  1.00  0.00    -0.507 OA
ATOM     23  H   UNL     1      21.782 -51.953   6.266  1.00  0.00     0.293 HD
ENDBRANCH   6  22
BRANCH   8  24
ATOM     24  O   UNL     1      17.558 -50.108   8.725  1.00  0.00    -0.508 OA
ATOM     25  H   UNL     1      16.840 -49.445   8.991  1.00  0.00     0.293 HD
ENDBRANCH   8  24
TORSDOF 5
ENDMDL
MODEL 3
REMARK VINA RESULT:    -3.838      3.181      3.871
REMARK INTER + INTRA:          -4.785
REMARK INTER:                  -4.477
REMARK INTRA:                  -0.308
REMARK UNBOUND:                -0.274
REMARK SMILES O=c1cc(-c2ccc(O)c(O)c2)oc2cc(O)cc(O)c12
REMARK SMILES IDX 4 1 3 2 2 3 1 4 21 5 19 6 18 7 16 8 15 9 14 10 13 11 5 12
REMARK SMILES IDX 6 13 7 14 8 15 12 16 10 17 9 18 11 20 20 22 17 24
REMARK H PARENT 9 19 11 21 20 23 17 25
REMARK Flexibility Score: inf
ROOT
ATOM      1  C   UNL     1      20.232 -47.728   7.321  1.00  0.00     0.138 A 
ATOM      2  C   UNL     1      20.611 -48.769   8.180  1.00  0.00     0.100 A 
ATOM      3  C   UNL     1      21.670 -49.605   7.827  1.00  0.00     0.197 A 
ATOM      4  O   UNL     1      21.946 -50.569   8.588  1.00  0.00    -0.289 OA
ATOM      5  C   UNL     1      22.374 -49.378   6.620  1.00  0.00     0.107 A 
ATOM      6  C   UNL     1      23.496 -50.141   6.178  1.00  0.00     0.134 A 
ATOM      7  C   UNL     1      24.040 -49.896   4.911  1.00  0.00     0.093 A 
ATOM      8  C   UNL     1      23.542 -48.879   4.097  1.00  0.00     0.123 A 
ATOM      9  C   UNL     1      22.480 -48.091   4.543  1.00  0.00     0.094 A 
ATOM     10  C   UNL     1      21.894 -48.333   5.787  1.00  0.00     0.146 A 
ATOM     11  O   UNL     1      20.875 -47.569   6.168  1.00  0.00    -0.456 OA
ENDROOT
BRANCH   1  12
ATOM     12  C   UNL     1      19.114 -46.809   7.648  1.00  0.00     0.021 A 
ATOM     13  C   UNL     1      18.058 -47.200   8.495  1.00  0.00     0.016 A 
ATOM     14  C   UNL     1      17.023 -46.310   8.794  1.00  0.00     0.051 A 
ATOM     15  C   UNL     1      17.028 -45.015   8.261  1.00  0.00     0.157 A 
ATOM     16  C   UNL     1      19.116 -45.502   7.129  1.00  0.00     0.062 A 
ATOM     17  C   UNL     1      18.077 -44.609   7.428  1.00  0.00     0.158 A 
BRANCH  15  18
ATOM     18  O   UNL     1      15.996 -44.126   8.557  1.00  0.00    -0.504 OA
ATOM     19  H   UNL     1      15.289 -43.889   7.871  1.00  0.00     0.293 HD
ENDBRANCH  15  18
BRANCH  17  20
ATOM     20  O   UNL     1      18.082 -43.319   6.902  1.00  0.00    -0.504 OA
ATOM     21  H   UNL     1      17.481 -43.059   6.129  1.00  0.00     0.293 HD
ENDBRANCH  17  20
ENDBRANCH   1  12
BRANCH   6  22
ATOM     22  O   UNL     1      24.125 -51.124   6.947  1.00  0.00    -0.507 OA
ATOM     23  H   UNL     1      23.651 -51.753   7.578  1.00  0.00     0.293 HD
ENDBRANCH   6  22
BRANCH   8  24
ATOM     24  O   UNL     1      24.118 -48.655   2.848  1.00  0.00    -0.508 OA
ATOM     25  H   UNL     1      23.826 -49.175   2.028  1.00  0.00     0.293 HD
ENDBRANCH   8  24
TORSDOF 5
ENDMDL
MODEL 4
REMARK VINA RESULT:    -2.887      1.331      1.718
REMARK INTER + INTRA:          -3.667
REMARK INTER:                  -3.386
REMARK INTRA:                  -0.281
REMARK UNBOUND:                -0.274
REMARK SMILES O=c1cc(-c2ccc(O)c(O)c2)oc2cc(O)cc(O)c12
REMARK SMILES IDX 4 1 3 2 2 3 1 4 21 5 19 6 18 7 16 8 15 9 14 10 13 11 5 12
REMARK SMILES IDX 6 13 7 14 8 15 12 16 10 17 9 18 11 20 20 22 17 24
REMARK H PARENT 9 19 11 21 20 23 17 25
REMARK Flexibility Score: inf
ROOT
ATOM      1  C   UNL     1      21.431 -45.955   8.153  1.00  0.00     0.138 A 
ATOM      2  C   UNL     1      20.247 -46.319   8.810  1.00  0.00     0.100 A 
ATOM      3  C   UNL     1      19.655 -47.551   8.534  1.00  0.00     0.197 A 
ATOM      4  O   UNL     1      18.559 -47.822   9.092  1.00  0.00    -0.289 OA
ATOM      5  C   UNL     1      20.269 -48.438   7.617  1.00  0.00     0.107 A 
ATOM      6  C   UNL     1      19.777 -49.736   7.290  1.00  0.00     0.134 A 
ATOM      7  C   UNL     1      20.405 -50.478   6.282  1.00  0.00     0.093 A 
ATOM      8  C   UNL     1      21.541 -49.994   5.634  1.00  0.00     0.123 A 
ATOM      9  C   UNL     1      22.063 -48.748   5.985  1.00  0.00     0.094 A 
ATOM     10  C   UNL     1      21.438 -47.970   6.962  1.00  0.00     0.146 A 
ATOM     11  O   UNL     1      21.958 -46.784   7.257  1.00  0.00    -0.456 OA
ENDROOT
BRANCH   1  12
ATOM     12  C   UNL     1      22.104 -44.657   8.409  1.00  0.00     0.021 A 
ATOM     13  C   UNL     1      23.507 -44.535   8.392  1.00  0.00     0.016 A 
ATOM     14  C   UNL     1      24.114 -43.299   8.627  1.00  0.00     0.051 A 
ATOM     15  C   UNL     1      23.332 -42.164   8.874  1.00  0.00     0.157 A 
ATOM     16  C   UNL     1      21.328 -43.508   8.646  1.00  0.00     0.062 A 
ATOM     17  C   UNL     1      21.937 -42.268   8.882  1.00  0.00     0.158 A 
BRANCH  15  18
ATOM     18  O   UNL     1      23.936 -40.929   9.110  1.00  0.00    -0.504 OA
ATOM     19  H   UNL     1      24.943 -40.825   9.121  1.00  0.00     0.293 HD
ENDBRANCH  15  18
BRANCH  17  20
ATOM     20  O   UNL     1      21.162 -41.136   9.125  1.00  0.00    -0.504 OA
ATOM     21  H   UNL     1      20.834 -40.906  10.056  1.00  0.00     0.293 HD
ENDBRANCH  17  20
ENDBRANCH   1  12
BRANCH   6  22
ATOM     22  O   UNL     1      18.699 -50.350   7.935  1.00  0.00    -0.507 OA
ATOM     23  H   UNL     1      18.436 -51.318   7.825  1.00  0.00     0.293 HD
ENDBRANCH   6  22
BRANCH   8  24
ATOM     24  O   UNL     1      22.149 -50.767   4.646  1.00  0.00    -0.508 OA
ATOM     25  H   UNL     1      21.886 -51.733   4.491  1.00  0.00     0.293 HD
ENDBRANCH   8  24
TORSDOF 5
ENDMDL
MODEL 5
REMARK VINA RESULT:    -2.239      5.549      7.455
REMARK INTER + INTRA:          -2.906
REMARK INTER:                  -2.596
REMARK INTRA:                  -0.310
REMARK UNBOUND:                -0.274
REMARK SMILES O=c1cc(-c2ccc(O)c(O)c2)oc2cc(O)cc(O)c12
REMARK SMILES IDX 4 1 3 2 2 3 1 4 21 5 19 6 18 7 16 8 15 9 14 10 13 11 5 12
REMARK SMILES IDX 6 13 7 14 8 15 12 16 10 17 9 18 11 20 20 22 17 24
REMARK H PARENT 9 19 11 21 20 23 17 25
REMARK Flexibility Score: inf
ROOT
ATOM      1  C   UNL     1      16.363 -44.857   8.279  1.00  0.00     0.138 A 
ATOM      2  C   UNL     1      16.630 -46.228   8.395  1.00  0.00     0.100 A 
ATOM      3  C   UNL     1      17.950 -46.678   8.371  1.00  0.00     0.197 A 
ATOM      4  O   UNL     1      18.155 -47.919   8.414  1.00  0.00    -0.289 OA
ATOM      5  C   UNL     1      19.010 -45.746   8.261  1.00  0.00     0.107 A 
ATOM      6  C   UNL     1      20.395 -46.088   8.267  1.00  0.00     0.134 A 
ATOM      7  C   UNL     1      21.352 -45.091   8.035  1.00  0.00     0.093 A 
ATOM      8  C   UNL     1      20.977 -43.760   7.859  1.00  0.00     0.123 A 
ATOM      9  C   UNL     1      19.628 -43.407   7.905  1.00  0.00     0.094 A 
ATOM     10  C   UNL     1      18.648 -44.383   8.100  1.00  0.00     0.146 A 
ATOM     11  O   UNL     1      17.374 -44.007   8.123  1.00  0.00    -0.456 OA
ENDROOT
BRANCH   1  12
ATOM     12  C   UNL     1      14.977 -44.323   8.300  1.00  0.00     0.021 A 
ATOM     13  C   UNL     1      13.871 -45.124   7.959  1.00  0.00     0.016 A 
ATOM     14  C   UNL     1      12.577 -44.598   7.997  1.00  0.00     0.051 A 
ATOM     15  C   UNL     1      12.365 -43.269   8.384  1.00  0.00     0.157 A 
ATOM     16  C   UNL     1      14.753 -42.993   8.700  1.00  0.00     0.062 A 
ATOM     17  C   UNL     1      13.454 -42.466   8.737  1.00  0.00     0.158 A 
BRANCH  15  18
ATOM     18  O   UNL     1      11.075 -42.742   8.421  1.00  0.00    -0.504 OA
ATOM     19  H   UNL     1      10.567 -42.525   7.572  1.00  0.00     0.293 HD
ENDBRANCH  15  18
BRANCH  17  20
ATOM     20  O   UNL     1      13.241 -41.145   9.125  1.00  0.00    -0.504 OA
ATOM     21  H   UNL     1      12.446 -40.880   9.695  1.00  0.00     0.293 HD
ENDBRANCH  17  20
ENDBRANCH   1  12
BRANCH   6  22
ATOM     22  O   UNL     1      20.883 -47.374   8.518  1.00  0.00    -0.507 OA
ATOM     23  H   UNL     1      21.715 -47.581   9.050  1.00  0.00     0.293 HD
ENDBRANCH   6  22
BRANCH   8  24
ATOM     24  O   UNL     1      21.958 -42.793   7.645  1.00  0.00    -0.508 OA
ATOM     25  H   UNL     1      22.861 -43.032   7.251  1.00  0.00     0.293 HD
ENDBRANCH   8  24
TORSDOF 5
ENDMDL
MODEL 6
REMARK VINA RESULT:    -1.619      1.726      2.114
REMARK INTER + INTRA:          -2.177
REMARK INTER:                  -1.904
REMARK INTRA:                  -0.272
REMARK UNBOUND:                -0.274
REMARK SMILES O=c1cc(-c2ccc(O)c(O)c2)oc2cc(O)cc(O)c12
REMARK SMILES IDX 4 1 3 2 2 3 1 4 21 5 19 6 18 7 16 8 15 9 14 10 13 11 5 12
REMARK SMILES IDX 6 13 7 14 8 15 12 16 10 17 9 18 11 20 20 22 17 24
REMARK H PARENT 9 19 11 21 20 23 17 25
REMARK Flexibility Score: inf
ROOT
ATOM      1  C   UNL     1      21.892 -46.464   7.293  1.00  0.00     0.138 A 
ATOM      2  C   UNL     1      22.064 -47.464   8.260  1.00  0.00     0.100 A 
ATOM      3  C   UNL     1      22.644 -48.680   7.901  1.00  0.00     0.197 A 
ATOM      4  O   UNL     1      22.727 -49.581   8.776  1.00  0.00    -0.289 OA
ATOM      5  C   UNL     1      23.083 -48.885   6.571  1.00  0.00     0.107 A 
ATOM      6  C   UNL     1      23.726 -50.068   6.101  1.00  0.00     0.134 A 
ATOM      7  C   UNL     1      24.012 -50.202   4.736  1.00  0.00     0.093 A 
ATOM      8  C   UNL     1      23.735 -49.173   3.838  1.00  0.00     0.123 A 
ATOM      9  C   UNL     1      23.156 -47.989   4.296  1.00  0.00     0.094 A 
ATOM     10  C   UNL     1      22.827 -47.838   5.645  1.00  0.00     0.146 A 
ATOM     11  O   UNL     1      22.264 -46.701   6.039  1.00  0.00    -0.456 OA
ENDROOT
BRANCH   1  12
ATOM     12  C   UNL     1      21.281 -45.151   7.621  1.00  0.00     0.021 A 
ATOM     13  C   UNL     1      21.929 -44.223   8.460  1.00  0.00     0.016 A 
ATOM     14  C   UNL     1      21.336 -42.990   8.743  1.00  0.00     0.051 A 
ATOM     15  C   UNL     1      20.093 -42.660   8.190  1.00  0.00     0.157 A 
ATOM     16  C   UNL     1      20.040 -44.804   7.059  1.00  0.00     0.062 A 
ATOM     17  C   UNL     1      19.444 -43.567   7.345  1.00  0.00     0.158 A 
BRANCH  15  18
ATOM     18  O   UNL     1      19.498 -41.431   8.472  1.00  0.00    -0.504 OA
ATOM     19  H   UNL     1      19.818 -40.575   8.035  1.00  0.00     0.293 HD
ENDBRANCH  15  18
BRANCH  17  20
ATOM     20  O   UNL     1      18.209 -43.235   6.792  1.00  0.00    -0.504 OA
ATOM     21  H   UNL     1      17.339 -43.522   7.225  1.00  0.00     0.293 HD
ENDBRANCH  17  20
ENDBRANCH   1  12
BRANCH   6  22
ATOM     22  O   UNL     1      24.124 -51.123   6.927  1.00  0.00    -0.507 OA
ATOM     23  H   UNL     1      24.673 -51.021   7.768  1.00  0.00     0.293 HD
ENDBRANCH   6  22
BRANCH   8  24
ATOM     24  O   UNL     1      24.047 -49.336   2.489  1.00  0.00    -0.508 OA
ATOM     25  H   UNL     1      24.695 -50.050   2.177  1.00  0.00     0.293 HD
ENDBRANCH   8  24
TORSDOF 5
ENDMDL
MODEL 7
REMARK VINA RESULT:    -1.583      5.615      7.438
REMARK INTER + INTRA:          -2.134
REMARK INTER:                  -1.844
REMARK INTRA:                  -0.290
REMARK UNBOUND:                -0.274
REMARK SMILES O=c1cc(-c2ccc(O)c(O)c2)oc2cc(O)cc(O)c12
REMARK SMILES IDX 4 1 3 2 2 3 1 4 21 5 19 6 18 7 16 8 15 9 14 10 13 11 5 12
REMARK SMILES IDX 6 13 7 14 8 15 12 16 10 17 9 18 11 20 20 22 17 24
REMARK H PARENT 9 19 11 21 20 23 17 25
REMARK Flexibility Score: inf
ROOT
ATOM      1  C   UNL     1      16.362 -44.856   8.374  1.00  0.00     0.138 A 
ATOM      2  C   UNL     1      17.480 -44.011   8.330  1.00  0.00     0.100 A 
ATOM      3  C   UNL     1      18.761 -44.561   8.346  1.00  0.00     0.197 A 
ATOM      4  O   UNL     1      19.745 -43.776   8.370  1.00  0.00    -0.289 OA
ATOM      5  C   UNL     1      18.924 -45.967   8.376  1.00  0.00     0.107 A 
ATOM      6  C   UNL     1      20.182 -46.640   8.354  1.00  0.00     0.134 A 
ATOM      7  C   UNL     1      20.222 -48.032   8.503  1.00  0.00     0.093 A 
ATOM      8  C   UNL     1      19.050 -48.779   8.612  1.00  0.00     0.123 A 
ATOM      9  C   UNL     1      17.812 -48.136   8.580  1.00  0.00     0.094 A 
ATOM     10  C   UNL     1      17.740 -46.745   8.467  1.00  0.00     0.146 A 
ATOM     11  O   UNL     1      16.542 -46.171   8.455  1.00  0.00    -0.456 OA
ENDROOT
BRANCH   1  12
ATOM     12  C   UNL     1      14.976 -44.324   8.358  1.00  0.00     0.021 A 
ATOM     13  C   UNL     1      13.879 -45.129   7.993  1.00  0.00     0.016 A 
ATOM     14  C   UNL     1      12.584 -44.605   7.996  1.00  0.00     0.051 A 
ATOM     15  C   UNL     1      12.360 -43.275   8.371  1.00  0.00     0.157 A 
ATOM     16  C   UNL     1      14.739 -42.993   8.746  1.00  0.00     0.062 A 
ATOM     17  C   UNL     1      13.439 -42.468   8.748  1.00  0.00     0.158 A 
BRANCH  15  18
ATOM     18  O   UNL     1      11.068 -42.750   8.374  1.00  0.00    -0.504 OA
ATOM     19  H   UNL     1      10.253 -43.350   8.356  1.00  0.00     0.293 HD
ENDBRANCH  15  18
BRANCH  17  20
ATOM     20  O   UNL     1      13.213 -41.146   9.125  1.00  0.00    -0.504 OA
ATOM     21  H   UNL     1      13.953 -40.454   9.104  1.00  0.00     0.293 HD
ENDBRANCH  17  20
ENDBRANCH   1  12
BRANCH   6  22
ATOM     22  O   UNL     1      21.409 -45.997   8.164  1.00  0.00    -0.507 OA
ATOM     23  H   UNL     1      22.133 -45.921   8.863  1.00  0.00     0.293 HD
ENDBRANCH   6  22
BRANCH   8  24
ATOM     24  O   UNL     1      19.128 -50.164   8.745  1.00  0.00    -0.508 OA
ATOM     25  H   UNL     1      18.336 -50.762   8.538  1.00  0.00     0.293 HD
ENDBRANCH   8  24
TORSDOF 5
ENDMDL
