MODEL 1
REMARK VINA RESULT:    56.346      0.000      0.000
REMARK INTER + INTRA:          61.722
REMARK INTER:                  61.287
REMARK INTRA:                   0.435
REMARK UNBOUND:                 0.435
REMARK SMILES CC(=O)[C@H]1CC[C@H]2[C@@H]3CC=C4C[C@@H](O)CC[C@]4(C)[C@@H]3CC[C@]12C
REMARK SMILES IDX 4 1 5 2 6 3 7 4 22 5 21 6 20 7 19 8 8 9 9 10 10 11 11 12
REMARK SMILES IDX 17 13 16 14 15 15 13 16 12 17 18 18 23 19 2 20 1 21 3 22
REMARK SMILES IDX 14 23
REMARK H PARENT 14 24
REMARK Flexibility Score: inf
ROOT
ATOM      1  C   UNL     1     -24.994  30.499  -8.734  1.00  0.00     0.062 C 
ATOM      2  C   UNL     1     -23.967  31.650  -8.887  1.00  0.00     0.012 C 
ATOM      3  C   UNL     1     -22.616  31.095  -8.397  1.00  0.00     0.005 C 
ATOM      4  C   UNL     1     -22.879  29.609  -8.188  1.00  0.00    -0.001 C 
ATOM      5  C   UNL     1     -24.334  29.519  -7.728  1.00  0.00    -0.020 C 
ATOM      6  C   UNL     1     -24.801  28.033  -7.882  1.00  0.00     0.008 C 
ATOM      7  C   UNL     1     -23.658  26.980  -7.710  1.00  0.00     0.005 C 
ATOM      8  C   UNL     1     -22.532  27.481  -6.759  1.00  0.00     0.003 C 
ATOM      9  C   UNL     1     -21.865  28.784  -7.332  1.00  0.00     0.000 C 
ATOM     10  C   UNL     1     -20.646  28.469  -8.226  1.00  0.00     0.031 C 
ATOM     11  C   UNL     1     -19.742  27.404  -7.710  1.00  0.00    -0.027 C 
ATOM     12  C   UNL     1     -20.175  26.365  -6.979  1.00  0.00    -0.065 C 
ATOM     13  C   UNL     1     -21.485  26.426  -6.190  1.00  0.00    -0.008 C 
ATOM     14  C   UNL     1     -22.097  24.992  -6.131  1.00  0.00     0.014 C 
ATOM     15  C   UNL     1     -21.104  23.909  -5.686  1.00  0.00     0.033 C 
ATOM     16  C   UNL     1     -19.889  23.881  -6.623  1.00  0.00     0.118 C 
ATOM     17  C   UNL     1     -19.188  25.248  -6.678  1.00  0.00     0.063 C 
ATOM     18  C   UNL     1     -21.118  26.877  -4.746  1.00  0.00     0.016 C 
ATOM     19  C   UNL     1     -24.542  30.052  -6.268  1.00  0.00     0.012 C 
ENDROOT
BRANCH   1  20
ATOM     20  C   UNL     1     -26.397  30.950  -8.361  1.00  0.00     0.133 C 
ATOM     21  C   UNL     1     -27.330  30.024  -7.640  1.00  0.00     0.088 C 
ATOM     22  O   UNL     1     -26.774  32.085  -8.614  1.00  0.00    -0.300 OA
ENDBRANCH   1  20
BRANCH  16  23
ATOM     23  O   UNL     1     -18.986  22.876  -6.235  1.00  0.00    -0.393 OA
ATOM     24  H   UNL     1     -19.449  22.292  -5.578  1.00  0.00     0.210 HD
ENDBRANCH  16  23
TORSDOF 2
ENDMDL
