MODEL 1
REMARK VINA RESULT:    -4.472      0.000      0.000
REMARK INTER + INTRA:         -13.301
REMARK INTER:                  -9.702
REMARK INTRA:                  -3.599
REMARK UNBOUND:                -3.599
REMARK SMILES CCCCCCCCCCCCCCCCCCCCCC(=O)[O-]
REMARK SMILES IDX 12 1 11 2 10 3 9 4 8 5 7 6 6 7 5 8 4 9 3 10 2 11 1 12 13 13
REMARK SMILES IDX 14 14 15 15 16 16 17 17 18 18 19 19 20 20 21 21 22 22 23 23
REMARK SMILES IDX 24 24
REMARK H PARENT
REMARK Flexibility Score: inf
ROOT
ATOM      1  C   UNL     1     -50.357  16.580 -31.125  1.00  0.00     0.000 C 
ENDROOT
BRANCH   1   2
ATOM      2  C   UNL     1     -51.666  17.269 -30.709  1.00  0.00     0.000 C 
BRANCH   2   3
ATOM      3  C   UNL     1     -51.948  17.144 -29.205  1.00  0.00     0.000 C 
BRANCH   3   4
ATOM      4  C   UNL     1     -53.093  16.154 -28.943  1.00  0.00    -0.000 C 
BRANCH   4   5
ATOM      5  C   UNL     1     -52.636  14.896 -28.183  1.00  0.00    -0.000 C 
BRANCH   5   6
ATOM      6  C   UNL     1     -53.028  13.562 -28.842  1.00  0.00    -0.000 C 
BRANCH   6   7
ATOM      7  C   UNL     1     -53.536  13.733 -30.282  1.00  0.00    -0.000 C 
BRANCH   7   8
ATOM      8  C   UNL     1     -53.171  12.511 -31.140  1.00  0.00    -0.000 C 
BRANCH   8   9
ATOM      9  C   UNL     1     -52.938  11.247 -30.299  1.00  0.00    -0.000 C 
BRANCH   9  10
ATOM     10  C   UNL     1     -52.401  10.071 -31.135  1.00  0.00    -0.000 C 
BRANCH  10  11
ATOM     11  C   UNL     1     -51.565  10.538 -32.336  1.00  0.00    -0.003 C 
ATOM     12  C   UNL     1     -50.465   9.543 -32.709  1.00  0.00     0.004 C 
ENDBRANCH  10  11
ENDBRANCH   9  10
ENDBRANCH   8   9
ENDBRANCH   7   8
ENDBRANCH   6   7
ENDBRANCH   5   6
ENDBRANCH   4   5
ENDBRANCH   3   4
ENDBRANCH   2   3
ENDBRANCH   1   2
BRANCH   1  13
ATOM     13  C   UNL     1     -50.599  15.249 -31.863  1.00  0.00     0.000 C 
BRANCH  13  14
ATOM     14  C   UNL     1     -49.491  14.218 -31.597  1.00  0.00     0.000 C 
BRANCH  14  15
ATOM     15  C   UNL     1     -49.768  13.358 -30.354  1.00  0.00     0.000 C 
BRANCH  15  16
ATOM     16  C   UNL     1     -48.929  12.077 -30.378  1.00  0.00     0.000 C 
BRANCH  16  17
ATOM     17  C   UNL     1     -49.360  11.113 -29.263  1.00  0.00     0.000 C 
BRANCH  17  18
ATOM     18  C   UNL     1     -48.612   9.771 -29.323  1.00  0.00     0.000 C 
BRANCH  18  19
ATOM     19  C   UNL     1     -47.126   9.947 -29.677  1.00  0.00     0.000 C 
BRANCH  19  20
ATOM     20  C   UNL     1     -46.517   8.708 -30.359  1.00  0.00     0.006 C 
BRANCH  20  21
ATOM     21  C   UNL     1     -46.996   8.493 -31.810  1.00  0.00     0.053 C 
BRANCH  21  22
ATOM     22  C   UNL     1     -47.627   7.151 -32.062  1.00  0.00     0.041 C 
ATOM     23  O   UNL     1     -48.098   6.501 -31.093  1.00  0.00    -0.550 OA
ATOM     24  O   UNL     1     -47.644   6.581 -33.332  1.00  0.00    -0.550 OA
ENDBRANCH  21  22
ENDBRANCH  20  21
ENDBRANCH  19  20
ENDBRANCH  18  19
ENDBRANCH  17  18
ENDBRANCH  16  17
ENDBRANCH  15  16
ENDBRANCH  14  15
ENDBRANCH  13  14
ENDBRANCH   1  13
TORSDOF 20
ENDMDL
MODEL 2
REMARK VINA RESULT:    -4.468      3.554      7.180
REMARK INTER + INTRA:         -13.291
REMARK INTER:                 -10.149
REMARK INTRA:                  -3.141
REMARK UNBOUND:                -3.599
REMARK SMILES CCCCCCCCCCCCCCCCCCCCCC(=O)[O-]
REMARK SMILES IDX 12 1 11 2 10 3 9 4 8 5 7 6 6 7 5 8 4 9 3 10 2 11 1 12 13 13
REMARK SMILES IDX 14 14 15 15 16 16 17 17 18 18 19 19 20 20 21 21 22 22 23 23
REMARK SMILES IDX 24 24
REMARK H PARENT
REMARK Flexibility Score: inf
ROOT
ATOM      1  C   UNL     1     -49.474  12.941 -31.091  1.00  0.00     0.000 C 
ENDROOT
BRANCH   1   2
ATOM      2  C   UNL     1     -48.960  12.650 -29.673  1.00  0.00     0.000 C 
BRANCH   2   3
ATOM      3  C   UNL     1     -48.812  11.147 -29.396  1.00  0.00     0.000 C 
BRANCH   3   4
ATOM      4  C   UNL     1     -50.171  10.436 -29.497  1.00  0.00    -0.000 C 
BRANCH   4   5
ATOM      5  C   UNL     1     -50.156   9.253 -30.480  1.00  0.00    -0.000 C 
BRANCH   5   6
ATOM      6  C   UNL     1     -51.176   9.352 -31.629  1.00  0.00    -0.000 C 
BRANCH   6   7
ATOM      7  C   UNL     1     -50.546   9.116 -33.009  1.00  0.00    -0.000 C 
BRANCH   7   8
ATOM      8  C   UNL     1     -49.030   9.370 -32.968  1.00  0.00    -0.000 C 
BRANCH   8   9
ATOM      9  C   UNL     1     -48.214   8.155 -33.436  1.00  0.00    -0.000 C 
BRANCH   9  10
ATOM     10  C   UNL     1     -47.295   7.599 -32.334  1.00  0.00    -0.000 C 
BRANCH  10  11
ATOM     11  C   UNL     1     -46.713   8.705 -31.442  1.00  0.00    -0.003 C 
ATOM     12  C   UNL     1     -46.532   8.256 -29.990  1.00  0.00     0.004 C 
ENDBRANCH  10  11
ENDBRANCH   9  10
ENDBRANCH   8   9
ENDBRANCH   7   8
ENDBRANCH   6   7
ENDBRANCH   5   6
ENDBRANCH   4   5
ENDBRANCH   3   4
ENDBRANCH   2   3
ENDBRANCH   1   2
BRANCH   1  13
ATOM     13  C   UNL     1     -50.792  13.740 -31.089  1.00  0.00     0.000 C 
BRANCH  13  14
ATOM     14  C   UNL     1     -51.990  12.901 -31.560  1.00  0.00     0.000 C 
BRANCH  14  15
ATOM     15  C   UNL     1     -53.205  13.030 -30.630  1.00  0.00     0.000 C 
BRANCH  15  16
ATOM     16  C   UNL     1     -52.828  12.681 -29.187  1.00  0.00     0.000 C 
BRANCH  16  17
ATOM     17  C   UNL     1     -53.547  13.602 -28.189  1.00  0.00     0.000 C 
BRANCH  17  18
ATOM     18  C   UNL     1     -52.908  14.997 -28.109  1.00  0.00     0.000 C 
BRANCH  18  19
ATOM     19  C   UNL     1     -53.907  16.117 -28.443  1.00  0.00     0.000 C 
BRANCH  19  20
ATOM     20  C   UNL     1     -53.224  17.426 -28.878  1.00  0.00     0.006 C 
BRANCH  20  21
ATOM     21  C   UNL     1     -51.706  17.289 -29.122  1.00  0.00     0.053 C 
BRANCH  21  22
ATOM     22  C   UNL     1     -51.267  17.654 -30.514  1.00  0.00     0.041 C 
ATOM     23  O   UNL     1     -50.235  17.117 -30.993  1.00  0.00    -0.550 OA
ATOM     24  O   UNL     1     -51.938  18.619 -31.261  1.00  0.00    -0.550 OA
ENDBRANCH  21  22
ENDBRANCH  20  21
ENDBRANCH  19  20
ENDBRANCH  18  19
ENDBRANCH  17  18
ENDBRANCH  16  17
ENDBRANCH  15  16
ENDBRANCH  14  15
ENDBRANCH  13  14
ENDBRANCH   1  13
TORSDOF 20
ENDMDL
MODEL 3
REMARK VINA RESULT:    -4.426      2.625      6.919
REMARK INTER + INTRA:         -13.201
REMARK INTER:                  -9.948
REMARK INTRA:                  -3.253
REMARK UNBOUND:                -3.599
REMARK SMILES CCCCCCCCCCCCCCCCCCCCCC(=O)[O-]
REMARK SMILES IDX 12 1 11 2 10 3 9 4 8 5 7 6 6 7 5 8 4 9 3 10 2 11 1 12 13 13
REMARK SMILES IDX 14 14 15 15 16 16 17 17 18 18 19 19 20 20 21 21 22 22 23 23
REMARK SMILES IDX 24 24
REMARK H PARENT
REMARK Flexibility Score: inf
ROOT
ATOM      1  C   UNL     1     -48.525  11.958 -29.475  1.00  0.00     0.000 C 
ENDROOT
BRANCH   1   2
ATOM      2  C   UNL     1     -49.452  10.746 -29.299  1.00  0.00     0.000 C 
BRANCH   2   3
ATOM      3  C   UNL     1     -48.740   9.413 -29.575  1.00  0.00     0.000 C 
BRANCH   3   4
ATOM      4  C   UNL     1     -47.235   9.631 -29.789  1.00  0.00    -0.000 C 
BRANCH   4   5
ATOM      5  C   UNL     1     -46.671   8.811 -30.963  1.00  0.00    -0.000 C 
BRANCH   5   6
ATOM      6  C   UNL     1     -46.939   7.298 -30.884  1.00  0.00    -0.000 C 
BRANCH   6   7
ATOM      7  C   UNL     1     -47.564   6.734 -32.169  1.00  0.00    -0.000 C 
BRANCH   7   8
ATOM      8  C   UNL     1     -47.928   7.867 -33.142  1.00  0.00    -0.000 C 
BRANCH   8   9
ATOM      9  C   UNL     1     -49.434   7.933 -33.436  1.00  0.00    -0.000 C 
BRANCH   9  10
ATOM     10  C   UNL     1     -50.059   9.278 -33.024  1.00  0.00    -0.000 C 
BRANCH  10  11
ATOM     11  C   UNL     1     -51.359   9.099 -32.225  1.00  0.00    -0.003 C 
ATOM     12  C   UNL     1     -51.428   7.750 -31.508  1.00  0.00     0.004 C 
ENDBRANCH  10  11
ENDBRANCH   9  10
ENDBRANCH   8   9
ENDBRANCH   7   8
ENDBRANCH   6   7
ENDBRANCH   5   6
ENDBRANCH   4   5
ENDBRANCH   3   4
ENDBRANCH   2   3
ENDBRANCH   1   2
BRANCH   1  13
ATOM     13  C   UNL     1     -49.209  13.122 -30.218  1.00  0.00     0.000 C 
BRANCH  13  14
ATOM     14  C   UNL     1     -50.267  12.638 -31.223  1.00  0.00     0.000 C 
BRANCH  14  15
ATOM     15  C   UNL     1     -51.149  13.780 -31.749  1.00  0.00     0.000 C 
BRANCH  15  16
ATOM     16  C   UNL     1     -50.299  14.995 -32.134  1.00  0.00     0.000 C 
BRANCH  16  17
ATOM     17  C   UNL     1     -50.694  16.230 -31.312  1.00  0.00     0.000 C 
BRANCH  17  18
ATOM     18  C   UNL     1     -52.098  16.103 -30.698  1.00  0.00     0.000 C 
BRANCH  18  19
ATOM     19  C   UNL     1     -52.102  16.379 -29.186  1.00  0.00     0.000 C 
BRANCH  19  20
ATOM     20  C   UNL     1     -52.273  15.104 -28.340  1.00  0.00     0.006 C 
BRANCH  20  21
ATOM     21  C   UNL     1     -53.604  14.363 -28.587  1.00  0.00     0.053 C 
BRANCH  21  22
ATOM     22  C   UNL     1     -53.445  12.953 -29.087  1.00  0.00     0.041 C 
ATOM     23  O   UNL     1     -52.636  12.182 -28.507  1.00  0.00    -0.550 OA
ATOM     24  O   UNL     1     -54.125  12.498 -30.213  1.00  0.00    -0.550 OA
ENDBRANCH  21  22
ENDBRANCH  20  21
ENDBRANCH  19  20
ENDBRANCH  18  19
ENDBRANCH  17  18
ENDBRANCH  16  17
ENDBRANCH  15  16
ENDBRANCH  14  15
ENDBRANCH  13  14
ENDBRANCH   1  13
TORSDOF 20
ENDMDL
MODEL 4
REMARK VINA RESULT:    -4.363      3.240      7.586
REMARK INTER + INTRA:         -13.063
REMARK INTER:                  -9.697
REMARK INTRA:                  -3.366
REMARK UNBOUND:                -3.599
REMARK SMILES CCCCCCCCCCCCCCCCCCCCCC(=O)[O-]
REMARK SMILES IDX 12 1 11 2 10 3 9 4 8 5 7 6 6 7 5 8 4 9 3 10 2 11 1 12 13 13
REMARK SMILES IDX 14 14 15 15 16 16 17 17 18 18 19 19 20 20 21 21 22 22 23 23
REMARK SMILES IDX 24 24
REMARK H PARENT
REMARK Flexibility Score: inf
ROOT
ATOM      1  C   UNL     1     -47.762   9.506 -30.146  1.00  0.00     0.000 C 
ENDROOT
BRANCH   1   2
ATOM      2  C   UNL     1     -46.346   8.924 -30.018  1.00  0.00     0.000 C 
BRANCH   2   3
ATOM      3  C   UNL     1     -46.341   7.390 -29.956  1.00  0.00     0.000 C 
BRANCH   3   4
ATOM      4  C   UNL     1     -47.559   6.809 -30.689  1.00  0.00    -0.000 C 
BRANCH   4   5
ATOM      5  C   UNL     1     -47.180   6.059 -31.979  1.00  0.00    -0.000 C 
BRANCH   5   6
ATOM      6  C   UNL     1     -47.871   6.573 -33.255  1.00  0.00    -0.000 C 
BRANCH   6   7
ATOM      7  C   UNL     1     -47.698   8.085 -33.459  1.00  0.00    -0.000 C 
BRANCH   7   8
ATOM      8  C   UNL     1     -49.057   8.802 -33.419  1.00  0.00    -0.000 C 
BRANCH   8   9
ATOM      9  C   UNL     1     -50.233   7.830 -33.241  1.00  0.00    -0.000 C 
BRANCH   9  10
ATOM     10  C   UNL     1     -51.590   8.552 -33.155  1.00  0.00    -0.000 C 
BRANCH  10  11
ATOM     11  C   UNL     1     -52.188   8.510 -31.740  1.00  0.00    -0.003 C 
ATOM     12  C   UNL     1     -51.201   7.976 -30.700  1.00  0.00     0.004 C 
ENDBRANCH  10  11
ENDBRANCH   9  10
ENDBRANCH   8   9
ENDBRANCH   7   8
ENDBRANCH   6   7
ENDBRANCH   5   6
ENDBRANCH   4   5
ENDBRANCH   3   4
ENDBRANCH   2   3
ENDBRANCH   1   2
BRANCH   1  13
ATOM     13  C   UNL     1     -48.142  10.404 -28.953  1.00  0.00     0.000 C 
BRANCH  13  14
ATOM     14  C   UNL     1     -49.409  11.232 -29.220  1.00  0.00     0.000 C 
BRANCH  14  15
ATOM     15  C   UNL     1     -49.096  12.642 -29.743  1.00  0.00     0.000 C 
BRANCH  15  16
ATOM     16  C   UNL     1     -49.619  12.822 -31.172  1.00  0.00     0.000 C 
BRANCH  16  17
ATOM     17  C   UNL     1     -50.689  11.772 -31.506  1.00  0.00     0.000 C 
BRANCH  17  18
ATOM     18  C   UNL     1     -52.034  12.407 -31.896  1.00  0.00     0.000 C 
BRANCH  18  19
ATOM     19  C   UNL     1     -53.060  12.350 -30.752  1.00  0.00     0.000 C 
BRANCH  19  20
ATOM     20  C   UNL     1     -53.644  13.729 -30.395  1.00  0.00     0.006 C 
BRANCH  20  21
ATOM     21  C   UNL     1     -52.742  14.914 -30.802  1.00  0.00     0.053 C 
BRANCH  21  22
ATOM     22  C   UNL     1     -51.991  15.542 -29.660  1.00  0.00     0.041 C 
ATOM     23  O   UNL     1     -51.694  14.840 -28.659  1.00  0.00    -0.550 OA
ATOM     24  O   UNL     1     -51.672  16.897 -29.655  1.00  0.00    -0.550 OA
ENDBRANCH  21  22
ENDBRANCH  20  21
ENDBRANCH  19  20
ENDBRANCH  18  19
ENDBRANCH  17  18
ENDBRANCH  16  17
ENDBRANCH  15  16
ENDBRANCH  14  15
ENDBRANCH  13  14
ENDBRANCH   1  13
TORSDOF 20
ENDMDL
MODEL 5
REMARK VINA RESULT:    -4.354      2.452      6.410
REMARK INTER + INTRA:         -13.044
REMARK INTER:                 -10.133
REMARK INTRA:                  -2.911
REMARK UNBOUND:                -3.599
REMARK SMILES CCCCCCCCCCCCCCCCCCCCCC(=O)[O-]
REMARK SMILES IDX 12 1 11 2 10 3 9 4 8 5 7 6 6 7 5 8 4 9 3 10 2 11 1 12 13 13
REMARK SMILES IDX 14 14 15 15 16 16 17 17 18 18 19 19 20 20 21 21 22 22 23 23
REMARK SMILES IDX 24 24
REMARK H PARENT
REMARK Flexibility Score: inf
ROOT
ATOM      1  C   UNL     1     -49.679  14.083 -31.440  1.00  0.00     0.000 C 
ENDROOT
BRANCH   1   2
ATOM      2  C   UNL     1     -49.550  13.108 -30.259  1.00  0.00     0.000 C 
BRANCH   2   3
ATOM      3  C   UNL     1     -49.667  11.639 -30.691  1.00  0.00     0.000 C 
BRANCH   3   4
ATOM      4  C   UNL     1     -49.584  10.703 -29.476  1.00  0.00    -0.000 C 
BRANCH   4   5
ATOM      5  C   UNL     1     -48.160  10.584 -28.907  1.00  0.00    -0.000 C 
BRANCH   5   6
ATOM      6  C   UNL     1     -47.136   9.932 -29.853  1.00  0.00    -0.000 C 
BRANCH   6   7
ATOM      7  C   UNL     1     -47.603   8.572 -30.393  1.00  0.00    -0.000 C 
BRANCH   7   8
ATOM      8  C   UNL     1     -46.978   8.286 -31.768  1.00  0.00    -0.000 C 
BRANCH   8   9
ATOM      9  C   UNL     1     -48.029   7.949 -32.837  1.00  0.00    -0.000 C 
BRANCH   9  10
ATOM     10  C   UNL     1     -48.936   9.145 -33.173  1.00  0.00    -0.000 C 
BRANCH  10  11
ATOM     11  C   UNL     1     -50.424   8.834 -32.950  1.00  0.00    -0.003 C 
ATOM     12  C   UNL     1     -50.644   7.513 -32.210  1.00  0.00     0.004 C 
ENDBRANCH  10  11
ENDBRANCH   9  10
ENDBRANCH   8   9
ENDBRANCH   7   8
ENDBRANCH   6   7
ENDBRANCH   5   6
ENDBRANCH   4   5
ENDBRANCH   3   4
ENDBRANCH   2   3
ENDBRANCH   1   2
BRANCH   1  13
ATOM     13  C   UNL     1     -50.859  15.059 -31.274  1.00  0.00     0.000 C 
BRANCH  13  14
ATOM     14  C   UNL     1     -50.451  16.522 -31.505  1.00  0.00     0.000 C 
BRANCH  14  15
ATOM     15  C   UNL     1     -51.056  17.478 -30.466  1.00  0.00     0.000 C 
BRANCH  15  16
ATOM     16  C   UNL     1     -52.576  17.580 -30.638  1.00  0.00     0.000 C 
BRANCH  16  17
ATOM     17  C   UNL     1     -53.303  17.261 -29.323  1.00  0.00     0.000 C 
BRANCH  17  18
ATOM     18  C   UNL     1     -52.338  16.836 -28.205  1.00  0.00     0.000 C 
BRANCH  18  19
ATOM     19  C   UNL     1     -52.600  15.400 -27.722  1.00  0.00     0.000 C 
BRANCH  19  20
ATOM     20  C   UNL     1     -53.439  14.573 -28.714  1.00  0.00     0.006 C 
BRANCH  20  21
ATOM     21  C   UNL     1     -53.008  13.095 -28.818  1.00  0.00     0.053 C 
BRANCH  21  22
ATOM     22  C   UNL     1     -53.340  12.443 -30.133  1.00  0.00     0.041 C 
ATOM     23  O   UNL     1     -53.841  13.139 -31.054  1.00  0.00    -0.550 OA
ATOM     24  O   UNL     1     -53.165  11.077 -30.334  1.00  0.00    -0.550 OA
ENDBRANCH  21  22
ENDBRANCH  20  21
ENDBRANCH  19  20
ENDBRANCH  18  19
ENDBRANCH  17  18
ENDBRANCH  16  17
ENDBRANCH  15  16
ENDBRANCH  14  15
ENDBRANCH  13  14
ENDBRANCH   1  13
TORSDOF 20
ENDMDL
MODEL 6
REMARK VINA RESULT:    -4.289      1.389      3.953
REMARK INTER + INTRA:         -12.903
REMARK INTER:                  -9.689
REMARK INTRA:                  -3.214
REMARK UNBOUND:                -3.599
REMARK SMILES CCCCCCCCCCCCCCCCCCCCCC(=O)[O-]
REMARK SMILES IDX 12 1 11 2 10 3 9 4 8 5 7 6 6 7 5 8 4 9 3 10 2 11 1 12 13 13
REMARK SMILES IDX 14 14 15 15 16 16 17 17 18 18 19 19 20 20 21 21 22 22 23 23
REMARK SMILES IDX 24 24
REMARK H PARENT
REMARK Flexibility Score: inf
ROOT
ATOM      1  C   UNL     1     -52.580  15.226 -27.840  1.00  0.00     0.000 C 
ENDROOT
BRANCH   1   2
ATOM      2  C   UNL     1     -52.764  16.742 -27.671  1.00  0.00     0.000 C 
BRANCH   2   3
ATOM      3  C   UNL     1     -54.034  17.263 -28.360  1.00  0.00     0.000 C 
BRANCH   3   4
ATOM      4  C   UNL     1     -53.693  18.370 -29.369  1.00  0.00    -0.000 C 
BRANCH   4   5
ATOM      5  C   UNL     1     -53.209  17.820 -30.722  1.00  0.00    -0.000 C 
BRANCH   5   6
ATOM      6  C   UNL     1     -51.812  18.301 -31.155  1.00  0.00    -0.000 C 
BRANCH   6   7
ATOM      7  C   UNL     1     -50.700  17.302 -30.801  1.00  0.00    -0.000 C 
BRANCH   7   8
ATOM      8  C   UNL     1     -51.170  15.856 -31.031  1.00  0.00    -0.000 C 
BRANCH   8   9
ATOM      9  C   UNL     1     -50.427  15.169 -32.186  1.00  0.00    -0.000 C 
BRANCH   9  10
ATOM     10  C   UNL     1     -49.552  13.995 -31.712  1.00  0.00    -0.000 C 
BRANCH  10  11
ATOM     11  C   UNL     1     -49.830  13.609 -30.251  1.00  0.00    -0.003 C 
ATOM     12  C   UNL     1     -48.854  12.555 -29.725  1.00  0.00     0.004 C 
ENDBRANCH  10  11
ENDBRANCH   9  10
ENDBRANCH   8   9
ENDBRANCH   7   8
ENDBRANCH   6   7
ENDBRANCH   5   6
ENDBRANCH   4   5
ENDBRANCH   3   4
ENDBRANCH   2   3
ENDBRANCH   1   2
BRANCH   1  13
ATOM     13  C   UNL     1     -53.779  14.559 -28.541  1.00  0.00     0.000 C 
BRANCH  13  14
ATOM     14  C   UNL     1     -53.862  13.051 -28.260  1.00  0.00     0.000 C 
BRANCH  14  15
ATOM     15  C   UNL     1     -52.838  12.241 -29.070  1.00  0.00     0.000 C 
BRANCH  15  16
ATOM     16  C   UNL     1     -53.189  12.254 -30.562  1.00  0.00     0.000 C 
BRANCH  16  17
ATOM     17  C   UNL     1     -52.424  11.159 -31.319  1.00  0.00     0.000 C 
BRANCH  17  18
ATOM     18  C   UNL     1     -51.589  10.270 -30.383  1.00  0.00     0.000 C 
BRANCH  18  19
ATOM     19  C   UNL     1     -51.221   8.925 -31.031  1.00  0.00     0.000 C 
BRANCH  19  20
ATOM     20  C   UNL     1     -50.394   9.082 -32.320  1.00  0.00     0.006 C 
BRANCH  20  21
ATOM     21  C   UNL     1     -49.043   9.799 -32.114  1.00  0.00     0.053 C 
BRANCH  21  22
ATOM     22  C   UNL     1     -48.023   8.994 -31.355  1.00  0.00     0.041 C 
ATOM     23  O   UNL     1     -47.854   9.215 -30.128  1.00  0.00    -0.550 OA
ATOM     24  O   UNL     1     -47.217   8.054 -31.991  1.00  0.00    -0.550 OA
ENDBRANCH  21  22
ENDBRANCH  20  21
ENDBRANCH  19  20
ENDBRANCH  18  19
ENDBRANCH  17  18
ENDBRANCH  16  17
ENDBRANCH  15  16
ENDBRANCH  14  15
ENDBRANCH  13  14
ENDBRANCH   1  13
TORSDOF 20
ENDMDL
MODEL 7
REMARK VINA RESULT:    -4.281      1.146      2.148
REMARK INTER + INTRA:         -12.885
REMARK INTER:                  -9.544
REMARK INTRA:                  -3.341
REMARK UNBOUND:                -3.599
REMARK SMILES CCCCCCCCCCCCCCCCCCCCCC(=O)[O-]
REMARK SMILES IDX 12 1 11 2 10 3 9 4 8 5 7 6 6 7 5 8 4 9 3 10 2 11 1 12 13 13
REMARK SMILES IDX 14 14 15 15 16 16 17 17 18 18 19 19 20 20 21 21 22 22 23 23
REMARK SMILES IDX 24 24
REMARK H PARENT
REMARK Flexibility Score: inf
ROOT
ATOM      1  C   UNL     1     -49.529  14.411 -31.481  1.00  0.00     0.000 C 
ENDROOT
BRANCH   1   2
ATOM      2  C   UNL     1     -50.940  14.970 -31.724  1.00  0.00     0.000 C 
BRANCH   2   3
ATOM      3  C   UNL     1     -51.131  16.371 -31.123  1.00  0.00     0.000 C 
BRANCH   3   4
ATOM      4  C   UNL     1     -52.034  16.315 -29.882  1.00  0.00    -0.000 C 
BRANCH   4   5
ATOM      5  C   UNL     1     -52.905  15.047 -29.830  1.00  0.00    -0.000 C 
BRANCH   5   6
ATOM      6  C   UNL     1     -52.857  14.282 -28.495  1.00  0.00    -0.000 C 
BRANCH   6   7
ATOM      7  C   UNL     1     -52.859  12.758 -28.680  1.00  0.00    -0.000 C 
BRANCH   7   8
ATOM      8  C   UNL     1     -53.629  12.362 -29.950  1.00  0.00    -0.000 C 
BRANCH   8   9
ATOM      9  C   UNL     1     -52.768  11.563 -30.939  1.00  0.00    -0.000 C 
BRANCH   9  10
ATOM     10  C   UNL     1     -52.905  10.042 -30.748  1.00  0.00    -0.000 C 
BRANCH  10  11
ATOM     11  C   UNL     1     -51.611   9.289 -31.092  1.00  0.00    -0.003 C 
ATOM     12  C   UNL     1     -50.988   9.761 -32.407  1.00  0.00     0.004 C 
ENDBRANCH  10  11
ENDBRANCH   9  10
ENDBRANCH   8   9
ENDBRANCH   7   8
ENDBRANCH   6   7
ENDBRANCH   5   6
ENDBRANCH   4   5
ENDBRANCH   3   4
ENDBRANCH   2   3
ENDBRANCH   1   2
BRANCH   1  13
ATOM     13  C   UNL     1     -49.542  12.913 -31.120  1.00  0.00     0.000 C 
BRANCH  13  14
ATOM     14  C   UNL     1     -49.266  12.664 -29.629  1.00  0.00     0.000 C 
BRANCH  14  15
ATOM     15  C   UNL     1     -49.213  11.170 -29.279  1.00  0.00     0.000 C 
BRANCH  15  16
ATOM     16  C   UNL     1     -47.767  10.664 -29.259  1.00  0.00     0.000 C 
BRANCH  16  17
ATOM     17  C   UNL     1     -47.700   9.168 -29.604  1.00  0.00     0.000 C 
BRANCH  17  18
ATOM     18  C   UNL     1     -46.789   8.883 -30.809  1.00  0.00     0.000 C 
BRANCH  18  19
ATOM     19  C   UNL     1     -47.586   8.483 -32.062  1.00  0.00     0.000 C 
BRANCH  19  20
ATOM     20  C   UNL     1     -47.313   7.038 -32.516  1.00  0.00     0.006 C 
BRANCH  20  21
ATOM     21  C   UNL     1     -47.962   5.966 -31.615  1.00  0.00     0.053 C 
BRANCH  21  22
ATOM     22  C   UNL     1     -49.418   6.203 -31.319  1.00  0.00     0.041 C 
ATOM     23  O   UNL     1     -49.785   6.361 -30.125  1.00  0.00    -0.550 OA
ATOM     24  O   UNL     1     -50.378   6.191 -32.327  1.00  0.00    -0.550 OA
ENDBRANCH  21  22
ENDBRANCH  20  21
ENDBRANCH  19  20
ENDBRANCH  18  19
ENDBRANCH  17  18
ENDBRANCH  16  17
ENDBRANCH  15  16
ENDBRANCH  14  15
ENDBRANCH  13  14
ENDBRANCH   1  13
TORSDOF 20
ENDMDL
MODEL 8
REMARK VINA RESULT:    -4.262      3.470      7.368
REMARK INTER + INTRA:         -12.844
REMARK INTER:                  -9.669
REMARK INTRA:                  -3.175
REMARK UNBOUND:                -3.599
REMARK SMILES CCCCCCCCCCCCCCCCCCCCCC(=O)[O-]
REMARK SMILES IDX 12 1 11 2 10 3 9 4 8 5 7 6 6 7 5 8 4 9 3 10 2 11 1 12 13 13
REMARK SMILES IDX 14 14 15 15 16 16 17 17 18 18 19 19 20 20 21 21 22 22 23 23
REMARK SMILES IDX 24 24
REMARK H PARENT
REMARK Flexibility Score: inf
ROOT
ATOM      1  C   UNL     1     -49.936  11.686 -29.619  1.00  0.00     0.000 C 
ENDROOT
BRANCH   1   2
ATOM      2  C   UNL     1     -49.243  10.322 -29.479  1.00  0.00     0.000 C 
BRANCH   2   3
ATOM      3  C   UNL     1     -47.723  10.448 -29.291  1.00  0.00     0.000 C 
BRANCH   3   4
ATOM      4  C   UNL     1     -46.971   9.603 -30.330  1.00  0.00    -0.000 C 
BRANCH   4   5
ATOM      5  C   UNL     1     -46.536   8.231 -29.786  1.00  0.00    -0.000 C 
BRANCH   5   6
ATOM      6  C   UNL     1     -47.028   7.024 -30.604  1.00  0.00    -0.000 C 
BRANCH   6   7
ATOM      7  C   UNL     1     -48.348   7.299 -31.340  1.00  0.00    -0.000 C 
BRANCH   7   8
ATOM      8  C   UNL     1     -48.183   7.096 -32.855  1.00  0.00    -0.000 C 
BRANCH   8   9
ATOM      9  C   UNL     1     -48.611   8.327 -33.667  1.00  0.00    -0.000 C 
BRANCH   9  10
ATOM     10  C   UNL     1     -49.551   9.257 -32.881  1.00  0.00    -0.000 C 
BRANCH  10  11
ATOM     11  C   UNL     1     -51.034   8.934 -33.124  1.00  0.00    -0.003 C 
ATOM     12  C   UNL     1     -51.798   8.671 -31.825  1.00  0.00     0.004 C 
ENDBRANCH  10  11
ENDBRANCH   9  10
ENDBRANCH   8   9
ENDBRANCH   7   8
ENDBRANCH   6   7
ENDBRANCH   5   6
ENDBRANCH   4   5
ENDBRANCH   3   4
ENDBRANCH   2   3
ENDBRANCH   1   2
BRANCH   1  13
ATOM     13  C   UNL     1     -49.656  12.355 -30.978  1.00  0.00     0.000 C 
BRANCH  13  14
ATOM     14  C   UNL     1     -50.859  13.157 -31.499  1.00  0.00     0.000 C 
BRANCH  14  15
ATOM     15  C   UNL     1     -52.098  12.280 -31.734  1.00  0.00     0.000 C 
BRANCH  15  16
ATOM     16  C   UNL     1     -53.341  12.909 -31.096  1.00  0.00     0.000 C 
BRANCH  16  17
ATOM     17  C   UNL     1     -53.599  12.327 -29.698  1.00  0.00     0.000 C 
BRANCH  17  18
ATOM     18  C   UNL     1     -53.213  13.302 -28.574  1.00  0.00     0.000 C 
BRANCH  18  19
ATOM     19  C   UNL     1     -53.239  14.768 -29.039  1.00  0.00     0.000 C 
BRANCH  19  20
ATOM     20  C   UNL     1     -51.894  15.488 -28.839  1.00  0.00     0.006 C 
BRANCH  20  21
ATOM     21  C   UNL     1     -51.939  16.998 -29.156  1.00  0.00     0.053 C 
BRANCH  21  22
ATOM     22  C   UNL     1     -51.351  17.369 -30.490  1.00  0.00     0.041 C 
ATOM     23  O   UNL     1     -51.818  18.356 -31.116  1.00  0.00    -0.550 OA
ATOM     24  O   UNL     1     -50.344  16.610 -31.080  1.00  0.00    -0.550 OA
ENDBRANCH  21  22
ENDBRANCH  20  21
ENDBRANCH  19  20
ENDBRANCH  18  19
ENDBRANCH  17  18
ENDBRANCH  16  17
ENDBRANCH  15  16
ENDBRANCH  14  15
ENDBRANCH  13  14
ENDBRANCH   1  13
TORSDOF 20
ENDMDL
MODEL 9
REMARK VINA RESULT:    -4.229      1.388      4.560
REMARK INTER + INTRA:         -12.772
REMARK INTER:                  -9.287
REMARK INTRA:                  -3.485
REMARK UNBOUND:                -3.599
REMARK SMILES CCCCCCCCCCCCCCCCCCCCCC(=O)[O-]
REMARK SMILES IDX 12 1 11 2 10 3 9 4 8 5 7 6 6 7 5 8 4 9 3 10 2 11 1 12 13 13
REMARK SMILES IDX 14 14 15 15 16 16 17 17 18 18 19 19 20 20 21 21 22 22 23 23
REMARK SMILES IDX 24 24
REMARK H PARENT
REMARK Flexibility Score: inf
ROOT
ATOM      1  C   UNL     1     -48.789  11.884 -29.617  1.00  0.00     0.000 C 
ENDROOT
BRANCH   1   2
ATOM      2  C   UNL     1     -49.502  13.204 -29.945  1.00  0.00     0.000 C 
BRANCH   2   3
ATOM      3  C   UNL     1     -49.643  13.439 -31.457  1.00  0.00     0.000 C 
BRANCH   3   4
ATOM      4  C   UNL     1     -51.091  13.798 -31.822  1.00  0.00    -0.000 C 
BRANCH   4   5
ATOM      5  C   UNL     1     -52.058  12.609 -31.681  1.00  0.00    -0.000 C 
BRANCH   5   6
ATOM      6  C   UNL     1     -53.270  12.863 -30.767  1.00  0.00    -0.000 C 
BRANCH   6   7
ATOM      7  C   UNL     1     -52.967  12.596 -29.285  1.00  0.00    -0.000 C 
BRANCH   7   8
ATOM      8  C   UNL     1     -52.989  13.904 -28.478  1.00  0.00    -0.000 C 
BRANCH   8   9
ATOM      9  C   UNL     1     -53.509  15.096 -29.297  1.00  0.00    -0.000 C 
BRANCH   9  10
ATOM     10  C   UNL     1     -52.609  16.338 -29.170  1.00  0.00    -0.000 C 
BRANCH  10  11
ATOM     11  C   UNL     1     -52.318  16.992 -30.529  1.00  0.00    -0.003 C 
ATOM     12  C   UNL     1     -50.845  17.373 -30.695  1.00  0.00     0.004 C 
ENDBRANCH  10  11
ENDBRANCH   9  10
ENDBRANCH   8   9
ENDBRANCH   7   8
ENDBRANCH   6   7
ENDBRANCH   5   6
ENDBRANCH   4   5
ENDBRANCH   3   4
ENDBRANCH   2   3
ENDBRANCH   1   2
BRANCH   1  13
ATOM     13  C   UNL     1     -49.772  10.757 -29.247  1.00  0.00     0.000 C 
BRANCH  13  14
ATOM     14  C   UNL     1     -49.972   9.752 -30.392  1.00  0.00     0.000 C 
BRANCH  14  15
ATOM     15  C   UNL     1     -51.411   9.219 -30.466  1.00  0.00     0.000 C 
BRANCH  15  16
ATOM     16  C   UNL     1     -51.838   9.000 -31.922  1.00  0.00     0.000 C 
BRANCH  16  17
ATOM     17  C   UNL     1     -50.619   8.958 -32.855  1.00  0.00     0.000 C 
BRANCH  17  18
ATOM     18  C   UNL     1     -50.476   7.607 -33.575  1.00  0.00     0.000 C 
BRANCH  18  19
ATOM     19  C   UNL     1     -49.079   6.992 -33.389  1.00  0.00     0.000 C 
BRANCH  19  20
ATOM     20  C   UNL     1     -48.784   6.594 -31.932  1.00  0.00     0.006 C 
BRANCH  20  21
ATOM     21  C   UNL     1     -47.280   6.551 -31.588  1.00  0.00     0.053 C 
BRANCH  21  22
ATOM     22  C   UNL     1     -46.762   7.793 -30.914  1.00  0.00     0.041 C 
ATOM     23  O   UNL     1     -46.749   8.878 -31.551  1.00  0.00    -0.550 OA
ATOM     24  O   UNL     1     -46.239   7.758 -29.624  1.00  0.00    -0.550 OA
ENDBRANCH  21  22
ENDBRANCH  20  21
ENDBRANCH  19  20
ENDBRANCH  18  19
ENDBRANCH  17  18
ENDBRANCH  16  17
ENDBRANCH  15  16
ENDBRANCH  14  15
ENDBRANCH  13  14
ENDBRANCH   1  13
TORSDOF 20
ENDMDL
