MODEL 1
REMARK VINA RESULT:    -2.899      0.000      0.000
REMARK INTER + INTRA:          -4.873
REMARK INTER:                  -4.425
REMARK INTRA:                  -0.448
REMARK UNBOUND:                -0.448
REMARK SMILES CC1=CCC[C@@H](C)C(=O)C[C@@H](C(C)C)C(=O)C1
REMARK SMILES IDX 8 1 9 2 6 3 7 4 5 5 4 6 3 7 2 8 1 9 10 11 11 12 15 13 16 14
REMARK SMILES IDX 17 15 12 17 13 18 14 19
REMARK H PARENT
REMARK Flexibility Score: 70.00
ROOT
ATOM      1  C   UNL     1       5.885  28.991  16.556  1.00  0.00     0.136 C 
ATOM      2  O   UNL     1       5.434  29.284  17.654  1.00  0.00    -0.299 OA
ENDROOT
BRANCH   1   3
ATOM      3  C   UNL     1       4.932  28.427  15.513  1.00  0.00     0.053 C 
ATOM      4  C   UNL     1       3.935  29.506  15.071  1.00  0.00     0.016 C 
BRANCH   3   5
ATOM      5  C   UNL     1       4.185  27.196  16.067  1.00  0.00     0.015 C 
BRANCH   5   6
ATOM      6  C   UNL     1       5.091  25.964  16.230  1.00  0.00     0.028 C 
BRANCH   6   7
ATOM      7  C   UNL     1       5.668  25.514  14.909  1.00  0.00    -0.028 C 
ATOM      8  C   UNL     1       6.969  25.568  14.539  1.00  0.00    -0.070 CG0
ATOM      9  C   UNL     1       7.325  25.074  13.159  1.00  0.00     0.039 C 
ATOM     10  G   UNL     1       8.080  26.136  15.407  1.00  0.00     0.000 G0
ENDBRANCH   6   7
ENDBRANCH   5   6
ENDBRANCH   3   5
ENDBRANCH   1   3
BRANCH   1  11
ATOM     11  C   UNL     1       7.386  29.109  16.361  1.00  0.00     0.087 C 
BRANCH  11  12
ATOM     12  C   UNL     1       7.926  28.760  14.947  1.00  0.00     0.066 C 
BRANCH  12  13
ATOM     13  C   UNL     1       8.632  27.410  14.840  1.00  0.00     0.140 C 
ATOM     14  O   UNL     1       9.737  27.384  14.314  1.00  0.00    -0.299 OA
BRANCH  13  15
ATOM     15  C   UNL     1       8.086  26.116  15.404  1.00  0.00     0.106 CG0
ATOM     16  G   UNL     1       6.953  25.580  14.544  1.00  0.00     0.000 G0
ENDBRANCH  13  15
ENDBRANCH  12  13
BRANCH  12  17
ATOM     17  C   UNL     1       8.805  29.915  14.369  1.00  0.00    -0.006 C 
ATOM     18  C   UNL     1       9.546  30.682  15.476  1.00  0.00     0.008 C 
ATOM     19  C   UNL     1       8.019  30.895  13.482  1.00  0.00     0.008 C 
ENDBRANCH  12  17
ENDBRANCH  11  12
ENDBRANCH   1  11
TORSDOF 1
ENDMDL
MODEL 2
REMARK VINA RESULT:    -2.795      7.398      9.550
REMARK INTER + INTRA:          -4.713
REMARK INTER:                  -4.656
REMARK INTRA:                  -0.057
REMARK UNBOUND:                -0.448
REMARK SMILES CC1=CCC[C@@H](C)C(=O)C[C@@H](C(C)C)C(=O)C1
REMARK SMILES IDX 8 1 9 2 6 3 7 4 5 5 4 6 3 7 2 8 1 9 10 11 11 12 15 13 16 14
REMARK SMILES IDX 17 15 12 17 13 18 14 19
REMARK H PARENT
REMARK Flexibility Score: 70.00
ROOT
ATOM      1  C   UNL     1      14.601  24.753  14.056  1.00  0.00     0.136 C 
ATOM      2  O   UNL     1      14.088  25.130  13.012  1.00  0.00    -0.299 OA
ENDROOT
BRANCH   1   3
ATOM      3  C   UNL     1      13.731  24.684  15.301  1.00  0.00     0.053 C 
ATOM      4  C   UNL     1      13.006  23.333  15.366  1.00  0.00     0.016 C 
BRANCH   3   5
ATOM      5  C   UNL     1      12.713  25.843  15.320  1.00  0.00     0.015 C 
BRANCH   5   6
ATOM      6  C   UNL     1      13.308  27.159  15.849  1.00  0.00     0.028 C 
BRANCH   6   7
ATOM      7  C   UNL     1      13.613  28.126  14.729  1.00  0.00    -0.028 C 
ATOM      8  C   UNL     1      14.841  28.531  14.329  1.00  0.00    -0.070 CG0
ATOM      9  C   UNL     1      14.915  29.518  13.190  1.00  0.00     0.039 C 
ATOM     10  G   UNL     1      16.141  28.092  14.984  1.00  0.00     0.000 G0
ENDBRANCH   6   7
ENDBRANCH   5   6
ENDBRANCH   3   5
ENDBRANCH   1   3
BRANCH   1  11
ATOM     11  C   UNL     1      16.096  24.489  14.048  1.00  0.00     0.087 C 
BRANCH  11  12
ATOM     12  C   UNL     1      16.987  25.557  14.741  1.00  0.00     0.066 C 
BRANCH  12  13
ATOM     13  C   UNL     1      16.824  26.979  14.209  1.00  0.00     0.140 C 
ATOM     14  O   UNL     1      17.204  27.208  13.068  1.00  0.00    -0.299 OA
BRANCH  13  15
ATOM     15  C   UNL     1      16.160  28.104  14.973  1.00  0.00     0.106 CG0
ATOM     16  G   UNL     1      14.851  28.512  14.316  1.00  0.00     0.000 G0
ENDBRANCH  13  15
ENDBRANCH  12  13
BRANCH  12  17
ATOM     17  C   UNL     1      18.486  25.121  14.766  1.00  0.00    -0.006 C 
ATOM     18  C   UNL     1      18.889  24.373  13.484  1.00  0.00     0.008 C 
ATOM     19  C   UNL     1      18.861  24.287  16.003  1.00  0.00     0.008 C 
ENDBRANCH  12  17
ENDBRANCH  11  12
ENDBRANCH   1  11
TORSDOF 1
ENDMDL
MODEL 3
REMARK VINA RESULT:    -2.652     14.658     16.740
REMARK INTER + INTRA:          -4.496
REMARK INTER:                  -4.481
REMARK INTRA:                  -0.015
REMARK UNBOUND:                -0.448
REMARK SMILES CC1=CCC[C@@H](C)C(=O)C[C@@H](C(C)C)C(=O)C1
REMARK SMILES IDX 8 1 9 2 6 3 7 4 5 5 4 6 3 7 2 8 1 9 10 11 11 12 15 13 16 14
REMARK SMILES IDX 17 15 12 17 13 18 14 19
REMARK H PARENT
REMARK Flexibility Score: 70.00
ROOT
ATOM      1  C   UNL     1      14.421  14.633  14.875  1.00  0.00     0.136 C 
ATOM      2  O   UNL     1      13.474  15.334  14.548  1.00  0.00    -0.299 OA
ENDROOT
BRANCH   1   3
ATOM      3  C   UNL     1      14.264  13.123  14.787  1.00  0.00     0.053 C 
ATOM      4  C   UNL     1      14.407  12.495  16.180  1.00  0.00     0.016 C 
BRANCH   3   5
ATOM      5  C   UNL     1      15.300  12.523  13.815  1.00  0.00     0.015 C 
BRANCH   5   6
ATOM      6  C   UNL     1      16.338  11.630  14.516  1.00  0.00     0.028 C 
BRANCH   6   7
ATOM      7  C   UNL     1      17.712  11.788  13.910  1.00  0.00    -0.028 C 
ATOM      8  C   UNL     1      18.602  12.772  14.181  1.00  0.00    -0.070 CG0
ATOM      9  C   UNL     1      19.920  12.744  13.448  1.00  0.00     0.039 C 
ATOM     10  G   UNL     1      18.337  13.922  15.139  1.00  0.00     0.000 G0
ENDBRANCH   6   7
ENDBRANCH   5   6
ENDBRANCH   3   5
ENDBRANCH   1   3
BRANCH   1  11
ATOM     11  C   UNL     1      15.641  15.329  15.451  1.00  0.00     0.087 C 
BRANCH  11  12
ATOM     12  C   UNL     1      16.662  15.891  14.425  1.00  0.00     0.066 C 
BRANCH  12  13
ATOM     13  C   UNL     1      18.028  15.209  14.432  1.00  0.00     0.140 C 
ATOM     14  O   UNL     1      18.953  15.778  13.865  1.00  0.00    -0.299 OA
BRANCH  13  15
ATOM     15  C   UNL     1      18.331  13.913  15.153  1.00  0.00     0.106 CG0
ATOM     16  G   UNL     1      18.619  12.794  14.165  1.00  0.00     0.000 G0
ENDBRANCH  13  15
ENDBRANCH  12  13
BRANCH  12  17
ATOM     17  C   UNL     1      16.794  17.443  14.541  1.00  0.00    -0.006 C 
ATOM     18  C   UNL     1      17.312  17.874  15.923  1.00  0.00     0.008 C 
ATOM     19  C   UNL     1      15.494  18.194  14.207  1.00  0.00     0.008 C 
ENDBRANCH  12  17
ENDBRANCH  11  12
ENDBRANCH   1  11
TORSDOF 1
ENDMDL
MODEL 4
REMARK VINA RESULT:    -2.561      1.972      4.343
REMARK INTER + INTRA:          -4.357
REMARK INTER:                  -4.504
REMARK INTRA:                   0.148
REMARK UNBOUND:                -0.448
REMARK SMILES CC1=CCC[C@@H](C)C(=O)C[C@@H](C(C)C)C(=O)C1
REMARK SMILES IDX 8 1 9 2 6 3 7 4 5 5 4 6 3 7 2 8 1 9 10 11 11 12 15 13 16 14
REMARK SMILES IDX 17 15 12 17 13 18 14 19
REMARK H PARENT
REMARK Flexibility Score: 70.00
ROOT
ATOM      1  C   UNL     1       5.779  29.061  16.682  1.00  0.00     0.136 C 
ATOM      2  O   UNL     1       5.357  29.628  17.680  1.00  0.00    -0.299 OA
ENDROOT
BRANCH   1   3
ATOM      3  C   UNL     1       7.282  28.885  16.535  1.00  0.00     0.053 C 
ATOM      4  C   UNL     1       7.968  30.255  16.446  1.00  0.00     0.016 C 
BRANCH   3   5
ATOM      5  C   UNL     1       7.613  28.034  15.292  1.00  0.00     0.015 C 
BRANCH   5   6
ATOM      6  C   UNL     1       7.560  26.521  15.566  1.00  0.00     0.028 C 
BRANCH   6   7
ATOM      7  C   UNL     1       6.658  25.807  14.587  1.00  0.00    -0.028 C 
ATOM      8  C   UNL     1       5.384  25.407  14.811  1.00  0.00    -0.070 CG0
ATOM      9  C   UNL     1       4.667  24.696  13.690  1.00  0.00     0.039 C 
ATOM     10  G   UNL     1       4.652  25.589  16.131  1.00  0.00     0.000 G0
ENDBRANCH   6   7
ENDBRANCH   5   6
ENDBRANCH   3   5
ENDBRANCH   1   3
BRANCH   1  11
ATOM     11  C   UNL     1       4.770  28.678  15.614  1.00  0.00     0.087 C 
BRANCH  11  12
ATOM     12  C   UNL     1       3.464  27.999  16.113  1.00  0.00     0.066 C 
BRANCH  12  13
ATOM     13  C   UNL     1       3.434  26.479  15.977  1.00  0.00     0.140 C 
ATOM     14  O   UNL     1       2.373  25.955  15.662  1.00  0.00    -0.299 OA
BRANCH  13  15
ATOM     15  C   UNL     1       4.644  25.584  16.135  1.00  0.00     0.106 CG0
ATOM     16  G   UNL     1       5.373  25.411  14.812  1.00  0.00     0.000 G0
ENDBRANCH  13  15
ENDBRANCH  12  13
BRANCH  12  17
ATOM     17  C   UNL     1       2.199  28.658  15.477  1.00  0.00    -0.006 C 
ATOM     18  C   UNL     1       2.555  29.896  14.638  1.00  0.00     0.008 C 
ATOM     19  C   UNL     1       1.112  29.013  16.506  1.00  0.00     0.008 C 
ENDBRANCH  12  17
ENDBRANCH  11  12
ENDBRANCH   1  11
TORSDOF 1
ENDMDL
MODEL 5
REMARK VINA RESULT:    -2.553      1.935      4.337
REMARK INTER + INTRA:          -4.344
REMARK INTER:                  -4.330
REMARK INTRA:                  -0.014
REMARK UNBOUND:                -0.448
REMARK SMILES CC1=CCC[C@@H](C)C(=O)C[C@@H](C(C)C)C(=O)C1
REMARK SMILES IDX 8 1 9 2 6 3 7 4 5 5 4 6 3 7 2 8 1 9 10 11 11 12 15 13 16 14
REMARK SMILES IDX 17 15 12 17 13 18 14 19
REMARK H PARENT
REMARK Flexibility Score: 70.00
ROOT
ATOM      1  C   UNL     1       5.169  25.904  15.533  1.00  0.00     0.136 C 
ATOM      2  O   UNL     1       4.644  24.826  15.773  1.00  0.00    -0.299 OA
ENDROOT
BRANCH   1   3
ATOM      3  C   UNL     1       6.041  26.018  14.292  1.00  0.00     0.053 C 
ATOM      4  C   UNL     1       5.421  25.223  13.135  1.00  0.00     0.016 C 
BRANCH   3   5
ATOM      5  C   UNL     1       7.472  25.521  14.583  1.00  0.00     0.015 C 
BRANCH   5   6
ATOM      6  C   UNL     1       8.377  26.607  15.187  1.00  0.00     0.028 C 
BRANCH   6   7
ATOM      7  C   UNL     1       8.238  27.921  14.456  1.00  0.00    -0.028 C 
ATOM      8  C   UNL     1       7.955  29.124  15.009  1.00  0.00    -0.070 CG0
ATOM      9  C   UNL     1       7.850  30.312  14.085  1.00  0.00     0.039 C 
ATOM     10  G   UNL     1       7.692  29.341  16.491  1.00  0.00     0.000 G0
ENDBRANCH   6   7
ENDBRANCH   5   6
ENDBRANCH   3   5
ENDBRANCH   1   3
BRANCH   1  11
ATOM     11  C   UNL     1       4.998  27.011  16.556  1.00  0.00     0.087 C 
BRANCH  11  12
ATOM     12  C   UNL     1       5.206  28.462  16.043  1.00  0.00     0.066 C 
BRANCH  12  13
ATOM     13  C   UNL     1       6.225  29.286  16.827  1.00  0.00     0.140 C 
ATOM     14  O   UNL     1       5.831  29.885  17.819  1.00  0.00    -0.299 OA
BRANCH  13  15
ATOM     15  C   UNL     1       7.701  29.351  16.501  1.00  0.00     0.106 CG0
ATOM     16  G   UNL     1       7.944  29.119  15.018  1.00  0.00     0.000 G0
ENDBRANCH  13  15
ENDBRANCH  12  13
BRANCH  12  17
ATOM     17  C   UNL     1       3.847  29.217  15.896  1.00  0.00    -0.006 C 
ATOM     18  C   UNL     1       2.667  28.386  16.426  1.00  0.00     0.008 C 
ATOM     19  C   UNL     1       3.559  29.686  14.460  1.00  0.00     0.008 C 
ENDBRANCH  12  17
ENDBRANCH  11  12
ENDBRANCH   1  11
TORSDOF 1
ENDMDL
MODEL 6
REMARK VINA RESULT:    -2.491      2.232      3.558
REMARK INTER + INTRA:          -4.249
REMARK INTER:                  -4.010
REMARK INTRA:                  -0.239
REMARK UNBOUND:                -0.448
REMARK SMILES CC1=CCC[C@@H](C)C(=O)C[C@@H](C(C)C)C(=O)C1
REMARK SMILES IDX 8 1 9 2 6 3 7 4 5 5 4 6 3 7 2 8 1 9 10 11 11 12 15 13 16 14
REMARK SMILES IDX 17 15 12 17 13 18 14 19
REMARK H PARENT
REMARK Flexibility Score: 70.00
ROOT
ATOM      1  C   UNL     1       6.590  26.731  16.172  1.00  0.00     0.136 C 
ATOM      2  O   UNL     1       6.632  26.852  17.388  1.00  0.00    -0.299 OA
ENDROOT
BRANCH   1   3
ATOM      3  C   UNL     1       5.848  25.536  15.593  1.00  0.00     0.053 C 
ATOM      4  C   UNL     1       6.017  25.497  14.069  1.00  0.00     0.016 C 
BRANCH   3   5
ATOM      5  C   UNL     1       4.353  25.588  15.969  1.00  0.00     0.015 C 
BRANCH   5   6
ATOM      6  C   UNL     1       3.465  26.129  14.836  1.00  0.00     0.028 C 
BRANCH   6   7
ATOM      7  C   UNL     1       3.090  27.575  15.060  1.00  0.00    -0.028 C 
ATOM      8  C   UNL     1       3.652  28.652  14.464  1.00  0.00    -0.070 CG0
ATOM      9  C   UNL     1       3.129  30.015  14.847  1.00  0.00     0.039 C 
ATOM     10  G   UNL     1       4.803  28.578  13.473  1.00  0.00     0.000 G0
ENDBRANCH   6   7
ENDBRANCH   5   6
ENDBRANCH   3   5
ENDBRANCH   1   3
BRANCH   1  11
ATOM     11  C   UNL     1       7.380  27.725  15.341  1.00  0.00     0.087 C 
BRANCH  11  12
ATOM     12  C   UNL     1       6.772  29.149  15.209  1.00  0.00     0.066 C 
BRANCH  12  13
ATOM     13  C   UNL     1       6.000  29.406  13.918  1.00  0.00     0.140 C 
ATOM     14  O   UNL     1       6.410  30.286  13.173  1.00  0.00    -0.299 OA
BRANCH  13  15
ATOM     15  C   UNL     1       4.804  28.596  13.465  1.00  0.00     0.106 CG0
ATOM     16  G   UNL     1       3.676  28.672  14.482  1.00  0.00     0.000 G0
ENDBRANCH  13  15
ENDBRANCH  12  13
BRANCH  12  17
ATOM     17  C   UNL     1       7.846  30.254  15.466  1.00  0.00    -0.006 C 
ATOM     18  C   UNL     1       9.276  29.720  15.285  1.00  0.00     0.008 C 
ATOM     19  C   UNL     1       7.707  30.936  16.838  1.00  0.00     0.008 C 
ENDBRANCH  12  17
ENDBRANCH  11  12
ENDBRANCH   1  11
TORSDOF 1
ENDMDL
MODEL 7
REMARK VINA RESULT:    -2.241      1.673      3.793
REMARK INTER + INTRA:          -3.869
REMARK INTER:                  -4.208
REMARK INTRA:                   0.339
REMARK UNBOUND:                -0.448
REMARK SMILES CC1=CCC[C@@H](C)C(=O)C[C@@H](C(C)C)C(=O)C1
REMARK SMILES IDX 8 1 9 2 6 3 7 4 5 5 4 6 3 7 2 8 1 9 10 11 11 12 15 13 16 14
REMARK SMILES IDX 17 15 12 17 13 18 14 19
REMARK H PARENT
REMARK Flexibility Score: 70.00
ROOT
ATOM      1  C   UNL     1       6.426  28.655  16.697  1.00  0.00     0.136 C 
ATOM      2  O   UNL     1       5.315  28.818  17.181  1.00  0.00    -0.299 OA
ENDROOT
BRANCH   1   3
ATOM      3  C   UNL     1       7.137  29.861  16.103  1.00  0.00     0.053 C 
ATOM      4  C   UNL     1       6.791  29.997  14.614  1.00  0.00     0.016 C 
BRANCH   3   5
ATOM      5  C   UNL     1       8.663  29.744  16.295  1.00  0.00     0.015 C 
BRANCH   5   6
ATOM      6  C   UNL     1       9.421  29.529  14.974  1.00  0.00     0.028 C 
BRANCH   6   7
ATOM      7  C   UNL     1      10.060  28.162  14.911  1.00  0.00    -0.028 C 
ATOM      8  C   UNL     1       9.530  27.052  14.346  1.00  0.00    -0.070 CG0
ATOM      9  C   UNL     1      10.340  25.781  14.408  1.00  0.00     0.039 C 
ATOM     10  G   UNL     1       8.156  26.998  13.696  1.00  0.00     0.000 G0
ENDBRANCH   6   7
ENDBRANCH   5   6
ENDBRANCH   3   5
ENDBRANCH   1   3
BRANCH   1  11
ATOM     11  C   UNL     1       6.959  27.235  16.629  1.00  0.00     0.087 C 
BRANCH  11  12
ATOM     12  C   UNL     1       6.335  26.317  15.542  1.00  0.00     0.066 C 
BRANCH  12  13
ATOM     13  C   UNL     1       7.253  25.992  14.366  1.00  0.00     0.140 C 
ATOM     14  O   UNL     1       7.210  24.859  13.905  1.00  0.00    -0.299 OA
BRANCH  13  15
ATOM     15  C   UNL     1       8.158  26.998  13.688  1.00  0.00     0.106 CG0
ATOM     16  G   UNL     1       9.520  27.049  14.361  1.00  0.00     0.000 G0
ENDBRANCH  13  15
ENDBRANCH  12  13
BRANCH  12  17
ATOM     17  C   UNL     1       4.953  26.860  15.060  1.00  0.00    -0.006 C 
ATOM     18  C   UNL     1       3.785  26.007  15.583  1.00  0.00     0.008 C 
ATOM     19  C   UNL     1       4.853  27.011  13.532  1.00  0.00     0.008 C 
ENDBRANCH  12  17
ENDBRANCH  11  12
ENDBRANCH   1  11
TORSDOF 1
ENDMDL
MODEL 8
REMARK VINA RESULT:    -2.213      3.349      5.222
REMARK INTER + INTRA:          -3.825
REMARK INTER:                  -3.899
REMARK INTRA:                   0.074
REMARK UNBOUND:                -0.448
REMARK SMILES CC1=CCC[C@@H](C)C(=O)C[C@@H](C(C)C)C(=O)C1
REMARK SMILES IDX 8 1 9 2 6 3 7 4 5 5 4 6 3 7 2 8 1 9 10 11 11 12 15 13 16 14
REMARK SMILES IDX 17 15 12 17 13 18 14 19
REMARK H PARENT
REMARK Flexibility Score: 70.00
ROOT
ATOM      1  C   UNL     1       3.947  24.693  16.277  1.00  0.00     0.136 C 
ATOM      2  O   UNL     1       4.266  23.713  15.618  1.00  0.00    -0.299 OA
ENDROOT
BRANCH   1   3
ATOM      3  C   UNL     1       2.540  24.745  16.852  1.00  0.00     0.053 C 
ATOM      4  C   UNL     1       2.449  23.865  18.106  1.00  0.00     0.016 C 
BRANCH   3   5
ATOM      5  C   UNL     1       1.504  24.294  15.801  1.00  0.00     0.015 C 
BRANCH   5   6
ATOM      6  C   UNL     1       1.212  25.371  14.742  1.00  0.00     0.028 C 
BRANCH   6   7
ATOM      7  C   UNL     1       0.983  26.726  15.371  1.00  0.00    -0.028 C 
ATOM      8  C   UNL     1       1.615  27.878  15.049  1.00  0.00    -0.070 CG0
ATOM      9  C   UNL     1       1.239  29.121  15.818  1.00  0.00     0.039 C 
ATOM     10  G   UNL     1       2.708  27.988  13.997  1.00  0.00     0.000 G0
ENDBRANCH   6   7
ENDBRANCH   5   6
ENDBRANCH   3   5
ENDBRANCH   1   3
BRANCH   1  11
ATOM     11  C   UNL     1       4.947  25.830  16.373  1.00  0.00     0.087 C 
BRANCH  11  12
ATOM     12  C   UNL     1       4.452  27.225  15.901  1.00  0.00     0.066 C 
BRANCH  12  13
ATOM     13  C   UNL     1       3.978  27.286  14.452  1.00  0.00     0.140 C 
ATOM     14  O   UNL     1       4.629  26.678  13.612  1.00  0.00    -0.299 OA
BRANCH  13  15
ATOM     15  C   UNL     1       2.718  27.990  13.996  1.00  0.00     0.106 CG0
ATOM     16  G   UNL     1       1.625  27.891  15.048  1.00  0.00     0.000 G0
ENDBRANCH  13  15
ENDBRANCH  12  13
BRANCH  12  17
ATOM     17  C   UNL     1       5.502  28.339  16.211  1.00  0.00    -0.006 C 
ATOM     18  C   UNL     1       6.901  27.755  16.466  1.00  0.00     0.008 C 
ATOM     19  C   UNL     1       5.094  29.259  17.373  1.00  0.00     0.008 C 
ENDBRANCH  12  17
ENDBRANCH  11  12
ENDBRANCH   1  11
TORSDOF 1
ENDMDL
MODEL 9
REMARK VINA RESULT:    -2.101      1.723      4.047
REMARK INTER + INTRA:          -3.655
REMARK INTER:                  -3.615
REMARK INTRA:                  -0.041
REMARK UNBOUND:                -0.448
REMARK SMILES CC1=CCC[C@@H](C)C(=O)C[C@@H](C(C)C)C(=O)C1
REMARK SMILES IDX 8 1 9 2 6 3 7 4 5 5 4 6 3 7 2 8 1 9 10 11 11 12 15 13 16 14
REMARK SMILES IDX 17 15 12 17 13 18 14 19
REMARK H PARENT
REMARK Flexibility Score: 70.00
ROOT
ATOM      1  C   UNL     1       6.648  27.499  16.294  1.00  0.00     0.136 C 
ATOM      2  O   UNL     1       7.175  27.127  17.333  1.00  0.00    -0.299 OA
ENDROOT
BRANCH   1   3
ATOM      3  C   UNL     1       6.425  28.990  16.094  1.00  0.00     0.053 C 
ATOM      4  C   UNL     1       5.791  29.602  17.350  1.00  0.00     0.016 C 
BRANCH   3   5
ATOM      5  C   UNL     1       5.535  29.248  14.860  1.00  0.00     0.015 C 
BRANCH   5   6
ATOM      6  C   UNL     1       6.331  29.718  13.631  1.00  0.00     0.028 C 
BRANCH   6   7
ATOM      7  C   UNL     1       7.801  29.876  13.943  1.00  0.00    -0.028 C 
ATOM      8  C   UNL     1       8.775  28.967  13.705  1.00  0.00    -0.070 CG0
ATOM      9  C   UNL     1      10.183  29.329  14.110  1.00  0.00     0.039 C 
ATOM     10  G   UNL     1       8.533  27.593  13.100  1.00  0.00     0.000 G0
ENDBRANCH   6   7
ENDBRANCH   5   6
ENDBRANCH   3   5
ENDBRANCH   1   3
BRANCH   1  11
ATOM     11  C   UNL     1       6.157  26.430  15.335  1.00  0.00     0.087 C 
BRANCH  11  12
ATOM     12  C   UNL     1       7.248  25.688  14.514  1.00  0.00     0.066 C 
BRANCH  12  13
ATOM     13  C   UNL     1       8.484  26.519  14.181  1.00  0.00     0.140 C 
ATOM     14  O   UNL     1       9.521  26.265  14.779  1.00  0.00    -0.299 OA
BRANCH  13  15
ATOM     15  C   UNL     1       8.529  27.588  13.110  1.00  0.00     0.106 CG0
ATOM     16  G   UNL     1       8.775  28.960  13.718  1.00  0.00     0.000 G0
ENDBRANCH  13  15
ENDBRANCH  12  13
BRANCH  12  17
ATOM     17  C   UNL     1       6.645  25.017  13.239  1.00  0.00    -0.006 C 
ATOM     18  C   UNL     1       5.222  25.518  12.943  1.00  0.00     0.008 C 
ATOM     19  C   UNL     1       6.664  23.480  13.289  1.00  0.00     0.008 C 
ENDBRANCH  12  17
ENDBRANCH  11  12
ENDBRANCH   1  11
TORSDOF 1
ENDMDL
