MODEL 1
REMARK VINA RESULT:     0.000      0.000      0.000
REMARK INTER + INTRA:          -0.509
REMARK INTER:                   0.000
REMARK INTRA:                  -0.509
REMARK UNBOUND:                -0.509
REMARK SMILES CC1=CCC[C@H](C)C(=O)C[C@H](C(C)C)C(=O)C1
REMARK SMILES IDX 8 1 9 2 6 3 7 4 5 5 4 6 3 7 2 8 1 9 10 11 11 12 15 13 16 14
REMARK SMILES IDX 17 15 12 17 13 18 14 19
REMARK H PARENT
REMARK Flexibility Score: 70.00
ROOT
ATOM      1  C   UNL     1     124.319 125.409 132.051  1.00  0.00     0.136 C 
ATOM      2  O   UNL     1     123.465 124.756 131.466  1.00  0.00    -0.299 OA
ENDROOT
BRANCH   1   3
ATOM      3  C   UNL     1     123.878 126.567 132.930  1.00  0.00     0.053 C 
ATOM      4  C   UNL     1     123.087 127.571 132.083  1.00  0.00     0.016 C 
BRANCH   3   5
ATOM      5  C   UNL     1     123.047 126.120 134.162  1.00  0.00     0.015 C 
BRANCH   5   6
ATOM      6  C   UNL     1     123.739 125.131 135.125  1.00  0.00     0.028 C 
BRANCH   6   7
ATOM      7  C   UNL     1     124.786 125.704 136.051  1.00  0.00    -0.028 C 
ATOM      8  C   UNL     1     126.097 125.370 136.071  1.00  0.00    -0.070 CG0
ATOM      9  C   UNL     1     126.918 125.869 137.236  1.00  0.00     0.039 C 
ATOM     10  G   UNL     1     126.752 124.481 135.026  1.00  0.00     0.000 G0
ENDBRANCH   6   7
ENDBRANCH   5   6
ENDBRANCH   3   5
ENDBRANCH   1   3
BRANCH   1  11
ATOM     11  C   UNL     1     125.762 124.952 131.998  1.00  0.00     0.087 C 
BRANCH  11  12
ATOM     12  C   UNL     1     126.760 125.889 132.732  1.00  0.00     0.066 C 
BRANCH  12  13
ATOM     13  C   UNL     1     127.456 125.289 133.954  1.00  0.00     0.140 C 
ATOM     14  O   UNL     1     128.658 125.476 134.072  1.00  0.00    -0.299 OA
BRANCH  13  15
ATOM     15  C   UNL     1     126.757 124.472 135.021  1.00  0.00     0.106 CG0
ATOM     16  G   UNL     1     126.099 125.368 136.058  1.00  0.00     0.000 G0
ENDBRANCH  13  15
ENDBRANCH  12  13
BRANCH  12  17
ATOM     17  C   UNL     1     127.781 126.502 131.720  1.00  0.00    -0.006 C 
ATOM     18  C   UNL     1     127.672 128.033 131.602  1.00  0.00     0.008 C 
ATOM     19  C   UNL     1     127.673 125.858 130.329  1.00  0.00     0.008 C 
ENDBRANCH  12  17
ENDBRANCH  11  12
ENDBRANCH   1  11
TORSDOF 1
ENDMDL
MODEL 2
REMARK VINA RESULT:     0.009      8.424     10.803
REMARK INTER + INTRA:          -0.496
REMARK INTER:                   0.000
REMARK INTRA:                  -0.496
REMARK UNBOUND:                -0.509
REMARK SMILES CC1=CCC[C@H](C)C(=O)C[C@H](C(C)C)C(=O)C1
REMARK SMILES IDX 8 1 9 2 6 3 7 4 5 5 4 6 3 7 2 8 1 9 10 11 11 12 15 13 16 14
REMARK SMILES IDX 17 15 12 17 13 18 14 19
REMARK H PARENT
REMARK Flexibility Score: 70.00
ROOT
ATOM      1  C   UNL     1     136.633 130.886 133.480  1.00  0.00     0.136 C 
ATOM      2  O   UNL     1     137.451 131.047 132.585  1.00  0.00    -0.299 OA
ENDROOT
BRANCH   1   3
ATOM      3  C   UNL     1     135.657 132.009 133.789  1.00  0.00     0.053 C 
ATOM      4  C   UNL     1     136.425 133.334 133.881  1.00  0.00     0.016 C 
BRANCH   3   5
ATOM      5  C   UNL     1     134.502 132.119 132.760  1.00  0.00     0.015 C 
BRANCH   5   6
ATOM      6  C   UNL     1     133.178 131.427 133.148  1.00  0.00     0.028 C 
BRANCH   6   7
ATOM      7  C   UNL     1     132.914 130.073 132.532  1.00  0.00    -0.028 C 
ATOM      8  C   UNL     1     132.899 128.890 133.189  1.00  0.00    -0.070 CG0
ATOM      9  C   UNL     1     132.868 127.635 132.349  1.00  0.00     0.039 C 
ATOM     10  G   UNL     1     132.973 128.771 134.703  1.00  0.00     0.000 G0
ENDBRANCH   6   7
ENDBRANCH   5   6
ENDBRANCH   3   5
ENDBRANCH   1   3
BRANCH   1  11
ATOM     11  C   UNL     1     136.521 129.529 134.144  1.00  0.00     0.087 C 
BRANCH  11  12
ATOM     12  C   UNL     1     135.503 129.466 135.313  1.00  0.00     0.066 C 
BRANCH  12  13
ATOM     13  C   UNL     1     134.385 128.434 135.165  1.00  0.00     0.140 C 
ATOM     14  O   UNL     1     134.650 127.269 135.423  1.00  0.00    -0.299 OA
BRANCH  13  15
ATOM     15  C   UNL     1     132.977 128.757 134.711  1.00  0.00     0.106 CG0
ATOM     16  G   UNL     1     132.900 128.878 133.197  1.00  0.00     0.000 G0
ENDBRANCH  13  15
ENDBRANCH  12  13
BRANCH  12  17
ATOM     17  C   UNL     1     136.247 129.330 136.681  1.00  0.00    -0.006 C 
ATOM     18  C   UNL     1     136.263 130.636 137.495  1.00  0.00     0.008 C 
ATOM     19  C   UNL     1     137.679 128.799 136.509  1.00  0.00     0.008 C 
ENDBRANCH  12  17
ENDBRANCH  11  12
ENDBRANCH   1  11
TORSDOF 1
ENDMDL
MODEL 3
REMARK VINA RESULT:     0.027     10.795     13.322
REMARK INTER + INTRA:          -0.468
REMARK INTER:                   0.000
REMARK INTRA:                  -0.468
REMARK UNBOUND:                -0.509
REMARK SMILES CC1=CCC[C@H](C)C(=O)C[C@H](C(C)C)C(=O)C1
REMARK SMILES IDX 8 1 9 2 6 3 7 4 5 5 4 6 3 7 2 8 1 9 10 11 11 12 15 13 16 14
REMARK SMILES IDX 17 15 12 17 13 18 14 19
REMARK H PARENT
REMARK Flexibility Score: 70.00
ROOT
ATOM      1  C   UNL     1     135.669 134.411 136.642  1.00  0.00     0.136 C 
ATOM      2  O   UNL     1     136.852 134.103 136.659  1.00  0.00    -0.299 OA
ENDROOT
BRANCH   1   3
ATOM      3  C   UNL     1     135.287 135.860 136.896  1.00  0.00     0.053 C 
ATOM      4  C   UNL     1     135.686 136.243 138.326  1.00  0.00     0.016 C 
BRANCH   3   5
ATOM      5  C   UNL     1     135.910 136.847 135.874  1.00  0.00     0.015 C 
BRANCH   5   6
ATOM      6  C   UNL     1     135.403 136.728 134.420  1.00  0.00     0.028 C 
BRANCH   6   7
ATOM      7  C   UNL     1     133.957 137.088 134.173  1.00  0.00    -0.028 C 
ATOM      8  C   UNL     1     132.990 136.244 133.746  1.00  0.00    -0.070 CG0
ATOM      9  C   UNL     1     131.677 136.858 133.321  1.00  0.00     0.039 C 
ATOM     10  G   UNL     1     133.184 134.741 133.619  1.00  0.00     0.000 G0
ENDBRANCH   6   7
ENDBRANCH   5   6
ENDBRANCH   3   5
ENDBRANCH   1   3
BRANCH   1  11
ATOM     11  C   UNL     1     134.642 133.378 136.224  1.00  0.00     0.087 C 
BRANCH  11  12
ATOM     12  C   UNL     1     133.185 133.908 136.165  1.00  0.00     0.066 C 
BRANCH  12  13
ATOM     13  C   UNL     1     132.566 133.991 134.769  1.00  0.00     0.140 C 
ATOM     14  O   UNL     1     131.509 133.408 134.581  1.00  0.00    -0.299 OA
BRANCH  13  15
ATOM     15  C   UNL     1     133.180 134.740 133.605  1.00  0.00     0.106 CG0
ATOM     16  G   UNL     1     132.992 136.242 133.755  1.00  0.00     0.000 G0
ENDBRANCH  13  15
ENDBRANCH  12  13
BRANCH  12  17
ATOM     17  C   UNL     1     132.274 133.119 137.161  1.00  0.00    -0.006 C 
ATOM     18  C   UNL     1     131.391 134.034 138.029  1.00  0.00     0.008 C 
ATOM     19  C   UNL     1     133.086 132.168 138.056  1.00  0.00     0.008 C 
ENDBRANCH  12  17
ENDBRANCH  11  12
ENDBRANCH   1  11
TORSDOF 1
ENDMDL
MODEL 4
REMARK VINA RESULT:     0.027     10.760     13.066
REMARK INTER + INTRA:          -0.468
REMARK INTER:                   0.000
REMARK INTRA:                  -0.468
REMARK UNBOUND:                -0.509
REMARK SMILES CC1=CCC[C@H](C)C(=O)C[C@H](C(C)C)C(=O)C1
REMARK SMILES IDX 8 1 9 2 6 3 7 4 5 5 4 6 3 7 2 8 1 9 10 11 11 12 15 13 16 14
REMARK SMILES IDX 17 15 12 17 13 18 14 19
REMARK H PARENT
REMARK Flexibility Score: 70.00
ROOT
ATOM      1  C   UNL     1     134.932 135.344 136.932  1.00  0.00     0.136 C 
ATOM      2  O   UNL     1     136.014 135.450 136.372  1.00  0.00    -0.299 OA
ENDROOT
BRANCH   1   3
ATOM      3  C   UNL     1     134.321 136.574 137.582  1.00  0.00     0.053 C 
ATOM      4  C   UNL     1     135.221 137.036 138.734  1.00  0.00     0.016 C 
BRANCH   3   5
ATOM      5  C   UNL     1     134.073 137.735 136.584  1.00  0.00     0.015 C 
BRANCH   5   6
ATOM      6  C   UNL     1     132.997 137.487 135.505  1.00  0.00     0.028 C 
BRANCH   6   7
ATOM      7  C   UNL     1     131.572 137.346 135.988  1.00  0.00    -0.028 C 
ATOM      8  C   UNL     1     130.805 136.236 135.886  1.00  0.00    -0.070 CG0
ATOM      9  C   UNL     1     129.334 136.384 136.198  1.00  0.00     0.039 C 
ATOM     10  G   UNL     1     131.336 134.890 135.422  1.00  0.00     0.000 G0
ENDBRANCH   6   7
ENDBRANCH   5   6
ENDBRANCH   3   5
ENDBRANCH   1   3
BRANCH   1  11
ATOM     11  C   UNL     1     134.174 134.036 136.831  1.00  0.00     0.087 C 
BRANCH  11  12
ATOM     12  C   UNL     1     132.780 134.046 137.514  1.00  0.00     0.066 C 
BRANCH  12  13
ATOM     13  C   UNL     1     131.579 133.950 136.573  1.00  0.00     0.140 C 
ATOM     14  O   UNL     1     130.776 133.049 136.767  1.00  0.00    -0.299 OA
BRANCH  13  15
ATOM     15  C   UNL     1     131.326 134.888 135.411  1.00  0.00     0.106 CG0
ATOM     16  G   UNL     1     130.811 136.235 135.893  1.00  0.00     0.000 G0
ENDBRANCH  13  15
ENDBRANCH  12  13
BRANCH  12  17
ATOM     17  C   UNL     1     132.718 132.975 138.651  1.00  0.00    -0.006 C 
ATOM     18  C   UNL     1     132.133 133.520 139.966  1.00  0.00     0.008 C 
ATOM     19  C   UNL     1     134.090 132.332 138.912  1.00  0.00     0.008 C 
ENDBRANCH  12  17
ENDBRANCH  11  12
ENDBRANCH   1  11
TORSDOF 1
ENDMDL
MODEL 5
REMARK VINA RESULT:     0.031      5.893      8.194
REMARK INTER + INTRA:          -0.462
REMARK INTER:                   0.000
REMARK INTRA:                  -0.462
REMARK UNBOUND:                -0.509
REMARK SMILES CC1=CCC[C@H](C)C(=O)C[C@H](C(C)C)C(=O)C1
REMARK SMILES IDX 8 1 9 2 6 3 7 4 5 5 4 6 3 7 2 8 1 9 10 11 11 12 15 13 16 14
REMARK SMILES IDX 17 15 12 17 13 18 14 19
REMARK H PARENT
REMARK Flexibility Score: 70.00
ROOT
ATOM      1  C   UNL     1     133.532 129.779 135.956  1.00  0.00     0.136 C 
ATOM      2  O   UNL     1     134.228 129.448 136.906  1.00  0.00    -0.299 OA
ENDROOT
BRANCH   1   3
ATOM      3  C   UNL     1     133.644 128.996 134.659  1.00  0.00     0.053 C 
ATOM      4  C   UNL     1     134.956 129.368 133.957  1.00  0.00     0.016 C 
BRANCH   3   5
ATOM      5  C   UNL     1     133.550 127.461 134.859  1.00  0.00     0.015 C 
BRANCH   5   6
ATOM      6  C   UNL     1     132.283 126.946 135.575  1.00  0.00     0.028 C 
BRANCH   6   7
ATOM      7  C   UNL     1     130.990 127.010 134.796  1.00  0.00    -0.028 C 
ATOM      8  C   UNL     1     129.900 127.741 135.123  1.00  0.00    -0.070 CG0
ATOM      9  C   UNL     1     128.629 127.468 134.354  1.00  0.00     0.039 C 
ATOM     10  G   UNL     1     129.883 128.762 136.250  1.00  0.00     0.000 G0
ENDBRANCH   6   7
ENDBRANCH   5   6
ENDBRANCH   3   5
ENDBRANCH   1   3
BRANCH   1  11
ATOM     11  C   UNL     1     132.483 130.855 136.149  1.00  0.00     0.087 C 
BRANCH  11  12
ATOM     12  C   UNL     1     131.294 130.781 135.153  1.00  0.00     0.066 C 
BRANCH  12  13
ATOM     13  C   UNL     1     130.001 130.184 135.708  1.00  0.00     0.140 C 
ATOM     14  O   UNL     1     129.008 130.895 135.723  1.00  0.00    -0.299 OA
BRANCH  13  15
ATOM     15  C   UNL     1     129.872 128.774 136.248  1.00  0.00     0.106 CG0
ATOM     16  G   UNL     1     129.906 127.749 135.125  1.00  0.00     0.000 G0
ENDBRANCH  13  15
ENDBRANCH  12  13
BRANCH  12  17
ATOM     17  C   UNL     1     131.055 132.171 134.481  1.00  0.00    -0.006 C 
ATOM     18  C   UNL     1     131.250 132.148 132.954  1.00  0.00     0.008 C 
ATOM     19  C   UNL     1     131.926 133.273 135.106  1.00  0.00     0.008 C 
ENDBRANCH  12  17
ENDBRANCH  11  12
ENDBRANCH   1  11
TORSDOF 1
ENDMDL
MODEL 6
REMARK VINA RESULT:     0.031      7.098      9.255
REMARK INTER + INTRA:          -0.462
REMARK INTER:                   0.000
REMARK INTRA:                  -0.462
REMARK UNBOUND:                -0.509
REMARK SMILES CC1=CCC[C@H](C)C(=O)C[C@H](C(C)C)C(=O)C1
REMARK SMILES IDX 8 1 9 2 6 3 7 4 5 5 4 6 3 7 2 8 1 9 10 11 11 12 15 13 16 14
REMARK SMILES IDX 17 15 12 17 13 18 14 19
REMARK H PARENT
REMARK Flexibility Score: 70.00
ROOT
ATOM      1  C   UNL     1     134.107 129.617 137.093  1.00  0.00     0.136 C 
ATOM      2  O   UNL     1     134.719 128.761 137.717  1.00  0.00    -0.299 OA
ENDROOT
BRANCH   1   3
ATOM      3  C   UNL     1     133.904 129.427 135.599  1.00  0.00     0.053 C 
ATOM      4  C   UNL     1     135.226 129.699 134.871  1.00  0.00     0.016 C 
BRANCH   3   5
ATOM      5  C   UNL     1     133.356 128.024 135.228  1.00  0.00     0.015 C 
BRANCH   5   6
ATOM      6  C   UNL     1     132.033 127.609 135.907  1.00  0.00     0.028 C 
BRANCH   6   7
ATOM      7  C   UNL     1     130.781 128.315 135.442  1.00  0.00    -0.028 C 
ATOM      8  C   UNL     1     129.986 129.105 136.200  1.00  0.00    -0.070 CG0
ATOM      9  C   UNL     1     128.652 129.505 135.615  1.00  0.00     0.039 C 
ATOM     10  G   UNL     1     130.343 129.547 137.611  1.00  0.00     0.000 G0
ENDBRANCH   6   7
ENDBRANCH   5   6
ENDBRANCH   3   5
ENDBRANCH   1   3
BRANCH   1  11
ATOM     11  C   UNL     1     133.448 130.752 137.849  1.00  0.00     0.087 C 
BRANCH  11  12
ATOM     12  C   UNL     1     132.241 131.398 137.117  1.00  0.00     0.066 C 
BRANCH  12  13
ATOM     13  C   UNL     1     130.860 130.983 137.624  1.00  0.00     0.140 C 
ATOM     14  O   UNL     1     130.133 131.857 138.073  1.00  0.00    -0.299 OA
BRANCH  13  15
ATOM     15  C   UNL     1     130.337 129.561 137.615  1.00  0.00     0.106 CG0
ATOM     16  G   UNL     1     129.994 129.110 136.204  1.00  0.00     0.000 G0
ENDBRANCH  13  15
ENDBRANCH  12  13
BRANCH  12  17
ATOM     17  C   UNL     1     132.401 132.951 137.061  1.00  0.00    -0.006 C 
ATOM     18  C   UNL     1     132.496 133.500 135.626  1.00  0.00     0.008 C 
ATOM     19  C   UNL     1     133.600 133.439 137.891  1.00  0.00     0.008 C 
ENDBRANCH  12  17
ENDBRANCH  11  12
ENDBRANCH   1  11
TORSDOF 1
ENDMDL
MODEL 7
REMARK VINA RESULT:     0.037      7.960     10.774
REMARK INTER + INTRA:          -0.453
REMARK INTER:                   0.000
REMARK INTRA:                  -0.453
REMARK UNBOUND:                -0.509
REMARK SMILES CC1=CCC[C@H](C)C(=O)C[C@H](C(C)C)C(=O)C1
REMARK SMILES IDX 8 1 9 2 6 3 7 4 5 5 4 6 3 7 2 8 1 9 10 11 11 12 15 13 16 14
REMARK SMILES IDX 17 15 12 17 13 18 14 19
REMARK H PARENT
REMARK Flexibility Score: 70.00
ROOT
ATOM      1  C   UNL     1     135.911 123.229 137.821  1.00  0.00     0.136 C 
ATOM      2  O   UNL     1     136.102 122.055 137.536  1.00  0.00    -0.299 OA
ENDROOT
BRANCH   1   3
ATOM      3  C   UNL     1     136.829 124.284 137.225  1.00  0.00     0.053 C 
ATOM      4  C   UNL     1     138.208 124.187 137.889  1.00  0.00     0.016 C 
BRANCH   3   5
ATOM      5  C   UNL     1     136.959 124.184 135.682  1.00  0.00     0.015 C 
BRANCH   5   6
ATOM      6  C   UNL     1     135.634 124.119 134.892  1.00  0.00     0.028 C 
BRANCH   6   7
ATOM      7  C   UNL     1     134.889 125.421 134.707  1.00  0.00    -0.028 C 
ATOM      8  C   UNL     1     133.657 125.706 135.187  1.00  0.00    -0.070 CG0
ATOM      9  C   UNL     1     132.992 126.963 134.677  1.00  0.00     0.039 C 
ATOM     10  G   UNL     1     132.902 124.803 136.149  1.00  0.00     0.000 G0
ENDBRANCH   6   7
ENDBRANCH   5   6
ENDBRANCH   3   5
ENDBRANCH   1   3
BRANCH   1  11
ATOM     11  C   UNL     1     134.687 123.604 138.631  1.00  0.00     0.087 C 
BRANCH  11  12
ATOM     12  C   UNL     1     134.233 125.079 138.466  1.00  0.00     0.066 C 
BRANCH  12  13
ATOM     13  C   UNL     1     133.010 125.301 137.576  1.00  0.00     0.140 C 
ATOM     14  O   UNL     1     132.062 125.906 138.054  1.00  0.00    -0.299 OA
BRANCH  13  15
ATOM     15  C   UNL     1     132.893 124.813 136.146  1.00  0.00     0.106 CG0
ATOM     16  G   UNL     1     133.667 125.711 135.193  1.00  0.00     0.000 G0
ENDBRANCH  13  15
ENDBRANCH  12  13
BRANCH  12  17
ATOM     17  C   UNL     1     134.071 125.761 139.863  1.00  0.00    -0.006 C 
ATOM     18  C   UNL     1     135.127 126.848 140.133  1.00  0.00     0.008 C 
ATOM     19  C   UNL     1     134.065 124.737 141.009  1.00  0.00     0.008 C 
ENDBRANCH  12  17
ENDBRANCH  11  12
ENDBRANCH   1  11
TORSDOF 1
ENDMDL
MODEL 8
REMARK VINA RESULT:     0.050      7.114      9.604
REMARK INTER + INTRA:          -0.432
REMARK INTER:                   0.000
REMARK INTRA:                  -0.432
REMARK UNBOUND:                -0.509
REMARK SMILES CC1=CCC[C@H](C)C(=O)C[C@H](C(C)C)C(=O)C1
REMARK SMILES IDX 8 1 9 2 6 3 7 4 5 5 4 6 3 7 2 8 1 9 10 11 11 12 15 13 16 14
REMARK SMILES IDX 17 15 12 17 13 18 14 19
REMARK H PARENT
REMARK Flexibility Score: 70.00
ROOT
ATOM      1  C   UNL     1     131.550 128.215 125.143  1.00  0.00     0.136 C 
ATOM      2  O   UNL     1     132.200 127.218 124.865  1.00  0.00    -0.299 OA
ENDROOT
BRANCH   1   3
ATOM      3  C   UNL     1     130.647 128.820 124.081  1.00  0.00     0.053 C 
ATOM      4  C   UNL     1     131.503 129.295 122.901  1.00  0.00     0.016 C 
BRANCH   3   5
ATOM      5  C   UNL     1     129.539 127.849 123.593  1.00  0.00     0.015 C 
BRANCH   5   6
ATOM      6  C   UNL     1     128.189 127.929 124.339  1.00  0.00     0.028 C 
BRANCH   6   7
ATOM      7  C   UNL     1     127.941 126.889 125.406  1.00  0.00    -0.028 C 
ATOM      8  C   UNL     1     127.887 127.115 126.739  1.00  0.00    -0.070 CG0
ATOM      9  C   UNL     1     127.883 125.905 127.644  1.00  0.00     0.039 C 
ATOM     10  G   UNL     1     127.894 128.505 127.355  1.00  0.00     0.000 G0
ENDBRANCH   6   7
ENDBRANCH   5   6
ENDBRANCH   3   5
ENDBRANCH   1   3
BRANCH   1  11
ATOM     11  C   UNL     1     131.551 128.723 126.571  1.00  0.00     0.087 C 
BRANCH  11  12
ATOM     12  C   UNL     1     130.316 129.584 126.948  1.00  0.00     0.066 C 
BRANCH  12  13
ATOM     13  C   UNL     1     129.272 128.896 127.828  1.00  0.00     0.140 C 
ATOM     14  O   UNL     1     129.581 128.639 128.982  1.00  0.00    -0.299 OA
BRANCH  13  15
ATOM     15  C   UNL     1     127.884 128.505 127.361  1.00  0.00     0.106 CG0
ATOM     16  G   UNL     1     127.883 127.115 126.745  1.00  0.00     0.000 G0
ENDBRANCH  13  15
ENDBRANCH  12  13
BRANCH  12  17
ATOM     17  C   UNL     1     130.766 130.958 127.542  1.00  0.00    -0.006 C 
ATOM     18  C   UNL     1     129.721 132.072 127.353  1.00  0.00     0.008 C 
ATOM     19  C   UNL     1     132.124 131.412 126.982  1.00  0.00     0.008 C 
ENDBRANCH  12  17
ENDBRANCH  11  12
ENDBRANCH   1  11
TORSDOF 1
ENDMDL
MODEL 9
REMARK VINA RESULT:     0.051      7.015      9.574
REMARK INTER + INTRA:          -0.431
REMARK INTER:                   0.000
REMARK INTRA:                  -0.431
REMARK UNBOUND:                -0.509
REMARK SMILES CC1=CCC[C@H](C)C(=O)C[C@H](C(C)C)C(=O)C1
REMARK SMILES IDX 8 1 9 2 6 3 7 4 5 5 4 6 3 7 2 8 1 9 10 11 11 12 15 13 16 14
REMARK SMILES IDX 17 15 12 17 13 18 14 19
REMARK H PARENT
REMARK Flexibility Score: 70.00
ROOT
ATOM      1  C   UNL     1     131.401 129.516 125.429  1.00  0.00     0.136 C 
ATOM      2  O   UNL     1     131.616 128.387 125.010  1.00  0.00    -0.299 OA
ENDROOT
BRANCH   1   3
ATOM      3  C   UNL     1     130.173 130.260 124.931  1.00  0.00     0.053 C 
ATOM      4  C   UNL     1     130.295 130.480 123.419  1.00  0.00     0.016 C 
BRANCH   3   5
ATOM      5  C   UNL     1     128.841 129.541 125.272  1.00  0.00     0.015 C 
BRANCH   5   6
ATOM      6  C   UNL     1     128.166 129.953 126.598  1.00  0.00     0.028 C 
BRANCH   6   7
ATOM      7  C   UNL     1     128.387 129.042 127.783  1.00  0.00    -0.028 C 
ATOM      8  C   UNL     1     129.119 129.333 128.883  1.00  0.00    -0.070 CG0
ATOM      9  C   UNL     1     129.421 128.195 129.830  1.00  0.00     0.039 C 
ATOM     10  G   UNL     1     129.692 130.711 129.169  1.00  0.00     0.000 G0
ENDBRANCH   6   7
ENDBRANCH   5   6
ENDBRANCH   3   5
ENDBRANCH   1   3
BRANCH   1  11
ATOM     11  C   UNL     1     132.276 130.072 126.534  1.00  0.00     0.087 C 
BRANCH  11  12
ATOM     12  C   UNL     1     131.618 131.203 127.368  1.00  0.00     0.066 C 
BRANCH  12  13
ATOM     13  C   UNL     1     131.142 130.805 128.765  1.00  0.00     0.140 C 
ATOM     14  O   UNL     1     131.993 130.536 129.600  1.00  0.00    -0.299 OA
BRANCH  13  15
ATOM     15  C   UNL     1     129.687 130.714 129.180  1.00  0.00     0.106 CG0
ATOM     16  G   UNL     1     129.119 129.334 128.890  1.00  0.00     0.000 G0
ENDBRANCH  13  15
ENDBRANCH  12  13
BRANCH  12  17
ATOM     17  C   UNL     1     132.538 132.466 127.402  1.00  0.00    -0.006 C 
ATOM     18  C   UNL     1     131.902 133.660 128.138  1.00  0.00     0.008 C 
ATOM     19  C   UNL     1     132.984 132.894 125.994  1.00  0.00     0.008 C 
ENDBRANCH  12  17
ENDBRANCH  11  12
ENDBRANCH   1  11
TORSDOF 1
ENDMDL
