MODEL 1
REMARK VINA RESULT:     5.167      0.000      0.000
REMARK INTER + INTRA:           7.053
REMARK INTER:                   7.282
REMARK INTRA:                  -0.229
REMARK UNBOUND:                -0.229
REMARK SMILES CCCCCCCCC(=O)[O-]
REMARK SMILES IDX 6 1 7 2 8 3 9 4 10 5 11 6 5 7 4 8 3 9 2 10 1 11
REMARK H PARENT
REMARK Flexibility Score: inf
ROOT
ATOM      1  C   UNL     1     -17.868  59.799  -2.731  1.00  0.00     0.000 C 
ENDROOT
BRANCH   1   2
ATOM      2  C   UNL     1     -18.376  60.870  -3.712  1.00  0.00     0.006 C 
BRANCH   2   3
ATOM      3  C   UNL     1     -19.125  62.001  -2.996  1.00  0.00     0.053 C 
BRANCH   3   4
ATOM      4  C   UNL     1     -18.710  63.349  -3.504  1.00  0.00     0.041 C 
ATOM      5  O   UNL     1     -18.020  64.113  -2.778  1.00  0.00    -0.550 OA
ATOM      6  O   UNL     1     -19.117  63.775  -4.762  1.00  0.00    -0.550 OA
ENDBRANCH   3   4
ENDBRANCH   2   3
ENDBRANCH   1   2
BRANCH   1   7
ATOM      7  C   UNL     1     -18.648  58.474  -2.834  1.00  0.00     0.000 C 
BRANCH   7   8
ATOM      8  C   UNL     1     -18.317  57.442  -1.741  1.00  0.00    -0.000 C 
BRANCH   8   9
ATOM      9  C   UNL     1     -16.925  56.811  -1.917  1.00  0.00    -0.000 C 
BRANCH   9  10
ATOM     10  C   UNL     1     -16.550  56.615  -3.393  1.00  0.00    -0.003 C 
ATOM     11  C   UNL     1     -16.965  55.246  -3.930  1.00  0.00     0.004 C 
ENDBRANCH   9  10
ENDBRANCH   8   9
ENDBRANCH   7   8
ENDBRANCH   1   7
TORSDOF 7
ENDMDL
MODEL 2
REMARK VINA RESULT:     6.178      1.456      2.150
REMARK INTER + INTRA:           8.477
REMARK INTER:                   9.009
REMARK INTRA:                  -0.532
REMARK UNBOUND:                -0.229
REMARK SMILES CCCCCCCCC(=O)[O-]
REMARK SMILES IDX 6 1 7 2 8 3 9 4 10 5 11 6 5 7 4 8 3 9 2 10 1 11
REMARK H PARENT
REMARK Flexibility Score: inf
ROOT
ATOM      1  C   UNL     1     -18.825  58.151  -1.974  1.00  0.00     0.000 C 
ENDROOT
BRANCH   1   2
ATOM      2  C   UNL     1     -18.686  58.755  -3.383  1.00  0.00     0.006 C 
BRANCH   2   3
ATOM      3  C   UNL     1     -19.125  60.223  -3.429  1.00  0.00     0.053 C 
BRANCH   3   4
ATOM      4  C   UNL     1     -17.957  61.155  -3.320  1.00  0.00     0.041 C 
ATOM      5  O   UNL     1     -16.795  60.696  -3.154  1.00  0.00    -0.550 OA
ATOM      6  O   UNL     1     -18.154  62.529  -3.363  1.00  0.00    -0.550 OA
ENDBRANCH   3   4
ENDBRANCH   2   3
ENDBRANCH   1   2
BRANCH   1   7
ATOM      7  C   UNL     1     -17.556  57.412  -1.510  1.00  0.00     0.000 C 
BRANCH   7   8
ATOM      8  C   UNL     1     -16.437  57.325  -2.564  1.00  0.00    -0.000 C 
BRANCH   8   9
ATOM      9  C   UNL     1     -16.141  55.881  -3.005  1.00  0.00    -0.000 C 
BRANCH   9  10
ATOM     10  C   UNL     1     -17.284  55.271  -3.828  1.00  0.00    -0.003 C 
ATOM     11  C   UNL     1     -16.962  55.195  -5.320  1.00  0.00     0.004 C 
ENDBRANCH   9  10
ENDBRANCH   8   9
ENDBRANCH   7   8
ENDBRANCH   1   7
TORSDOF 7
ENDMDL
MODEL 3
REMARK VINA RESULT:     6.292      1.170      2.244
REMARK INTER + INTRA:           8.638
REMARK INTER:                   8.878
REMARK INTRA:                  -0.239
REMARK UNBOUND:                -0.229
REMARK SMILES CCCCCCCCC(=O)[O-]
REMARK SMILES IDX 6 1 7 2 8 3 9 4 10 5 11 6 5 7 4 8 3 9 2 10 1 11
REMARK H PARENT
REMARK Flexibility Score: inf
ROOT
ATOM      1  C   UNL     1     -16.950  60.521  -3.070  1.00  0.00     0.000 C 
ENDROOT
BRANCH   1   2
ATOM      2  C   UNL     1     -18.408  60.685  -3.537  1.00  0.00     0.006 C 
BRANCH   2   3
ATOM      3  C   UNL     1     -19.125  61.827  -2.806  1.00  0.00     0.053 C 
BRANCH   3   4
ATOM      4  C   UNL     1     -18.775  63.163  -3.387  1.00  0.00     0.041 C 
ATOM      5  O   UNL     1     -19.012  63.407  -4.600  1.00  0.00    -0.550 OA
ATOM      6  O   UNL     1     -18.155  64.125  -2.600  1.00  0.00    -0.550 OA
ENDBRANCH   3   4
ENDBRANCH   2   3
ENDBRANCH   1   2
BRANCH   1   7
ATOM      7  C   UNL     1     -16.618  59.081  -2.638  1.00  0.00     0.000 C 
BRANCH   7   8
ATOM      8  C   UNL     1     -17.702  58.039  -2.972  1.00  0.00    -0.000 C 
BRANCH   8   9
ATOM      9  C   UNL     1     -17.748  56.880  -1.962  1.00  0.00    -0.000 C 
BRANCH   9  10
ATOM     10  C   UNL     1     -18.224  57.329  -0.573  1.00  0.00    -0.003 C 
ATOM     11  C   UNL     1     -17.070  57.736   0.343  1.00  0.00     0.004 C 
ENDBRANCH   9  10
ENDBRANCH   8   9
ENDBRANCH   7   8
ENDBRANCH   1   7
TORSDOF 7
ENDMDL
MODEL 4
REMARK VINA RESULT:     6.549      4.052      5.740
REMARK INTER + INTRA:           9.001
REMARK INTER:                   9.276
REMARK INTRA:                  -0.276
REMARK UNBOUND:                -0.229
REMARK SMILES CCCCCCCCC(=O)[O-]
REMARK SMILES IDX 6 1 7 2 8 3 9 4 10 5 11 6 5 7 4 8 3 9 2 10 1 11
REMARK H PARENT
REMARK Flexibility Score: inf
ROOT
ATOM      1  C   UNL     1     -18.057  58.017  -1.622  1.00  0.00     0.000 C 
ENDROOT
BRANCH   1   2
ATOM      2  C   UNL     1     -17.229  56.723  -1.713  1.00  0.00     0.006 C 
BRANCH   2   3
ATOM      3  C   UNL     1     -16.519  56.585  -3.065  1.00  0.00     0.053 C 
BRANCH   3   4
ATOM      4  C   UNL     1     -17.053  55.431  -3.858  1.00  0.00     0.041 C 
ATOM      5  O   UNL     1     -17.464  54.396  -3.269  1.00  0.00    -0.550 OA
ATOM      6  O   UNL     1     -17.064  55.483  -5.246  1.00  0.00    -0.550 OA
ENDBRANCH   3   4
ENDBRANCH   2   3
ENDBRANCH   1   2
BRANCH   1   7
ATOM      7  C   UNL     1     -18.542  58.516  -2.996  1.00  0.00     0.000 C 
BRANCH   7   8
ATOM      8  C   UNL     1     -18.738  60.040  -3.096  1.00  0.00    -0.000 C 
BRANCH   8   9
ATOM      9  C   UNL     1     -17.479  60.774  -3.588  1.00  0.00    -0.000 C 
BRANCH   9  10
ATOM     10  C   UNL     1     -16.198  60.259  -2.916  1.00  0.00    -0.003 C 
ATOM     11  C   UNL     1     -15.133  59.831  -3.925  1.00  0.00     0.004 C 
ENDBRANCH   9  10
ENDBRANCH   8   9
ENDBRANCH   7   8
ENDBRANCH   1   7
TORSDOF 7
ENDMDL
MODEL 5
REMARK VINA RESULT:     7.281      4.472      5.698
REMARK INTER + INTRA:          10.031
REMARK INTER:                  10.390
REMARK INTRA:                  -0.358
REMARK UNBOUND:                -0.229
REMARK SMILES CCCCCCCCC(=O)[O-]
REMARK SMILES IDX 6 1 7 2 8 3 9 4 10 5 11 6 5 7 4 8 3 9 2 10 1 11
REMARK H PARENT
REMARK Flexibility Score: inf
ROOT
ATOM      1  C   UNL     1     -17.142  59.154  -3.000  1.00  0.00     0.000 C 
ENDROOT
BRANCH   1   2
ATOM      2  C   UNL     1     -17.222  58.197  -1.798  1.00  0.00     0.006 C 
BRANCH   2   3
ATOM      3  C   UNL     1     -17.758  56.815  -2.193  1.00  0.00     0.053 C 
BRANCH   3   4
ATOM      4  C   UNL     1     -16.773  56.059  -3.032  1.00  0.00     0.041 C 
ATOM      5  O   UNL     1     -17.053  55.764  -4.224  1.00  0.00    -0.550 OA
ATOM      6  O   UNL     1     -15.563  55.648  -2.487  1.00  0.00    -0.550 OA
ENDBRANCH   3   4
ENDBRANCH   2   3
ENDBRANCH   1   2
BRANCH   1   7
ATOM      7  C   UNL     1     -15.835  59.970  -3.030  1.00  0.00     0.000 C 
BRANCH   7   8
ATOM      8  C   UNL     1     -14.851  59.573  -4.145  1.00  0.00    -0.000 C 
BRANCH   8   9
ATOM      9  C   UNL     1     -14.055  58.298  -3.814  1.00  0.00    -0.000 C 
BRANCH   9  10
ATOM     10  C   UNL     1     -12.564  58.430  -4.157  1.00  0.00    -0.003 C 
ATOM     11  C   UNL     1     -11.665  57.672  -3.181  1.00  0.00     0.004 C 
ENDBRANCH   9  10
ENDBRANCH   8   9
ENDBRANCH   7   8
ENDBRANCH   1   7
TORSDOF 7
ENDMDL
MODEL 6
REMARK VINA RESULT:     7.488      2.941      3.423
REMARK INTER + INTRA:          10.323
REMARK INTER:                  10.724
REMARK INTRA:                  -0.401
REMARK UNBOUND:                -0.229
REMARK SMILES CCCCCCCCC(=O)[O-]
REMARK SMILES IDX 6 1 7 2 8 3 9 4 10 5 11 6 5 7 4 8 3 9 2 10 1 11
REMARK H PARENT
REMARK Flexibility Score: inf
ROOT
ATOM      1  C   UNL     1     -18.402  60.017  -3.012  1.00  0.00     0.000 C 
ENDROOT
BRANCH   1   2
ATOM      2  C   UNL     1     -17.112  60.670  -3.541  1.00  0.00     0.006 C 
BRANCH   2   3
ATOM      3  C   UNL     1     -15.852  59.987  -2.995  1.00  0.00     0.053 C 
BRANCH   3   4
ATOM      4  C   UNL     1     -14.872  59.678  -4.086  1.00  0.00     0.041 C 
ATOM      5  O   UNL     1     -14.813  60.411  -5.109  1.00  0.00    -0.550 OA
ATOM      6  O   UNL     1     -14.051  58.561  -3.990  1.00  0.00    -0.550 OA
ENDBRANCH   3   4
ENDBRANCH   2   3
ENDBRANCH   1   2
BRANCH   1   7
ATOM      7  C   UNL     1     -18.364  58.479  -3.076  1.00  0.00     0.000 C 
BRANCH   7   8
ATOM      8  C   UNL     1     -18.134  57.782  -1.722  1.00  0.00    -0.000 C 
BRANCH   8   9
ATOM      9  C   UNL     1     -17.290  56.501  -1.845  1.00  0.00    -0.000 C 
BRANCH   9  10
ATOM     10  C   UNL     1     -16.558  56.406  -3.191  1.00  0.00    -0.003 C 
ATOM     11  C   UNL     1     -17.035  55.230  -4.042  1.00  0.00     0.004 C 
ENDBRANCH   9  10
ENDBRANCH   8   9
ENDBRANCH   7   8
ENDBRANCH   1   7
TORSDOF 7
ENDMDL
