MODEL 1
REMARK VINA RESULT:    -5.910      0.000      0.000
REMARK INTER + INTRA:          -9.079
REMARK INTER:                  -7.983
REMARK INTRA:                  -1.097
REMARK UNBOUND:                -1.097
REMARK SMILES CC(=O)CCC=C(C)CCC=C(C)C
REMARK SMILES IDX 7 1 6 2 8 3 9 4 10 5 11 6 13 7 12 8 14 9 5 10 4 11 2 12 3 13
REMARK SMILES IDX 1 14
REMARK H PARENT
REMARK Flexibility Score: inf
ROOT
ATOM      1  C   UNL     1      -8.153  30.341  23.383  1.00  0.00    -0.077 C 
ATOM      2  C   UNL     1      -9.186  30.187  24.241  1.00  0.00    -0.028 C 
ATOM      3  C   UNL     1      -6.739  30.562  23.867  1.00  0.00     0.039 C 
ENDROOT
BRANCH   1   4
ATOM      4  C   UNL     1      -8.422  30.273  21.895  1.00  0.00     0.034 C 
BRANCH   4   5
ATOM      5  C   UNL     1      -9.338  31.422  21.458  1.00  0.00     0.032 C 
BRANCH   5   6
ATOM      6  C   UNL     1      -8.813  32.746  21.955  1.00  0.00    -0.028 C 
ATOM      7  C   UNL     1      -7.467  34.801  21.923  1.00  0.00     0.039 C 
ATOM      8  C   UNL     1      -7.865  33.475  21.328  1.00  0.00    -0.080 C 
ATOM      9  C   UNL     1      -7.187  32.992  20.068  1.00  0.00     0.039 C 
ENDBRANCH   5   6
ENDBRANCH   4   5
ENDBRANCH   1   4
BRANCH   2  10
ATOM     10  C   UNL     1      -9.081  30.319  25.742  1.00  0.00     0.035 C 
BRANCH  10  11
ATOM     11  C   UNL     1      -9.681  31.642  26.235  1.00  0.00     0.079 C 
BRANCH  11  12
ATOM     12  C   UNL     1      -8.610  32.665  26.517  1.00  0.00     0.130 C 
ATOM     13  O   UNL     1      -8.044  32.661  27.600  1.00  0.00    -0.300 OA
ATOM     14  C   UNL     1      -8.227  33.693  25.493  1.00  0.00     0.087 C 
ENDBRANCH  11  12
ENDBRANCH  10  11
ENDBRANCH   2  10
TORSDOF 6
ENDMDL
MODEL 2
REMARK VINA RESULT:    -5.748      2.135      4.858
REMARK INTER + INTRA:          -8.860
REMARK INTER:                  -8.298
REMARK INTRA:                  -0.563
REMARK UNBOUND:                -1.097
REMARK SMILES CC(=O)CCC=C(C)CCC=C(C)C
REMARK SMILES IDX 7 1 6 2 8 3 9 4 10 5 11 6 13 7 12 8 14 9 5 10 4 11 2 12 3 13
REMARK SMILES IDX 1 14
REMARK H PARENT
REMARK Flexibility Score: inf
ROOT
ATOM      1  C   UNL     1      -8.599  33.032  24.995  1.00  0.00    -0.077 C 
ATOM      2  C   UNL     1      -8.291  33.210  23.690  1.00  0.00    -0.028 C 
ATOM      3  C   UNL     1      -8.247  34.059  26.045  1.00  0.00     0.039 C 
ENDROOT
BRANCH   1   4
ATOM      4  C   UNL     1      -9.332  31.775  25.408  1.00  0.00     0.034 C 
BRANCH   4   5
ATOM      5  C   UNL     1      -8.417  30.551  25.289  1.00  0.00     0.032 C 
BRANCH   5   6
ATOM      6  C   UNL     1      -8.835  29.679  24.132  1.00  0.00    -0.028 C 
ATOM      7  C   UNL     1      -8.614  28.527  21.973  1.00  0.00     0.039 C 
ATOM      8  C   UNL     1      -8.082  29.455  23.034  1.00  0.00    -0.080 C 
ATOM      9  C   UNL     1      -6.740  30.120  22.835  1.00  0.00     0.039 C 
ENDBRANCH   5   6
ENDBRANCH   4   5
ENDBRANCH   1   4
BRANCH   2  10
ATOM     10  C   UNL     1      -7.487  34.369  23.149  1.00  0.00     0.035 C 
BRANCH  10  11
ATOM     11  C   UNL     1      -7.801  34.631  21.671  1.00  0.00     0.079 C 
BRANCH  11  12
ATOM     12  C   UNL     1      -7.932  33.344  20.896  1.00  0.00     0.130 C 
ATOM     13  O   UNL     1      -9.002  32.755  20.882  1.00  0.00    -0.300 OA
ATOM     14  C   UNL     1      -6.768  32.769  20.142  1.00  0.00     0.087 C 
ENDBRANCH  11  12
ENDBRANCH  10  11
ENDBRANCH   2  10
TORSDOF 6
ENDMDL
MODEL 3
REMARK VINA RESULT:    -5.607      1.979      5.247
REMARK INTER + INTRA:          -8.670
REMARK INTER:                  -7.945
REMARK INTRA:                  -0.725
REMARK UNBOUND:                -1.097
REMARK SMILES CC(=O)CCC=C(C)CCC=C(C)C
REMARK SMILES IDX 7 1 6 2 8 3 9 4 10 5 11 6 13 7 12 8 14 9 5 10 4 11 2 12 3 13
REMARK SMILES IDX 1 14
REMARK H PARENT
REMARK Flexibility Score: inf
ROOT
ATOM      1  C   UNL     1      -7.622  33.818  23.244  1.00  0.00    -0.077 C 
ATOM      2  C   UNL     1      -7.605  32.470  23.349  1.00  0.00    -0.028 C 
ATOM      3  C   UNL     1      -7.858  34.512  21.923  1.00  0.00     0.039 C 
ENDROOT
BRANCH   1   4
ATOM      4  C   UNL     1      -7.415  34.652  24.489  1.00  0.00     0.034 C 
BRANCH   4   5
ATOM      5  C   UNL     1      -8.624  34.536  25.425  1.00  0.00     0.032 C 
BRANCH   5   6
ATOM      6  C   UNL     1      -8.238  33.863  26.719  1.00  0.00    -0.028 C 
ATOM      7  C   UNL     1      -8.122  32.059  28.382  1.00  0.00     0.039 C 
ATOM      8  C   UNL     1      -8.619  32.617  27.073  1.00  0.00    -0.080 C 
ATOM      9  C   UNL     1      -9.535  31.783  26.209  1.00  0.00     0.039 C 
ENDBRANCH   5   6
ENDBRANCH   4   5
ENDBRANCH   1   4
BRANCH   2  10
ATOM     10  C   UNL     1      -7.709  31.517  22.182  1.00  0.00     0.035 C 
BRANCH  10  11
ATOM     11  C   UNL     1      -7.123  30.141  22.524  1.00  0.00     0.079 C 
BRANCH  11  12
ATOM     12  C   UNL     1      -8.208  29.133  22.807  1.00  0.00     0.130 C 
ATOM     13  O   UNL     1      -9.000  29.338  23.714  1.00  0.00    -0.300 OA
ATOM     14  C   UNL     1      -8.332  27.875  21.997  1.00  0.00     0.087 C 
ENDBRANCH  11  12
ENDBRANCH  10  11
ENDBRANCH   2  10
TORSDOF 6
ENDMDL
MODEL 4
REMARK VINA RESULT:    -5.531      1.245      3.749
REMARK INTER + INTRA:          -8.567
REMARK INTER:                  -7.802
REMARK INTRA:                  -0.765
REMARK UNBOUND:                -1.097
REMARK SMILES CC(=O)CCC=C(C)CCC=C(C)C
REMARK SMILES IDX 7 1 6 2 8 3 9 4 10 5 11 6 13 7 12 8 14 9 5 10 4 11 2 12 3 13
REMARK SMILES IDX 1 14
REMARK H PARENT
REMARK Flexibility Score: inf
ROOT
ATOM      1  C   UNL     1      -8.264  32.927  20.838  1.00  0.00    -0.077 C 
ATOM      2  C   UNL     1      -8.562  33.566  21.992  1.00  0.00    -0.028 C 
ATOM      3  C   UNL     1      -7.039  33.277  20.026  1.00  0.00     0.039 C 
ENDROOT
BRANCH   1   4
ATOM      4  C   UNL     1      -9.176  31.820  20.358  1.00  0.00     0.034 C 
BRANCH   4   5
ATOM      5  C   UNL     1      -9.276  30.707  21.409  1.00  0.00     0.032 C 
BRANCH   5   6
ATOM      6  C   UNL     1      -7.952  30.507  22.104  1.00  0.00    -0.028 C 
ATOM      7  C   UNL     1      -6.411  30.242  23.999  1.00  0.00     0.039 C 
ATOM      8  C   UNL     1      -7.789  30.493  23.445  1.00  0.00    -0.080 C 
ATOM      9  C   UNL     1      -8.939  30.739  24.394  1.00  0.00     0.039 C 
ENDBRANCH   5   6
ENDBRANCH   4   5
ENDBRANCH   1   4
BRANCH   2  10
ATOM     10  C   UNL     1      -7.794  34.744  22.543  1.00  0.00     0.035 C 
BRANCH  10  11
ATOM     11  C   UNL     1      -7.132  34.406  23.885  1.00  0.00     0.079 C 
BRANCH  11  12
ATOM     12  C   UNL     1      -8.084  34.603  25.038  1.00  0.00     0.130 C 
ATOM     13  O   UNL     1      -8.096  33.796  25.954  1.00  0.00    -0.300 OA
ATOM     14  C   UNL     1      -9.023  35.774  25.079  1.00  0.00     0.087 C 
ENDBRANCH  11  12
ENDBRANCH  10  11
ENDBRANCH   2  10
TORSDOF 6
ENDMDL
MODEL 5
REMARK VINA RESULT:    -5.496      1.384      3.380
REMARK INTER + INTRA:          -8.521
REMARK INTER:                  -7.312
REMARK INTRA:                  -1.208
REMARK UNBOUND:                -1.097
REMARK SMILES CC(=O)CCC=C(C)CCC=C(C)C
REMARK SMILES IDX 7 1 6 2 8 3 9 4 10 5 11 6 13 7 12 8 14 9 5 10 4 11 2 12 3 13
REMARK SMILES IDX 1 14
REMARK H PARENT
REMARK Flexibility Score: inf
ROOT
ATOM      1  C   UNL     1      -8.398  33.333  23.654  1.00  0.00    -0.077 C 
ATOM      2  C   UNL     1      -9.005  32.676  24.668  1.00  0.00    -0.028 C 
ATOM      3  C   UNL     1      -7.248  34.283  23.894  1.00  0.00     0.039 C 
ENDROOT
BRANCH   1   4
ATOM      4  C   UNL     1      -8.876  33.095  22.238  1.00  0.00     0.034 C 
BRANCH   4   5
ATOM      5  C   UNL     1      -7.889  32.203  21.477  1.00  0.00     0.032 C 
BRANCH   5   6
ATOM      6  C   UNL     1      -8.319  30.758  21.535  1.00  0.00    -0.028 C 
ATOM      7  C   UNL     1      -8.338  28.435  22.335  1.00  0.00     0.039 C 
ATOM      8  C   UNL     1      -7.779  29.834  22.359  1.00  0.00    -0.080 C 
ATOM      9  C   UNL     1      -6.627  30.159  23.281  1.00  0.00     0.039 C 
ENDBRANCH   5   6
ENDBRANCH   4   5
ENDBRANCH   1   4
BRANCH   2  10
ATOM     10  C   UNL     1      -8.692  32.881  26.131  1.00  0.00     0.035 C 
BRANCH  10  11
ATOM     11  C   UNL     1      -9.223  31.724  26.988  1.00  0.00     0.079 C 
BRANCH  11  12
ATOM     12  C   UNL     1      -8.662  30.399  26.538  1.00  0.00     0.130 C 
ATOM     13  O   UNL     1      -7.482  30.147  26.732  1.00  0.00    -0.300 OA
ATOM     14  C   UNL     1      -9.526  29.382  25.850  1.00  0.00     0.087 C 
ENDBRANCH  11  12
ENDBRANCH  10  11
ENDBRANCH   2  10
TORSDOF 6
ENDMDL
MODEL 6
REMARK VINA RESULT:    -5.471      1.093      3.661
REMARK INTER + INTRA:          -8.487
REMARK INTER:                  -7.695
REMARK INTRA:                  -0.791
REMARK UNBOUND:                -1.097
REMARK SMILES CC(=O)CCC=C(C)CCC=C(C)C
REMARK SMILES IDX 7 1 6 2 8 3 9 4 10 5 11 6 13 7 12 8 14 9 5 10 4 11 2 12 3 13
REMARK SMILES IDX 1 14
REMARK H PARENT
REMARK Flexibility Score: inf
ROOT
ATOM      1  C   UNL     1      -7.732  33.634  22.193  1.00  0.00    -0.077 C 
ATOM      2  C   UNL     1      -7.718  33.360  23.517  1.00  0.00    -0.028 C 
ATOM      3  C   UNL     1      -7.408  35.009  21.658  1.00  0.00     0.039 C 
ENDROOT
BRANCH   1   4
ATOM      4  C   UNL     1      -8.067  32.524  21.220  1.00  0.00     0.034 C 
BRANCH   4   5
ATOM      5  C   UNL     1      -9.245  31.689  21.737  1.00  0.00     0.032 C 
BRANCH   5   6
ATOM      6  C   UNL     1      -9.002  30.219  21.504  1.00  0.00    -0.028 C 
ATOM      7  C   UNL     1      -8.294  27.930  22.048  1.00  0.00     0.039 C 
ATOM      8  C   UNL     1      -8.436  29.387  22.405  1.00  0.00    -0.080 C 
ATOM      9  C   UNL     1      -7.931  29.878  23.741  1.00  0.00     0.039 C 
ENDBRANCH   5   6
ENDBRANCH   4   5
ENDBRANCH   1   4
BRANCH   2  10
ATOM     10  C   UNL     1      -7.489  34.386  24.602  1.00  0.00     0.035 C 
BRANCH  10  11
ATOM     11  C   UNL     1      -8.633  34.390  25.624  1.00  0.00     0.079 C 
BRANCH  11  12
ATOM     12  C   UNL     1      -8.584  33.174  26.515  1.00  0.00     0.130 C 
ATOM     13  O   UNL     1      -7.794  33.142  27.447  1.00  0.00    -0.300 OA
ATOM     14  C   UNL     1      -9.485  31.998  26.277  1.00  0.00     0.087 C 
ENDBRANCH  11  12
ENDBRANCH  10  11
ENDBRANCH   2  10
TORSDOF 6
ENDMDL
MODEL 7
REMARK VINA RESULT:    -5.427      1.791      3.471
REMARK INTER + INTRA:          -8.427
REMARK INTER:                  -7.767
REMARK INTRA:                  -0.660
REMARK UNBOUND:                -1.097
REMARK SMILES CC(=O)CCC=C(C)CCC=C(C)C
REMARK SMILES IDX 7 1 6 2 8 3 9 4 10 5 11 6 13 7 12 8 14 9 5 10 4 11 2 12 3 13
REMARK SMILES IDX 1 14
REMARK H PARENT
REMARK Flexibility Score: inf
ROOT
ATOM      1  C   UNL     1      -8.277  33.471  25.328  1.00  0.00    -0.077 C 
ATOM      2  C   UNL     1      -8.879  32.469  24.649  1.00  0.00    -0.028 C 
ATOM      3  C   UNL     1      -8.212  33.486  26.838  1.00  0.00     0.039 C 
ENDROOT
BRANCH   1   4
ATOM      4  C   UNL     1      -7.636  34.600  24.551  1.00  0.00     0.034 C 
BRANCH   4   5
ATOM      5  C   UNL     1      -8.366  34.824  23.222  1.00  0.00     0.032 C 
BRANCH   5   6
ATOM      6  C   UNL     1      -7.514  34.377  22.060  1.00  0.00    -0.028 C 
ATOM      7  C   UNL     1      -6.947  33.136  20.017  1.00  0.00     0.039 C 
ATOM      8  C   UNL     1      -7.889  33.453  21.149  1.00  0.00    -0.080 C 
ATOM      9  C   UNL     1      -9.208  32.723  21.246  1.00  0.00     0.039 C 
ENDBRANCH   5   6
ENDBRANCH   4   5
ENDBRANCH   1   4
BRANCH   2  10
ATOM     10  C   UNL     1      -9.633  31.329  25.293  1.00  0.00     0.035 C 
BRANCH  10  11
ATOM     11  C   UNL     1      -8.930  29.985  25.057  1.00  0.00     0.079 C 
BRANCH  11  12
ATOM     12  C   UNL     1      -8.201  29.966  23.737  1.00  0.00     0.130 C 
ATOM     13  O   UNL     1      -8.774  29.559  22.738  1.00  0.00    -0.300 OA
ATOM     14  C   UNL     1      -6.779  30.433  23.627  1.00  0.00     0.087 C 
ENDBRANCH  11  12
ENDBRANCH  10  11
ENDBRANCH   2  10
TORSDOF 6
ENDMDL
MODEL 8
REMARK VINA RESULT:    -5.402      1.545      4.449
REMARK INTER + INTRA:          -8.394
REMARK INTER:                  -8.120
REMARK INTRA:                  -0.274
REMARK UNBOUND:                -1.097
REMARK SMILES CC(=O)CCC=C(C)CCC=C(C)C
REMARK SMILES IDX 7 1 6 2 8 3 9 4 10 5 11 6 13 7 12 8 14 9 5 10 4 11 2 12 3 13
REMARK SMILES IDX 1 14
REMARK H PARENT
REMARK Flexibility Score: inf
ROOT
ATOM      1  C   UNL     1      -7.755  33.399  21.343  1.00  0.00    -0.077 C 
ATOM      2  C   UNL     1      -8.737  32.617  21.847  1.00  0.00    -0.028 C 
ATOM      3  C   UNL     1      -7.098  33.099  20.017  1.00  0.00     0.039 C 
ENDROOT
BRANCH   1   4
ATOM      4  C   UNL     1      -7.318  34.618  22.125  1.00  0.00     0.034 C 
BRANCH   4   5
ATOM      5  C   UNL     1      -8.311  34.924  23.252  1.00  0.00     0.032 C 
BRANCH   5   6
ATOM      6  C   UNL     1      -8.132  33.962  24.400  1.00  0.00    -0.028 C 
ATOM      7  C   UNL     1      -8.126  33.209  26.739  1.00  0.00     0.039 C 
ATOM      8  C   UNL     1      -8.301  34.287  25.700  1.00  0.00    -0.080 C 
ATOM      9  C   UNL     1      -8.639  35.693  26.137  1.00  0.00     0.039 C 
ENDBRANCH   5   6
ENDBRANCH   4   5
ENDBRANCH   1   4
BRANCH   2  10
ATOM     10  C   UNL     1      -9.211  31.326  21.222  1.00  0.00     0.035 C 
BRANCH  10  11
ATOM     11  C   UNL     1      -8.541  30.107  21.868  1.00  0.00     0.079 C 
BRANCH  11  12
ATOM     12  C   UNL     1      -8.299  30.324  23.340  1.00  0.00     0.130 C 
ATOM     13  O   UNL     1      -9.247  30.354  24.109  1.00  0.00    -0.300 OA
ATOM     14  C   UNL     1      -6.911  30.511  23.881  1.00  0.00     0.087 C 
ENDBRANCH  11  12
ENDBRANCH  10  11
ENDBRANCH   2  10
TORSDOF 6
ENDMDL
MODEL 9
REMARK VINA RESULT:    -5.346      1.212      3.305
REMARK INTER + INTRA:          -8.317
REMARK INTER:                  -7.516
REMARK INTRA:                  -0.801
REMARK UNBOUND:                -1.097
REMARK SMILES CC(=O)CCC=C(C)CCC=C(C)C
REMARK SMILES IDX 7 1 6 2 8 3 9 4 10 5 11 6 13 7 12 8 14 9 5 10 4 11 2 12 3 13
REMARK SMILES IDX 1 14
REMARK H PARENT
REMARK Flexibility Score: inf
ROOT
ATOM      1  C   UNL     1      -7.974  34.427  24.693  1.00  0.00    -0.077 C 
ATOM      2  C   UNL     1      -7.916  33.270  25.391  1.00  0.00    -0.028 C 
ATOM      3  C   UNL     1      -8.940  35.530  25.055  1.00  0.00     0.039 C 
ENDROOT
BRANCH   1   4
ATOM      4  C   UNL     1      -7.030  34.626  23.527  1.00  0.00     0.034 C 
BRANCH   4   5
ATOM      5  C   UNL     1      -7.814  34.804  22.221  1.00  0.00     0.032 C 
BRANCH   5   6
ATOM      6  C   UNL     1      -8.617  33.568  21.905  1.00  0.00    -0.028 C 
ATOM      7  C   UNL     1      -9.155  31.443  20.794  1.00  0.00     0.039 C 
ATOM      8  C   UNL     1      -8.274  32.652  20.973  1.00  0.00    -0.080 C 
ATOM      9  C   UNL     1      -7.051  32.817  20.102  1.00  0.00     0.039 C 
ENDBRANCH   5   6
ENDBRANCH   4   5
ENDBRANCH   1   4
BRANCH   2  10
ATOM     10  C   UNL     1      -8.853  32.901  26.517  1.00  0.00     0.035 C 
BRANCH  10  11
ATOM     11  C   UNL     1      -9.611  31.602  26.216  1.00  0.00     0.079 C 
BRANCH  11  12
ATOM     12  C   UNL     1      -8.681  30.516  25.737  1.00  0.00     0.130 C 
ATOM     13  O   UNL     1      -7.813  30.093  26.485  1.00  0.00    -0.300 OA
ATOM     14  C   UNL     1      -8.798  29.946  24.353  1.00  0.00     0.087 C 
ENDBRANCH  11  12
ENDBRANCH  10  11
ENDBRANCH   2  10
TORSDOF 6
ENDMDL
