MODEL 1
REMARK VINA RESULT:    -2.884      0.000      0.000
REMARK INTER + INTRA:          -3.226
REMARK INTER:                  -3.221
REMARK INTRA:                  -0.005
REMARK UNBOUND:                -0.005
REMARK SMILES CCCC(=O)[O-]
REMARK SMILES IDX 3 1 4 2 5 3 6 4 2 5 1 6
REMARK H PARENT
REMARK Flexibility Score: inf
ROOT
ATOM      1  C   UNL     1      19.444 -18.894  15.241  1.00  0.00     0.052 C 
ENDROOT
BRANCH   1   2
ATOM      2  C   UNL     1      19.399 -20.388  15.199  1.00  0.00     0.041 C 
ATOM      3  O   UNL     1      18.295 -20.986  15.114  1.00  0.00    -0.550 OA
ATOM      4  O   UNL     1      20.574 -21.123  15.301  1.00  0.00    -0.550 OA
ENDBRANCH   1   2
BRANCH   1   5
ATOM      5  C   UNL     1      19.392 -18.397  16.688  1.00  0.00     0.003 C 
ATOM      6  C   UNL     1      19.495 -16.876  16.752  1.00  0.00     0.004 C 
ENDBRANCH   1   5
TORSDOF 2
ENDMDL
MODEL 2
REMARK VINA RESULT:    -2.833      2.398      3.428
REMARK INTER + INTRA:          -3.169
REMARK INTER:                  -3.164
REMARK INTRA:                  -0.005
REMARK UNBOUND:                -0.005
REMARK SMILES CCCC(=O)[O-]
REMARK SMILES IDX 3 1 4 2 5 3 6 4 2 5 1 6
REMARK H PARENT
REMARK Flexibility Score: inf
ROOT
ATOM      1  C   UNL     1      18.978 -19.639  15.491  1.00  0.00     0.052 C 
ENDROOT
BRANCH   1   2
ATOM      2  C   UNL     1      19.409 -18.210  15.398  1.00  0.00     0.041 C 
ATOM      3  O   UNL     1      19.455 -17.495  16.433  1.00  0.00    -0.550 OA
ATOM      4  O   UNL     1      19.714 -17.653  14.163  1.00  0.00    -0.550 OA
ENDBRANCH   1   2
BRANCH   1   5
ATOM      5  C   UNL     1      20.133 -20.571  15.118  1.00  0.00     0.003 C 
ATOM      6  C   UNL     1      19.857 -22.001  15.576  1.00  0.00     0.004 C 
ENDBRANCH   1   5
TORSDOF 2
ENDMDL
MODEL 3
REMARK VINA RESULT:    -2.671     16.522     16.989
REMARK INTER + INTRA:          -2.988
REMARK INTER:                  -2.982
REMARK INTRA:                  -0.006
REMARK UNBOUND:                -0.005
REMARK SMILES CCCC(=O)[O-]
REMARK SMILES IDX 3 1 4 2 5 3 6 4 2 5 1 6
REMARK H PARENT
REMARK Flexibility Score: inf
ROOT
ATOM      1  C   UNL     1      21.764 -22.073  32.792  1.00  0.00     0.052 C 
ENDROOT
BRANCH   1   2
ATOM      2  C   UNL     1      20.557 -22.906  32.498  1.00  0.00     0.041 C 
ATOM      3  O   UNL     1      19.487 -22.359  32.123  1.00  0.00    -0.550 OA
ATOM      4  O   UNL     1      20.599 -24.282  32.682  1.00  0.00    -0.550 OA
ENDBRANCH   1   2
BRANCH   1   5
ATOM      5  C   UNL     1      22.482 -21.694  31.495  1.00  0.00     0.003 C 
ATOM      6  C   UNL     1      23.615 -20.707  31.761  1.00  0.00     0.004 C 
ENDBRANCH   1   5
TORSDOF 2
ENDMDL
MODEL 4
REMARK VINA RESULT:    -2.612     16.028     16.646
REMARK INTER + INTRA:          -2.922
REMARK INTER:                  -2.917
REMARK INTRA:                  -0.005
REMARK UNBOUND:                -0.005
REMARK SMILES CCCC(=O)[O-]
REMARK SMILES IDX 3 1 4 2 5 3 6 4 2 5 1 6
REMARK H PARENT
REMARK Flexibility Score: inf
ROOT
ATOM      1  C   UNL     1      22.366 -21.325  31.247  1.00  0.00     0.052 C 
ENDROOT
BRANCH   1   2
ATOM      2  C   UNL     1      23.799 -20.903  31.166  1.00  0.00     0.041 C 
ATOM      3  O   UNL     1      24.171 -19.824  31.697  1.00  0.00    -0.550 OA
ATOM      4  O   UNL     1      24.714 -21.677  30.465  1.00  0.00    -0.550 OA
ENDBRANCH   1   2
BRANCH   1   5
ATOM      5  C   UNL     1      22.082 -22.001  32.590  1.00  0.00     0.003 C 
ATOM      6  C   UNL     1      20.752 -22.749  32.559  1.00  0.00     0.004 C 
ENDBRANCH   1   5
TORSDOF 2
ENDMDL
MODEL 5
REMARK VINA RESULT:    -2.551     15.712     16.754
REMARK INTER + INTRA:          -2.854
REMARK INTER:                  -2.843
REMARK INTRA:                  -0.011
REMARK UNBOUND:                -0.005
REMARK SMILES CCCC(=O)[O-]
REMARK SMILES IDX 3 1 4 2 5 3 6 4 2 5 1 6
REMARK H PARENT
REMARK Flexibility Score: inf
ROOT
ATOM      1  C   UNL     1       8.471 -32.586  17.403  1.00  0.00     0.052 C 
ENDROOT
BRANCH   1   2
ATOM      2  C   UNL     1       9.271 -31.562  18.144  1.00  0.00     0.041 C 
ATOM      3  O   UNL     1       9.128 -31.425  19.387  1.00  0.00    -0.550 OA
ATOM      4  O   UNL     1      10.140 -30.726  17.455  1.00  0.00    -0.550 OA
ENDBRANCH   1   2
BRANCH   1   5
ATOM      5  C   UNL     1       8.368 -32.216  15.922  1.00  0.00     0.003 C 
ATOM      6  C   UNL     1       7.009 -32.610  15.349  1.00  0.00     0.004 C 
ENDBRANCH   1   5
TORSDOF 2
ENDMDL
MODEL 6
REMARK VINA RESULT:    -2.462     16.380     16.865
REMARK INTER + INTRA:          -2.755
REMARK INTER:                  -2.739
REMARK INTRA:                  -0.017
REMARK UNBOUND:                -0.005
REMARK SMILES CCCC(=O)[O-]
REMARK SMILES IDX 3 1 4 2 5 3 6 4 2 5 1 6
REMARK H PARENT
REMARK Flexibility Score: inf
ROOT
ATOM      1  C   UNL     1       9.115 -31.861  16.437  1.00  0.00     0.052 C 
ENDROOT
BRANCH   1   2
ATOM      2  C   UNL     1       8.181 -32.221  15.326  1.00  0.00     0.041 C 
ATOM      3  O   UNL     1       6.975 -32.484  15.573  1.00  0.00    -0.550 OA
ATOM      4  O   UNL     1       8.652 -32.312  14.022  1.00  0.00    -0.550 OA
ENDBRANCH   1   2
BRANCH   1   5
ATOM      5  C   UNL     1       8.509 -32.241  17.790  1.00  0.00     0.003 C 
ATOM      6  C   UNL     1       9.086 -31.384  18.913  1.00  0.00     0.004 C 
ENDBRANCH   1   5
TORSDOF 2
ENDMDL
MODEL 7
REMARK VINA RESULT:    -2.373     16.590     16.997
REMARK INTER + INTRA:          -2.655
REMARK INTER:                  -2.643
REMARK INTRA:                  -0.012
REMARK UNBOUND:                -0.005
REMARK SMILES CCCC(=O)[O-]
REMARK SMILES IDX 3 1 4 2 5 3 6 4 2 5 1 6
REMARK H PARENT
REMARK Flexibility Score: inf
ROOT
ATOM      1  C   UNL     1       9.349 -32.250  15.317  1.00  0.00     0.052 C 
ENDROOT
BRANCH   1   2
ATOM      2  C   UNL     1       8.209 -32.261  16.285  1.00  0.00     0.041 C 
ATOM      3  O   UNL     1       7.022 -32.226  15.866  1.00  0.00    -0.550 OA
ATOM      4  O   UNL     1       8.457 -32.263  17.652  1.00  0.00    -0.550 OA
ENDBRANCH   1   2
BRANCH   1   5
ATOM      5  C   UNL     1       8.830 -32.319  13.879  1.00  0.00     0.003 C 
ATOM      6  C   UNL     1       9.978 -32.251  12.875  1.00  0.00     0.004 C 
ENDBRANCH   1   5
TORSDOF 2
ENDMDL
MODEL 8
REMARK VINA RESULT:    -2.353     21.469     22.117
REMARK INTER + INTRA:          -2.633
REMARK INTER:                  -2.614
REMARK INTRA:                  -0.019
REMARK UNBOUND:                -0.005
REMARK SMILES CCCC(=O)[O-]
REMARK SMILES IDX 3 1 4 2 5 3 6 4 2 5 1 6
REMARK H PARENT
REMARK Flexibility Score: inf
ROOT
ATOM      1  C   UNL     1      17.118 -36.599  29.767  1.00  0.00     0.052 C 
ENDROOT
BRANCH   1   2
ATOM      2  C   UNL     1      16.404 -35.890  30.874  1.00  0.00     0.041 C 
ATOM      3  O   UNL     1      15.946 -34.731  30.691  1.00  0.00    -0.550 OA
ATOM      4  O   UNL     1      16.285 -36.488  32.122  1.00  0.00    -0.550 OA
ENDBRANCH   1   2
BRANCH   1   5
ATOM      5  C   UNL     1      17.513 -35.613  28.666  1.00  0.00     0.003 C 
ATOM      6  C   UNL     1      17.553 -36.296  27.302  1.00  0.00     0.004 C 
ENDBRANCH   1   5
TORSDOF 2
ENDMDL
MODEL 9
REMARK VINA RESULT:    -2.319     16.793     17.791
REMARK INTER + INTRA:          -2.595
REMARK INTER:                  -2.585
REMARK INTRA:                  -0.011
REMARK UNBOUND:                -0.005
REMARK SMILES CCCC(=O)[O-]
REMARK SMILES IDX 3 1 4 2 5 3 6 4 2 5 1 6
REMARK H PARENT
REMARK Flexibility Score: inf
ROOT
ATOM      1  C   UNL     1       7.007 -32.589  15.463  1.00  0.00     0.052 C 
ENDROOT
BRANCH   1   2
ATOM      2  C   UNL     1       8.277 -32.268  16.185  1.00  0.00     0.041 C 
ATOM      3  O   UNL     1       8.288 -32.194  17.442  1.00  0.00    -0.550 OA
ATOM      4  O   UNL     1       9.437 -32.004  15.470  1.00  0.00    -0.550 OA
ENDBRANCH   1   2
BRANCH   1   5
ATOM      5  C   UNL     1       7.240 -32.598  13.950  1.00  0.00     0.003 C 
ATOM      6  C   UNL     1       6.064 -33.237  13.216  1.00  0.00     0.004 C 
ENDBRANCH   1   5
TORSDOF 2
ENDMDL
