MODEL 1
REMARK VINA RESULT:    -6.595      0.000      0.000
REMARK INTER + INTRA:          -9.528
REMARK INTER:                  -8.909
REMARK INTRA:                  -0.619
REMARK UNBOUND:                -0.619
REMARK SMILES COc1ccc(-c2cc(=O)c3c(OC)c(OC)c(OC)c(OC)c3o2)cc1
REMARK SMILES IDX 7 1 8 2 9 3 10 4 11 5 24 6 25 7 21 8 18 9 15 10 12 11 6 12
REMARK SMILES IDX 3 13 4 14 27 15 5 16 26 17 2 18 1 19 22 20 23 21 13 22 14 23
REMARK SMILES IDX 19 24 20 25 16 26 17 27
REMARK H PARENT
REMARK Flexibility Score: inf
ROOT
ATOM      1  C   UNL     1     180.033 177.929 175.053  1.00  0.00     0.138 A 
ATOM      2  C   UNL     1     178.993 177.050 174.723  1.00  0.00     0.100 A 
ATOM      3  C   UNL     1     179.148 176.178 173.647  1.00  0.00     0.197 A 
ATOM      4  O   UNL     1     178.201 175.395 173.364  1.00  0.00    -0.289 OA
ATOM      5  C   UNL     1     180.353 176.185 172.905  1.00  0.00     0.115 A 
ATOM      6  C   UNL     1     181.361 177.088 173.313  1.00  0.00     0.188 A 
ATOM      7  O   UNL     1     181.159 177.901 174.346  1.00  0.00    -0.452 OA
ATOM      8  C   UNL     1     182.591 177.142 172.652  1.00  0.00     0.209 A 
ATOM      9  C   UNL     1     182.834 176.269 171.569  1.00  0.00     0.211 A 
ATOM     10  C   UNL     1     181.805 175.429 171.088  1.00  0.00     0.208 A 
ATOM     11  C   UNL     1     180.572 175.347 171.783  1.00  0.00     0.179 A 
ENDROOT
BRANCH   1  12
ATOM     12  C   UNL     1     179.923 178.887 176.183  1.00  0.00     0.018 A 
ATOM     13  C   UNL     1     179.781 180.692 178.349  1.00  0.00     0.118 A 
ATOM     14  C   UNL     1     180.520 179.511 178.459  1.00  0.00     0.047 A 
ATOM     15  C   UNL     1     179.114 180.973 177.143  1.00  0.00     0.047 A 
ATOM     16  C   UNL     1     180.598 178.619 177.386  1.00  0.00     0.016 A 
ATOM     17  C   UNL     1     179.186 180.081 176.070  1.00  0.00     0.016 A 
BRANCH  13  18
ATOM     18  O   UNL     1     179.737 181.556 179.454  1.00  0.00    -0.497 OA
ATOM     19  C   UNL     1     180.841 182.326 179.915  1.00  0.00     0.278 C 
ENDBRANCH  13  18
ENDBRANCH   1  12
BRANCH   8  20
ATOM     20  O   UNL     1     183.530 178.077 173.132  1.00  0.00    -0.490 OA
ATOM     21  C   UNL     1     183.775 179.378 172.610  1.00  0.00     0.278 C 
ENDBRANCH   8  20
BRANCH  11  22
ATOM     22  O   UNL     1     179.534 174.472 171.395  1.00  0.00    -0.492 OA
ATOM     23  C   UNL     1     178.737 174.549 170.218  1.00  0.00     0.278 C 
ENDBRANCH  11  22
BRANCH   9  24
ATOM     24  O   UNL     1     184.104 176.209 170.992  1.00  0.00    -0.490 OA
ATOM     25  C   UNL     1     184.453 177.007 169.867  1.00  0.00     0.279 C 
ENDBRANCH   9  24
BRANCH  10  26
ATOM     26  O   UNL     1     181.994 174.682 169.918  1.00  0.00    -0.490 OA
ATOM     27  C   UNL     1     182.466 173.338 169.912  1.00  0.00     0.278 C 
ENDBRANCH  10  26
TORSDOF 6
ENDMDL
MODEL 2
REMARK VINA RESULT:    -6.592      5.797      8.106
REMARK INTER + INTRA:          -9.522
REMARK INTER:                  -8.902
REMARK INTRA:                  -0.620
REMARK UNBOUND:                -0.619
REMARK SMILES COc1ccc(-c2cc(=O)c3c(OC)c(OC)c(OC)c(OC)c3o2)cc1
REMARK SMILES IDX 7 1 8 2 9 3 10 4 11 5 24 6 25 7 21 8 18 9 15 10 12 11 6 12
REMARK SMILES IDX 3 13 4 14 27 15 5 16 26 17 2 18 1 19 22 20 23 21 13 22 14 23
REMARK SMILES IDX 19 24 20 25 16 26 17 27
REMARK H PARENT
REMARK Flexibility Score: inf
ROOT
ATOM      1  C   UNL     1     180.450 182.642 175.317  1.00  0.00     0.138 A 
ATOM      2  C   UNL     1     181.468 183.558 175.017  1.00  0.00     0.100 A 
ATOM      3  C   UNL     1     181.316 184.420 173.933  1.00  0.00     0.197 A 
ATOM      4  O   UNL     1     182.243 185.236 173.677  1.00  0.00    -0.289 OA
ATOM      5  C   UNL     1     180.138 184.366 173.151  1.00  0.00     0.115 A 
ATOM      6  C   UNL     1     179.150 183.428 173.531  1.00  0.00     0.188 A 
ATOM      7  O   UNL     1     179.348 182.626 174.573  1.00  0.00    -0.452 OA
ATOM      8  C   UNL     1     177.946 183.327 172.829  1.00  0.00     0.209 A 
ATOM      9  C   UNL     1     177.707 184.186 171.735  1.00  0.00     0.211 A 
ATOM     10  C   UNL     1     178.720 185.062 171.285  1.00  0.00     0.208 A 
ATOM     11  C   UNL     1     179.926 185.192 172.019  1.00  0.00     0.179 A 
ENDROOT
BRANCH   1  12
ATOM     12  C   UNL     1     180.558 181.693 176.454  1.00  0.00     0.018 A 
ATOM     13  C   UNL     1     180.692 179.895 178.627  1.00  0.00     0.118 A 
ATOM     14  C   UNL     1     179.807 180.976 178.656  1.00  0.00     0.047 A 
ATOM     15  C   UNL     1     181.512 179.710 177.499  1.00  0.00     0.047 A 
ATOM     16  C   UNL     1     179.733 181.864 177.579  1.00  0.00     0.016 A 
ATOM     17  C   UNL     1     181.443 180.599 176.422  1.00  0.00     0.016 A 
BRANCH  13  18
ATOM     18  O   UNL     1     180.726 179.031 179.732  1.00  0.00    -0.497 OA
ATOM     19  C   UNL     1     179.702 178.095 180.051  1.00  0.00     0.278 C 
ENDBRANCH  13  18
ENDBRANCH   1  12
BRANCH   8  20
ATOM     20  O   UNL     1     177.027 182.360 173.282  1.00  0.00    -0.490 OA
ATOM     21  C   UNL     1     176.857 181.043 172.768  1.00  0.00     0.278 C 
ENDBRANCH   8  20
BRANCH  11  22
ATOM     22  O   UNL     1     180.943 186.104 171.662  1.00  0.00    -0.492 OA
ATOM     23  C   UNL     1     181.777 186.056 170.508  1.00  0.00     0.278 C 
ENDBRANCH  11  22
BRANCH   9  24
ATOM     24  O   UNL     1     176.456 184.198 171.117  1.00  0.00    -0.490 OA
ATOM     25  C   UNL     1     176.173 183.382 169.985  1.00  0.00     0.279 C 
ENDBRANCH   9  24
BRANCH  10  26
ATOM     26  O   UNL     1     178.542 185.798 170.106  1.00  0.00    -0.490 OA
ATOM     27  C   UNL     1     178.022 187.124 170.077  1.00  0.00     0.278 C 
ENDBRANCH  10  26
TORSDOF 6
ENDMDL
MODEL 3
REMARK VINA RESULT:    -6.492      1.092      3.567
REMARK INTER + INTRA:          -9.387
REMARK INTER:                  -8.695
REMARK INTRA:                  -0.693
REMARK UNBOUND:                -0.619
REMARK SMILES COc1ccc(-c2cc(=O)c3c(OC)c(OC)c(OC)c(OC)c3o2)cc1
REMARK SMILES IDX 7 1 8 2 9 3 10 4 11 5 24 6 25 7 21 8 18 9 15 10 12 11 6 12
REMARK SMILES IDX 3 13 4 14 27 15 5 16 26 17 2 18 1 19 22 20 23 21 13 22 14 23
REMARK SMILES IDX 19 24 20 25 16 26 17 27
REMARK H PARENT
REMARK Flexibility Score: inf
ROOT
ATOM      1  C   UNL     1     181.586 178.283 174.451  1.00  0.00     0.138 A 
ATOM      2  C   UNL     1     182.844 178.539 173.890  1.00  0.00     0.100 A 
ATOM      3  C   UNL     1     183.297 177.749 172.835  1.00  0.00     0.197 A 
ATOM      4  O   UNL     1     184.432 177.992 172.344  1.00  0.00    -0.289 OA
ATOM      5  C   UNL     1     182.482 176.703 172.340  1.00  0.00     0.115 A 
ATOM      6  C   UNL     1     181.218 176.523 172.947  1.00  0.00     0.188 A 
ATOM      7  O   UNL     1     180.836 177.304 173.954  1.00  0.00    -0.452 OA
ATOM      8  C   UNL     1     180.340 175.531 172.502  1.00  0.00     0.209 A 
ATOM      9  C   UNL     1     180.717 174.708 171.418  1.00  0.00     0.211 A 
ATOM     10  C   UNL     1     182.012 174.812 170.863  1.00  0.00     0.208 A 
ATOM     11  C   UNL     1     182.887 175.843 171.289  1.00  0.00     0.179 A 
ENDROOT
BRANCH   1  12
ATOM     12  C   UNL     1     181.053 179.085 175.582  1.00  0.00     0.018 A 
ATOM     13  C   UNL     1     179.975 180.584 177.719  1.00  0.00     0.118 A 
ATOM     14  C   UNL     1     179.229 180.369 176.556  1.00  0.00     0.047 A 
ATOM     15  C   UNL     1     181.267 180.038 177.814  1.00  0.00     0.047 A 
ATOM     16  C   UNL     1     179.757 179.622 175.500  1.00  0.00     0.016 A 
ATOM     17  C   UNL     1     181.800 179.293 176.757  1.00  0.00     0.016 A 
BRANCH  13  18
ATOM     18  O   UNL     1     179.398 181.337 178.751  1.00  0.00    -0.497 OA
ATOM     19  C   UNL     1     179.723 181.194 180.129  1.00  0.00     0.278 C 
ENDBRANCH  13  18
ENDBRANCH   1  12
BRANCH   8  20
ATOM     20  O   UNL     1     179.105 175.428 173.173  1.00  0.00    -0.490 OA
ATOM     21  C   UNL     1     177.883 176.055 172.802  1.00  0.00     0.278 C 
ENDBRANCH   8  20
BRANCH  11  22
ATOM     22  O   UNL     1     184.163 176.044 170.720  1.00  0.00    -0.492 OA
ATOM     23  C   UNL     1     184.457 176.493 169.400  1.00  0.00     0.278 C 
ENDBRANCH  11  22
BRANCH   9  24
ATOM     24  O   UNL     1     179.797 173.813 170.869  1.00  0.00    -0.490 OA
ATOM     25  C   UNL     1     178.956 174.180 169.780  1.00  0.00     0.279 C 
ENDBRANCH   9  24
BRANCH  10  26
ATOM     26  O   UNL     1     182.440 173.892 169.897  1.00  0.00    -0.490 OA
ATOM     27  C   UNL     1     183.093 172.666 170.214  1.00  0.00     0.278 C 
ENDBRANCH  10  26
TORSDOF 6
ENDMDL
MODEL 4
REMARK VINA RESULT:    -6.436      6.089      7.837
REMARK INTER + INTRA:          -9.312
REMARK INTER:                  -8.611
REMARK INTRA:                  -0.701
REMARK UNBOUND:                -0.619
REMARK SMILES COc1ccc(-c2cc(=O)c3c(OC)c(OC)c(OC)c(OC)c3o2)cc1
REMARK SMILES IDX 7 1 8 2 9 3 10 4 11 5 24 6 25 7 21 8 18 9 15 10 12 11 6 12
REMARK SMILES IDX 3 13 4 14 27 15 5 16 26 17 2 18 1 19 22 20 23 21 13 22 14 23
REMARK SMILES IDX 19 24 20 25 16 26 17 27
REMARK H PARENT
REMARK Flexibility Score: inf
ROOT
ATOM      1  C   UNL     1     179.190 182.486 174.469  1.00  0.00     0.138 A 
ATOM      2  C   UNL     1     177.918 182.244 173.935  1.00  0.00     0.100 A 
ATOM      3  C   UNL     1     177.467 183.011 172.863  1.00  0.00     0.197 A 
ATOM      4  O   UNL     1     176.318 182.780 172.397  1.00  0.00    -0.289 OA
ATOM      5  C   UNL     1     178.297 184.021 172.322  1.00  0.00     0.115 A 
ATOM      6  C   UNL     1     179.575 184.189 172.904  1.00  0.00     0.188 A 
ATOM      7  O   UNL     1     179.955 183.431 173.929  1.00  0.00    -0.452 OA
ATOM      8  C   UNL     1     180.469 185.145 172.414  1.00  0.00     0.209 A 
ATOM      9  C   UNL     1     180.095 185.943 171.310  1.00  0.00     0.211 A 
ATOM     10  C   UNL     1     178.789 185.852 170.779  1.00  0.00     0.208 A 
ATOM     11  C   UNL     1     177.896 184.857 171.251  1.00  0.00     0.179 A 
ENDROOT
BRANCH   1  12
ATOM     12  C   UNL     1     179.722 181.708 175.616  1.00  0.00     0.018 A 
ATOM     13  C   UNL     1     180.666 180.202 177.811  1.00  0.00     0.118 A 
ATOM     14  C   UNL     1     179.395 180.784 177.845  1.00  0.00     0.047 A 
ATOM     15  C   UNL     1     181.466 180.371 176.666  1.00  0.00     0.047 A 
ATOM     16  C   UNL     1     178.923 181.524 176.758  1.00  0.00     0.016 A 
ATOM     17  C   UNL     1     180.998 181.113 175.579  1.00  0.00     0.016 A 
BRANCH  13  18
ATOM     18  O   UNL     1     181.092 179.467 178.927  1.00  0.00    -0.497 OA
ATOM     19  C   UNL     1     180.218 178.888 179.889  1.00  0.00     0.278 C 
ENDBRANCH  13  18
ENDBRANCH   1  12
BRANCH   8  20
ATOM     20  O   UNL     1     181.717 185.239 173.062  1.00  0.00    -0.490 OA
ATOM     21  C   UNL     1     182.911 184.549 172.710  1.00  0.00     0.278 C 
ENDBRANCH   8  20
BRANCH  11  22
ATOM     22  O   UNL     1     176.607 184.669 170.708  1.00  0.00    -0.492 OA
ATOM     23  C   UNL     1     176.281 184.206 169.402  1.00  0.00     0.278 C 
ENDBRANCH  11  22
BRANCH   9  24
ATOM     24  O   UNL     1     181.026 186.797 170.719  1.00  0.00    -0.490 OA
ATOM     25  C   UNL     1     181.859 186.368 169.646  1.00  0.00     0.279 C 
ENDBRANCH   9  24
BRANCH  10  26
ATOM     26  O   UNL     1     178.367 186.752 169.791  1.00  0.00    -0.490 OA
ATOM     27  C   UNL     1     177.711 187.984 170.078  1.00  0.00     0.278 C 
ENDBRANCH  10  26
TORSDOF 6
ENDMDL
MODEL 5
REMARK VINA RESULT:    -6.064      3.706      5.105
REMARK INTER + INTRA:          -8.810
REMARK INTER:                  -8.168
REMARK INTRA:                  -0.642
REMARK UNBOUND:                -0.619
REMARK SMILES COc1ccc(-c2cc(=O)c3c(OC)c(OC)c(OC)c(OC)c3o2)cc1
REMARK SMILES IDX 7 1 8 2 9 3 10 4 11 5 24 6 25 7 21 8 18 9 15 10 12 11 6 12
REMARK SMILES IDX 3 13 4 14 27 15 5 16 26 17 2 18 1 19 22 20 23 21 13 22 14 23
REMARK SMILES IDX 19 24 20 25 16 26 17 27
REMARK H PARENT
REMARK Flexibility Score: inf
ROOT
ATOM      1  C   UNL     1     178.146 178.745 174.115  1.00  0.00     0.138 A 
ATOM      2  C   UNL     1     178.384 177.367 174.030  1.00  0.00     0.100 A 
ATOM      3  C   UNL     1     177.922 176.659 172.922  1.00  0.00     0.197 A 
ATOM      4  O   UNL     1     178.144 175.419 172.863  1.00  0.00    -0.289 OA
ATOM      5  C   UNL     1     177.224 177.338 171.895  1.00  0.00     0.115 A 
ATOM      6  C   UNL     1     177.042 178.732 172.047  1.00  0.00     0.188 A 
ATOM      7  O   UNL     1     177.501 179.358 173.127  1.00  0.00    -0.452 OA
ATOM      8  C   UNL     1     176.387 179.484 171.068  1.00  0.00     0.209 A 
ATOM      9  C   UNL     1     175.914 178.842 169.902  1.00  0.00     0.211 A 
ATOM     10  C   UNL     1     176.004 177.437 169.779  1.00  0.00     0.208 A 
ATOM     11  C   UNL     1     176.702 176.681 170.754  1.00  0.00     0.179 A 
ENDROOT
BRANCH   1  12
ATOM     12  C   UNL     1     178.606 179.550 175.275  1.00  0.00     0.018 A 
ATOM     13  C   UNL     1     179.549 181.062 177.466  1.00  0.00     0.118 A 
ATOM     14  C   UNL     1     180.165 179.856 177.119  1.00  0.00     0.047 A 
ATOM     15  C   UNL     1     178.457 181.517 176.705  1.00  0.00     0.047 A 
ATOM     16  C   UNL     1     179.706 179.109 176.031  1.00  0.00     0.016 A 
ATOM     17  C   UNL     1     177.992 180.770 175.619  1.00  0.00     0.016 A 
BRANCH  13  18
ATOM     18  O   UNL     1     180.051 181.776 178.564  1.00  0.00    -0.497 OA
ATOM     19  C   UNL     1     180.350 181.198 179.829  1.00  0.00     0.278 C 
ENDBRANCH  13  18
ENDBRANCH   1  12
BRANCH   8  20
ATOM     20  O   UNL     1     176.252 180.865 171.312  1.00  0.00    -0.490 OA
ATOM     21  C   UNL     1     175.078 181.539 171.753  1.00  0.00     0.278 C 
ENDBRANCH   8  20
BRANCH  11  22
ATOM     22  O   UNL     1     176.889 175.285 170.647  1.00  0.00    -0.492 OA
ATOM     23  C   UNL     1     175.920 174.266 170.875  1.00  0.00     0.278 C 
ENDBRANCH  11  22
BRANCH   9  24
ATOM     24  O   UNL     1     175.390 179.598 168.853  1.00  0.00    -0.490 OA
ATOM     25  C   UNL     1     176.226 180.172 167.854  1.00  0.00     0.279 C 
ENDBRANCH   9  24
BRANCH  10  26
ATOM     26  O   UNL     1     175.394 176.785 168.699  1.00  0.00    -0.490 OA
ATOM     27  C   UNL     1     174.010 176.452 168.660  1.00  0.00     0.278 C 
ENDBRANCH  10  26
TORSDOF 6
ENDMDL
MODEL 6
REMARK VINA RESULT:    -6.051      2.522      4.241
REMARK INTER + INTRA:          -8.792
REMARK INTER:                  -8.091
REMARK INTRA:                  -0.701
REMARK UNBOUND:                -0.619
REMARK SMILES COc1ccc(-c2cc(=O)c3c(OC)c(OC)c(OC)c(OC)c3o2)cc1
REMARK SMILES IDX 7 1 8 2 9 3 10 4 11 5 24 6 25 7 21 8 18 9 15 10 12 11 6 12
REMARK SMILES IDX 3 13 4 14 27 15 5 16 26 17 2 18 1 19 22 20 23 21 13 22 14 23
REMARK SMILES IDX 19 24 20 25 16 26 17 27
REMARK H PARENT
REMARK Flexibility Score: inf
ROOT
ATOM      1  C   UNL     1     179.215 178.129 174.484  1.00  0.00     0.138 A 
ATOM      2  C   UNL     1     180.029 177.001 174.322  1.00  0.00     0.100 A 
ATOM      3  C   UNL     1     179.796 176.135 173.255  1.00  0.00     0.197 A 
ATOM      4  O   UNL     1     180.538 175.124 173.126  1.00  0.00    -0.289 OA
ATOM      5  C   UNL     1     178.746 176.406 172.347  1.00  0.00     0.115 A 
ATOM      6  C   UNL     1     177.982 177.575 172.568  1.00  0.00     0.188 A 
ATOM      7  O   UNL     1     178.245 178.366 173.605  1.00  0.00    -0.452 OA
ATOM      8  C   UNL     1     176.943 177.931 171.705  1.00  0.00     0.209 A 
ATOM      9  C   UNL     1     176.664 177.118 170.584  1.00  0.00     0.211 A 
ATOM     10  C   UNL     1     177.354 175.899 170.401  1.00  0.00     0.208 A 
ATOM     11  C   UNL     1     178.432 175.558 171.256  1.00  0.00     0.179 A 
ENDROOT
BRANCH   1  12
ATOM     12  C   UNL     1     179.409 179.082 175.606  1.00  0.00     0.018 A 
ATOM     13  C   UNL     1     179.708 180.911 177.737  1.00  0.00     0.118 A 
ATOM     14  C   UNL     1     178.794 181.163 176.710  1.00  0.00     0.047 A 
ATOM     15  C   UNL     1     180.473 179.731 177.699  1.00  0.00     0.047 A 
ATOM     16  C   UNL     1     178.639 180.257 175.658  1.00  0.00     0.016 A 
ATOM     17  C   UNL     1     180.323 178.825 176.646  1.00  0.00     0.016 A 
BRANCH  13  18
ATOM     18  O   UNL     1     179.824 181.851 178.772  1.00  0.00    -0.497 OA
ATOM     19  C   UNL     1     180.734 181.740 179.860  1.00  0.00     0.278 C 
ENDBRANCH  13  18
ENDBRANCH   1  12
BRANCH   8  20
ATOM     20  O   UNL     1     176.238 179.112 172.012  1.00  0.00    -0.490 OA
ATOM     21  C   UNL     1     176.576 180.433 171.603  1.00  0.00     0.278 C 
ENDBRANCH   8  20
BRANCH  11  22
ATOM     22  O   UNL     1     179.207 174.391 171.077  1.00  0.00    -0.492 OA
ATOM     23  C   UNL     1     180.062 174.084 169.981  1.00  0.00     0.278 C 
ENDBRANCH  11  22
BRANCH   9  24
ATOM     24  O   UNL     1     175.729 177.535 169.635  1.00  0.00    -0.490 OA
ATOM     25  C   UNL     1     176.099 178.358 168.533  1.00  0.00     0.279 C 
ENDBRANCH   9  24
BRANCH  10  26
ATOM     26  O   UNL     1     176.968 175.018 169.382  1.00  0.00    -0.490 OA
ATOM     27  C   UNL     1     175.991 173.996 169.553  1.00  0.00     0.278 C 
ENDBRANCH  10  26
TORSDOF 6
ENDMDL
MODEL 7
REMARK VINA RESULT:    -5.986      5.001      7.226
REMARK INTER + INTRA:          -8.705
REMARK INTER:                  -7.986
REMARK INTRA:                  -0.719
REMARK UNBOUND:                -0.619
REMARK SMILES COc1ccc(-c2cc(=O)c3c(OC)c(OC)c(OC)c(OC)c3o2)cc1
REMARK SMILES IDX 7 1 8 2 9 3 10 4 11 5 24 6 25 7 21 8 18 9 15 10 12 11 6 12
REMARK SMILES IDX 3 13 4 14 27 15 5 16 26 17 2 18 1 19 22 20 23 21 13 22 14 23
REMARK SMILES IDX 19 24 20 25 16 26 17 27
REMARK H PARENT
REMARK Flexibility Score: inf
ROOT
ATOM      1  C   UNL     1     181.661 182.478 174.343  1.00  0.00     0.138 A 
ATOM      2  C   UNL     1     180.924 183.664 174.222  1.00  0.00     0.100 A 
ATOM      3  C   UNL     1     181.186 184.528 173.160  1.00  0.00     0.197 A 
ATOM      4  O   UNL     1     180.515 185.592 173.069  1.00  0.00    -0.289 OA
ATOM      5  C   UNL     1     182.186 184.198 172.215  1.00  0.00     0.115 A 
ATOM      6  C   UNL     1     182.870 182.975 172.396  1.00  0.00     0.188 A 
ATOM      7  O   UNL     1     182.583 182.188 173.430  1.00  0.00    -0.452 OA
ATOM      8  C   UNL     1     183.854 182.559 171.495  1.00  0.00     0.209 A 
ATOM      9  C   UNL     1     184.156 183.368 170.378  1.00  0.00     0.211 A 
ATOM     10  C   UNL     1     183.550 184.636 170.234  1.00  0.00     0.208 A 
ATOM     11  C   UNL     1     182.525 185.040 171.127  1.00  0.00     0.179 A 
ENDROOT
BRANCH   1  12
ATOM     12  C   UNL     1     181.433 181.523 175.456  1.00  0.00     0.018 A 
ATOM     13  C   UNL     1     180.929 179.719 177.570  1.00  0.00     0.118 A 
ATOM     14  C   UNL     1     180.153 180.873 177.422  1.00  0.00     0.047 A 
ATOM     15  C   UNL     1     181.961 179.465 176.648  1.00  0.00     0.047 A 
ATOM     16  C   UNL     1     180.396 181.764 176.374  1.00  0.00     0.016 A 
ATOM     17  C   UNL     1     182.208 180.357 175.600  1.00  0.00     0.016 A 
BRANCH  13  18
ATOM     18  O   UNL     1     180.644 178.855 178.637  1.00  0.00    -0.497 OA
ATOM     19  C   UNL     1     180.098 179.272 179.884  1.00  0.00     0.278 C 
ENDBRANCH  13  18
ENDBRANCH   1  12
BRANCH   8  20
ATOM     20  O   UNL     1     184.481 181.326 171.763  1.00  0.00    -0.490 OA
ATOM     21  C   UNL     1     184.111 180.054 171.242  1.00  0.00     0.278 C 
ENDBRANCH   8  20
BRANCH  11  22
ATOM     22  O   UNL     1     181.831 186.262 170.990  1.00  0.00    -0.492 OA
ATOM     23  C   UNL     1     180.963 186.645 169.928  1.00  0.00     0.278 C 
ENDBRANCH  11  22
BRANCH   9  24
ATOM     24  O   UNL     1     185.028 182.902 169.393  1.00  0.00    -0.490 OA
ATOM     25  C   UNL     1     184.556 182.206 168.244  1.00  0.00     0.279 C 
ENDBRANCH   9  24
BRANCH  10  26
ATOM     26  O   UNL     1     183.966 185.504 169.215  1.00  0.00    -0.490 OA
ATOM     27  C   UNL     1     185.018 186.452 169.370  1.00  0.00     0.278 C 
ENDBRANCH  10  26
TORSDOF 6
ENDMDL
MODEL 8
REMARK VINA RESULT:    -5.966      5.006      7.364
REMARK INTER + INTRA:          -8.678
REMARK INTER:                  -8.051
REMARK INTRA:                  -0.627
REMARK UNBOUND:                -0.619
REMARK SMILES COc1ccc(-c2cc(=O)c3c(OC)c(OC)c(OC)c(OC)c3o2)cc1
REMARK SMILES IDX 7 1 8 2 9 3 10 4 11 5 24 6 25 7 21 8 18 9 15 10 12 11 6 12
REMARK SMILES IDX 3 13 4 14 27 15 5 16 26 17 2 18 1 19 22 20 23 21 13 22 14 23
REMARK SMILES IDX 19 24 20 25 16 26 17 27
REMARK H PARENT
REMARK Flexibility Score: inf
ROOT
ATOM      1  C   UNL     1     182.146 181.763 174.462  1.00  0.00     0.138 A 
ATOM      2  C   UNL     1     183.185 181.082 173.815  1.00  0.00     0.100 A 
ATOM      3  C   UNL     1     183.725 181.608 172.644  1.00  0.00     0.197 A 
ATOM      4  O   UNL     1     184.658 180.980 172.074  1.00  0.00    -0.289 OA
ATOM      5  C   UNL     1     183.224 182.824 172.123  1.00  0.00     0.115 A 
ATOM      6  C   UNL     1     182.188 183.461 172.845  1.00  0.00     0.188 A 
ATOM      7  O   UNL     1     181.706 182.913 173.957  1.00  0.00    -0.452 OA
ATOM      8  C   UNL     1     181.653 184.678 172.415  1.00  0.00     0.209 A 
ATOM      9  C   UNL     1     182.168 185.289 171.251  1.00  0.00     0.211 A 
ATOM     10  C   UNL     1     183.135 184.621 170.467  1.00  0.00     0.208 A 
ATOM     11  C   UNL     1     183.704 183.405 170.923  1.00  0.00     0.179 A 
ENDROOT
BRANCH   1  12
ATOM     12  C   UNL     1     181.525 181.248 175.708  1.00  0.00     0.018 A 
ATOM     13  C   UNL     1     180.280 180.296 178.058  1.00  0.00     0.118 A 
ATOM     14  C   UNL     1     179.892 181.515 177.495  1.00  0.00     0.047 A 
ATOM     15  C   UNL     1     181.294 179.546 177.435  1.00  0.00     0.047 A 
ATOM     16  C   UNL     1     180.501 181.986 176.328  1.00  0.00     0.016 A 
ATOM     17  C   UNL     1     181.908 180.016 176.271  1.00  0.00     0.016 A 
BRANCH  13  18
ATOM     18  O   UNL     1     179.636 179.867 179.227  1.00  0.00    -0.497 OA
ATOM     19  C   UNL     1     179.875 178.617 179.864  1.00  0.00     0.278 C 
ENDBRANCH  13  18
ENDBRANCH   1  12
BRANCH   8  20
ATOM     20  O   UNL     1     180.622 185.232 173.201  1.00  0.00    -0.490 OA
ATOM     21  C   UNL     1     179.230 184.961 173.086  1.00  0.00     0.278 C 
ENDBRANCH   8  20
BRANCH  11  22
ATOM     22  O   UNL     1     184.727 182.731 170.221  1.00  0.00    -0.492 OA
ATOM     23  C   UNL     1     184.622 182.081 168.958  1.00  0.00     0.278 C 
ENDBRANCH  11  22
BRANCH   9  24
ATOM     24  O   UNL     1     181.748 186.570 170.890  1.00  0.00    -0.490 OA
ATOM     25  C   UNL     1     180.596 186.779 170.080  1.00  0.00     0.279 C 
ENDBRANCH   9  24
BRANCH  10  26
ATOM     26  O   UNL     1     183.529 185.152 169.231  1.00  0.00    -0.490 OA
ATOM     27  C   UNL     1     184.640 186.029 169.070  1.00  0.00     0.278 C 
ENDBRANCH  10  26
TORSDOF 6
ENDMDL
MODEL 9
REMARK VINA RESULT:    -5.900      1.823      2.816
REMARK INTER + INTRA:          -8.588
REMARK INTER:                  -7.976
REMARK INTRA:                  -0.612
REMARK UNBOUND:                -0.619
REMARK SMILES COc1ccc(-c2cc(=O)c3c(OC)c(OC)c(OC)c(OC)c3o2)cc1
REMARK SMILES IDX 7 1 8 2 9 3 10 4 11 5 24 6 25 7 21 8 18 9 15 10 12 11 6 12
REMARK SMILES IDX 3 13 4 14 27 15 5 16 26 17 2 18 1 19 22 20 23 21 13 22 14 23
REMARK SMILES IDX 19 24 20 25 16 26 17 27
REMARK H PARENT
REMARK Flexibility Score: inf
ROOT
ATOM      1  C   UNL     1     178.459 177.904 174.319  1.00  0.00     0.138 A 
ATOM      2  C   UNL     1     177.116 177.527 174.185  1.00  0.00     0.100 A 
ATOM      3  C   UNL     1     176.764 176.576 173.230  1.00  0.00     0.197 A 
ATOM      4  O   UNL     1     175.550 176.250 173.122  1.00  0.00    -0.289 OA
ATOM      5  C   UNL     1     177.763 175.998 172.411  1.00  0.00     0.115 A 
ATOM      6  C   UNL     1     179.097 176.417 172.622  1.00  0.00     0.188 A 
ATOM      7  O   UNL     1     179.377 177.332 173.546  1.00  0.00    -0.452 OA
ATOM      8  C   UNL     1     180.148 175.879 171.875  1.00  0.00     0.209 A 
ATOM      9  C   UNL     1     179.873 174.888 170.907  1.00  0.00     0.211 A 
ATOM     10  C   UNL     1     178.538 174.528 170.618  1.00  0.00     0.208 A 
ATOM     11  C   UNL     1     177.476 175.046 171.401  1.00  0.00     0.179 A 
ENDROOT
BRANCH   1  12
ATOM     12  C   UNL     1     178.894 178.919 175.312  1.00  0.00     0.018 A 
ATOM     13  C   UNL     1     179.790 180.827 177.191  1.00  0.00     0.118 A 
ATOM     14  C   UNL     1     180.435 179.593 177.072  1.00  0.00     0.047 A 
ATOM     15  C   UNL     1     178.692 181.109 176.358  1.00  0.00     0.047 A 
ATOM     16  C   UNL     1     179.999 178.649 176.139  1.00  0.00     0.016 A 
ATOM     17  C   UNL     1     178.250 180.165 175.427  1.00  0.00     0.016 A 
BRANCH  13  18
ATOM     18  O   UNL     1     180.269 181.741 178.141  1.00  0.00    -0.497 OA
ATOM     19  C   UNL     1     180.420 181.454 179.527  1.00  0.00     0.278 C 
ENDBRANCH  13  18
ENDBRANCH   1  12
BRANCH   8  20
ATOM     20  O   UNL     1     181.441 176.363 172.157  1.00  0.00    -0.490 OA
ATOM     21  C   UNL     1     182.373 175.808 173.079  1.00  0.00     0.278 C 
ENDBRANCH   8  20
BRANCH  11  22
ATOM     22  O   UNL     1     176.130 174.665 171.210  1.00  0.00    -0.492 OA
ATOM     23  C   UNL     1     175.289 174.999 170.110  1.00  0.00     0.278 C 
ENDBRANCH  11  22
BRANCH   9  24
ATOM     24  O   UNL     1     180.923 174.237 170.257  1.00  0.00    -0.490 OA
ATOM     25  C   UNL     1     181.508 173.051 170.785  1.00  0.00     0.279 C 
ENDBRANCH   9  24
BRANCH  10  26
ATOM     26  O   UNL     1     178.257 173.665 169.551  1.00  0.00    -0.490 OA
ATOM     27  C   UNL     1     178.262 174.074 168.186  1.00  0.00     0.278 C 
ENDBRANCH  10  26
TORSDOF 6
ENDMDL
