MODEL 1
REMARK VINA RESULT:    -8.153      0.000      0.000
REMARK INTER + INTRA:          -8.909
REMARK INTER:                  -8.867
REMARK INTRA:                  -0.041
REMARK UNBOUND:                -0.041
REMARK SMILES C[C@H]1[C@H](C)CC[C@@]2(C(=O)[O-])CC[C@@]3(C)C(=CC[C@@H]4[C@@]5(C)CC[C@H](O)C(C)(C)[C@@H]5CC[C@@]43C)[C@@H]12
REMARK SMILES IDX 7 1 6 2 11 3 33 4 5 5 12 6 15 7 2 8 3 9 13 10 16 11 1 12
REMARK SMILES IDX 4 13 14 14 31 15 17 16 18 17 30 18 32 19 19 20 29 21 28 22
REMARK SMILES IDX 21 23 20 24 25 25 22 26 23 27 26 28 27 29 8 30 9 31 10 32
REMARK SMILES IDX 24 33
REMARK H PARENT 24 34
REMARK Flexibility Score: inf
ROOT
ATOM      1  C   UNL     1     -20.764 -11.371 -46.233  1.00  0.00     0.017 C 
ATOM      2  C   UNL     1     -19.275 -11.037 -46.548  1.00  0.00     0.014 C 
ATOM      3  C   UNL     1     -21.383 -12.164 -47.440  1.00  0.00     0.014 C 
ATOM      4  C   UNL     1     -20.801 -12.200 -44.899  1.00  0.00     0.030 C 
ATOM      5  C   UNL     1     -18.570 -10.279 -45.412  1.00  0.00     0.004 C 
ATOM      6  C   UNL     1     -22.056 -13.483 -47.028  1.00  0.00     0.013 C 
ATOM      7  C   UNL     1     -20.365 -13.664 -45.161  1.00  0.00    -0.063 C 
ATOM      8  C   UNL     1     -20.111 -11.404 -43.735  1.00  0.00    -0.003 C 
ATOM      9  C   UNL     1     -18.636 -11.040 -44.069  1.00  0.00    -0.011 C 
ATOM     10  C   UNL     1     -21.058 -14.442 -46.294  1.00  0.00    -0.006 C 
ATOM     11  C   UNL     1     -19.549 -14.356 -44.337  1.00  0.00    -0.027 C 
ATOM     12  C   UNL     1     -20.329 -12.048 -42.342  1.00  0.00     0.008 C 
ATOM     13  C   UNL     1     -17.999 -10.164 -42.974  1.00  0.00     0.008 C 
ATOM     14  C   UNL     1     -19.984 -14.856 -47.357  1.00  0.00     0.017 C 
ATOM     15  C   UNL     1     -21.779 -15.729 -45.653  1.00  0.00    -0.020 C 
ATOM     16  C   UNL     1     -19.405 -15.847 -44.454  1.00  0.00     0.032 C 
ATOM     17  C   UNL     1     -20.790 -16.527 -44.665  1.00  0.00     0.006 C 
ATOM     18  C   UNL     1     -22.341 -16.647 -46.781  1.00  0.00     0.008 C 
ATOM     19  C   UNL     1     -23.017 -15.261 -44.810  1.00  0.00     0.012 C 
ATOM     20  C   UNL     1     -20.720 -18.109 -44.846  1.00  0.00    -0.025 C 
ATOM     21  C   UNL     1     -22.896 -18.000 -46.306  1.00  0.00     0.005 C 
ATOM     22  C   UNL     1     -22.186 -18.628 -45.071  1.00  0.00     0.003 C 
ATOM     23  C   UNL     1     -20.172 -18.727 -43.518  1.00  0.00     0.010 C 
ATOM     24  C   UNL     1     -19.755 -18.511 -45.999  1.00  0.00     0.012 C 
ATOM     25  C   UNL     1     -22.451 -20.182 -44.887  1.00  0.00    -0.006 C 
ATOM     26  C   UNL     1     -20.350 -20.244 -43.404  1.00  0.00     0.033 C 
ATOM     27  C   UNL     1     -21.827 -20.642 -43.532  1.00  0.00     0.120 C 
ATOM     28  C   UNL     1     -23.986 -20.410 -44.791  1.00  0.00     0.014 C 
ATOM     29  C   UNL     1     -21.930 -21.081 -46.051  1.00  0.00     0.014 C 
ENDROOT
BRANCH   1  30
ATOM     30  C   UNL     1     -21.581 -10.089 -46.086  1.00  0.00     0.048 C 
ATOM     31  O   UNL     1     -21.437  -9.130 -46.895  1.00  0.00    -0.550 OA
ATOM     32  O   UNL     1     -22.593 -10.012 -45.137  1.00  0.00    -0.550 OA
ENDBRANCH   1  30
BRANCH  27  33
ATOM     33  O   UNL     1     -21.937 -22.038 -43.388  1.00  0.00    -0.393 OA
ATOM     34  H   UNL     1     -21.090 -22.366 -42.989  1.00  0.00     0.210 HD
ENDBRANCH  27  33
TORSDOF 2
ENDMDL
MODEL 2
REMARK VINA RESULT:    -7.966      1.816      7.956
REMARK INTER + INTRA:          -8.706
REMARK INTER:                  -8.782
REMARK INTRA:                   0.075
REMARK UNBOUND:                -0.041
REMARK SMILES C[C@H]1[C@H](C)CC[C@@]2(C(=O)[O-])CC[C@@]3(C)C(=CC[C@@H]4[C@@]5(C)CC[C@H](O)C(C)(C)[C@@H]5CC[C@@]43C)[C@@H]12
REMARK SMILES IDX 7 1 6 2 11 3 33 4 5 5 12 6 15 7 2 8 3 9 13 10 16 11 1 12
REMARK SMILES IDX 4 13 14 14 31 15 17 16 18 17 30 18 32 19 19 20 29 21 28 22
REMARK SMILES IDX 21 23 20 24 25 25 22 26 23 27 26 28 27 29 8 30 9 31 10 32
REMARK SMILES IDX 24 33
REMARK H PARENT 24 34
REMARK Flexibility Score: inf
ROOT
ATOM      1  C   UNL     1     -22.226 -18.656 -46.018  1.00  0.00     0.017 C 
ATOM      2  C   UNL     1     -22.875 -19.365 -44.791  1.00  0.00     0.014 C 
ATOM      3  C   UNL     1     -23.196 -17.533 -46.539  1.00  0.00     0.014 C 
ATOM      4  C   UNL     1     -20.839 -18.075 -45.563  1.00  0.00     0.030 C 
ATOM      5  C   UNL     1     -21.989 -20.468 -44.192  1.00  0.00     0.004 C 
ATOM      6  C   UNL     1     -22.525 -16.156 -46.670  1.00  0.00     0.013 C 
ATOM      7  C   UNL     1     -21.042 -16.786 -44.727  1.00  0.00    -0.063 C 
ATOM      8  C   UNL     1     -19.927 -19.215 -44.985  1.00  0.00    -0.003 C 
ATOM      9  C   UNL     1     -20.594 -19.944 -43.783  1.00  0.00    -0.011 C 
ATOM     10  C   UNL     1     -21.925 -15.668 -45.308  1.00  0.00    -0.006 C 
ATOM     11  C   UNL     1     -20.341 -16.508 -43.606  1.00  0.00    -0.027 C 
ATOM     12  C   UNL     1     -18.463 -18.764 -44.747  1.00  0.00     0.008 C 
ATOM     13  C   UNL     1     -19.746 -21.133 -43.292  1.00  0.00     0.008 C 
ATOM     14  C   UNL     1     -23.142 -15.431 -44.351  1.00  0.00     0.017 C 
ATOM     15  C   UNL     1     -21.026 -14.342 -45.458  1.00  0.00    -0.020 C 
ATOM     16  C   UNL     1     -20.339 -15.130 -43.009  1.00  0.00     0.032 C 
ATOM     17  C   UNL     1     -20.191 -14.043 -44.114  1.00  0.00     0.006 C 
ATOM     18  C   UNL     1     -21.917 -13.132 -45.872  1.00  0.00     0.008 C 
ATOM     19  C   UNL     1     -19.993 -14.547 -46.622  1.00  0.00     0.012 C 
ATOM     20  C   UNL     1     -20.227 -12.546 -43.567  1.00  0.00    -0.025 C 
ATOM     21  C   UNL     1     -21.207 -11.768 -45.872  1.00  0.00     0.005 C 
ATOM     22  C   UNL     1     -20.091 -11.584 -44.803  1.00  0.00     0.003 C 
ATOM     23  C   UNL     1     -18.987 -12.338 -42.636  1.00  0.00     0.010 C 
ATOM     24  C   UNL     1     -21.509 -12.273 -42.730  1.00  0.00     0.012 C 
ATOM     25  C   UNL     1     -19.705 -10.072 -44.516  1.00  0.00    -0.006 C 
ATOM     26  C   UNL     1     -18.691 -10.876 -42.293  1.00  0.00     0.033 C 
ATOM     27  C   UNL     1     -18.470 -10.040 -43.560  1.00  0.00     0.120 C 
ATOM     28  C   UNL     1     -19.271  -9.414 -45.856  1.00  0.00     0.014 C 
ATOM     29  C   UNL     1     -20.858  -9.198 -43.933  1.00  0.00     0.014 C 
ENDROOT
BRANCH   1  30
ATOM     30  C   UNL     1     -22.040 -19.641 -47.170  1.00  0.00     0.048 C 
ATOM     31  O   UNL     1     -21.255 -19.384 -48.125  1.00  0.00    -0.550 OA
ATOM     32  O   UNL     1     -22.632 -20.897 -47.116  1.00  0.00    -0.550 OA
ENDBRANCH   1  30
BRANCH  27  33
ATOM     33  O   UNL     1     -18.171  -8.716 -43.188  1.00  0.00    -0.393 OA
ATOM     34  H   UNL     1     -18.603  -8.546 -42.311  1.00  0.00     0.210 HD
ENDBRANCH  27  33
TORSDOF 2
ENDMDL
MODEL 3
REMARK VINA RESULT:    -6.853      1.369      8.014
REMARK INTER + INTRA:          -7.496
REMARK INTER:                  -7.676
REMARK INTRA:                   0.180
REMARK UNBOUND:                -0.041
REMARK SMILES C[C@H]1[C@H](C)CC[C@@]2(C(=O)[O-])CC[C@@]3(C)C(=CC[C@@H]4[C@@]5(C)CC[C@H](O)C(C)(C)[C@@H]5CC[C@@]43C)[C@@H]12
REMARK SMILES IDX 7 1 6 2 11 3 33 4 5 5 12 6 15 7 2 8 3 9 13 10 16 11 1 12
REMARK SMILES IDX 4 13 14 14 31 15 17 16 18 17 30 18 32 19 19 20 29 21 28 22
REMARK SMILES IDX 21 23 20 24 25 25 22 26 23 27 26 28 27 29 8 30 9 31 10 32
REMARK SMILES IDX 24 33
REMARK H PARENT 24 34
REMARK Flexibility Score: inf
ROOT
ATOM      1  C   UNL     1     -22.190 -19.066 -45.476  1.00  0.00     0.017 C 
ATOM      2  C   UNL     1     -22.686 -19.437 -44.046  1.00  0.00     0.014 C 
ATOM      3  C   UNL     1     -23.278 -18.182 -46.188  1.00  0.00     0.014 C 
ATOM      4  C   UNL     1     -20.818 -18.313 -45.331  1.00  0.00     0.030 C 
ATOM      5  C   UNL     1     -21.676 -20.284 -43.256  1.00  0.00     0.004 C 
ATOM      6  C   UNL     1     -22.724 -16.864 -46.753  1.00  0.00     0.013 C 
ATOM      7  C   UNL     1     -21.050 -16.854 -44.863  1.00  0.00    -0.063 C 
ATOM      8  C   UNL     1     -19.781 -19.200 -44.554  1.00  0.00    -0.003 C 
ATOM      9  C   UNL     1     -20.296 -19.599 -43.142  1.00  0.00    -0.011 C 
ATOM     10  C   UNL     1     -22.057 -15.987 -45.640  1.00  0.00    -0.006 C 
ATOM     11  C   UNL     1     -20.286 -16.241 -43.933  1.00  0.00    -0.027 C 
ATOM     12  C   UNL     1     -18.341 -18.628 -44.591  1.00  0.00     0.008 C 
ATOM     13  C   UNL     1     -19.326 -20.560 -42.429  1.00  0.00     0.008 C 
ATOM     14  C   UNL     1     -23.209 -15.554 -44.672  1.00  0.00     0.017 C 
ATOM     15  C   UNL     1     -21.273 -14.712 -46.231  1.00  0.00    -0.020 C 
ATOM     16  C   UNL     1     -20.340 -14.752 -43.737  1.00  0.00     0.032 C 
ATOM     17  C   UNL     1     -20.360 -14.009 -45.106  1.00  0.00     0.006 C 
ATOM     18  C   UNL     1     -22.282 -13.712 -46.872  1.00  0.00     0.008 C 
ATOM     19  C   UNL     1     -20.323 -15.181 -47.389  1.00  0.00     0.012 C 
ATOM     20  C   UNL     1     -20.465 -12.424 -44.987  1.00  0.00    -0.025 C 
ATOM     21  C   UNL     1     -21.678 -12.368 -47.313  1.00  0.00     0.005 C 
ATOM     22  C   UNL     1     -20.498 -11.838 -46.446  1.00  0.00     0.003 C 
ATOM     23  C   UNL     1     -19.175 -11.904 -44.272  1.00  0.00     0.010 C 
ATOM     24  C   UNL     1     -21.695 -11.993 -44.137  1.00  0.00     0.012 C 
ATOM     25  C   UNL     1     -20.205 -10.289 -46.621  1.00  0.00    -0.006 C 
ATOM     26  C   UNL     1     -18.963 -10.390 -44.370  1.00  0.00     0.033 C 
ATOM     27  C   UNL     1     -18.905  -9.930 -45.833  1.00  0.00     0.120 C 
ATOM     28  C   UNL     1     -19.927 -10.009 -48.125  1.00  0.00     0.014 C 
ATOM     29  C   UNL     1     -21.371  -9.345 -46.190  1.00  0.00     0.014 C 
ENDROOT
BRANCH   1  30
ATOM     30  C   UNL     1     -22.021 -20.323 -46.328  1.00  0.00     0.048 C 
ATOM     31  O   UNL     1     -22.226 -21.470 -45.841  1.00  0.00    -0.550 OA
ATOM     32  O   UNL     1     -21.767 -20.213 -47.689  1.00  0.00    -0.550 OA
ENDBRANCH   1  30
BRANCH  27  33
ATOM     33  O   UNL     1     -18.677  -8.542 -45.866  1.00  0.00    -0.393 OA
ATOM     34  H   UNL     1     -17.707  -8.393 -45.723  1.00  0.00     0.210 HD
ENDBRANCH  27  33
TORSDOF 2
ENDMDL
MODEL 4
REMARK VINA RESULT:    -6.597      1.639      8.359
REMARK INTER + INTRA:          -7.217
REMARK INTER:                  -7.174
REMARK INTRA:                  -0.043
REMARK UNBOUND:                -0.041
REMARK SMILES C[C@H]1[C@H](C)CC[C@@]2(C(=O)[O-])CC[C@@]3(C)C(=CC[C@@H]4[C@@]5(C)CC[C@H](O)C(C)(C)[C@@H]5CC[C@@]43C)[C@@H]12
REMARK SMILES IDX 7 1 6 2 11 3 33 4 5 5 12 6 15 7 2 8 3 9 13 10 16 11 1 12
REMARK SMILES IDX 4 13 14 14 31 15 17 16 18 17 30 18 32 19 19 20 29 21 28 22
REMARK SMILES IDX 21 23 20 24 25 25 22 26 23 27 26 28 27 29 8 30 9 31 10 32
REMARK SMILES IDX 24 33
REMARK H PARENT 24 34
REMARK Flexibility Score: inf
ROOT
ATOM      1  C   UNL     1     -19.604 -19.283 -43.493  1.00  0.00     0.017 C 
ATOM      2  C   UNL     1     -19.937 -20.061 -44.802  1.00  0.00     0.014 C 
ATOM      3  C   UNL     1     -18.272 -18.475 -43.696  1.00  0.00     0.014 C 
ATOM      4  C   UNL     1     -20.821 -18.346 -43.165  1.00  0.00     0.030 C 
ATOM      5  C   UNL     1     -21.242 -20.867 -44.712  1.00  0.00     0.004 C 
ATOM      6  C   UNL     1     -18.400 -16.983 -43.348  1.00  0.00     0.013 C 
ATOM      7  C   UNL     1     -20.810 -17.104 -44.091  1.00  0.00    -0.063 C 
ATOM      8  C   UNL     1     -22.144 -19.182 -43.039  1.00  0.00    -0.003 C 
ATOM      9  C   UNL     1     -22.453 -19.986 -44.335  1.00  0.00    -0.011 C 
ATOM     10  C   UNL     1     -19.515 -16.280 -44.196  1.00  0.00    -0.006 C 
ATOM     11  C   UNL     1     -21.922 -16.593 -44.665  1.00  0.00    -0.027 C 
ATOM     12  C   UNL     1     -23.333 -18.363 -42.476  1.00  0.00     0.008 C 
ATOM     13  C   UNL     1     -23.688 -20.891 -44.167  1.00  0.00     0.008 C 
ATOM     14  C   UNL     1     -19.016 -16.303 -45.681  1.00  0.00     0.017 C 
ATOM     15  C   UNL     1     -19.828 -14.781 -43.703  1.00  0.00    -0.020 C 
ATOM     16  C   UNL     1     -21.921 -15.226 -45.288  1.00  0.00     0.032 C 
ATOM     17  C   UNL     1     -21.164 -14.203 -44.390  1.00  0.00     0.006 C 
ATOM     18  C   UNL     1     -18.595 -13.862 -43.960  1.00  0.00     0.008 C 
ATOM     19  C   UNL     1     -20.057 -14.786 -42.150  1.00  0.00     0.012 C 
ATOM     20  C   UNL     1     -21.076 -12.735 -45.004  1.00  0.00    -0.025 C 
ATOM     21  C   UNL     1     -18.831 -12.365 -43.698  1.00  0.00     0.005 C 
ATOM     22  C   UNL     1     -20.268 -11.844 -43.992  1.00  0.00     0.003 C 
ATOM     23  C   UNL     1     -22.529 -12.167 -45.117  1.00  0.00     0.010 C 
ATOM     24  C   UNL     1     -20.451 -12.747 -46.428  1.00  0.00     0.012 C 
ATOM     25  C   UNL     1     -20.369 -10.269 -44.160  1.00  0.00    -0.006 C 
ATOM     26  C   UNL     1     -22.601 -10.660 -45.377  1.00  0.00     0.033 C 
ATOM     27  C   UNL     1     -21.874  -9.870 -44.280  1.00  0.00     0.120 C 
ATOM     28  C   UNL     1     -19.814  -9.602 -42.870  1.00  0.00     0.014 C 
ATOM     29  C   UNL     1     -19.561  -9.682 -45.359  1.00  0.00     0.014 C 
ENDROOT
BRANCH   1  30
ATOM     30  C   UNL     1     -19.354 -20.255 -42.341  1.00  0.00     0.048 C 
ATOM     31  O   UNL     1     -19.022 -21.453 -42.562  1.00  0.00    -0.550 OA
ATOM     32  O   UNL     1     -19.360 -19.798 -41.029  1.00  0.00    -0.550 OA
ENDBRANCH   1  30
BRANCH  27  33
ATOM     33  O   UNL     1     -21.998  -8.495 -44.550  1.00  0.00    -0.393 OA
ATOM     34  H   UNL     1     -22.385  -8.065 -43.744  1.00  0.00     0.210 HD
ENDBRANCH  27  33
TORSDOF 2
ENDMDL
MODEL 5
REMARK VINA RESULT:    -6.096      1.643      3.579
REMARK INTER + INTRA:          -6.672
REMARK INTER:                  -6.827
REMARK INTRA:                   0.155
REMARK UNBOUND:                -0.041
REMARK SMILES C[C@H]1[C@H](C)CC[C@@]2(C(=O)[O-])CC[C@@]3(C)C(=CC[C@@H]4[C@@]5(C)CC[C@H](O)C(C)(C)[C@@H]5CC[C@@]43C)[C@@H]12
REMARK SMILES IDX 7 1 6 2 11 3 33 4 5 5 12 6 15 7 2 8 3 9 13 10 16 11 1 12
REMARK SMILES IDX 4 13 14 14 31 15 17 16 18 17 30 18 32 19 19 20 29 21 28 22
REMARK SMILES IDX 21 23 20 24 25 25 22 26 23 27 26 28 27 29 8 30 9 31 10 32
REMARK SMILES IDX 24 33
REMARK H PARENT 24 34
REMARK Flexibility Score: inf
ROOT
ATOM      1  C   UNL     1     -20.000 -10.946 -44.153  1.00  0.00     0.017 C 
ATOM      2  C   UNL     1     -21.336 -10.153 -44.270  1.00  0.00     0.014 C 
ATOM      3  C   UNL     1     -19.960 -11.693 -42.771  1.00  0.00     0.014 C 
ATOM      4  C   UNL     1     -19.922 -11.941 -45.367  1.00  0.00     0.030 C 
ATOM      5  C   UNL     1     -21.482  -9.404 -45.603  1.00  0.00     0.004 C 
ATOM      6  C   UNL     1     -19.665 -13.197 -42.895  1.00  0.00     0.013 C 
ATOM      7  C   UNL     1     -20.847 -13.159 -45.126  1.00  0.00    -0.063 C 
ATOM      8  C   UNL     1     -20.035 -11.163 -46.726  1.00  0.00    -0.003 C 
ATOM      9  C   UNL     1     -21.354 -10.344 -46.823  1.00  0.00    -0.011 C 
ATOM     10  C   UNL     1     -20.719 -13.926 -43.797  1.00  0.00    -0.006 C 
ATOM     11  C   UNL     1     -21.628 -13.703 -46.085  1.00  0.00    -0.027 C 
ATOM     12  C   UNL     1     -19.719 -12.045 -47.962  1.00  0.00     0.008 C 
ATOM     13  C   UNL     1     -21.409  -9.495 -48.107  1.00  0.00     0.008 C 
ATOM     14  C   UNL     1     -22.082 -13.847 -43.030  1.00  0.00     0.017 C 
ATOM     15  C   UNL     1     -20.316 -15.447 -44.129  1.00  0.00    -0.020 C 
ATOM     16  C   UNL     1     -22.261 -15.053 -45.905  1.00  0.00     0.032 C 
ATOM     17  C   UNL     1     -21.251 -16.065 -45.285  1.00  0.00     0.006 C 
ATOM     18  C   UNL     1     -20.350 -16.308 -42.830  1.00  0.00     0.008 C 
ATOM     19  C   UNL     1     -18.834 -15.488 -44.645  1.00  0.00     0.012 C 
ATOM     20  C   UNL     1     -21.860 -17.513 -45.016  1.00  0.00    -0.025 C 
ATOM     21  C   UNL     1     -20.160 -17.819 -43.042  1.00  0.00     0.005 C 
ATOM     22  C   UNL     1     -20.728 -18.393 -44.373  1.00  0.00     0.003 C 
ATOM     23  C   UNL     1     -22.254 -18.138 -46.395  1.00  0.00     0.010 C 
ATOM     24  C   UNL     1     -23.140 -17.441 -44.135  1.00  0.00     0.012 C 
ATOM     25  C   UNL     1     -20.935 -19.966 -44.369  1.00  0.00    -0.006 C 
ATOM     26  C   UNL     1     -22.545 -19.641 -46.348  1.00  0.00     0.033 C 
ATOM     27  C   UNL     1     -21.343 -20.424 -45.805  1.00  0.00     0.120 C 
ATOM     28  C   UNL     1     -19.573 -20.639 -44.037  1.00  0.00     0.014 C 
ATOM     29  C   UNL     1     -21.968 -20.491 -43.324  1.00  0.00     0.014 C 
ENDROOT
BRANCH   1  30
ATOM     30  C   UNL     1     -18.807  -9.991 -44.169  1.00  0.00     0.048 C 
ATOM     31  O   UNL     1     -18.629  -9.158 -43.237  1.00  0.00    -0.550 OA
ATOM     32  O   UNL     1     -17.826 -10.118 -45.145  1.00  0.00    -0.550 OA
ENDBRANCH   1  30
BRANCH  27  33
ATOM     33  O   UNL     1     -21.652 -21.798 -45.814  1.00  0.00    -0.393 OA
ATOM     34  H   UNL     1     -22.381 -21.937 -46.472  1.00  0.00     0.210 HD
ENDBRANCH  27  33
TORSDOF 2
ENDMDL
MODEL 6
REMARK VINA RESULT:    -5.604      1.675      2.374
REMARK INTER + INTRA:          -6.137
REMARK INTER:                  -6.178
REMARK INTRA:                   0.041
REMARK UNBOUND:                -0.041
REMARK SMILES C[C@H]1[C@H](C)CC[C@@]2(C(=O)[O-])CC[C@@]3(C)C(=CC[C@@H]4[C@@]5(C)CC[C@H](O)C(C)(C)[C@@H]5CC[C@@]43C)[C@@H]12
REMARK SMILES IDX 7 1 6 2 11 3 33 4 5 5 12 6 15 7 2 8 3 9 13 10 16 11 1 12
REMARK SMILES IDX 4 13 14 14 31 15 17 16 18 17 30 18 32 19 19 20 29 21 28 22
REMARK SMILES IDX 21 23 20 24 25 25 22 26 23 27 26 28 27 29 8 30 9 31 10 32
REMARK SMILES IDX 24 33
REMARK H PARENT 24 34
REMARK Flexibility Score: inf
ROOT
ATOM      1  C   UNL     1     -20.942 -12.974 -47.019  1.00  0.00     0.017 C 
ATOM      2  C   UNL     1     -19.716 -12.473 -46.199  1.00  0.00     0.014 C 
ATOM      3  C   UNL     1     -20.450 -13.977 -48.125  1.00  0.00     0.014 C 
ATOM      4  C   UNL     1     -21.952 -13.644 -46.019  1.00  0.00     0.030 C 
ATOM      5  C   UNL     1     -20.097 -11.501 -45.072  1.00  0.00     0.004 C 
ATOM      6  C   UNL     1     -21.194 -15.322 -48.108  1.00  0.00     0.013 C 
ATOM      7  C   UNL     1     -21.451 -15.052 -45.611  1.00  0.00    -0.063 C 
ATOM      8  C   UNL     1     -22.364 -12.633 -44.891  1.00  0.00    -0.003 C 
ATOM      9  C   UNL     1     -21.133 -12.107 -44.098  1.00  0.00    -0.011 C 
ATOM     10  C   UNL     1     -21.064 -16.043 -46.723  1.00  0.00    -0.006 C 
ATOM     11  C   UNL     1     -21.513 -15.527 -44.347  1.00  0.00    -0.027 C 
ATOM     12  C   UNL     1     -23.540 -13.140 -44.017  1.00  0.00     0.008 C 
ATOM     13  C   UNL     1     -21.531 -11.032 -43.070  1.00  0.00     0.008 C 
ATOM     14  C   UNL     1     -19.552 -16.420 -46.565  1.00  0.00     0.017 C 
ATOM     15  C   UNL     1     -22.010 -17.338 -46.597  1.00  0.00    -0.020 C 
ATOM     16  C   UNL     1     -21.315 -16.986 -44.051  1.00  0.00     0.032 C 
ATOM     17  C   UNL     1     -22.077 -17.873 -45.081  1.00  0.00     0.006 C 
ATOM     18  C   UNL     1     -21.538 -18.446 -47.587  1.00  0.00     0.008 C 
ATOM     19  C   UNL     1     -23.470 -16.954 -47.030  1.00  0.00     0.012 C 
ATOM     20  C   UNL     1     -21.881 -19.440 -44.865  1.00  0.00    -0.025 C 
ATOM     21  C   UNL     1     -22.250 -19.801 -47.437  1.00  0.00     0.005 C 
ATOM     22  C   UNL     1     -22.688 -20.180 -45.991  1.00  0.00     0.003 C 
ATOM     23  C   UNL     1     -22.497 -19.821 -43.479  1.00  0.00     0.010 C 
ATOM     24  C   UNL     1     -20.375 -19.831 -44.847  1.00  0.00     0.012 C 
ATOM     25  C   UNL     1     -22.988 -21.725 -45.785  1.00  0.00    -0.006 C 
ATOM     26  C   UNL     1     -22.687 -21.325 -43.262  1.00  0.00     0.033 C 
ATOM     27  C   UNL     1     -23.574 -21.937 -44.353  1.00  0.00     0.120 C 
ATOM     28  C   UNL     1     -24.082 -22.153 -46.803  1.00  0.00     0.014 C 
ATOM     29  C   UNL     1     -21.765 -22.668 -46.009  1.00  0.00     0.014 C 
ENDROOT
BRANCH   1  30
ATOM     30  C   UNL     1     -21.609 -11.810 -47.750  1.00  0.00     0.048 C 
ATOM     31  O   UNL     1     -22.825 -11.865 -48.086  1.00  0.00    -0.550 OA
ATOM     32  O   UNL     1     -20.920 -10.618 -47.939  1.00  0.00    -0.550 OA
ENDBRANCH   1  30
BRANCH  27  33
ATOM     33  O   UNL     1     -23.742 -23.309 -44.089  1.00  0.00    -0.393 OA
ATOM     34  H   UNL     1     -24.558 -23.411 -43.534  1.00  0.00     0.210 HD
ENDBRANCH  27  33
TORSDOF 2
ENDMDL
MODEL 7
REMARK VINA RESULT:    -5.450      1.660      8.913
REMARK INTER + INTRA:          -5.969
REMARK INTER:                  -6.006
REMARK INTRA:                   0.037
REMARK UNBOUND:                -0.041
REMARK SMILES C[C@H]1[C@H](C)CC[C@@]2(C(=O)[O-])CC[C@@]3(C)C(=CC[C@@H]4[C@@]5(C)CC[C@H](O)C(C)(C)[C@@H]5CC[C@@]43C)[C@@H]12
REMARK SMILES IDX 7 1 6 2 11 3 33 4 5 5 12 6 15 7 2 8 3 9 13 10 16 11 1 12
REMARK SMILES IDX 4 13 14 14 31 15 17 16 18 17 30 18 32 19 19 20 29 21 28 22
REMARK SMILES IDX 21 23 20 24 25 25 22 26 23 27 26 28 27 29 8 30 9 31 10 32
REMARK SMILES IDX 24 33
REMARK H PARENT 24 34
REMARK Flexibility Score: inf
ROOT
ATOM      1  C   UNL     1     -22.341 -21.638 -44.916  1.00  0.00     0.017 C 
ATOM      2  C   UNL     1     -21.825 -22.431 -46.155  1.00  0.00     0.014 C 
ATOM      3  C   UNL     1     -21.120 -20.973 -44.182  1.00  0.00     0.014 C 
ATOM      4  C   UNL     1     -23.379 -20.572 -45.422  1.00  0.00     0.030 C 
ATOM      5  C   UNL     1     -22.952 -23.100 -46.957  1.00  0.00     0.004 C 
ATOM      6  C   UNL     1     -21.291 -19.463 -43.951  1.00  0.00     0.013 C 
ATOM      7  C   UNL     1     -22.646 -19.376 -46.079  1.00  0.00    -0.063 C 
ATOM      8  C   UNL     1     -24.545 -21.268 -46.210  1.00  0.00    -0.003 C 
ATOM      9  C   UNL     1     -24.023 -22.089 -47.424  1.00  0.00    -0.011 C 
ATOM     10  C   UNL     1     -21.514 -18.689 -45.294  1.00  0.00    -0.006 C 
ATOM     11  C   UNL     1     -23.064 -18.781 -47.219  1.00  0.00    -0.027 C 
ATOM     12  C   UNL     1     -25.725 -20.313 -46.522  1.00  0.00     0.008 C 
ATOM     13  C   UNL     1     -25.157 -22.860 -48.125  1.00  0.00     0.008 C 
ATOM     14  C   UNL     1     -20.180 -18.821 -46.104  1.00  0.00     0.017 C 
ATOM     15  C   UNL     1     -21.918 -17.148 -45.071  1.00  0.00    -0.020 C 
ATOM     16  C   UNL     1     -22.521 -17.448 -47.647  1.00  0.00     0.032 C 
ATOM     17  C   UNL     1     -22.426 -16.469 -46.440  1.00  0.00     0.006 C 
ATOM     18  C   UNL     1     -20.726 -16.366 -44.440  1.00  0.00     0.008 C 
ATOM     19  C   UNL     1     -23.095 -17.067 -44.036  1.00  0.00     0.012 C 
ATOM     20  C   UNL     1     -21.814 -15.043 -46.802  1.00  0.00    -0.025 C 
ATOM     21  C   UNL     1     -20.922 -14.844 -44.343  1.00  0.00     0.005 C 
ATOM     22  C   UNL     1     -21.766 -14.195 -45.479  1.00  0.00     0.003 C 
ATOM     23  C   UNL     1     -22.782 -14.339 -47.809  1.00  0.00     0.010 C 
ATOM     24  C   UNL     1     -20.421 -15.174 -47.483  1.00  0.00     0.012 C 
ATOM     25  C   UNL     1     -21.574 -12.626 -45.619  1.00  0.00    -0.006 C 
ATOM     26  C   UNL     1     -22.516 -12.844 -48.003  1.00  0.00     0.033 C 
ATOM     27  C   UNL     1     -22.595 -12.086 -46.671  1.00  0.00     0.120 C 
ATOM     28  C   UNL     1     -21.921 -11.966 -44.255  1.00  0.00     0.014 C 
ATOM     29  C   UNL     1     -20.129 -12.171 -45.990  1.00  0.00     0.014 C 
ENDROOT
BRANCH   1  30
ATOM     30  C   UNL     1     -22.995 -22.582 -43.909  1.00  0.00     0.048 C 
ATOM     31  O   UNL     1     -23.873 -22.166 -43.103  1.00  0.00    -0.550 OA
ATOM     32  O   UNL     1     -22.727 -23.945 -43.956  1.00  0.00    -0.550 OA
ENDBRANCH   1  30
BRANCH  27  33
ATOM     33  O   UNL     1     -22.375 -10.717 -46.911  1.00  0.00    -0.393 OA
ATOM     34  H   UNL     1     -22.637 -10.531 -47.849  1.00  0.00     0.210 HD
ENDBRANCH  27  33
TORSDOF 2
ENDMDL
MODEL 8
REMARK VINA RESULT:    -5.174      1.531      2.664
REMARK INTER + INTRA:          -5.669
REMARK INTER:                  -5.595
REMARK INTRA:                  -0.074
REMARK UNBOUND:                -0.041
REMARK SMILES C[C@H]1[C@H](C)CC[C@@]2(C(=O)[O-])CC[C@@]3(C)C(=CC[C@@H]4[C@@]5(C)CC[C@H](O)C(C)(C)[C@@H]5CC[C@@]43C)[C@@H]12
REMARK SMILES IDX 7 1 6 2 11 3 33 4 5 5 12 6 15 7 2 8 3 9 13 10 16 11 1 12
REMARK SMILES IDX 4 13 14 14 31 15 17 16 18 17 30 18 32 19 19 20 29 21 28 22
REMARK SMILES IDX 21 23 20 24 25 25 22 26 23 27 26 28 27 29 8 30 9 31 10 32
REMARK SMILES IDX 24 33
REMARK H PARENT 24 34
REMARK Flexibility Score: inf
ROOT
ATOM      1  C   UNL     1     -21.755 -10.107 -45.444  1.00  0.00     0.017 C 
ATOM      2  C   UNL     1     -21.765  -9.683 -46.943  1.00  0.00     0.014 C 
ATOM      3  C   UNL     1     -23.080 -10.888 -45.118  1.00  0.00     0.014 C 
ATOM      4  C   UNL     1     -20.475 -10.985 -45.199  1.00  0.00     0.030 C 
ATOM      5  C   UNL     1     -20.495  -8.931 -47.368  1.00  0.00     0.004 C 
ATOM      6  C   UNL     1     -22.840 -12.256 -44.458  1.00  0.00     0.013 C 
ATOM      7  C   UNL     1     -20.684 -12.413 -45.763  1.00  0.00    -0.063 C 
ATOM      8  C   UNL     1     -19.179 -10.196 -45.601  1.00  0.00    -0.003 C 
ATOM      9  C   UNL     1     -19.210  -9.742 -47.089  1.00  0.00    -0.011 C 
ATOM     10  C   UNL     1     -21.950 -13.186 -45.351  1.00  0.00    -0.006 C 
ATOM     11  C   UNL     1     -19.734 -13.090 -46.444  1.00  0.00    -0.027 C 
ATOM     12  C   UNL     1     -17.872 -10.901 -45.157  1.00  0.00     0.008 C 
ATOM     13  C   UNL     1     -17.990  -8.873 -47.448  1.00  0.00     0.008 C 
ATOM     14  C   UNL     1     -22.793 -13.503 -46.632  1.00  0.00     0.017 C 
ATOM     15  C   UNL     1     -21.495 -14.532 -44.597  1.00  0.00    -0.020 C 
ATOM     16  C   UNL     1     -19.858 -14.566 -46.697  1.00  0.00     0.032 C 
ATOM     17  C   UNL     1     -20.353 -15.311 -45.421  1.00  0.00     0.006 C 
ATOM     18  C   UNL     1     -22.734 -15.437 -44.319  1.00  0.00     0.008 C 
ATOM     19  C   UNL     1     -20.897 -14.161 -43.194  1.00  0.00     0.012 C 
ATOM     20  C   UNL     1     -20.556 -16.880 -45.619  1.00  0.00    -0.025 C 
ATOM     21  C   UNL     1     -22.410 -16.834 -43.764  1.00  0.00     0.005 C 
ATOM     22  C   UNL     1     -21.076 -17.468 -44.258  1.00  0.00     0.003 C 
ATOM     23  C   UNL     1     -19.162 -17.515 -45.935  1.00  0.00     0.010 C 
ATOM     24  C   UNL     1     -21.508 -17.188 -46.811  1.00  0.00     0.012 C 
ATOM     25  C   UNL     1     -20.987 -19.039 -44.055  1.00  0.00    -0.006 C 
ATOM     26  C   UNL     1     -19.124 -19.042 -45.829  1.00  0.00     0.033 C 
ATOM     27  C   UNL     1     -19.547 -19.514 -44.432  1.00  0.00     0.120 C 
ATOM     28  C   UNL     1     -21.198 -19.352 -42.547  1.00  0.00     0.014 C 
ATOM     29  C   UNL     1     -22.048 -19.866 -44.845  1.00  0.00     0.014 C 
ENDROOT
BRANCH   1  30
ATOM     30  C   UNL     1     -21.739  -8.877 -44.539  1.00  0.00     0.048 C 
ATOM     31  O   UNL     1     -22.331  -7.814 -44.877  1.00  0.00    -0.550 OA
ATOM     32  O   UNL     1     -21.183  -8.954 -43.268  1.00  0.00    -0.550 OA
ENDBRANCH   1  30
BRANCH  27  33
ATOM     33  O   UNL     1     -19.463 -20.918 -44.379  1.00  0.00    -0.393 OA
ATOM     34  H   UNL     1     -20.204 -21.241 -43.804  1.00  0.00     0.210 HD
ENDBRANCH  27  33
TORSDOF 2
ENDMDL
