MODEL 1
REMARK VINA RESULT:    -5.077      0.000      0.000
REMARK INTER + INTRA:         -15.520
REMARK INTER:                 -11.606
REMARK INTRA:                  -3.914
REMARK UNBOUND:                -3.914
REMARK SMILES CCCCCCCCCCCCCCCCCCCCCCCC(=O)[O-]
REMARK SMILES IDX 13 1 14 2 15 3 16 4 17 5 18 6 19 7 20 8 21 9 22 10 23 11
REMARK SMILES IDX 24 12 25 13 26 14 12 15 11 16 10 17 9 18 8 19 7 20 6 21 5 22
REMARK SMILES IDX 4 23 3 24 2 25 1 26
REMARK H PARENT
REMARK Flexibility Score: inf
ROOT
ATOM      1  C   UNL     1      10.960  11.668 -19.803  1.00  0.00     0.000 C 
ENDROOT
BRANCH   1   2
ATOM      2  C   UNL     1      10.467  13.069 -19.408  1.00  0.00     0.000 C 
BRANCH   2   3
ATOM      3  C   UNL     1      10.541  13.313 -17.890  1.00  0.00     0.000 C 
BRANCH   3   4
ATOM      4  C   UNL     1      11.341  14.575 -17.530  1.00  0.00     0.000 C 
BRANCH   4   5
ATOM      5  C   UNL     1      10.445  15.724 -17.032  1.00  0.00     0.000 C 
BRANCH   5   6
ATOM      6  C   UNL     1      11.255  16.919 -16.505  1.00  0.00     0.000 C 
BRANCH   6   7
ATOM      7  C   UNL     1      12.443  16.490 -15.625  1.00  0.00     0.000 C 
BRANCH   7   8
ATOM      8  C   UNL     1      13.639  17.459 -15.744  1.00  0.00     0.000 C 
BRANCH   8   9
ATOM      9  C   UNL     1      14.936  16.784 -16.229  1.00  0.00     0.000 C 
BRANCH   9  10
ATOM     10  C   UNL     1      14.843  16.124 -17.618  1.00  0.00     0.006 C 
BRANCH  10  11
ATOM     11  C   UNL     1      15.152  14.618 -17.625  1.00  0.00     0.053 C 
BRANCH  11  12
ATOM     12  C   UNL     1      16.561  14.340 -18.047  1.00  0.00     0.041 C 
ATOM     13  O   UNL     1      17.521  14.624 -17.284  1.00  0.00    -0.550 OA
ATOM     14  O   UNL     1      16.812  13.738 -19.274  1.00  0.00    -0.550 OA
ENDBRANCH  11  12
ENDBRANCH  10  11
ENDBRANCH   9  10
ENDBRANCH   8   9
ENDBRANCH   7   8
ENDBRANCH   6   7
ENDBRANCH   5   6
ENDBRANCH   4   5
ENDBRANCH   3   4
ENDBRANCH   2   3
ENDBRANCH   1   2
BRANCH   1  15
ATOM     15  C   UNL     1      12.485  11.604 -19.976  1.00  0.00     0.000 C 
BRANCH  15  16
ATOM     16  C   UNL     1      12.862  11.373 -21.445  1.00  0.00     0.000 C 
BRANCH  16  17
ATOM     17  C   UNL     1      13.873  12.425 -21.924  1.00  0.00     0.000 C 
BRANCH  17  18
ATOM     18  C   UNL     1      13.867  13.700 -21.061  1.00  0.00    -0.000 C 
BRANCH  18  19
ATOM     19  C   UNL     1      13.032  14.862 -21.630  1.00  0.00    -0.000 C 
BRANCH  19  20
ATOM     20  C   UNL     1      13.355  16.214 -20.970  1.00  0.00    -0.000 C 
BRANCH  20  21
ATOM     21  C   UNL     1      12.110  16.873 -20.343  1.00  0.00    -0.000 C 
BRANCH  21  22
ATOM     22  C   UNL     1      10.773  16.380 -20.931  1.00  0.00    -0.000 C 
BRANCH  22  23
ATOM     23  C   UNL     1       9.525  17.031 -20.299  1.00  0.00    -0.000 C 
BRANCH  23  24
ATOM     24  C   UNL     1       8.320  16.076 -20.261  1.00  0.00    -0.000 C 
BRANCH  24  25
ATOM     25  C   UNL     1       7.589  15.998 -21.610  1.00  0.00    -0.003 C 
ATOM     26  C   UNL     1       6.976  14.621 -21.868  1.00  0.00     0.004 C 
ENDBRANCH  24  25
ENDBRANCH  23  24
ENDBRANCH  22  23
ENDBRANCH  21  22
ENDBRANCH  20  21
ENDBRANCH  19  20
ENDBRANCH  18  19
ENDBRANCH  17  18
ENDBRANCH  16  17
ENDBRANCH  15  16
ENDBRANCH   1  15
TORSDOF 22
ENDMDL
MODEL 2
REMARK VINA RESULT:    -4.997      2.811      6.194
REMARK INTER + INTRA:         -15.338
REMARK INTER:                 -11.054
REMARK INTRA:                  -4.284
REMARK UNBOUND:                -3.914
REMARK SMILES CCCCCCCCCCCCCCCCCCCCCCCC(=O)[O-]
REMARK SMILES IDX 13 1 14 2 15 3 16 4 17 5 18 6 19 7 20 8 21 9 22 10 23 11
REMARK SMILES IDX 24 12 25 13 26 14 12 15 11 16 10 17 9 18 8 19 7 20 6 21 5 22
REMARK SMILES IDX 4 23 3 24 2 25 1 26
REMARK H PARENT
REMARK Flexibility Score: inf
ROOT
ATOM      1  C   UNL     1      13.320  11.347 -21.144  1.00  0.00     0.000 C 
ENDROOT
BRANCH   1   2
ATOM      2  C   UNL     1      12.003  11.368 -20.350  1.00  0.00     0.000 C 
BRANCH   2   3
ATOM      3  C   UNL     1      12.220  11.676 -18.858  1.00  0.00     0.000 C 
BRANCH   3   4
ATOM      4  C   UNL     1      11.149  12.618 -18.284  1.00  0.00     0.000 C 
BRANCH   4   5
ATOM      5  C   UNL     1      10.175  13.133 -19.358  1.00  0.00     0.000 C 
BRANCH   5   6
ATOM      6  C   UNL     1       9.940  14.649 -19.264  1.00  0.00     0.000 C 
BRANCH   6   7
ATOM      7  C   UNL     1      10.094  15.186 -17.829  1.00  0.00     0.000 C 
BRANCH   7   8
ATOM      8  C   UNL     1       9.448  16.578 -17.654  1.00  0.00     0.000 C 
BRANCH   8   9
ATOM      9  C   UNL     1       8.112  16.739 -18.404  1.00  0.00     0.000 C 
BRANCH   9  10
ATOM     10  C   UNL     1       8.060  17.924 -19.387  1.00  0.00     0.006 C 
BRANCH  10  11
ATOM     11  C   UNL     1       7.754  17.527 -20.840  1.00  0.00     0.053 C 
BRANCH  11  12
ATOM     12  C   UNL     1       9.005  17.347 -21.643  1.00  0.00     0.041 C 
ATOM     13  O   UNL     1      10.097  17.819 -21.233  1.00  0.00    -0.550 OA
ATOM     14  O   UNL     1       8.968  16.630 -22.833  1.00  0.00    -0.550 OA
ENDBRANCH  11  12
ENDBRANCH  10  11
ENDBRANCH   9  10
ENDBRANCH   8   9
ENDBRANCH   7   8
ENDBRANCH   6   7
ENDBRANCH   5   6
ENDBRANCH   4   5
ENDBRANCH   3   4
ENDBRANCH   2   3
ENDBRANCH   1   2
BRANCH   1  15
ATOM     15  C   UNL     1      14.080  12.680 -21.066  1.00  0.00     0.000 C 
BRANCH  15  16
ATOM     16  C   UNL     1      13.415  13.743 -21.948  1.00  0.00     0.000 C 
BRANCH  16  17
ATOM     17  C   UNL     1      13.138  15.025 -21.150  1.00  0.00     0.000 C 
BRANCH  17  18
ATOM     18  C   UNL     1      13.682  14.965 -19.710  1.00  0.00    -0.000 C 
BRANCH  18  19
ATOM     19  C   UNL     1      13.521  16.267 -18.904  1.00  0.00    -0.000 C 
BRANCH  19  20
ATOM     20  C   UNL     1      14.075  16.158 -17.472  1.00  0.00    -0.000 C 
BRANCH  20  21
ATOM     21  C   UNL     1      13.656  14.846 -16.779  1.00  0.00    -0.000 C 
BRANCH  21  22
ATOM     22  C   UNL     1      14.834  14.033 -16.205  1.00  0.00    -0.000 C 
BRANCH  22  23
ATOM     23  C   UNL     1      16.213  14.698 -16.394  1.00  0.00    -0.000 C 
BRANCH  23  24
ATOM     24  C   UNL     1      17.271  13.715 -16.923  1.00  0.00    -0.000 C 
BRANCH  24  25
ATOM     25  C   UNL     1      17.234  13.579 -18.452  1.00  0.00    -0.003 C 
ATOM     26  C   UNL     1      17.254  14.934 -19.163  1.00  0.00     0.004 C 
ENDBRANCH  24  25
ENDBRANCH  23  24
ENDBRANCH  22  23
ENDBRANCH  21  22
ENDBRANCH  20  21
ENDBRANCH  19  20
ENDBRANCH  18  19
ENDBRANCH  17  18
ENDBRANCH  16  17
ENDBRANCH  15  16
ENDBRANCH   1  15
TORSDOF 22
ENDMDL
MODEL 3
REMARK VINA RESULT:    -4.980      1.042      2.114
REMARK INTER + INTRA:         -15.299
REMARK INTER:                 -11.128
REMARK INTRA:                  -4.171
REMARK UNBOUND:                -3.914
REMARK SMILES CCCCCCCCCCCCCCCCCCCCCCCC(=O)[O-]
REMARK SMILES IDX 13 1 14 2 15 3 16 4 17 5 18 6 19 7 20 8 21 9 22 10 23 11
REMARK SMILES IDX 24 12 25 13 26 14 12 15 11 16 10 17 9 18 8 19 7 20 6 21 5 22
REMARK SMILES IDX 4 23 3 24 2 25 1 26
REMARK H PARENT
REMARK Flexibility Score: inf
ROOT
ATOM      1  C   UNL     1      11.271  13.201 -18.518  1.00  0.00     0.000 C 
ENDROOT
BRANCH   1   2
ATOM      2  C   UNL     1      10.590  14.284 -17.666  1.00  0.00     0.000 C 
BRANCH   2   3
ATOM      3  C   UNL     1      11.538  15.447 -17.324  1.00  0.00     0.000 C 
BRANCH   3   4
ATOM      4  C   UNL     1      10.804  16.652 -16.715  1.00  0.00     0.000 C 
BRANCH   4   5
ATOM      5  C   UNL     1      11.411  17.998 -17.150  1.00  0.00     0.000 C 
BRANCH   5   6
ATOM      6  C   UNL     1      12.898  17.882 -17.522  1.00  0.00     0.000 C 
BRANCH   6   7
ATOM      7  C   UNL     1      13.832  18.125 -16.323  1.00  0.00     0.000 C 
BRANCH   7   8
ATOM      8  C   UNL     1      14.677  16.880 -15.978  1.00  0.00     0.000 C 
BRANCH   8   9
ATOM      9  C   UNL     1      16.135  16.966 -16.467  1.00  0.00     0.000 C 
BRANCH   9  10
ATOM     10  C   UNL     1      16.352  16.550 -17.935  1.00  0.00     0.006 C 
BRANCH  10  11
ATOM     11  C   UNL     1      15.805  15.156 -18.284  1.00  0.00     0.053 C 
BRANCH  11  12
ATOM     12  C   UNL     1      16.905  14.157 -18.468  1.00  0.00     0.041 C 
ATOM     13  O   UNL     1      17.429  13.597 -17.470  1.00  0.00    -0.550 OA
ATOM     14  O   UNL     1      17.332  13.822 -19.748  1.00  0.00    -0.550 OA
ENDBRANCH  11  12
ENDBRANCH  10  11
ENDBRANCH   9  10
ENDBRANCH   8   9
ENDBRANCH   7   8
ENDBRANCH   6   7
ENDBRANCH   5   6
ENDBRANCH   4   5
ENDBRANCH   3   4
ENDBRANCH   2   3
ENDBRANCH   1   2
BRANCH   1  15
ATOM     15  C   UNL     1      10.306  12.535 -19.512  1.00  0.00     0.000 C 
BRANCH  15  16
ATOM     16  C   UNL     1      10.988  11.377 -20.249  1.00  0.00     0.000 C 
BRANCH  16  17
ATOM     17  C   UNL     1      12.516  11.467 -20.119  1.00  0.00     0.000 C 
BRANCH  17  18
ATOM     18  C   UNL     1      13.245  11.268 -21.461  1.00  0.00    -0.000 C 
BRANCH  18  19
ATOM     19  C   UNL     1      13.793  12.559 -22.097  1.00  0.00    -0.000 C 
BRANCH  19  20
ATOM     20  C   UNL     1      13.777  13.757 -21.132  1.00  0.00    -0.000 C 
BRANCH  20  21
ATOM     21  C   UNL     1      13.028  14.971 -21.717  1.00  0.00    -0.000 C 
BRANCH  21  22
ATOM     22  C   UNL     1      13.091  16.235 -20.836  1.00  0.00    -0.000 C 
BRANCH  22  23
ATOM     23  C   UNL     1      11.794  17.070 -20.832  1.00  0.00    -0.000 C 
BRANCH  23  24
ATOM     24  C   UNL     1      10.532  16.192 -20.791  1.00  0.00    -0.000 C 
BRANCH  24  25
ATOM     25  C   UNL     1       9.263  17.001 -20.483  1.00  0.00    -0.003 C 
ATOM     26  C   UNL     1       8.234  16.200 -19.683  1.00  0.00     0.004 C 
ENDBRANCH  24  25
ENDBRANCH  23  24
ENDBRANCH  22  23
ENDBRANCH  21  22
ENDBRANCH  20  21
ENDBRANCH  19  20
ENDBRANCH  18  19
ENDBRANCH  17  18
ENDBRANCH  16  17
ENDBRANCH  15  16
ENDBRANCH   1  15
TORSDOF 22
ENDMDL
MODEL 4
REMARK VINA RESULT:    -4.958      1.333      3.292
REMARK INTER + INTRA:         -15.248
REMARK INTER:                 -11.566
REMARK INTRA:                  -3.682
REMARK UNBOUND:                -3.914
REMARK SMILES CCCCCCCCCCCCCCCCCCCCCCCC(=O)[O-]
REMARK SMILES IDX 13 1 14 2 15 3 16 4 17 5 18 6 19 7 20 8 21 9 22 10 23 11
REMARK SMILES IDX 24 12 25 13 26 14 12 15 11 16 10 17 9 18 8 19 7 20 6 21 5 22
REMARK SMILES IDX 4 23 3 24 2 25 1 26
REMARK H PARENT
REMARK Flexibility Score: inf
ROOT
ATOM      1  C   UNL     1      13.174  11.324 -20.955  1.00  0.00     0.000 C 
ENDROOT
BRANCH   1   2
ATOM      2  C   UNL     1      13.669  12.696 -21.440  1.00  0.00     0.000 C 
BRANCH   2   3
ATOM      3  C   UNL     1      14.705  13.318 -20.487  1.00  0.00     0.000 C 
BRANCH   3   4
ATOM      4  C   UNL     1      14.222  14.638 -19.864  1.00  0.00     0.000 C 
BRANCH   4   5
ATOM      5  C   UNL     1      13.167  15.351 -20.728  1.00  0.00     0.000 C 
BRANCH   5   6
ATOM      6  C   UNL     1      12.960  16.818 -20.317  1.00  0.00     0.000 C 
BRANCH   6   7
ATOM      7  C   UNL     1      14.165  17.396 -19.553  1.00  0.00     0.000 C 
BRANCH   7   8
ATOM      8  C   UNL     1      13.785  17.865 -18.132  1.00  0.00     0.000 C 
BRANCH   8   9
ATOM      9  C   UNL     1      14.993  18.021 -17.188  1.00  0.00     0.000 C 
BRANCH   9  10
ATOM     10  C   UNL     1      16.245  17.222 -17.601  1.00  0.00     0.006 C 
BRANCH  10  11
ATOM     11  C   UNL     1      16.471  15.938 -16.787  1.00  0.00     0.053 C 
BRANCH  11  12
ATOM     12  C   UNL     1      17.140  14.874 -17.600  1.00  0.00     0.041 C 
ATOM     13  O   UNL     1      17.520  15.117 -18.776  1.00  0.00    -0.550 OA
ATOM     14  O   UNL     1      17.372  13.620 -17.048  1.00  0.00    -0.550 OA
ENDBRANCH  11  12
ENDBRANCH  10  11
ENDBRANCH   9  10
ENDBRANCH   8   9
ENDBRANCH   7   8
ENDBRANCH   6   7
ENDBRANCH   5   6
ENDBRANCH   4   5
ENDBRANCH   3   4
ENDBRANCH   2   3
ENDBRANCH   1   2
BRANCH   1  15
ATOM     15  C   UNL     1      11.732  11.369 -20.426  1.00  0.00     0.000 C 
BRANCH  15  16
ATOM     16  C   UNL     1      11.664  12.094 -19.076  1.00  0.00     0.000 C 
BRANCH  16  17
ATOM     17  C   UNL     1      10.470  13.058 -19.030  1.00  0.00     0.000 C 
BRANCH  17  18
ATOM     18  C   UNL     1      10.363  13.818 -17.695  1.00  0.00    -0.000 C 
BRANCH  18  19
ATOM     19  C   UNL     1      11.277  15.052 -17.579  1.00  0.00    -0.000 C 
BRANCH  19  20
ATOM     20  C   UNL     1      10.739  16.108 -16.598  1.00  0.00    -0.000 C 
BRANCH  20  21
ATOM     21  C   UNL     1      10.277  17.393 -17.314  1.00  0.00    -0.000 C 
BRANCH  21  22
ATOM     22  C   UNL     1       8.753  17.622 -17.277  1.00  0.00    -0.000 C 
BRANCH  22  23
ATOM     23  C   UNL     1       7.946  16.654 -18.165  1.00  0.00    -0.000 C 
BRANCH  23  24
ATOM     24  C   UNL     1       8.069  16.989 -19.661  1.00  0.00    -0.000 C 
BRANCH  24  25
ATOM     25  C   UNL     1       8.505  15.778 -20.501  1.00  0.00    -0.003 C 
ATOM     26  C   UNL     1       7.378  15.238 -21.382  1.00  0.00     0.004 C 
ENDBRANCH  24  25
ENDBRANCH  23  24
ENDBRANCH  22  23
ENDBRANCH  21  22
ENDBRANCH  20  21
ENDBRANCH  19  20
ENDBRANCH  18  19
ENDBRANCH  17  18
ENDBRANCH  16  17
ENDBRANCH  15  16
ENDBRANCH   1  15
TORSDOF 22
ENDMDL
MODEL 5
REMARK VINA RESULT:    -4.929      1.263      2.957
REMARK INTER + INTRA:         -15.183
REMARK INTER:                 -11.477
REMARK INTRA:                  -3.705
REMARK UNBOUND:                -3.914
REMARK SMILES CCCCCCCCCCCCCCCCCCCCCCCC(=O)[O-]
REMARK SMILES IDX 13 1 14 2 15 3 16 4 17 5 18 6 19 7 20 8 21 9 22 10 23 11
REMARK SMILES IDX 24 12 25 13 26 14 12 15 11 16 10 17 9 18 8 19 7 20 6 21 5 22
REMARK SMILES IDX 4 23 3 24 2 25 1 26
REMARK H PARENT
REMARK Flexibility Score: inf
ROOT
ATOM      1  C   UNL     1      13.995  11.936 -21.924  1.00  0.00     0.000 C 
ENDROOT
BRANCH   1   2
ATOM      2  C   UNL     1      14.272  13.337 -21.354  1.00  0.00     0.000 C 
BRANCH   2   3
ATOM      3  C   UNL     1      13.289  14.394 -21.886  1.00  0.00     0.000 C 
BRANCH   3   4
ATOM      4  C   UNL     1      12.684  15.259 -20.768  1.00  0.00     0.000 C 
BRANCH   4   5
ATOM      5  C   UNL     1      13.422  15.098 -19.428  1.00  0.00     0.000 C 
BRANCH   5   6
ATOM      6  C   UNL     1      13.784  16.449 -18.788  1.00  0.00     0.000 C 
BRANCH   6   7
ATOM      7  C   UNL     1      14.188  16.317 -17.309  1.00  0.00     0.000 C 
BRANCH   7   8
ATOM      8  C   UNL     1      13.736  14.973 -16.697  1.00  0.00     0.000 C 
BRANCH   8   9
ATOM      9  C   UNL     1      14.901  14.096 -16.198  1.00  0.00     0.000 C 
BRANCH   9  10
ATOM     10  C   UNL     1      16.304  14.680 -16.450  1.00  0.00     0.006 C 
BRANCH  10  11
ATOM     11  C   UNL     1      17.228  13.770 -17.275  1.00  0.00     0.053 C 
BRANCH  11  12
ATOM     12  C   UNL     1      17.197  14.117 -18.731  1.00  0.00     0.041 C 
ATOM     13  O   UNL     1      17.096  15.318 -19.097  1.00  0.00    -0.550 OA
ATOM     14  O   UNL     1      17.308  13.114 -19.687  1.00  0.00    -0.550 OA
ENDBRANCH  11  12
ENDBRANCH  10  11
ENDBRANCH   9  10
ENDBRANCH   8   9
ENDBRANCH   7   8
ENDBRANCH   6   7
ENDBRANCH   5   6
ENDBRANCH   4   5
ENDBRANCH   3   4
ENDBRANCH   2   3
ENDBRANCH   1   2
BRANCH   1  15
ATOM     15  C   UNL     1      13.343  10.997 -20.898  1.00  0.00     0.000 C 
BRANCH  15  16
ATOM     16  C   UNL     1      11.864  11.347 -20.694  1.00  0.00     0.000 C 
BRANCH  16  17
ATOM     17  C   UNL     1      11.590  11.745 -19.236  1.00  0.00     0.000 C 
BRANCH  17  18
ATOM     18  C   UNL     1      10.519  12.844 -19.106  1.00  0.00    -0.000 C 
BRANCH  18  19
ATOM     19  C   UNL     1      10.395  13.463 -17.702  1.00  0.00    -0.000 C 
BRANCH  19  20
ATOM     20  C   UNL     1      10.287  14.997 -17.729  1.00  0.00    -0.000 C 
BRANCH  20  21
ATOM     21  C   UNL     1       9.432  15.504 -18.908  1.00  0.00    -0.000 C 
BRANCH  21  22
ATOM     22  C   UNL     1       9.856  16.886 -19.445  1.00  0.00    -0.000 C 
BRANCH  22  23
ATOM     23  C   UNL     1       9.218  17.262 -20.798  1.00  0.00    -0.000 C 
BRANCH  23  24
ATOM     24  C   UNL     1       7.770  16.759 -20.924  1.00  0.00    -0.000 C 
BRANCH  24  25
ATOM     25  C   UNL     1       7.547  15.923 -22.194  1.00  0.00    -0.003 C 
ATOM     26  C   UNL     1       7.019  14.520 -21.890  1.00  0.00     0.004 C 
ENDBRANCH  24  25
ENDBRANCH  23  24
ENDBRANCH  22  23
ENDBRANCH  21  22
ENDBRANCH  20  21
ENDBRANCH  19  20
ENDBRANCH  18  19
ENDBRANCH  17  18
ENDBRANCH  16  17
ENDBRANCH  15  16
ENDBRANCH   1  15
TORSDOF 22
ENDMDL
MODEL 6
REMARK VINA RESULT:    -4.925      1.249      1.809
REMARK INTER + INTRA:         -15.172
REMARK INTER:                 -11.103
REMARK INTRA:                  -4.069
REMARK UNBOUND:                -3.914
REMARK SMILES CCCCCCCCCCCCCCCCCCCCCCCC(=O)[O-]
REMARK SMILES IDX 13 1 14 2 15 3 16 4 17 5 18 6 19 7 20 8 21 9 22 10 23 11
REMARK SMILES IDX 24 12 25 13 26 14 12 15 11 16 10 17 9 18 8 19 7 20 6 21 5 22
REMARK SMILES IDX 4 23 3 24 2 25 1 26
REMARK H PARENT
REMARK Flexibility Score: inf
ROOT
ATOM      1  C   UNL     1      12.279  12.145 -19.293  1.00  0.00     0.000 C 
ENDROOT
BRANCH   1   2
ATOM      2  C   UNL     1      10.745  12.125 -19.381  1.00  0.00     0.000 C 
BRANCH   2   3
ATOM      3  C   UNL     1      10.116  13.483 -19.023  1.00  0.00     0.000 C 
BRANCH   3   4
ATOM      4  C   UNL     1      10.815  14.166 -17.837  1.00  0.00     0.000 C 
BRANCH   4   5
ATOM      5  C   UNL     1      10.244  15.563 -17.536  1.00  0.00     0.000 C 
BRANCH   5   6
ATOM      6  C   UNL     1      11.313  16.540 -17.020  1.00  0.00     0.000 C 
BRANCH   6   7
ATOM      7  C   UNL     1      12.674  15.860 -16.781  1.00  0.00     0.000 C 
BRANCH   7   8
ATOM      8  C   UNL     1      13.705  16.820 -16.150  1.00  0.00     0.000 C 
BRANCH   8   9
ATOM      9  C   UNL     1      14.822  17.253 -17.119  1.00  0.00     0.000 C 
BRANCH   9  10
ATOM     10  C   UNL     1      16.221  16.705 -16.779  1.00  0.00     0.006 C 
BRANCH  10  11
ATOM     11  C   UNL     1      16.660  15.512 -17.644  1.00  0.00     0.053 C 
BRANCH  11  12
ATOM     12  C   UNL     1      16.726  14.244 -16.852  1.00  0.00     0.041 C 
ATOM     13  O   UNL     1      15.750  13.888 -16.141  1.00  0.00    -0.550 OA
ATOM     14  O   UNL     1      17.856  13.438 -16.922  1.00  0.00    -0.550 OA
ENDBRANCH  11  12
ENDBRANCH  10  11
ENDBRANCH   9  10
ENDBRANCH   8   9
ENDBRANCH   7   8
ENDBRANCH   6   7
ENDBRANCH   5   6
ENDBRANCH   4   5
ENDBRANCH   3   4
ENDBRANCH   2   3
ENDBRANCH   1   2
BRANCH   1  15
ATOM     15  C   UNL     1      12.954  11.904 -20.652  1.00  0.00     0.000 C 
BRANCH  15  16
ATOM     16  C   UNL     1      13.775  13.125 -21.082  1.00  0.00     0.000 C 
BRANCH  16  17
ATOM     17  C   UNL     1      13.871  14.151 -19.943  1.00  0.00     0.000 C 
BRANCH  17  18
ATOM     18  C   UNL     1      13.430  15.564 -20.370  1.00  0.00    -0.000 C 
BRANCH  18  19
ATOM     19  C   UNL     1      12.049  15.633 -21.048  1.00  0.00    -0.000 C 
BRANCH  19  20
ATOM     20  C   UNL     1      11.414  17.032 -20.975  1.00  0.00    -0.000 C 
BRANCH  20  21
ATOM     21  C   UNL     1      11.079  17.597 -22.371  1.00  0.00    -0.000 C 
BRANCH  21  22
ATOM     22  C   UNL     1      10.106  16.722 -23.187  1.00  0.00    -0.000 C 
BRANCH  22  23
ATOM     23  C   UNL     1       8.644  17.212 -23.164  1.00  0.00    -0.000 C 
BRANCH  23  24
ATOM     24  C   UNL     1       7.663  16.109 -22.730  1.00  0.00    -0.000 C 
BRANCH  24  25
ATOM     25  C   UNL     1       8.003  15.530 -21.348  1.00  0.00    -0.003 C 
ATOM     26  C   UNL     1       7.772  16.533 -20.217  1.00  0.00     0.004 C 
ENDBRANCH  24  25
ENDBRANCH  23  24
ENDBRANCH  22  23
ENDBRANCH  21  22
ENDBRANCH  20  21
ENDBRANCH  19  20
ENDBRANCH  18  19
ENDBRANCH  17  18
ENDBRANCH  16  17
ENDBRANCH  15  16
ENDBRANCH   1  15
TORSDOF 22
ENDMDL
MODEL 7
REMARK VINA RESULT:    -4.920      1.431      4.938
REMARK INTER + INTRA:         -15.161
REMARK INTER:                 -11.520
REMARK INTRA:                  -3.641
REMARK UNBOUND:                -3.914
REMARK SMILES CCCCCCCCCCCCCCCCCCCCCCCC(=O)[O-]
REMARK SMILES IDX 13 1 14 2 15 3 16 4 17 5 18 6 19 7 20 8 21 9 22 10 23 11
REMARK SMILES IDX 24 12 25 13 26 14 12 15 11 16 10 17 9 18 8 19 7 20 6 21 5 22
REMARK SMILES IDX 4 23 3 24 2 25 1 26
REMARK H PARENT
REMARK Flexibility Score: inf
ROOT
ATOM      1  C   UNL     1      10.649  13.584 -18.157  1.00  0.00     0.000 C 
ENDROOT
BRANCH   1   2
ATOM      2  C   UNL     1      11.503  12.322 -18.358  1.00  0.00     0.000 C 
BRANCH   2   3
ATOM      3  C   UNL     1      11.365  11.737 -19.775  1.00  0.00     0.000 C 
BRANCH   3   4
ATOM      4  C   UNL     1      12.637  11.013 -20.245  1.00  0.00     0.000 C 
BRANCH   4   5
ATOM      5  C   UNL     1      13.073  11.438 -21.659  1.00  0.00     0.000 C 
BRANCH   5   6
ATOM      6  C   UNL     1      14.308  12.353 -21.645  1.00  0.00     0.000 C 
BRANCH   6   7
ATOM      7  C   UNL     1      14.001  13.760 -21.102  1.00  0.00     0.000 C 
BRANCH   7   8
ATOM      8  C   UNL     1      14.696  14.030 -19.750  1.00  0.00     0.000 C 
BRANCH   8   9
ATOM      9  C   UNL     1      16.196  13.678 -19.744  1.00  0.00     0.000 C 
BRANCH   9  10
ATOM     10  C   UNL     1      17.117  14.779 -19.186  1.00  0.00     0.006 C 
BRANCH  10  11
ATOM     11  C   UNL     1      16.818  15.176 -17.731  1.00  0.00     0.053 C 
BRANCH  11  12
ATOM     12  C   UNL     1      17.019  14.030 -16.789  1.00  0.00     0.041 C 
ATOM     13  O   UNL     1      16.121  13.720 -15.963  1.00  0.00    -0.550 OA
ATOM     14  O   UNL     1      18.191  13.284 -16.843  1.00  0.00    -0.550 OA
ENDBRANCH  11  12
ENDBRANCH  10  11
ENDBRANCH   9  10
ENDBRANCH   8   9
ENDBRANCH   7   8
ENDBRANCH   6   7
ENDBRANCH   5   6
ENDBRANCH   4   5
ENDBRANCH   3   4
ENDBRANCH   2   3
ENDBRANCH   1   2
BRANCH   1  15
ATOM     15  C   UNL     1      10.235  14.237 -19.485  1.00  0.00     0.000 C 
BRANCH  15  16
ATOM     16  C   UNL     1      11.097  15.469 -19.784  1.00  0.00     0.000 C 
BRANCH  16  17
ATOM     17  C   UNL     1      10.308  16.508 -20.594  1.00  0.00     0.000 C 
BRANCH  17  18
ATOM     18  C   UNL     1       8.922  16.001 -21.033  1.00  0.00    -0.000 C 
BRANCH  18  19
ATOM     19  C   UNL     1       7.732  16.716 -20.368  1.00  0.00    -0.000 C 
BRANCH  19  20
ATOM     20  C   UNL     1       8.155  17.634 -19.208  1.00  0.00    -0.000 C 
BRANCH  20  21
ATOM     21  C   UNL     1       8.059  16.931 -17.839  1.00  0.00    -0.000 C 
BRANCH  21  22
ATOM     22  C   UNL     1       8.990  17.521 -16.761  1.00  0.00    -0.000 C 
BRANCH  22  23
ATOM     23  C   UNL     1      10.221  16.648 -16.441  1.00  0.00    -0.000 C 
BRANCH  23  24
ATOM     24  C   UNL     1      11.543  17.421 -16.588  1.00  0.00    -0.000 C 
BRANCH  24  25
ATOM     25  C   UNL     1      12.714  16.721 -15.882  1.00  0.00    -0.003 C 
ATOM     26  C   UNL     1      13.250  15.527 -16.674  1.00  0.00     0.004 C 
ENDBRANCH  24  25
ENDBRANCH  23  24
ENDBRANCH  22  23
ENDBRANCH  21  22
ENDBRANCH  20  21
ENDBRANCH  19  20
ENDBRANCH  18  19
ENDBRANCH  17  18
ENDBRANCH  16  17
ENDBRANCH  15  16
ENDBRANCH   1  15
TORSDOF 22
ENDMDL
MODEL 8
REMARK VINA RESULT:    -4.910      1.399      3.175
REMARK INTER + INTRA:         -15.139
REMARK INTER:                 -11.204
REMARK INTRA:                  -3.936
REMARK UNBOUND:                -3.914
REMARK SMILES CCCCCCCCCCCCCCCCCCCCCCCC(=O)[O-]
REMARK SMILES IDX 13 1 14 2 15 3 16 4 17 5 18 6 19 7 20 8 21 9 22 10 23 11
REMARK SMILES IDX 24 12 25 13 26 14 12 15 11 16 10 17 9 18 8 19 7 20 6 21 5 22
REMARK SMILES IDX 4 23 3 24 2 25 1 26
REMARK H PARENT
REMARK Flexibility Score: inf
ROOT
ATOM      1  C   UNL     1      13.730  13.874 -21.139  1.00  0.00     0.000 C 
ENDROOT
BRANCH   1   2
ATOM      2  C   UNL     1      12.963  14.823 -22.074  1.00  0.00     0.000 C 
BRANCH   2   3
ATOM      3  C   UNL     1      12.807  16.235 -21.482  1.00  0.00     0.000 C 
BRANCH   3   4
ATOM      4  C   UNL     1      13.266  16.319 -20.017  1.00  0.00     0.000 C 
BRANCH   4   5
ATOM      5  C   UNL     1      12.866  17.644 -19.345  1.00  0.00     0.000 C 
BRANCH   5   6
ATOM      6  C   UNL     1      13.415  17.769 -17.914  1.00  0.00     0.000 C 
BRANCH   6   7
ATOM      7  C   UNL     1      12.444  17.217 -16.855  1.00  0.00     0.000 C 
BRANCH   7   8
ATOM      8  C   UNL     1      13.130  16.221 -15.896  1.00  0.00     0.000 C 
BRANCH   8   9
ATOM      9  C   UNL     1      13.748  15.002 -16.607  1.00  0.00     0.000 C 
BRANCH   9  10
ATOM     10  C   UNL     1      15.283  14.908 -16.516  1.00  0.00     0.006 C 
BRANCH  10  11
ATOM     11  C   UNL     1      16.001  14.964 -17.874  1.00  0.00     0.053 C 
BRANCH  11  12
ATOM     12  C   UNL     1      17.101  13.952 -17.965  1.00  0.00     0.041 C 
ATOM     13  O   UNL     1      17.807  13.689 -16.956  1.00  0.00    -0.550 OA
ATOM     14  O   UNL     1      17.326  13.277 -19.158  1.00  0.00    -0.550 OA
ENDBRANCH  11  12
ENDBRANCH  10  11
ENDBRANCH   9  10
ENDBRANCH   8   9
ENDBRANCH   7   8
ENDBRANCH   6   7
ENDBRANCH   5   6
ENDBRANCH   4   5
ENDBRANCH   3   4
ENDBRANCH   2   3
ENDBRANCH   1   2
BRANCH   1  15
ATOM     15  C   UNL     1      14.193  12.592 -21.847  1.00  0.00     0.000 C 
BRANCH  15  16
ATOM     16  C   UNL     1      13.388  11.378 -21.367  1.00  0.00     0.000 C 
BRANCH  16  17
ATOM     17  C   UNL     1      12.567  11.723 -20.116  1.00  0.00     0.000 C 
BRANCH  17  18
ATOM     18  C   UNL     1      11.079  11.354 -20.254  1.00  0.00    -0.000 C 
BRANCH  18  19
ATOM     19  C   UNL     1      10.108  12.302 -19.527  1.00  0.00    -0.000 C 
BRANCH  19  20
ATOM     20  C   UNL     1      10.762  13.041 -18.346  1.00  0.00    -0.000 C 
BRANCH  20  21
ATOM     21  C   UNL     1      10.462  14.554 -18.363  1.00  0.00    -0.000 C 
BRANCH  21  22
ATOM     22  C   UNL     1       9.798  15.050 -19.663  1.00  0.00    -0.000 C 
BRANCH  22  23
ATOM     23  C   UNL     1       9.259  16.493 -19.586  1.00  0.00    -0.000 C 
BRANCH  23  24
ATOM     24  C   UNL     1       8.255  16.685 -18.437  1.00  0.00    -0.000 C 
BRANCH  24  25
ATOM     25  C   UNL     1       8.650  17.833 -17.496  1.00  0.00    -0.003 C 
ATOM     26  C   UNL     1       7.681  17.993 -16.323  1.00  0.00     0.004 C 
ENDBRANCH  24  25
ENDBRANCH  23  24
ENDBRANCH  22  23
ENDBRANCH  21  22
ENDBRANCH  20  21
ENDBRANCH  19  20
ENDBRANCH  18  19
ENDBRANCH  17  18
ENDBRANCH  16  17
ENDBRANCH  15  16
ENDBRANCH   1  15
TORSDOF 22
ENDMDL
MODEL 9
REMARK VINA RESULT:    -4.876      2.999      6.597
REMARK INTER + INTRA:         -15.060
REMARK INTER:                 -10.746
REMARK INTRA:                  -4.315
REMARK UNBOUND:                -3.914
REMARK SMILES CCCCCCCCCCCCCCCCCCCCCCCC(=O)[O-]
REMARK SMILES IDX 13 1 14 2 15 3 16 4 17 5 18 6 19 7 20 8 21 9 22 10 23 11
REMARK SMILES IDX 24 12 25 13 26 14 12 15 11 16 10 17 9 18 8 19 7 20 6 21 5 22
REMARK SMILES IDX 4 23 3 24 2 25 1 26
REMARK H PARENT
REMARK Flexibility Score: inf
ROOT
ATOM      1  C   UNL     1      11.885  12.061 -18.344  1.00  0.00     0.000 C 
ENDROOT
BRANCH   1   2
ATOM      2  C   UNL     1      11.597  11.785 -19.829  1.00  0.00     0.000 C 
BRANCH   2   3
ATOM      3  C   UNL     1      12.866  11.412 -20.616  1.00  0.00     0.000 C 
BRANCH   3   4
ATOM      4  C   UNL     1      13.494  12.617 -21.335  1.00  0.00     0.000 C 
BRANCH   4   5
ATOM      5  C   UNL     1      14.570  13.319 -20.488  1.00  0.00     0.000 C 
BRANCH   5   6
ATOM      6  C   UNL     1      14.056  14.614 -19.837  1.00  0.00     0.000 C 
BRANCH   6   7
ATOM      7  C   UNL     1      12.883  15.243 -20.610  1.00  0.00     0.000 C 
BRANCH   7   8
ATOM      8  C   UNL     1      12.982  16.782 -20.670  1.00  0.00     0.000 C 
BRANCH   8   9
ATOM      9  C   UNL     1      11.678  17.502 -20.275  1.00  0.00     0.000 C 
BRANCH   9  10
ATOM     10  C   UNL     1      10.450  17.133 -21.130  1.00  0.00     0.006 C 
BRANCH  10  11
ATOM     11  C   UNL     1       9.154  16.945 -20.325  1.00  0.00     0.053 C 
BRANCH  11  12
ATOM     12  C   UNL     1       8.017  16.505 -21.195  1.00  0.00     0.041 C 
ATOM     13  O   UNL     1       7.531  15.351 -21.070  1.00  0.00    -0.550 OA
ATOM     14  O   UNL     1       7.474  17.384 -22.125  1.00  0.00    -0.550 OA
ENDBRANCH  11  12
ENDBRANCH  10  11
ENDBRANCH   9  10
ENDBRANCH   8   9
ENDBRANCH   7   8
ENDBRANCH   6   7
ENDBRANCH   5   6
ENDBRANCH   4   5
ENDBRANCH   3   4
ENDBRANCH   2   3
ENDBRANCH   1   2
BRANCH   1  15
ATOM     15  C   UNL     1      10.718  12.764 -17.635  1.00  0.00     0.000 C 
BRANCH  15  16
ATOM     16  C   UNL     1      10.422  14.124 -18.279  1.00  0.00     0.000 C 
BRANCH  16  17
ATOM     17  C   UNL     1      10.528  15.255 -17.247  1.00  0.00     0.000 C 
BRANCH  17  18
ATOM     18  C   UNL     1      11.978  15.713 -17.005  1.00  0.00    -0.000 C 
BRANCH  18  19
ATOM     19  C   UNL     1      12.180  16.588 -15.754  1.00  0.00    -0.000 C 
BRANCH  19  20
ATOM     20  C   UNL     1      13.505  17.370 -15.776  1.00  0.00    -0.000 C 
BRANCH  20  21
ATOM     21  C   UNL     1      13.917  17.788 -17.202  1.00  0.00    -0.000 C 
BRANCH  21  22
ATOM     22  C   UNL     1      15.412  17.577 -17.512  1.00  0.00    -0.000 C 
BRANCH  22  23
ATOM     23  C   UNL     1      16.120  16.581 -16.570  1.00  0.00    -0.000 C 
BRANCH  23  24
ATOM     24  C   UNL     1      16.745  15.399 -17.330  1.00  0.00    -0.000 C 
BRANCH  24  25
ATOM     25  C   UNL     1      16.471  14.050 -16.646  1.00  0.00    -0.003 C 
ATOM     26  C   UNL     1      15.004  13.880 -16.249  1.00  0.00     0.004 C 
ENDBRANCH  24  25
ENDBRANCH  23  24
ENDBRANCH  22  23
ENDBRANCH  21  22
ENDBRANCH  20  21
ENDBRANCH  19  20
ENDBRANCH  18  19
ENDBRANCH  17  18
ENDBRANCH  16  17
ENDBRANCH  15  16
ENDBRANCH   1  15
TORSDOF 22
ENDMDL
