MODEL 1
REMARK VINA RESULT:    -4.544      0.000      0.000
REMARK INTER + INTRA:          -6.300
REMARK INTER:                  -5.607
REMARK INTRA:                  -0.693
REMARK UNBOUND:                -0.693
REMARK SMILES CC(C)=CCC[C@H](C)c1ccc(C)cc1
REMARK SMILES IDX 6 1 7 2 8 3 9 4 13 5 12 6 11 7 14 8 10 9 15 10 5 11 4 12
REMARK SMILES IDX 2 13 1 14 3 15
REMARK H PARENT
REMARK Flexibility Score: inf
ROOT
ATOM      1  C   UNL     1       5.454 -16.283  11.689  1.00  0.00     0.012 C 
ENDROOT
BRANCH   1   2
ATOM      2  C   UNL     1       4.278 -16.586  12.648  1.00  0.00     0.016 C 
ATOM      3  C   UNL     1       4.745 -17.011  14.049  1.00  0.00     0.013 C 
BRANCH   2   4
ATOM      4  C   UNL     1       3.372 -17.648  12.051  1.00  0.00    -0.045 A 
ATOM      5  C   UNL     1       0.824 -20.665  10.300  1.00  0.00     0.044 C 
ATOM      6  C   UNL     1       1.685 -19.608  10.924  1.00  0.00    -0.051 A 
ATOM      7  C   UNL     1       2.414 -19.887  12.090  1.00  0.00     0.004 A 
ATOM      8  C   UNL     1       1.824 -18.356  10.309  1.00  0.00     0.004 A 
ATOM      9  C   UNL     1       3.246 -18.915  12.652  1.00  0.00     0.004 A 
ATOM     10  C   UNL     1       2.656 -17.382  10.870  1.00  0.00     0.004 A 
ENDBRANCH   2   4
ENDBRANCH   1   2
BRANCH   1  11
ATOM     11  C   UNL     1       5.833 -14.791  11.621  1.00  0.00     0.028 C 
BRANCH  11  12
ATOM     12  C   UNL     1       4.647 -13.904  11.313  1.00  0.00    -0.028 C 
ATOM     13  C   UNL     1       4.593 -12.601  11.660  1.00  0.00    -0.080 C 
ATOM     14  C   UNL     1       3.361 -11.809  11.305  1.00  0.00     0.039 C 
ATOM     15  C   UNL     1       5.731 -11.928  12.389  1.00  0.00     0.039 C 
ENDBRANCH  11  12
ENDBRANCH   1  11
TORSDOF 4
ENDMDL
MODEL 2
REMARK VINA RESULT:    -4.305      1.003      1.586
REMARK INTER + INTRA:          -6.004
REMARK INTER:                  -5.578
REMARK INTRA:                  -0.426
REMARK UNBOUND:                -0.693
REMARK SMILES CC(C)=CCC[C@H](C)c1ccc(C)cc1
REMARK SMILES IDX 6 1 7 2 8 3 9 4 13 5 12 6 11 7 14 8 10 9 15 10 5 11 4 12
REMARK SMILES IDX 2 13 1 14 3 15
REMARK H PARENT
REMARK Flexibility Score: inf
ROOT
ATOM      1  C   UNL     1       3.416 -14.720  11.426  1.00  0.00     0.012 C 
ENDROOT
BRANCH   1   2
ATOM      2  C   UNL     1       4.147 -15.916  12.084  1.00  0.00     0.016 C 
ATOM      3  C   UNL     1       5.597 -16.067  11.599  1.00  0.00     0.013 C 
BRANCH   2   4
ATOM      4  C   UNL     1       3.375 -17.201  11.844  1.00  0.00    -0.045 A 
ATOM      5  C   UNL     1       1.198 -20.858  11.106  1.00  0.00     0.044 C 
ATOM      6  C   UNL     1       1.931 -19.579  11.381  1.00  0.00    -0.051 A 
ATOM      7  C   UNL     1       2.863 -19.510  12.426  1.00  0.00     0.004 A 
ATOM      8  C   UNL     1       1.744 -18.465  10.551  1.00  0.00     0.004 A 
ATOM      9  C   UNL     1       3.575 -18.330  12.660  1.00  0.00     0.004 A 
ATOM     10  C   UNL     1       2.455 -17.284  10.783  1.00  0.00     0.004 A 
ENDBRANCH   2   4
ENDBRANCH   1   2
BRANCH   1  11
ATOM     11  C   UNL     1       4.265 -13.437  11.354  1.00  0.00     0.028 C 
BRANCH  11  12
ATOM     12  C   UNL     1       3.421 -12.181  11.366  1.00  0.00    -0.028 C 
ATOM     13  C   UNL     1       3.933 -10.948  11.167  1.00  0.00    -0.080 C 
ATOM     14  C   UNL     1       3.001  -9.764  11.202  1.00  0.00     0.039 C 
ATOM     15  C   UNL     1       5.406 -10.735  10.912  1.00  0.00     0.039 C 
ENDBRANCH  11  12
ENDBRANCH   1  11
TORSDOF 4
ENDMDL
MODEL 3
REMARK VINA RESULT:    -4.212      1.129      6.470
REMARK INTER + INTRA:          -5.890
REMARK INTER:                  -5.332
REMARK INTRA:                  -0.558
REMARK UNBOUND:                -0.693
REMARK SMILES CC(C)=CCC[C@H](C)c1ccc(C)cc1
REMARK SMILES IDX 6 1 7 2 8 3 9 4 13 5 12 6 11 7 14 8 10 9 15 10 5 11 4 12
REMARK SMILES IDX 2 13 1 14 3 15
REMARK H PARENT
REMARK Flexibility Score: inf
ROOT
ATOM      1  C   UNL     1       2.930 -17.138  11.200  1.00  0.00     0.012 C 
ENDROOT
BRANCH   1   2
ATOM      2  C   UNL     1       4.339 -16.805  11.749  1.00  0.00     0.016 C 
ATOM      3  C   UNL     1       4.582 -17.377  13.154  1.00  0.00     0.013 C 
BRANCH   2   4
ATOM      4  C   UNL     1       4.564 -15.304  11.746  1.00  0.00    -0.045 A 
ATOM      5  C   UNL     1       5.158 -11.025  11.771  1.00  0.00     0.044 C 
ATOM      6  C   UNL     1       4.961 -12.512  11.734  1.00  0.00    -0.051 A 
ATOM      7  C   UNL     1       5.998 -13.371  12.124  1.00  0.00     0.004 A 
ATOM      8  C   UNL     1       3.718 -13.051  11.375  1.00  0.00     0.004 A 
ATOM      9  C   UNL     1       5.804 -14.756  12.125  1.00  0.00     0.004 A 
ATOM     10  C   UNL     1       3.522 -14.435  11.375  1.00  0.00     0.004 A 
ENDBRANCH   2   4
ENDBRANCH   1   2
BRANCH   1  11
ATOM     11  C   UNL     1       2.933 -18.195  10.080  1.00  0.00     0.028 C 
BRANCH  11  12
ATOM     12  C   UNL     1       2.487 -19.556  10.565  1.00  0.00    -0.028 C 
ATOM     13  C   UNL     1       1.211 -19.987  10.477  1.00  0.00    -0.080 C 
ATOM     14  C   UNL     1       0.875 -21.362  10.993  1.00  0.00     0.039 C 
ATOM     15  C   UNL     1       0.125 -19.127   9.876  1.00  0.00     0.039 C 
ENDBRANCH  11  12
ENDBRANCH   1  11
TORSDOF 4
ENDMDL
MODEL 4
REMARK VINA RESULT:    -4.183      1.707      3.599
REMARK INTER + INTRA:          -5.854
REMARK INTER:                  -5.447
REMARK INTRA:                  -0.408
REMARK UNBOUND:                -0.693
REMARK SMILES CC(C)=CCC[C@H](C)c1ccc(C)cc1
REMARK SMILES IDX 6 1 7 2 8 3 9 4 13 5 12 6 11 7 14 8 10 9 15 10 5 11 4 12
REMARK SMILES IDX 2 13 1 14 3 15
REMARK H PARENT
REMARK Flexibility Score: inf
ROOT
ATOM      1  C   UNL     1       3.219 -13.217  11.340  1.00  0.00     0.012 C 
ENDROOT
BRANCH   1   2
ATOM      2  C   UNL     1       4.507 -14.073  11.399  1.00  0.00     0.016 C 
ATOM      3  C   UNL     1       5.292 -14.059  10.079  1.00  0.00     0.013 C 
BRANCH   2   4
ATOM      4  C   UNL     1       4.173 -15.500  11.797  1.00  0.00    -0.045 A 
ATOM      5  C   UNL     1       3.208 -19.539  12.985  1.00  0.00     0.044 C 
ATOM      6  C   UNL     1       3.566 -18.148  12.555  1.00  0.00    -0.051 A 
ATOM      7  C   UNL     1       2.942 -17.571  11.440  1.00  0.00     0.004 A 
ATOM      8  C   UNL     1       4.473 -17.388  13.306  1.00  0.00     0.004 A 
ATOM      9  C   UNL     1       3.247 -16.261  11.060  1.00  0.00     0.004 A 
ATOM     10  C   UNL     1       4.779 -16.077  12.928  1.00  0.00     0.004 A 
ENDBRANCH   2   4
ENDBRANCH   1   2
BRANCH   1  11
ATOM     11  C   UNL     1       3.480 -11.699  11.349  1.00  0.00     0.028 C 
BRANCH  11  12
ATOM     12  C   UNL     1       2.220 -10.891  11.135  1.00  0.00    -0.028 C 
ATOM     13  C   UNL     1       2.112  -9.590  11.478  1.00  0.00    -0.080 C 
ATOM     14  C   UNL     1       0.807  -8.881  11.222  1.00  0.00     0.039 C 
ATOM     15  C   UNL     1       3.262  -8.839  12.104  1.00  0.00     0.039 C 
ENDBRANCH  11  12
ENDBRANCH   1  11
TORSDOF 4
ENDMDL
MODEL 5
REMARK VINA RESULT:    -4.144      2.133      7.327
REMARK INTER + INTRA:          -5.806
REMARK INTER:                  -5.275
REMARK INTRA:                  -0.531
REMARK UNBOUND:                -0.693
REMARK SMILES CC(C)=CCC[C@H](C)c1ccc(C)cc1
REMARK SMILES IDX 6 1 7 2 8 3 9 4 13 5 12 6 11 7 14 8 10 9 15 10 5 11 4 12
REMARK SMILES IDX 2 13 1 14 3 15
REMARK H PARENT
REMARK Flexibility Score: inf
ROOT
ATOM      1  C   UNL     1       3.611 -13.515  11.379  1.00  0.00     0.012 C 
ENDROOT
BRANCH   1   2
ATOM      2  C   UNL     1       4.315 -12.159  11.133  1.00  0.00     0.016 C 
ATOM      3  C   UNL     1       5.329 -11.806  12.232  1.00  0.00     0.013 C 
BRANCH   2   4
ATOM      4  C   UNL     1       3.287 -11.051  10.989  1.00  0.00    -0.045 A 
ATOM      5  C   UNL     1       0.346  -7.906  10.636  1.00  0.00     0.044 C 
ATOM      6  C   UNL     1       1.362  -9.005  10.729  1.00  0.00    -0.051 A 
ATOM      7  C   UNL     1       2.714  -8.742  10.463  1.00  0.00     0.004 A 
ATOM      8  C   UNL     1       0.981 -10.286  11.152  1.00  0.00     0.004 A 
ATOM      9  C   UNL     1       3.668  -9.757  10.586  1.00  0.00     0.004 A 
ATOM     10  C   UNL     1       1.934 -11.302  11.276  1.00  0.00     0.004 A 
ENDBRANCH   2   4
ENDBRANCH   1   2
BRANCH   1  11
ATOM     11  C   UNL     1       4.497 -14.739  11.082  1.00  0.00     0.028 C 
BRANCH  11  12
ATOM     12  C   UNL     1       4.762 -15.577  12.313  1.00  0.00    -0.028 C 
ATOM     13  C   UNL     1       4.214 -16.796  12.504  1.00  0.00    -0.080 C 
ATOM     14  C   UNL     1       4.544 -17.546  13.770  1.00  0.00     0.039 C 
ATOM     15  C   UNL     1       3.289 -17.417  11.486  1.00  0.00     0.039 C 
ENDBRANCH  11  12
ENDBRANCH   1  11
TORSDOF 4
ENDMDL
MODEL 6
REMARK VINA RESULT:    -4.121      1.746      3.395
REMARK INTER + INTRA:          -5.777
REMARK INTER:                  -5.356
REMARK INTRA:                  -0.422
REMARK UNBOUND:                -0.693
REMARK SMILES CC(C)=CCC[C@H](C)c1ccc(C)cc1
REMARK SMILES IDX 6 1 7 2 8 3 9 4 13 5 12 6 11 7 14 8 10 9 15 10 5 11 4 12
REMARK SMILES IDX 2 13 1 14 3 15
REMARK H PARENT
REMARK Flexibility Score: inf
ROOT
ATOM      1  C   UNL     1       3.234 -13.014  11.336  1.00  0.00     0.012 C 
ENDROOT
BRANCH   1   2
ATOM      2  C   UNL     1       4.466 -13.950  11.394  1.00  0.00     0.016 C 
ATOM      3  C   UNL     1       5.343 -13.860  10.136  1.00  0.00     0.013 C 
BRANCH   2   4
ATOM      4  C   UNL     1       4.026 -15.384  11.628  1.00  0.00    -0.045 A 
ATOM      5  C   UNL     1       2.790 -19.478  12.241  1.00  0.00     0.044 C 
ATOM      6  C   UNL     1       3.197 -18.047  12.047  1.00  0.00    -0.051 A 
ATOM      7  C   UNL     1       4.166 -17.470  12.880  1.00  0.00     0.004 A 
ATOM      8  C   UNL     1       2.665 -17.299  10.988  1.00  0.00     0.004 A 
ATOM      9  C   UNL     1       4.574 -16.148  12.677  1.00  0.00     0.004 A 
ATOM     10  C   UNL     1       3.071 -15.976  10.783  1.00  0.00     0.004 A 
ENDBRANCH   2   4
ENDBRANCH   1   2
BRANCH   1  11
ATOM     11  C   UNL     1       3.591 -11.516  11.343  1.00  0.00     0.028 C 
BRANCH  11  12
ATOM     12  C   UNL     1       2.393 -10.632  11.075  1.00  0.00    -0.028 C 
ATOM     13  C   UNL     1       2.283  -9.375  11.554  1.00  0.00    -0.080 C 
ATOM     14  C   UNL     1       1.044  -8.582  11.227  1.00  0.00     0.039 C 
ATOM     15  C   UNL     1       3.367  -8.754  12.401  1.00  0.00     0.039 C 
ENDBRANCH  11  12
ENDBRANCH   1  11
TORSDOF 4
ENDMDL
MODEL 7
REMARK VINA RESULT:    -4.092      2.239      7.304
REMARK INTER + INTRA:          -5.741
REMARK INTER:                  -5.229
REMARK INTRA:                  -0.512
REMARK UNBOUND:                -0.693
REMARK SMILES CC(C)=CCC[C@H](C)c1ccc(C)cc1
REMARK SMILES IDX 6 1 7 2 8 3 9 4 13 5 12 6 11 7 14 8 10 9 15 10 5 11 4 12
REMARK SMILES IDX 2 13 1 14 3 15
REMARK H PARENT
REMARK Flexibility Score: inf
ROOT
ATOM      1  C   UNL     1       3.500 -13.481  11.383  1.00  0.00     0.012 C 
ENDROOT
BRANCH   1   2
ATOM      2  C   UNL     1       4.186 -12.125  11.087  1.00  0.00     0.016 C 
ATOM      3  C   UNL     1       5.254 -11.758  12.128  1.00  0.00     0.013 C 
BRANCH   2   4
ATOM      4  C   UNL     1       3.148 -11.022  10.985  1.00  0.00    -0.045 A 
ATOM      5  C   UNL     1       0.209  -7.875  10.639  1.00  0.00     0.044 C 
ATOM      6  C   UNL     1       1.235  -8.959  10.787  1.00  0.00    -0.051 A 
ATOM      7  C   UNL     1       0.860 -10.229  11.248  1.00  0.00     0.004 A 
ATOM      8  C   UNL     1       2.563  -8.731  10.400  1.00  0.00     0.004 A 
ATOM      9  C   UNL     1       1.809 -11.250  11.352  1.00  0.00     0.004 A 
ATOM     10  C   UNL     1       3.514  -9.752  10.504  1.00  0.00     0.004 A 
ENDBRANCH   2   4
ENDBRANCH   1   2
BRANCH   1  11
ATOM     11  C   UNL     1       4.105 -14.667  10.608  1.00  0.00     0.028 C 
BRANCH  11  12
ATOM     12  C   UNL     1       3.130 -15.810  10.440  1.00  0.00    -0.028 C 
ATOM     13  C   UNL     1       3.149 -16.914  11.217  1.00  0.00    -0.080 C 
ATOM     14  C   UNL     1       2.130 -17.995  10.961  1.00  0.00     0.039 C 
ATOM     15  C   UNL     1       4.159 -17.085  12.325  1.00  0.00     0.039 C 
ENDBRANCH  11  12
ENDBRANCH   1  11
TORSDOF 4
ENDMDL
MODEL 8
REMARK VINA RESULT:    -3.865      2.306      4.973
REMARK INTER + INTRA:          -5.462
REMARK INTER:                  -4.735
REMARK INTRA:                  -0.727
REMARK UNBOUND:                -0.693
REMARK SMILES CC(C)=CCC[C@H](C)c1ccc(C)cc1
REMARK SMILES IDX 6 1 7 2 8 3 9 4 13 5 12 6 11 7 14 8 10 9 15 10 5 11 4 12
REMARK SMILES IDX 2 13 1 14 3 15
REMARK H PARENT
REMARK Flexibility Score: inf
ROOT
ATOM      1  C   UNL     1       4.547 -11.065  10.409  1.00  0.00     0.012 C 
ENDROOT
BRANCH   1   2
ATOM      2  C   UNL     1       4.670 -11.692  11.819  1.00  0.00     0.016 C 
ATOM      3  C   UNL     1       5.939 -11.246  12.561  1.00  0.00     0.013 C 
BRANCH   2   4
ATOM      4  C   UNL     1       4.618 -13.206  11.727  1.00  0.00    -0.045 A 
ATOM      5  C   UNL     1       4.456 -17.511  11.410  1.00  0.00     0.044 C 
ATOM      6  C   UNL     1       4.503 -16.019  11.549  1.00  0.00    -0.051 A 
ATOM      7  C   UNL     1       5.682 -15.385  11.967  1.00  0.00     0.004 A 
ATOM      8  C   UNL     1       3.391 -15.241  11.195  1.00  0.00     0.004 A 
ATOM      9  C   UNL     1       5.738 -13.991  12.061  1.00  0.00     0.004 A 
ATOM     10  C   UNL     1       3.446 -13.847  11.288  1.00  0.00     0.004 A 
ENDBRANCH   2   4
ENDBRANCH   1   2
BRANCH   1  11
ATOM     11  C   UNL     1       3.392 -10.054  10.276  1.00  0.00     0.028 C 
BRANCH  11  12
ATOM     12  C   UNL     1       2.227 -10.381  11.183  1.00  0.00    -0.028 C 
ATOM     13  C   UNL     1       1.080  -9.669  11.194  1.00  0.00    -0.080 C 
ATOM     14  C   UNL     1      -0.017 -10.081  12.141  1.00  0.00     0.039 C 
ATOM     15  C   UNL     1       0.878  -8.481  10.285  1.00  0.00     0.039 C 
ENDBRANCH  11  12
ENDBRANCH   1  11
TORSDOF 4
ENDMDL
MODEL 9
REMARK VINA RESULT:    -3.861      1.532      7.144
REMARK INTER + INTRA:          -5.457
REMARK INTER:                  -4.938
REMARK INTRA:                  -0.519
REMARK UNBOUND:                -0.693
REMARK SMILES CC(C)=CCC[C@H](C)c1ccc(C)cc1
REMARK SMILES IDX 6 1 7 2 8 3 9 4 13 5 12 6 11 7 14 8 10 9 15 10 5 11 4 12
REMARK SMILES IDX 2 13 1 14 3 15
REMARK H PARENT
REMARK Flexibility Score: inf
ROOT
ATOM      1  C   UNL     1       3.243 -14.634  11.446  1.00  0.00     0.012 C 
ENDROOT
BRANCH   1   2
ATOM      2  C   UNL     1       4.488 -13.756  11.175  1.00  0.00     0.016 C 
ATOM      3  C   UNL     1       5.708 -14.180  12.007  1.00  0.00     0.013 C 
BRANCH   2   4
ATOM      4  C   UNL     1       4.165 -12.294  11.422  1.00  0.00    -0.045 A 
ATOM      5  C   UNL     1       3.200  -8.148  12.160  1.00  0.00     0.044 C 
ATOM      6  C   UNL     1       3.543  -9.580  11.876  1.00  0.00    -0.051 A 
ATOM      7  C   UNL     1       4.831 -10.065  12.147  1.00  0.00     0.004 A 
ATOM      8  C   UNL     1       2.561 -10.461  11.404  1.00  0.00     0.004 A 
ATOM      9  C   UNL     1       5.141 -11.408  11.917  1.00  0.00     0.004 A 
ATOM     10  C   UNL     1       2.870 -11.806  11.173  1.00  0.00     0.004 A 
ENDBRANCH   2   4
ENDBRANCH   1   2
BRANCH   1  11
ATOM     11  C   UNL     1       3.260 -15.984  10.705  1.00  0.00     0.028 C 
BRANCH  11  12
ATOM     12  C   UNL     1       3.534 -17.151  11.628  1.00  0.00    -0.028 C 
ATOM     13  C   UNL     1       2.720 -18.224  11.718  1.00  0.00    -0.080 C 
ATOM     14  C   UNL     1       3.087 -19.330  12.674  1.00  0.00     0.039 C 
ATOM     15  C   UNL     1       1.464 -18.337  10.889  1.00  0.00     0.039 C 
ENDBRANCH  11  12
ENDBRANCH   1  11
TORSDOF 4
ENDMDL
