MODEL 1
REMARK VINA RESULT:    -6.202      0.000      0.000
REMARK INTER + INTRA:         -16.767
REMARK INTER:                 -14.178
REMARK INTRA:                  -2.589
REMARK UNBOUND:                -2.589
REMARK SMILES CCCCCCCCCCCCCCCCCCCCCCCC(=O)[O-]
REMARK SMILES IDX 13 1 14 2 15 3 16 4 17 5 18 6 19 7 20 8 21 9 22 10 23 11
REMARK SMILES IDX 24 12 25 13 26 14 12 15 11 16 10 17 9 18 8 19 7 20 6 21 5 22
REMARK SMILES IDX 4 23 3 24 2 25 1 26
REMARK H PARENT
REMARK Flexibility Score: inf
ROOT
ATOM      1  C   UNL     1      21.743  11.801  -2.380  1.00  0.00     0.000 C 
ENDROOT
BRANCH   1   2
ATOM      2  C   UNL     1      22.688  13.004  -2.239  1.00  0.00     0.000 C 
BRANCH   2   3
ATOM      3  C   UNL     1      23.456  13.312  -3.537  1.00  0.00     0.000 C 
BRANCH   3   4
ATOM      4  C   UNL     1      23.730  12.054  -4.379  1.00  0.00     0.000 C 
BRANCH   4   5
ATOM      5  C   UNL     1      23.143  12.089  -5.803  1.00  0.00     0.000 C 
BRANCH   5   6
ATOM      6  C   UNL     1      23.734  11.052  -6.779  1.00  0.00     0.000 C 
BRANCH   6   7
ATOM      7  C   UNL     1      24.082  11.599  -8.175  1.00  0.00     0.000 C 
BRANCH   7   8
ATOM      8  C   UNL     1      25.240  10.843  -8.844  1.00  0.00     0.000 C 
BRANCH   8   9
ATOM      9  C   UNL     1      26.525  10.954  -8.010  1.00  0.00     0.000 C 
BRANCH   9  10
ATOM     10  C   UNL     1      27.118   9.584  -7.646  1.00  0.00     0.006 C 
BRANCH  10  11
ATOM     11  C   UNL     1      26.139   8.427  -7.890  1.00  0.00     0.053 C 
BRANCH  11  12
ATOM     12  C   UNL     1      26.623   7.183  -7.214  1.00  0.00     0.041 C 
ATOM     13  O   UNL     1      26.687   7.128  -5.957  1.00  0.00    -0.550 OA
ATOM     14  O   UNL     1      26.954   6.065  -7.968  1.00  0.00    -0.550 OA
ENDBRANCH  11  12
ENDBRANCH  10  11
ENDBRANCH   9  10
ENDBRANCH   8   9
ENDBRANCH   7   8
ENDBRANCH   6   7
ENDBRANCH   5   6
ENDBRANCH   4   5
ENDBRANCH   3   4
ENDBRANCH   2   3
ENDBRANCH   1   2
BRANCH   1  15
ATOM     15  C   UNL     1      20.366  12.190  -2.937  1.00  0.00     0.000 C 
BRANCH  15  16
ATOM     16  C   UNL     1      19.709  13.266  -2.065  1.00  0.00     0.000 C 
BRANCH  16  17
ATOM     17  C   UNL     1      19.366  12.721  -0.674  1.00  0.00     0.000 C 
BRANCH  17  18
ATOM     18  C   UNL     1      19.461  13.829   0.385  1.00  0.00    -0.000 C 
BRANCH  18  19
ATOM     19  C   UNL     1      20.561  14.862   0.079  1.00  0.00    -0.000 C 
BRANCH  19  20
ATOM     20  C   UNL     1      20.752  15.950   1.155  1.00  0.00    -0.000 C 
BRANCH  20  21
ATOM     21  C   UNL     1      22.137  15.962   1.832  1.00  0.00    -0.000 C 
BRANCH  21  22
ATOM     22  C   UNL     1      22.161  15.430   3.280  1.00  0.00    -0.000 C 
BRANCH  22  23
ATOM     23  C   UNL     1      23.080  14.220   3.517  1.00  0.00    -0.000 C 
BRANCH  23  24
ATOM     24  C   UNL     1      22.301  12.917   3.760  1.00  0.00    -0.000 C 
BRANCH  24  25
ATOM     25  C   UNL     1      21.984  12.167   2.457  1.00  0.00    -0.003 C 
ATOM     26  C   UNL     1      23.050  12.372   1.380  1.00  0.00     0.004 C 
ENDBRANCH  24  25
ENDBRANCH  23  24
ENDBRANCH  22  23
ENDBRANCH  21  22
ENDBRANCH  20  21
ENDBRANCH  19  20
ENDBRANCH  18  19
ENDBRANCH  17  18
ENDBRANCH  16  17
ENDBRANCH  15  16
ENDBRANCH   1  15
TORSDOF 22
ENDMDL
MODEL 2
REMARK VINA RESULT:    -6.150      1.076      3.526
REMARK INTER + INTRA:         -16.649
REMARK INTER:                 -13.690
REMARK INTRA:                  -2.959
REMARK UNBOUND:                -2.589
REMARK SMILES CCCCCCCCCCCCCCCCCCCCCCCC(=O)[O-]
REMARK SMILES IDX 13 1 14 2 15 3 16 4 17 5 18 6 19 7 20 8 21 9 22 10 23 11
REMARK SMILES IDX 24 12 25 13 26 14 12 15 11 16 10 17 9 18 8 19 7 20 6 21 5 22
REMARK SMILES IDX 4 23 3 24 2 25 1 26
REMARK H PARENT
REMARK Flexibility Score: inf
ROOT
ATOM      1  C   UNL     1      22.132  11.736   0.332  1.00  0.00     0.000 C 
ENDROOT
BRANCH   1   2
ATOM      2  C   UNL     1      23.521  12.232  -0.096  1.00  0.00     0.000 C 
BRANCH   2   3
ATOM      3  C   UNL     1      23.454  13.329  -1.173  1.00  0.00     0.000 C 
BRANCH   3   4
ATOM      4  C   UNL     1      23.979  12.855  -2.539  1.00  0.00     0.000 C 
BRANCH   4   5
ATOM      5  C   UNL     1      23.342  13.554  -3.756  1.00  0.00     0.000 C 
BRANCH   5   6
ATOM      6  C   UNL     1      22.652  12.614  -4.764  1.00  0.00     0.000 C 
BRANCH   6   7
ATOM      7  C   UNL     1      23.603  11.697  -5.553  1.00  0.00     0.000 C 
BRANCH   7   8
ATOM      8  C   UNL     1      23.607  11.992  -7.060  1.00  0.00     0.000 C 
BRANCH   8   9
ATOM      9  C   UNL     1      23.972  10.736  -7.866  1.00  0.00     0.000 C 
BRANCH   9  10
ATOM     10  C   UNL     1      25.360  10.830  -8.518  1.00  0.00     0.006 C 
BRANCH  10  11
ATOM     11  C   UNL     1      26.431  10.036  -7.758  1.00  0.00     0.053 C 
BRANCH  11  12
ATOM     12  C   UNL     1      26.404   8.597  -8.169  1.00  0.00     0.041 C 
ATOM     13  O   UNL     1      25.810   7.746  -7.456  1.00  0.00    -0.550 OA
ATOM     14  O   UNL     1      26.992   8.204  -9.365  1.00  0.00    -0.550 OA
ENDBRANCH  11  12
ENDBRANCH  10  11
ENDBRANCH   9  10
ENDBRANCH   8   9
ENDBRANCH   7   8
ENDBRANCH   6   7
ENDBRANCH   5   6
ENDBRANCH   4   5
ENDBRANCH   3   4
ENDBRANCH   2   3
ENDBRANCH   1   2
BRANCH   1  15
ATOM     15  C   UNL     1      21.937  11.757   1.855  1.00  0.00     0.000 C 
BRANCH  15  16
ATOM     16  C   UNL     1      22.982  12.656   2.526  1.00  0.00     0.000 C 
BRANCH  16  17
ATOM     17  C   UNL     1      22.461  13.219   3.854  1.00  0.00     0.000 C 
BRANCH  17  18
ATOM     18  C   UNL     1      22.580  14.749   3.882  1.00  0.00    -0.000 C 
BRANCH  18  19
ATOM     19  C   UNL     1      22.918  15.353   2.507  1.00  0.00    -0.000 C 
BRANCH  19  20
ATOM     20  C   UNL     1      21.822  16.250   1.900  1.00  0.00    -0.000 C 
BRANCH  20  21
ATOM     21  C   UNL     1      21.382  15.871   0.472  1.00  0.00    -0.000 C 
BRANCH  21  22
ATOM     22  C   UNL     1      19.874  15.600   0.302  1.00  0.00    -0.000 C 
BRANCH  22  23
ATOM     23  C   UNL     1      19.424  14.169   0.645  1.00  0.00    -0.000 C 
BRANCH  23  24
ATOM     24  C   UNL     1      18.928  13.389  -0.584  1.00  0.00    -0.000 C 
BRANCH  24  25
ATOM     25  C   UNL     1      19.815  13.608  -1.819  1.00  0.00    -0.003 C 
ATOM     26  C   UNL     1      19.949  12.355  -2.684  1.00  0.00     0.004 C 
ENDBRANCH  24  25
ENDBRANCH  23  24
ENDBRANCH  22  23
ENDBRANCH  21  22
ENDBRANCH  20  21
ENDBRANCH  19  20
ENDBRANCH  18  19
ENDBRANCH  17  18
ENDBRANCH  16  17
ENDBRANCH  15  16
ENDBRANCH   1  15
TORSDOF 22
ENDMDL
MODEL 3
REMARK VINA RESULT:    -6.147      3.451     10.019
REMARK INTER + INTRA:         -16.642
REMARK INTER:                 -14.115
REMARK INTRA:                  -2.527
REMARK UNBOUND:                -2.589
REMARK SMILES CCCCCCCCCCCCCCCCCCCCCCCC(=O)[O-]
REMARK SMILES IDX 13 1 14 2 15 3 16 4 17 5 18 6 19 7 20 8 21 9 22 10 23 11
REMARK SMILES IDX 24 12 25 13 26 14 12 15 11 16 10 17 9 18 8 19 7 20 6 21 5 22
REMARK SMILES IDX 4 23 3 24 2 25 1 26
REMARK H PARENT
REMARK Flexibility Score: inf
ROOT
ATOM      1  C   UNL     1      21.977  11.744  -1.732  1.00  0.00     0.000 C 
ENDROOT
BRANCH   1   2
ATOM      2  C   UNL     1      21.950  10.960  -0.411  1.00  0.00     0.000 C 
BRANCH   2   3
ATOM      3  C   UNL     1      22.796  11.623   0.690  1.00  0.00     0.000 C 
BRANCH   3   4
ATOM      4  C   UNL     1      21.960  12.039   1.913  1.00  0.00     0.000 C 
BRANCH   4   5
ATOM      5  C   UNL     1      22.673  12.994   2.889  1.00  0.00     0.000 C 
BRANCH   5   6
ATOM      6  C   UNL     1      23.906  13.719   2.313  1.00  0.00     0.000 C 
BRANCH   6   7
ATOM      7  C   UNL     1      23.592  14.984   1.495  1.00  0.00     0.000 C 
BRANCH   7   8
ATOM      8  C   UNL     1      22.423  15.796   2.072  1.00  0.00     0.000 C 
BRANCH   8   9
ATOM      9  C   UNL     1      21.427  16.188   0.970  1.00  0.00     0.000 C 
BRANCH   9  10
ATOM     10  C   UNL     1      20.262  15.195   0.840  1.00  0.00     0.006 C 
BRANCH  10  11
ATOM     11  C   UNL     1      20.027  14.737  -0.606  1.00  0.00     0.053 C 
BRANCH  11  12
ATOM     12  C   UNL     1      19.072  13.586  -0.642  1.00  0.00     0.041 C 
ATOM     13  O   UNL     1      18.535  13.241  -1.728  1.00  0.00    -0.550 OA
ATOM     14  O   UNL     1      18.812  12.862   0.515  1.00  0.00    -0.550 OA
ENDBRANCH  11  12
ENDBRANCH  10  11
ENDBRANCH   9  10
ENDBRANCH   8   9
ENDBRANCH   7   8
ENDBRANCH   6   7
ENDBRANCH   5   6
ENDBRANCH   4   5
ENDBRANCH   3   4
ENDBRANCH   2   3
ENDBRANCH   1   2
BRANCH   1  15
ATOM     15  C   UNL     1      23.068  12.824  -1.761  1.00  0.00     0.000 C 
BRANCH  15  16
ATOM     16  C   UNL     1      23.482  13.142  -3.202  1.00  0.00     0.000 C 
BRANCH  16  17
ATOM     17  C   UNL     1      22.452  12.611  -4.206  1.00  0.00     0.000 C 
BRANCH  17  18
ATOM     18  C   UNL     1      23.023  12.621  -5.631  1.00  0.00    -0.000 C 
BRANCH  18  19
ATOM     19  C   UNL     1      23.894  11.389  -5.940  1.00  0.00    -0.000 C 
BRANCH  19  20
ATOM     20  C   UNL     1      23.661  10.756  -7.326  1.00  0.00    -0.000 C 
BRANCH  20  21
ATOM     21  C   UNL     1      24.473  11.383  -8.476  1.00  0.00    -0.000 C 
BRANCH  21  22
ATOM     22  C   UNL     1      25.982  11.068  -8.459  1.00  0.00    -0.000 C 
BRANCH  22  23
ATOM     23  C   UNL     1      26.543  10.483  -9.767  1.00  0.00    -0.000 C 
BRANCH  23  24
ATOM     24  C   UNL     1      26.982   9.016  -9.626  1.00  0.00    -0.000 C 
BRANCH  24  25
ATOM     25  C   UNL     1      26.622   8.423  -8.254  1.00  0.00    -0.003 C 
ATOM     26  C   UNL     1      27.828   8.303  -7.324  1.00  0.00     0.004 C 
ENDBRANCH  24  25
ENDBRANCH  23  24
ENDBRANCH  22  23
ENDBRANCH  21  22
ENDBRANCH  20  21
ENDBRANCH  19  20
ENDBRANCH  18  19
ENDBRANCH  17  18
ENDBRANCH  16  17
ENDBRANCH  15  16
ENDBRANCH   1  15
TORSDOF 22
ENDMDL
MODEL 4
REMARK VINA RESULT:    -6.137      0.984      2.225
REMARK INTER + INTRA:         -16.618
REMARK INTER:                 -13.442
REMARK INTRA:                  -3.176
REMARK UNBOUND:                -2.589
REMARK SMILES CCCCCCCCCCCCCCCCCCCCCCCC(=O)[O-]
REMARK SMILES IDX 13 1 14 2 15 3 16 4 17 5 18 6 19 7 20 8 21 9 22 10 23 11
REMARK SMILES IDX 24 12 25 13 26 14 12 15 11 16 10 17 9 18 8 19 7 20 6 21 5 22
REMARK SMILES IDX 4 23 3 24 2 25 1 26
REMARK H PARENT
REMARK Flexibility Score: inf
ROOT
ATOM      1  C   UNL     1      19.779  13.220  -2.104  1.00  0.00     0.000 C 
ENDROOT
BRANCH   1   2
ATOM      2  C   UNL     1      20.560  12.197  -2.943  1.00  0.00     0.000 C 
BRANCH   2   3
ATOM      3  C   UNL     1      21.762  12.821  -3.674  1.00  0.00     0.000 C 
BRANCH   3   4
ATOM      4  C   UNL     1      23.074  12.060  -3.418  1.00  0.00     0.000 C 
BRANCH   4   5
ATOM      5  C   UNL     1      23.947  11.837  -4.668  1.00  0.00     0.000 C 
BRANCH   5   6
ATOM      6  C   UNL     1      23.195  11.905  -6.012  1.00  0.00     0.000 C 
BRANCH   6   7
ATOM      7  C   UNL     1      23.687  10.912  -7.081  1.00  0.00     0.000 C 
BRANCH   7   8
ATOM      8  C   UNL     1      24.468  11.592  -8.216  1.00  0.00     0.000 C 
BRANCH   8   9
ATOM      9  C   UNL     1      25.407  10.596  -8.911  1.00  0.00     0.000 C 
BRANCH   9  10
ATOM     10  C   UNL     1      26.360   9.893  -7.932  1.00  0.00     0.006 C 
BRANCH  10  11
ATOM     11  C   UNL     1      26.720   8.467  -8.371  1.00  0.00     0.053 C 
BRANCH  11  12
ATOM     12  C   UNL     1      27.146   7.650  -7.193  1.00  0.00     0.041 C 
ATOM     13  O   UNL     1      26.303   7.299  -6.326  1.00  0.00    -0.550 OA
ATOM     14  O   UNL     1      28.466   7.231  -7.078  1.00  0.00    -0.550 OA
ENDBRANCH  11  12
ENDBRANCH  10  11
ENDBRANCH   9  10
ENDBRANCH   8   9
ENDBRANCH   7   8
ENDBRANCH   6   7
ENDBRANCH   5   6
ENDBRANCH   4   5
ENDBRANCH   3   4
ENDBRANCH   2   3
ENDBRANCH   1   2
BRANCH   1  15
ATOM     15  C   UNL     1      19.155  12.603  -0.844  1.00  0.00     0.000 C 
BRANCH  15  16
ATOM     16  C   UNL     1      19.229  13.580   0.335  1.00  0.00     0.000 C 
BRANCH  16  17
ATOM     17  C   UNL     1      19.874  14.907  -0.083  1.00  0.00     0.000 C 
BRANCH  17  18
ATOM     18  C   UNL     1      20.771  15.454   1.037  1.00  0.00    -0.000 C 
BRANCH  18  19
ATOM     19  C   UNL     1      22.268  15.430   0.675  1.00  0.00    -0.000 C 
BRANCH  19  20
ATOM     20  C   UNL     1      22.669  14.373  -0.373  1.00  0.00    -0.000 C 
BRANCH  20  21
ATOM     21  C   UNL     1      23.413  13.145   0.187  1.00  0.00    -0.000 C 
BRANCH  21  22
ATOM     22  C   UNL     1      22.573  11.854   0.270  1.00  0.00    -0.000 C 
BRANCH  22  23
ATOM     23  C   UNL     1      22.350  11.309   1.691  1.00  0.00    -0.000 C 
BRANCH  23  24
ATOM     24  C   UNL     1      21.847  12.383   2.670  1.00  0.00    -0.000 C 
BRANCH  24  25
ATOM     25  C   UNL     1      22.936  12.840   3.654  1.00  0.00    -0.003 C 
ATOM     26  C   UNL     1      22.724  14.269   4.152  1.00  0.00     0.004 C 
ENDBRANCH  24  25
ENDBRANCH  23  24
ENDBRANCH  22  23
ENDBRANCH  21  22
ENDBRANCH  20  21
ENDBRANCH  19  20
ENDBRANCH  18  19
ENDBRANCH  17  18
ENDBRANCH  16  17
ENDBRANCH  15  16
ENDBRANCH   1  15
TORSDOF 22
ENDMDL
MODEL 5
REMARK VINA RESULT:    -6.134      4.990      7.835
REMARK INTER + INTRA:         -16.612
REMARK INTER:                 -13.742
REMARK INTRA:                  -2.870
REMARK UNBOUND:                -2.589
REMARK SMILES CCCCCCCCCCCCCCCCCCCCCCCC(=O)[O-]
REMARK SMILES IDX 13 1 14 2 15 3 16 4 17 5 18 6 19 7 20 8 21 9 22 10 23 11
REMARK SMILES IDX 24 12 25 13 26 14 12 15 11 16 10 17 9 18 8 19 7 20 6 21 5 22
REMARK SMILES IDX 4 23 3 24 2 25 1 26
REMARK H PARENT
REMARK Flexibility Score: inf
ROOT
ATOM      1  C   UNL     1      23.430  14.353   3.506  1.00  0.00     0.000 C 
ENDROOT
BRANCH   1   2
ATOM      2  C   UNL     1      23.246  12.828   3.514  1.00  0.00     0.000 C 
BRANCH   2   3
ATOM      3  C   UNL     1      22.061  12.367   2.647  1.00  0.00     0.000 C 
BRANCH   3   4
ATOM      4  C   UNL     1      22.499  11.864   1.261  1.00  0.00     0.000 C 
BRANCH   4   5
ATOM      5  C   UNL     1      22.675  10.337   1.153  1.00  0.00     0.000 C 
BRANCH   5   6
ATOM      6  C   UNL     1      21.959   9.679  -0.043  1.00  0.00     0.000 C 
BRANCH   6   7
ATOM      7  C   UNL     1      22.140   8.154  -0.149  1.00  0.00     0.000 C 
BRANCH   7   8
ATOM      8  C   UNL     1      22.875   7.552   1.058  1.00  0.00     0.000 C 
BRANCH   8   9
ATOM      9  C   UNL     1      23.218   6.075   0.814  1.00  0.00     0.000 C 
BRANCH   9  10
ATOM     10  C   UNL     1      22.703   5.152   1.930  1.00  0.00     0.006 C 
BRANCH  10  11
ATOM     11  C   UNL     1      21.477   4.333   1.506  1.00  0.00     0.053 C 
BRANCH  11  12
ATOM     12  C   UNL     1      20.505   4.224   2.639  1.00  0.00     0.041 C 
ATOM     13  O   UNL     1      19.267   4.189   2.411  1.00  0.00    -0.550 OA
ATOM     14  O   UNL     1      20.968   4.108   3.944  1.00  0.00    -0.550 OA
ENDBRANCH  11  12
ENDBRANCH  10  11
ENDBRANCH   9  10
ENDBRANCH   8   9
ENDBRANCH   7   8
ENDBRANCH   6   7
ENDBRANCH   5   6
ENDBRANCH   4   5
ENDBRANCH   3   4
ENDBRANCH   2   3
ENDBRANCH   1   2
BRANCH   1  15
ATOM     15  C   UNL     1      22.098  15.113   3.567  1.00  0.00     0.000 C 
BRANCH  15  16
ATOM     16  C   UNL     1      22.110  16.312   2.612  1.00  0.00     0.000 C 
BRANCH  16  17
ATOM     17  C   UNL     1      22.715  15.935   1.255  1.00  0.00     0.000 C 
BRANCH  17  18
ATOM     18  C   UNL     1      21.675  15.235   0.369  1.00  0.00    -0.000 C 
BRANCH  18  19
ATOM     19  C   UNL     1      20.288  15.901   0.427  1.00  0.00    -0.000 C 
BRANCH  19  20
ATOM     20  C   UNL     1      19.095  14.925   0.431  1.00  0.00    -0.000 C 
BRANCH  20  21
ATOM     21  C   UNL     1      19.466  13.439   0.252  1.00  0.00    -0.000 C 
BRANCH  21  22
ATOM     22  C   UNL     1      19.041  12.817  -1.094  1.00  0.00    -0.000 C 
BRANCH  22  23
ATOM     23  C   UNL     1      19.849  13.286  -2.316  1.00  0.00    -0.000 C 
BRANCH  23  24
ATOM     24  C   UNL     1      20.480  12.122  -3.097  1.00  0.00    -0.000 C 
BRANCH  24  25
ATOM     25  C   UNL     1      22.001  12.031  -2.894  1.00  0.00    -0.003 C 
ATOM     26  C   UNL     1      22.576  13.247  -2.168  1.00  0.00     0.004 C 
ENDBRANCH  24  25
ENDBRANCH  23  24
ENDBRANCH  22  23
ENDBRANCH  21  22
ENDBRANCH  20  21
ENDBRANCH  19  20
ENDBRANCH  18  19
ENDBRANCH  17  18
ENDBRANCH  16  17
ENDBRANCH  15  16
ENDBRANCH   1  15
TORSDOF 22
ENDMDL
MODEL 6
REMARK VINA RESULT:    -6.123      0.960      2.748
REMARK INTER + INTRA:         -16.587
REMARK INTER:                 -13.601
REMARK INTRA:                  -2.987
REMARK UNBOUND:                -2.589
REMARK SMILES CCCCCCCCCCCCCCCCCCCCCCCC(=O)[O-]
REMARK SMILES IDX 13 1 14 2 15 3 16 4 17 5 18 6 19 7 20 8 21 9 22 10 23 11
REMARK SMILES IDX 24 12 25 13 26 14 12 15 11 16 10 17 9 18 8 19 7 20 6 21 5 22
REMARK SMILES IDX 4 23 3 24 2 25 1 26
REMARK H PARENT
REMARK Flexibility Score: inf
ROOT
ATOM      1  C   UNL     1      22.307  11.945  -1.515  1.00  0.00     0.000 C 
ENDROOT
BRANCH   1   2
ATOM      2  C   UNL     1      21.901  12.179  -2.978  1.00  0.00     0.000 C 
BRANCH   2   3
ATOM      3  C   UNL     1      22.963  12.957  -3.774  1.00  0.00     0.000 C 
BRANCH   3   4
ATOM      4  C   UNL     1      22.841  12.748  -5.293  1.00  0.00     0.000 C 
BRANCH   4   5
ATOM      5  C   UNL     1      23.715  11.615  -5.863  1.00  0.00     0.000 C 
BRANCH   5   6
ATOM      6  C   UNL     1      23.596  11.399  -7.384  1.00  0.00     0.000 C 
BRANCH   6   7
ATOM      7  C   UNL     1      24.909  11.016  -8.091  1.00  0.00     0.000 C 
BRANCH   7   8
ATOM      8  C   UNL     1      25.937  10.382  -7.142  1.00  0.00     0.000 C 
BRANCH   8   9
ATOM      9  C   UNL     1      27.200   9.954  -7.904  1.00  0.00     0.000 C 
BRANCH   9  10
ATOM     10  C   UNL     1      27.088   8.542  -8.497  1.00  0.00     0.006 C 
BRANCH  10  11
ATOM     11  C   UNL     1      26.220   7.605  -7.647  1.00  0.00     0.053 C 
BRANCH  11  12
ATOM     12  C   UNL     1      27.072   6.818  -6.702  1.00  0.00     0.041 C 
ATOM     13  O   UNL     1      27.591   5.731  -7.071  1.00  0.00    -0.550 OA
ATOM     14  O   UNL     1      27.336   7.308  -5.429  1.00  0.00    -0.550 OA
ENDBRANCH  11  12
ENDBRANCH  10  11
ENDBRANCH   9  10
ENDBRANCH   8   9
ENDBRANCH   7   8
ENDBRANCH   6   7
ENDBRANCH   5   6
ENDBRANCH   4   5
ENDBRANCH   3   4
ENDBRANCH   2   3
ENDBRANCH   1   2
BRANCH   1  15
ATOM     15  C   UNL     1      23.307  12.992  -1.002  1.00  0.00     0.000 C 
BRANCH  15  16
ATOM     16  C   UNL     1      23.557  12.815   0.500  1.00  0.00     0.000 C 
BRANCH  16  17
ATOM     17  C   UNL     1      22.488  11.922   1.140  1.00  0.00     0.000 C 
BRANCH  17  18
ATOM     18  C   UNL     1      22.031  12.499   2.488  1.00  0.00    -0.000 C 
BRANCH  18  19
ATOM     19  C   UNL     1      23.183  13.117   3.300  1.00  0.00    -0.000 C 
BRANCH  19  20
ATOM     20  C   UNL     1      22.903  14.524   3.864  1.00  0.00    -0.000 C 
BRANCH  20  21
ATOM     21  C   UNL     1      21.832  15.331   3.104  1.00  0.00    -0.000 C 
BRANCH  21  22
ATOM     22  C   UNL     1      22.360  16.165   1.919  1.00  0.00    -0.000 C 
BRANCH  22  23
ATOM     23  C   UNL     1      21.595  15.980   0.597  1.00  0.00    -0.000 C 
BRANCH  23  24
ATOM     24  C   UNL     1      20.226  15.308   0.789  1.00  0.00    -0.000 C 
BRANCH  24  25
ATOM     25  C   UNL     1      19.843  14.402  -0.392  1.00  0.00    -0.003 C 
ATOM     26  C   UNL     1      19.086  13.148   0.043  1.00  0.00     0.004 C 
ENDBRANCH  24  25
ENDBRANCH  23  24
ENDBRANCH  22  23
ENDBRANCH  21  22
ENDBRANCH  20  21
ENDBRANCH  19  20
ENDBRANCH  18  19
ENDBRANCH  17  18
ENDBRANCH  16  17
ENDBRANCH  15  16
ENDBRANCH   1  15
TORSDOF 22
ENDMDL
MODEL 7
REMARK VINA RESULT:    -6.088      1.016      2.146
REMARK INTER + INTRA:         -16.507
REMARK INTER:                 -13.769
REMARK INTRA:                  -2.737
REMARK UNBOUND:                -2.589
REMARK SMILES CCCCCCCCCCCCCCCCCCCCCCCC(=O)[O-]
REMARK SMILES IDX 13 1 14 2 15 3 16 4 17 5 18 6 19 7 20 8 21 9 22 10 23 11
REMARK SMILES IDX 24 12 25 13 26 14 12 15 11 16 10 17 9 18 8 19 7 20 6 21 5 22
REMARK SMILES IDX 4 23 3 24 2 25 1 26
REMARK H PARENT
REMARK Flexibility Score: inf
ROOT
ATOM      1  C   UNL     1      22.816  12.652  -2.152  1.00  0.00     0.000 C 
ENDROOT
BRANCH   1   2
ATOM      2  C   UNL     1      23.837  12.932  -3.265  1.00  0.00     0.000 C 
BRANCH   2   3
ATOM      3  C   UNL     1      23.199  13.579  -4.507  1.00  0.00     0.000 C 
BRANCH   3   4
ATOM      4  C   UNL     1      22.873  12.556  -5.609  1.00  0.00     0.000 C 
BRANCH   4   5
ATOM      5  C   UNL     1      23.913  11.432  -5.778  1.00  0.00     0.000 C 
BRANCH   5   6
ATOM      6  C   UNL     1      23.875  10.705  -7.136  1.00  0.00     0.000 C 
BRANCH   6   7
ATOM      7  C   UNL     1      24.423  11.518  -8.323  1.00  0.00     0.000 C 
BRANCH   7   8
ATOM      8  C   UNL     1      25.682  10.895  -8.946  1.00  0.00     0.000 C 
BRANCH   8   9
ATOM      9  C   UNL     1      26.761  10.652  -7.880  1.00  0.00     0.000 C 
BRANCH   9  10
ATOM     10  C   UNL     1      27.391   9.254  -7.980  1.00  0.00     0.006 C 
BRANCH  10  11
ATOM     11  C   UNL     1      26.348   8.129  -7.978  1.00  0.00     0.053 C 
BRANCH  11  12
ATOM     12  C   UNL     1      26.861   6.942  -7.224  1.00  0.00     0.041 C 
ATOM     13  O   UNL     1      27.262   5.922  -7.845  1.00  0.00    -0.550 OA
ATOM     14  O   UNL     1      26.944   6.981  -5.838  1.00  0.00    -0.550 OA
ENDBRANCH  11  12
ENDBRANCH  10  11
ENDBRANCH   9  10
ENDBRANCH   8   9
ENDBRANCH   7   8
ENDBRANCH   6   7
ENDBRANCH   5   6
ENDBRANCH   4   5
ENDBRANCH   3   4
ENDBRANCH   2   3
ENDBRANCH   1   2
BRANCH   1  15
ATOM     15  C   UNL     1      23.231  13.250  -0.800  1.00  0.00     0.000 C 
BRANCH  15  16
ATOM     16  C   UNL     1      23.224  12.178   0.295  1.00  0.00     0.000 C 
BRANCH  16  17
ATOM     17  C   UNL     1      21.857  11.489   0.390  1.00  0.00     0.000 C 
BRANCH  17  18
ATOM     18  C   UNL     1      20.835  12.400   1.085  1.00  0.00    -0.000 C 
BRANCH  18  19
ATOM     19  C   UNL     1      19.708  12.867   0.145  1.00  0.00    -0.000 C 
BRANCH  19  20
ATOM     20  C   UNL     1      19.680  14.382  -0.138  1.00  0.00    -0.000 C 
BRANCH  20  21
ATOM     21  C   UNL     1      20.215  15.270   1.002  1.00  0.00    -0.000 C 
BRANCH  21  22
ATOM     22  C   UNL     1      21.458  16.111   0.648  1.00  0.00    -0.000 C 
BRANCH  22  23
ATOM     23  C   UNL     1      22.638  15.978   1.626  1.00  0.00    -0.000 C 
BRANCH  23  24
ATOM     24  C   UNL     1      22.233  15.349   2.969  1.00  0.00    -0.000 C 
BRANCH  24  25
ATOM     25  C   UNL     1      23.167  14.204   3.390  1.00  0.00    -0.003 C 
ATOM     26  C   UNL     1      22.511  13.232   4.370  1.00  0.00     0.004 C 
ENDBRANCH  24  25
ENDBRANCH  23  24
ENDBRANCH  22  23
ENDBRANCH  21  22
ENDBRANCH  20  21
ENDBRANCH  19  20
ENDBRANCH  18  19
ENDBRANCH  17  18
ENDBRANCH  16  17
ENDBRANCH  15  16
ENDBRANCH   1  15
TORSDOF 22
ENDMDL
MODEL 8
REMARK VINA RESULT:    -6.087      1.775      3.504
REMARK INTER + INTRA:         -16.504
REMARK INTER:                 -13.731
REMARK INTRA:                  -2.773
REMARK UNBOUND:                -2.589
REMARK SMILES CCCCCCCCCCCCCCCCCCCCCCCC(=O)[O-]
REMARK SMILES IDX 13 1 14 2 15 3 16 4 17 5 18 6 19 7 20 8 21 9 22 10 23 11
REMARK SMILES IDX 24 12 25 13 26 14 12 15 11 16 10 17 9 18 8 19 7 20 6 21 5 22
REMARK SMILES IDX 4 23 3 24 2 25 1 26
REMARK H PARENT
REMARK Flexibility Score: inf
ROOT
ATOM      1  C   UNL     1      20.121  13.763  -0.611  1.00  0.00     0.000 C 
ENDROOT
BRANCH   1   2
ATOM      2  C   UNL     1      19.250  13.090  -1.683  1.00  0.00     0.000 C 
BRANCH   2   3
ATOM      3  C   UNL     1      19.993  12.897  -3.017  1.00  0.00     0.000 C 
BRANCH   3   4
ATOM      4  C   UNL     1      21.041  11.772  -2.957  1.00  0.00     0.000 C 
BRANCH   4   5
ATOM      5  C   UNL     1      22.495  12.251  -2.793  1.00  0.00     0.000 C 
BRANCH   5   6
ATOM      6  C   UNL     1      23.025  13.138  -3.936  1.00  0.00     0.000 C 
BRANCH   6   7
ATOM      7  C   UNL     1      22.736  12.612  -5.354  1.00  0.00     0.000 C 
BRANCH   7   8
ATOM      8  C   UNL     1      23.744  11.548  -5.815  1.00  0.00     0.000 C 
BRANCH   8   9
ATOM      9  C   UNL     1      23.719  11.392  -7.343  1.00  0.00     0.000 C 
BRANCH   9  10
ATOM     10  C   UNL     1      24.726  10.348  -7.851  1.00  0.00     0.006 C 
BRANCH  10  11
ATOM     11  C   UNL     1      26.020  10.317  -7.026  1.00  0.00     0.053 C 
BRANCH  11  12
ATOM     12  C   UNL     1      27.119  11.026  -7.753  1.00  0.00     0.041 C 
ATOM     13  O   UNL     1      28.205  11.279  -7.168  1.00  0.00    -0.550 OA
ATOM     14  O   UNL     1      26.965  11.361  -9.092  1.00  0.00    -0.550 OA
ENDBRANCH  11  12
ENDBRANCH  10  11
ENDBRANCH   9  10
ENDBRANCH   8   9
ENDBRANCH   7   8
ENDBRANCH   6   7
ENDBRANCH   5   6
ENDBRANCH   4   5
ENDBRANCH   3   4
ENDBRANCH   2   3
ENDBRANCH   1   2
BRANCH   1  15
ATOM     15  C   UNL     1      19.300  14.594   0.385  1.00  0.00     0.000 C 
BRANCH  15  16
ATOM     16  C   UNL     1      20.078  15.839   0.827  1.00  0.00     0.000 C 
BRANCH  16  17
ATOM     17  C   UNL     1      21.568  15.713   0.487  1.00  0.00     0.000 C 
BRANCH  17  18
ATOM     18  C   UNL     1      22.436  16.018   1.716  1.00  0.00    -0.000 C 
BRANCH  18  19
ATOM     19  C   UNL     1      21.849  15.453   3.023  1.00  0.00    -0.000 C 
BRANCH  19  20
ATOM     20  C   UNL     1      22.849  14.681   3.907  1.00  0.00    -0.000 C 
BRANCH  20  21
ATOM     21  C   UNL     1      22.633  13.156   3.960  1.00  0.00    -0.000 C 
BRANCH  21  22
ATOM     22  C   UNL     1      21.761  12.579   2.826  1.00  0.00    -0.000 C 
BRANCH  22  23
ATOM     23  C   UNL     1      22.505  11.680   1.823  1.00  0.00    -0.000 C 
BRANCH  23  24
ATOM     24  C   UNL     1      22.899  12.421   0.535  1.00  0.00    -0.000 C 
BRANCH  24  25
ATOM     25  C   UNL     1      24.421  12.464   0.322  1.00  0.00    -0.003 C 
ATOM     26  C   UNL     1      25.127  13.426   1.278  1.00  0.00     0.004 C 
ENDBRANCH  24  25
ENDBRANCH  23  24
ENDBRANCH  22  23
ENDBRANCH  21  22
ENDBRANCH  20  21
ENDBRANCH  19  20
ENDBRANCH  18  19
ENDBRANCH  17  18
ENDBRANCH  16  17
ENDBRANCH  15  16
ENDBRANCH   1  15
TORSDOF 22
ENDMDL
MODEL 9
REMARK VINA RESULT:    -6.059      1.895      2.779
REMARK INTER + INTRA:         -16.440
REMARK INTER:                 -13.695
REMARK INTRA:                  -2.745
REMARK UNBOUND:                -2.589
REMARK SMILES CCCCCCCCCCCCCCCCCCCCCCCC(=O)[O-]
REMARK SMILES IDX 13 1 14 2 15 3 16 4 17 5 18 6 19 7 20 8 21 9 22 10 23 11
REMARK SMILES IDX 24 12 25 13 26 14 12 15 11 16 10 17 9 18 8 19 7 20 6 21 5 22
REMARK SMILES IDX 4 23 3 24 2 25 1 26
REMARK H PARENT
REMARK Flexibility Score: inf
ROOT
ATOM      1  C   UNL     1      19.819  12.777  -2.030  1.00  0.00     0.000 C 
ENDROOT
BRANCH   1   2
ATOM      2  C   UNL     1      20.771  12.107  -3.032  1.00  0.00     0.000 C 
BRANCH   2   3
ATOM      3  C   UNL     1      22.080  12.894  -3.226  1.00  0.00     0.000 C 
BRANCH   3   4
ATOM      4  C   UNL     1      22.744  12.618  -4.586  1.00  0.00     0.000 C 
BRANCH   4   5
ATOM      5  C   UNL     1      24.095  11.881  -4.508  1.00  0.00     0.000 C 
BRANCH   5   6
ATOM      6  C   UNL     1      24.475  11.077  -5.767  1.00  0.00     0.000 C 
BRANCH   6   7
ATOM      7  C   UNL     1      23.570  11.317  -6.989  1.00  0.00     0.000 C 
BRANCH   7   8
ATOM      8  C   UNL     1      24.355  11.432  -8.303  1.00  0.00     0.000 C 
BRANCH   8   9
ATOM      9  C   UNL     1      25.797  10.930  -8.130  1.00  0.00     0.000 C 
BRANCH   9  10
ATOM     10  C   UNL     1      26.712  11.333  -9.296  1.00  0.00     0.006 C 
BRANCH  10  11
ATOM     11  C   UNL     1      27.912  12.178  -8.849  1.00  0.00     0.053 C 
BRANCH  11  12
ATOM     12  C   UNL     1      28.966  11.308  -8.240  1.00  0.00     0.041 C 
ATOM     13  O   UNL     1      29.106  11.263  -6.989  1.00  0.00    -0.550 OA
ATOM     14  O   UNL     1      29.760  10.506  -9.050  1.00  0.00    -0.550 OA
ENDBRANCH  11  12
ENDBRANCH  10  11
ENDBRANCH   9  10
ENDBRANCH   8   9
ENDBRANCH   7   8
ENDBRANCH   6   7
ENDBRANCH   5   6
ENDBRANCH   4   5
ENDBRANCH   3   4
ENDBRANCH   2   3
ENDBRANCH   1   2
BRANCH   1  15
ATOM     15  C   UNL     1      20.497  13.891  -1.219  1.00  0.00     0.000 C 
BRANCH  15  16
ATOM     16  C   UNL     1      19.696  14.205   0.050  1.00  0.00     0.000 C 
BRANCH  16  17
ATOM     17  C   UNL     1      20.188  15.498   0.711  1.00  0.00     0.000 C 
BRANCH  17  18
ATOM     18  C   UNL     1      21.676  15.731   0.414  1.00  0.00    -0.000 C 
BRANCH  18  19
ATOM     19  C   UNL     1      22.532  15.858   1.687  1.00  0.00    -0.000 C 
BRANCH  19  20
ATOM     20  C   UNL     1      21.912  15.236   2.955  1.00  0.00    -0.000 C 
BRANCH  20  21
ATOM     21  C   UNL     1      22.877  14.388   3.806  1.00  0.00    -0.000 C 
BRANCH  21  22
ATOM     22  C   UNL     1      22.694  12.862   3.675  1.00  0.00    -0.000 C 
BRANCH  22  23
ATOM     23  C   UNL     1      21.844  12.405   2.477  1.00  0.00    -0.000 C 
BRANCH  23  24
ATOM     24  C   UNL     1      22.626  11.520   1.493  1.00  0.00    -0.000 C 
BRANCH  24  25
ATOM     25  C   UNL     1      23.165  12.310   0.290  1.00  0.00    -0.003 C 
ATOM     26  C   UNL     1      24.557  12.892   0.539  1.00  0.00     0.004 C 
ENDBRANCH  24  25
ENDBRANCH  23  24
ENDBRANCH  22  23
ENDBRANCH  21  22
ENDBRANCH  20  21
ENDBRANCH  19  20
ENDBRANCH  18  19
ENDBRANCH  17  18
ENDBRANCH  16  17
ENDBRANCH  15  16
ENDBRANCH   1  15
TORSDOF 22
ENDMDL
