MODEL 1
REMARK VINA RESULT:    -4.061      0.000      0.000
REMARK INTER + INTRA:          -9.104
REMARK INTER:                  -6.910
REMARK INTRA:                  -2.194
REMARK UNBOUND:                -2.194
REMARK SMILES CCCCCCCCCCCCCC(=O)[O-]
REMARK SMILES IDX 8 1 9 2 10 3 11 4 12 5 13 6 14 7 15 8 16 9 7 10 6 11 5 12
REMARK SMILES IDX 4 13 3 14 2 15 1 16
REMARK H PARENT
REMARK Flexibility Score: inf
ROOT
ATOM      1  C   UNL     1     -17.227  44.261  -5.991  1.00  0.00     0.000 C 
ENDROOT
BRANCH   1   2
ATOM      2  C   UNL     1     -17.370  43.121  -7.011  1.00  0.00     0.000 C 
BRANCH   2   3
ATOM      3  C   UNL     1     -16.262  43.195  -8.074  1.00  0.00     0.000 C 
BRANCH   3   4
ATOM      4  C   UNL     1     -16.784  43.673  -9.439  1.00  0.00     0.000 C 
BRANCH   4   5
ATOM      5  C   UNL     1     -16.070  44.942  -9.935  1.00  0.00     0.006 C 
BRANCH   5   6
ATOM      6  C   UNL     1     -16.967  46.184  -9.845  1.00  0.00     0.053 C 
BRANCH   6   7
ATOM      7  C   UNL     1     -16.700  46.972  -8.600  1.00  0.00     0.041 C 
ATOM      8  O   UNL     1     -15.630  46.802  -7.958  1.00  0.00    -0.550 OA
ATOM      9  O   UNL     1     -17.649  47.870  -8.127  1.00  0.00    -0.550 OA
ENDBRANCH   6   7
ENDBRANCH   5   6
ENDBRANCH   4   5
ENDBRANCH   3   4
ENDBRANCH   2   3
ENDBRANCH   1   2
BRANCH   1  10
ATOM     10  C   UNL     1     -18.478  45.148  -5.914  1.00  0.00     0.000 C 
BRANCH  10  11
ATOM     11  C   UNL     1     -19.772  44.336  -5.754  1.00  0.00    -0.000 C 
BRANCH  11  12
ATOM     12  C   UNL     1     -20.776  44.682  -6.865  1.00  0.00    -0.000 C 
BRANCH  12  13
ATOM     13  C   UNL     1     -20.116  45.375  -8.068  1.00  0.00    -0.000 C 
BRANCH  13  14
ATOM     14  C   UNL     1     -20.341  44.614  -9.386  1.00  0.00    -0.000 C 
BRANCH  14  15
ATOM     15  C   UNL     1     -20.422  43.093  -9.181  1.00  0.00    -0.003 C 
ATOM     16  C   UNL     1     -20.118  42.306 -10.456  1.00  0.00     0.004 C 
ENDBRANCH  14  15
ENDBRANCH  13  14
ENDBRANCH  12  13
ENDBRANCH  11  12
ENDBRANCH  10  11
ENDBRANCH   1  10
TORSDOF 12
ENDMDL
MODEL 2
REMARK VINA RESULT:    -3.993      1.440      3.036
REMARK INTER + INTRA:          -8.989
REMARK INTER:                  -6.835
REMARK INTRA:                  -2.154
REMARK UNBOUND:                -2.194
REMARK SMILES CCCCCCCCCCCCCC(=O)[O-]
REMARK SMILES IDX 8 1 9 2 10 3 11 4 12 5 13 6 14 7 15 8 16 9 7 10 6 11 5 12
REMARK SMILES IDX 4 13 3 14 2 15 1 16
REMARK H PARENT
REMARK Flexibility Score: inf
ROOT
ATOM      1  C   UNL     1     -18.709  44.214  -5.723  1.00  0.00     0.000 C 
ENDROOT
BRANCH   1   2
ATOM      2  C   UNL     1     -19.294  45.620  -5.925  1.00  0.00     0.000 C 
BRANCH   2   3
ATOM      3  C   UNL     1     -18.175  46.667  -6.043  1.00  0.00     0.000 C 
BRANCH   3   4
ATOM      4  C   UNL     1     -18.352  47.586  -7.263  1.00  0.00     0.000 C 
BRANCH   4   5
ATOM      5  C   UNL     1     -17.630  47.056  -8.513  1.00  0.00     0.006 C 
BRANCH   5   6
ATOM      6  C   UNL     1     -16.257  47.714  -8.710  1.00  0.00     0.053 C 
BRANCH   6   7
ATOM      7  C   UNL     1     -15.139  46.758  -8.430  1.00  0.00     0.041 C 
ATOM      8  O   UNL     1     -14.806  46.503  -7.243  1.00  0.00    -0.550 OA
ATOM      9  O   UNL     1     -14.439  46.178  -9.480  1.00  0.00    -0.550 OA
ENDBRANCH   6   7
ENDBRANCH   5   6
ENDBRANCH   4   5
ENDBRANCH   3   4
ENDBRANCH   2   3
ENDBRANCH   1   2
BRANCH   1  10
ATOM     10  C   UNL     1     -17.272  44.088  -6.252  1.00  0.00     0.000 C 
BRANCH  10  11
ATOM     11  C   UNL     1     -17.104  42.928  -7.244  1.00  0.00    -0.000 C 
BRANCH  11  12
ATOM     12  C   UNL     1     -16.632  43.443  -8.613  1.00  0.00    -0.000 C 
BRANCH  12  13
ATOM     13  C   UNL     1     -17.782  43.579  -9.626  1.00  0.00    -0.000 C 
BRANCH  13  14
ATOM     14  C   UNL     1     -18.944  42.614  -9.334  1.00  0.00    -0.000 C 
BRANCH  14  15
ATOM     15  C   UNL     1     -20.255  43.351  -9.018  1.00  0.00    -0.003 C 
ATOM     16  C   UNL     1     -20.288  44.772  -9.582  1.00  0.00     0.004 C 
ENDBRANCH  14  15
ENDBRANCH  13  14
ENDBRANCH  12  13
ENDBRANCH  11  12
ENDBRANCH  10  11
ENDBRANCH   1  10
TORSDOF 12
ENDMDL
MODEL 3
REMARK VINA RESULT:    -3.992      2.253      5.021
REMARK INTER + INTRA:          -8.986
REMARK INTER:                  -6.768
REMARK INTRA:                  -2.218
REMARK UNBOUND:                -2.194
REMARK SMILES CCCCCCCCCCCCCC(=O)[O-]
REMARK SMILES IDX 8 1 9 2 10 3 11 4 12 5 13 6 14 7 15 8 16 9 7 10 6 11 5 12
REMARK SMILES IDX 4 13 3 14 2 15 1 16
REMARK H PARENT
REMARK Flexibility Score: inf
ROOT
ATOM      1  C   UNL     1     -17.257  42.978  -7.422  1.00  0.00     0.000 C 
ENDROOT
BRANCH   1   2
ATOM      2  C   UNL     1     -17.206  43.874  -6.174  1.00  0.00     0.000 C 
BRANCH   2   3
ATOM      3  C   UNL     1     -18.622  44.283  -5.737  1.00  0.00     0.000 C 
BRANCH   3   4
ATOM      4  C   UNL     1     -18.906  45.775  -5.979  1.00  0.00     0.000 C 
BRANCH   4   5
ATOM      5  C   UNL     1     -19.682  46.026  -7.284  1.00  0.00     0.006 C 
BRANCH   5   6
ATOM      6  C   UNL     1     -20.707  44.920  -7.570  1.00  0.00     0.053 C 
BRANCH   6   7
ATOM      7  C   UNL     1     -20.535  44.346  -8.942  1.00  0.00     0.041 C 
ATOM      8  O   UNL     1     -20.507  45.103  -9.947  1.00  0.00    -0.550 OA
ATOM      9  O   UNL     1     -20.443  42.971  -9.115  1.00  0.00    -0.550 OA
ENDBRANCH   6   7
ENDBRANCH   5   6
ENDBRANCH   4   5
ENDBRANCH   3   4
ENDBRANCH   2   3
ENDBRANCH   1   2
BRANCH   1  10
ATOM     10  C   UNL     1     -16.305  43.452  -8.531  1.00  0.00     0.000 C 
BRANCH  10  11
ATOM     11  C   UNL     1     -17.036  44.179  -9.669  1.00  0.00    -0.000 C 
BRANCH  11  12
ATOM     12  C   UNL     1     -16.836  45.699  -9.565  1.00  0.00    -0.000 C 
BRANCH  12  13
ATOM     13  C   UNL     1     -15.501  46.079  -8.902  1.00  0.00    -0.000 C 
BRANCH  13  14
ATOM     14  C   UNL     1     -15.692  46.886  -7.606  1.00  0.00    -0.000 C 
BRANCH  14  15
ATOM     15  C   UNL     1     -14.700  46.478  -6.507  1.00  0.00    -0.003 C 
ATOM     16  C   UNL     1     -15.196  46.821  -5.102  1.00  0.00     0.004 C 
ENDBRANCH  14  15
ENDBRANCH  13  14
ENDBRANCH  12  13
ENDBRANCH  11  12
ENDBRANCH  10  11
ENDBRANCH   1  10
TORSDOF 12
ENDMDL
MODEL 4
REMARK VINA RESULT:    -3.987      1.604      3.265
REMARK INTER + INTRA:          -8.979
REMARK INTER:                  -6.785
REMARK INTRA:                  -2.194
REMARK UNBOUND:                -2.194
REMARK SMILES CCCCCCCCCCCCCC(=O)[O-]
REMARK SMILES IDX 8 1 9 2 10 3 11 4 12 5 13 6 14 7 15 8 16 9 7 10 6 11 5 12
REMARK SMILES IDX 4 13 3 14 2 15 1 16
REMARK H PARENT
REMARK Flexibility Score: inf
ROOT
ATOM      1  C   UNL     1     -18.287  42.666  -9.167  1.00  0.00     0.000 C 
ENDROOT
BRANCH   1   2
ATOM      2  C   UNL     1     -17.452  43.622 -10.033  1.00  0.00     0.000 C 
BRANCH   2   3
ATOM      3  C   UNL     1     -16.583  44.537  -9.156  1.00  0.00     0.000 C 
BRANCH   3   4
ATOM      4  C   UNL     1     -17.045  46.003  -9.194  1.00  0.00     0.000 C 
BRANCH   4   5
ATOM      5  C   UNL     1     -16.390  46.859  -8.097  1.00  0.00     0.006 C 
BRANCH   5   6
ATOM      6  C   UNL     1     -15.221  46.134  -7.417  1.00  0.00     0.053 C 
BRANCH   6   7
ATOM      7  C   UNL     1     -15.155  46.438  -5.952  1.00  0.00     0.041 C 
ATOM      8  O   UNL     1     -14.118  46.161  -5.294  1.00  0.00    -0.550 OA
ATOM      9  O   UNL     1     -16.251  46.994  -5.306  1.00  0.00    -0.550 OA
ENDBRANCH   6   7
ENDBRANCH   5   6
ENDBRANCH   4   5
ENDBRANCH   3   4
ENDBRANCH   2   3
ENDBRANCH   1   2
BRANCH   1  10
ATOM     10  C   UNL     1     -19.790  42.749  -9.473  1.00  0.00     0.000 C 
BRANCH  10  11
ATOM     11  C   UNL     1     -20.323  44.189  -9.440  1.00  0.00    -0.000 C 
BRANCH  11  12
ATOM     12  C   UNL     1     -20.775  44.573  -8.022  1.00  0.00    -0.000 C 
BRANCH  12  13
ATOM     13  C   UNL     1     -20.223  45.937  -7.572  1.00  0.00    -0.000 C 
BRANCH  13  14
ATOM     14  C   UNL     1     -19.428  45.849  -6.258  1.00  0.00    -0.000 C 
BRANCH  14  15
ATOM     15  C   UNL     1     -19.280  44.405  -5.755  1.00  0.00    -0.003 C 
ATOM     16  C   UNL     1     -17.833  43.912  -5.781  1.00  0.00     0.004 C 
ENDBRANCH  14  15
ENDBRANCH  13  14
ENDBRANCH  12  13
ENDBRANCH  11  12
ENDBRANCH  10  11
ENDBRANCH   1  10
TORSDOF 12
ENDMDL
MODEL 5
REMARK VINA RESULT:    -3.933      1.366      4.218
REMARK INTER + INTRA:          -8.886
REMARK INTER:                  -6.766
REMARK INTRA:                  -2.120
REMARK UNBOUND:                -2.194
REMARK SMILES CCCCCCCCCCCCCC(=O)[O-]
REMARK SMILES IDX 8 1 9 2 10 3 11 4 12 5 13 6 14 7 15 8 16 9 7 10 6 11 5 12
REMARK SMILES IDX 4 13 3 14 2 15 1 16
REMARK H PARENT
REMARK Flexibility Score: inf
ROOT
ATOM      1  C   UNL     1     -20.279  44.981  -9.005  1.00  0.00     0.000 C 
ENDROOT
BRANCH   1   2
ATOM      2  C   UNL     1     -20.268  45.640  -7.617  1.00  0.00     0.000 C 
BRANCH   2   3
ATOM      3  C   UNL     1     -20.408  44.585  -6.509  1.00  0.00     0.000 C 
BRANCH   3   4
ATOM      4  C   UNL     1     -19.089  44.339  -5.758  1.00  0.00     0.000 C 
BRANCH   4   5
ATOM      5  C   UNL     1     -18.114  45.524  -5.869  1.00  0.00     0.006 C 
BRANCH   5   6
ATOM      6  C   UNL     1     -16.651  45.065  -5.936  1.00  0.00     0.053 C 
BRANCH   6   7
ATOM      7  C   UNL     1     -15.702  46.214  -5.793  1.00  0.00     0.041 C 
ATOM      8  O   UNL     1     -15.961  47.156  -4.999  1.00  0.00    -0.550 OA
ATOM      9  O   UNL     1     -14.547  46.264  -6.564  1.00  0.00    -0.550 OA
ENDBRANCH   6   7
ENDBRANCH   5   6
ENDBRANCH   4   5
ENDBRANCH   3   4
ENDBRANCH   2   3
ENDBRANCH   1   2
BRANCH   1  10
ATOM     10  C   UNL     1     -20.430  43.454  -8.935  1.00  0.00     0.000 C 
BRANCH  10  11
ATOM     11  C   UNL     1     -19.288  42.711  -9.644  1.00  0.00    -0.000 C 
BRANCH  11  12
ATOM     12  C   UNL     1     -17.937  43.026  -8.982  1.00  0.00    -0.000 C 
BRANCH  12  13
ATOM     13  C   UNL     1     -16.901  43.576  -9.978  1.00  0.00    -0.000 C 
BRANCH  13  14
ATOM     14  C   UNL     1     -16.291  44.912  -9.520  1.00  0.00    -0.000 C 
BRANCH  14  15
ATOM     15  C   UNL     1     -17.043  46.126 -10.086  1.00  0.00    -0.003 C 
ATOM     16  C   UNL     1     -17.225  47.244  -9.059  1.00  0.00     0.004 C 
ENDBRANCH  14  15
ENDBRANCH  13  14
ENDBRANCH  12  13
ENDBRANCH  11  12
ENDBRANCH  10  11
ENDBRANCH   1  10
TORSDOF 12
ENDMDL
MODEL 6
REMARK VINA RESULT:    -3.933      1.567      4.378
REMARK INTER + INTRA:          -8.886
REMARK INTER:                  -6.749
REMARK INTRA:                  -2.136
REMARK UNBOUND:                -2.194
REMARK SMILES CCCCCCCCCCCCCC(=O)[O-]
REMARK SMILES IDX 8 1 9 2 10 3 11 4 12 5 13 6 14 7 15 8 16 9 7 10 6 11 5 12
REMARK SMILES IDX 4 13 3 14 2 15 1 16
REMARK H PARENT
REMARK Flexibility Score: inf
ROOT
ATOM      1  C   UNL     1     -20.596  43.102  -9.502  1.00  0.00     0.000 C 
ENDROOT
BRANCH   1   2
ATOM      2  C   UNL     1     -20.209  44.575  -9.709  1.00  0.00     0.000 C 
BRANCH   2   3
ATOM      3  C   UNL     1     -20.585  45.417  -8.479  1.00  0.00     0.000 C 
BRANCH   3   4
ATOM      4  C   UNL     1     -20.503  44.617  -7.169  1.00  0.00     0.000 C 
BRANCH   4   5
ATOM      5  C   UNL     1     -19.407  45.138  -6.224  1.00  0.00     0.006 C 
BRANCH   5   6
ATOM      6  C   UNL     1     -19.346  46.671  -6.198  1.00  0.00     0.053 C 
BRANCH   6   7
ATOM      7  C   UNL     1     -18.185  47.167  -5.393  1.00  0.00     0.041 C 
ATOM      8  O   UNL     1     -17.064  46.598  -5.479  1.00  0.00    -0.550 OA
ATOM      9  O   UNL     1     -18.348  48.235  -4.519  1.00  0.00    -0.550 OA
ENDBRANCH   6   7
ENDBRANCH   5   6
ENDBRANCH   4   5
ENDBRANCH   3   4
ENDBRANCH   2   3
ENDBRANCH   1   2
BRANCH   1  10
ATOM     10  C   UNL     1     -19.380  42.164  -9.510  1.00  0.00     0.000 C 
BRANCH  10  11
ATOM     11  C   UNL     1     -18.045  42.922  -9.563  1.00  0.00    -0.000 C 
BRANCH  11  12
ATOM     12  C   UNL     1     -17.305  42.824  -8.220  1.00  0.00    -0.000 C 
BRANCH  12  13
ATOM     13  C   UNL     1     -16.486  44.084  -7.898  1.00  0.00    -0.000 C 
BRANCH  13  14
ATOM     14  C   UNL     1     -16.298  44.997  -9.122  1.00  0.00    -0.000 C 
BRANCH  14  15
ATOM     15  C   UNL     1     -16.967  46.368  -8.941  1.00  0.00    -0.003 C 
ATOM     16  C   UNL     1     -17.503  46.945 -10.252  1.00  0.00     0.004 C 
ENDBRANCH  14  15
ENDBRANCH  13  14
ENDBRANCH  12  13
ENDBRANCH  11  12
ENDBRANCH  10  11
ENDBRANCH   1  10
TORSDOF 12
ENDMDL
MODEL 7
REMARK VINA RESULT:    -3.924      1.325      3.118
REMARK INTER + INTRA:          -8.871
REMARK INTER:                  -6.630
REMARK INTRA:                  -2.241
REMARK UNBOUND:                -2.194
REMARK SMILES CCCCCCCCCCCCCC(=O)[O-]
REMARK SMILES IDX 8 1 9 2 10 3 11 4 12 5 13 6 14 7 15 8 16 9 7 10 6 11 5 12
REMARK SMILES IDX 4 13 3 14 2 15 1 16
REMARK H PARENT
REMARK Flexibility Score: inf
ROOT
ATOM      1  C   UNL     1     -20.340  44.541  -6.565  1.00  0.00     0.000 C 
ENDROOT
BRANCH   1   2
ATOM      2  C   UNL     1     -19.087  44.836  -5.725  1.00  0.00     0.000 C 
BRANCH   2   3
ATOM      3  C   UNL     1     -18.458  46.177  -6.134  1.00  0.00     0.000 C 
BRANCH   3   4
ATOM      4  C   UNL     1     -16.928  46.097  -6.261  1.00  0.00     0.000 C 
BRANCH   4   5
ATOM      5  C   UNL     1     -16.394  46.863  -7.483  1.00  0.00     0.006 C 
BRANCH   5   6
ATOM      6  C   UNL     1     -17.513  47.238  -8.465  1.00  0.00     0.053 C 
BRANCH   6   7
ATOM      7  C   UNL     1     -16.997  47.390  -9.863  1.00  0.00     0.041 C 
ATOM      8  O   UNL     1     -15.771  47.590 -10.068  1.00  0.00    -0.550 OA
ATOM      9  O   UNL     1     -17.876  47.346 -10.938  1.00  0.00    -0.550 OA
ENDBRANCH   6   7
ENDBRANCH   5   6
ENDBRANCH   4   5
ENDBRANCH   3   4
ENDBRANCH   2   3
ENDBRANCH   1   2
BRANCH   1  10
ATOM     10  C   UNL     1     -20.525  45.533  -7.723  1.00  0.00     0.000 C 
BRANCH  10  11
ATOM     11  C   UNL     1     -20.340  44.878  -9.100  1.00  0.00    -0.000 C 
BRANCH  11  12
ATOM     12  C   UNL     1     -20.318  43.346  -8.979  1.00  0.00    -0.000 C 
BRANCH  12  13
ATOM     13  C   UNL     1     -19.004  42.728  -9.487  1.00  0.00    -0.000 C 
BRANCH  13  14
ATOM     14  C   UNL     1     -17.904  43.780  -9.712  1.00  0.00    -0.000 C 
BRANCH  14  15
ATOM     15  C   UNL     1     -16.625  43.471  -8.918  1.00  0.00    -0.003 C 
ATOM     16  C   UNL     1     -16.901  42.728  -7.611  1.00  0.00     0.004 C 
ENDBRANCH  14  15
ENDBRANCH  13  14
ENDBRANCH  12  13
ENDBRANCH  11  12
ENDBRANCH  10  11
ENDBRANCH   1  10
TORSDOF 12
ENDMDL
MODEL 8
REMARK VINA RESULT:    -3.852      1.266      3.022
REMARK INTER + INTRA:          -8.748
REMARK INTER:                  -6.796
REMARK INTRA:                  -1.952
REMARK UNBOUND:                -2.194
REMARK SMILES CCCCCCCCCCCCCC(=O)[O-]
REMARK SMILES IDX 8 1 9 2 10 3 11 4 12 5 13 6 14 7 15 8 16 9 7 10 6 11 5 12
REMARK SMILES IDX 4 13 3 14 2 15 1 16
REMARK H PARENT
REMARK Flexibility Score: inf
ROOT
ATOM      1  C   UNL     1     -19.452  42.375  -9.730  1.00  0.00     0.000 C 
ENDROOT
BRANCH   1   2
ATOM      2  C   UNL     1     -18.063  43.027  -9.659  1.00  0.00     0.000 C 
BRANCH   2   3
ATOM      3  C   UNL     1     -17.394  42.743  -8.304  1.00  0.00     0.000 C 
BRANCH   3   4
ATOM      4  C   UNL     1     -16.507  43.905  -7.829  1.00  0.00     0.000 C 
BRANCH   4   5
ATOM      5  C   UNL     1     -16.261  44.952  -8.928  1.00  0.00     0.006 C 
BRANCH   5   6
ATOM      6  C   UNL     1     -15.887  46.323  -8.349  1.00  0.00     0.053 C 
BRANCH   6   7
ATOM      7  C   UNL     1     -16.395  47.444  -9.202  1.00  0.00     0.041 C 
ATOM      8  O   UNL     1     -15.823  48.565  -9.182  1.00  0.00    -0.550 OA
ATOM      9  O   UNL     1     -17.523  47.262  -9.992  1.00  0.00    -0.550 OA
ENDBRANCH   6   7
ENDBRANCH   5   6
ENDBRANCH   4   5
ENDBRANCH   3   4
ENDBRANCH   2   3
ENDBRANCH   1   2
BRANCH   1  10
ATOM     10  C   UNL     1     -20.532  43.200  -9.015  1.00  0.00     0.000 C 
BRANCH  10  11
ATOM     11  C   UNL     1     -20.371  44.711  -9.241  1.00  0.00    -0.000 C 
BRANCH  11  12
ATOM     12  C   UNL     1     -20.711  45.495  -7.963  1.00  0.00    -0.000 C 
BRANCH  12  13
ATOM     13  C   UNL     1     -19.475  46.143  -7.317  1.00  0.00    -0.000 C 
BRANCH  13  14
ATOM     14  C   UNL     1     -19.298  45.741  -5.843  1.00  0.00    -0.000 C 
BRANCH  14  15
ATOM     15  C   UNL     1     -19.389  44.221  -5.633  1.00  0.00    -0.003 C 
ATOM     16  C   UNL     1     -20.593  43.810  -4.785  1.00  0.00     0.004 C 
ENDBRANCH  14  15
ENDBRANCH  13  14
ENDBRANCH  12  13
ENDBRANCH  11  12
ENDBRANCH  10  11
ENDBRANCH   1  10
TORSDOF 12
ENDMDL
MODEL 9
REMARK VINA RESULT:    -3.821      2.305      4.643
REMARK INTER + INTRA:          -8.696
REMARK INTER:                  -6.519
REMARK INTRA:                  -2.176
REMARK UNBOUND:                -2.194
REMARK SMILES CCCCCCCCCCCCCC(=O)[O-]
REMARK SMILES IDX 8 1 9 2 10 3 11 4 12 5 13 6 14 7 15 8 16 9 7 10 6 11 5 12
REMARK SMILES IDX 4 13 3 14 2 15 1 16
REMARK H PARENT
REMARK Flexibility Score: inf
ROOT
ATOM      1  C   UNL     1     -18.701  45.910  -5.858  1.00  0.00     0.000 C 
ENDROOT
BRANCH   1   2
ATOM      2  C   UNL     1     -18.555  44.381  -5.894  1.00  0.00     0.000 C 
BRANCH   2   3
ATOM      3  C   UNL     1     -17.153  43.977  -6.376  1.00  0.00     0.000 C 
BRANCH   3   4
ATOM      4  C   UNL     1     -17.181  42.769  -7.327  1.00  0.00     0.000 C 
BRANCH   4   5
ATOM      5  C   UNL     1     -17.358  43.178  -8.799  1.00  0.00     0.006 C 
BRANCH   5   6
ATOM      6  C   UNL     1     -18.679  42.664  -9.387  1.00  0.00     0.053 C 
BRANCH   6   7
ATOM      7  C   UNL     1     -19.721  43.739  -9.433  1.00  0.00     0.041 C 
ATOM      8  O   UNL     1     -20.681  43.727  -8.617  1.00  0.00    -0.550 OA
ATOM      9  O   UNL     1     -19.653  44.735 -10.399  1.00  0.00    -0.550 OA
ENDBRANCH   6   7
ENDBRANCH   5   6
ENDBRANCH   4   5
ENDBRANCH   3   4
ENDBRANCH   2   3
ENDBRANCH   1   2
BRANCH   1  10
ATOM     10  C   UNL     1     -18.974  46.513  -7.244  1.00  0.00     0.000 C 
BRANCH  10  11
ATOM     11  C   UNL     1     -17.836  47.423  -7.730  1.00  0.00    -0.000 C 
BRANCH  11  12
ATOM     12  C   UNL     1     -17.145  46.824  -8.966  1.00  0.00    -0.000 C 
BRANCH  12  13
ATOM     13  C   UNL     1     -15.709  46.357  -8.676  1.00  0.00    -0.000 C 
BRANCH  13  14
ATOM     14  C   UNL     1     -14.990  47.252  -7.652  1.00  0.00    -0.000 C 
BRANCH  14  15
ATOM     15  C   UNL     1     -14.448  46.458  -6.454  1.00  0.00    -0.003 C 
ATOM     16  C   UNL     1     -15.169  46.789  -5.147  1.00  0.00     0.004 C 
ENDBRANCH  14  15
ENDBRANCH  13  14
ENDBRANCH  12  13
ENDBRANCH  11  12
ENDBRANCH  10  11
ENDBRANCH   1  10
TORSDOF 12
ENDMDL
