MODEL 1
REMARK VINA RESULT:    -4.010      0.000      0.000
REMARK INTER + INTRA:          -4.747
REMARK INTER:                  -4.714
REMARK INTRA:                  -0.033
REMARK UNBOUND:                -0.033
REMARK SMILES O=C([O-])CCC(=O)[O-]
REMARK SMILES IDX 4 1 2 2 1 3 3 4 5 5 6 6 7 7 8 8
REMARK H PARENT
REMARK Flexibility Score: inf
ROOT
ATOM      1  C   UNL     1      -0.635   9.460 -38.348  1.00  0.00     0.059 C 
ENDROOT
BRANCH   1   2
ATOM      2  C   UNL     1      -1.548   8.630 -39.199  1.00  0.00     0.042 C 
ATOM      3  O   UNL     1      -1.110   7.610 -39.793  1.00  0.00    -0.550 OA
ATOM      4  O   UNL     1      -2.875   9.009 -39.368  1.00  0.00    -0.550 OA
ENDBRANCH   1   2
BRANCH   1   5
ATOM      5  C   UNL     1      -1.120  10.911 -38.249  1.00  0.00     0.059 C 
BRANCH   5   6
ATOM      6  C   UNL     1      -0.081  11.798 -37.635  1.00  0.00     0.042 C 
ATOM      7  O   UNL     1      -0.421  12.714 -36.840  1.00  0.00    -0.550 OA
ATOM      8  O   UNL     1       1.265  11.588 -37.908  1.00  0.00    -0.550 OA
ENDBRANCH   5   6
ENDBRANCH   1   5
TORSDOF 3
ENDMDL
MODEL 2
REMARK VINA RESULT:    -4.010      0.063      4.426
REMARK INTER + INTRA:          -4.746
REMARK INTER:                  -4.713
REMARK INTRA:                  -0.032
REMARK UNBOUND:                -0.033
REMARK SMILES O=C([O-])CCC(=O)[O-]
REMARK SMILES IDX 4 1 2 2 1 3 3 4 5 5 6 6 7 7 8 8
REMARK H PARENT
REMARK Flexibility Score: inf
ROOT
ATOM      1  C   UNL     1      -1.150  10.902 -38.238  1.00  0.00     0.059 C 
ENDROOT
BRANCH   1   2
ATOM      2  C   UNL     1      -0.109  11.771 -37.601  1.00  0.00     0.042 C 
ATOM      3  O   UNL     1      -0.446  12.689 -36.808  1.00  0.00    -0.550 OA
ATOM      4  O   UNL     1       1.233  11.591 -37.915  1.00  0.00    -0.550 OA
ENDBRANCH   1   2
BRANCH   1   5
ATOM      5  C   UNL     1      -0.656   9.461 -38.408  1.00  0.00     0.059 C 
BRANCH   5   6
ATOM      6  C   UNL     1      -1.607   8.645 -39.229  1.00  0.00     0.042 C 
ATOM      7  O   UNL     1      -1.208   7.597 -39.804  1.00  0.00    -0.550 OA
ATOM      8  O   UNL     1      -2.941   9.018 -39.326  1.00  0.00    -0.550 OA
ENDBRANCH   5   6
ENDBRANCH   1   5
TORSDOF 3
ENDMDL
MODEL 3
REMARK VINA RESULT:    -3.641      5.626      7.220
REMARK INTER + INTRA:          -4.312
REMARK INTER:                  -4.281
REMARK INTRA:                  -0.032
REMARK UNBOUND:                -0.033
REMARK SMILES O=C([O-])CCC(=O)[O-]
REMARK SMILES IDX 4 1 2 2 1 3 3 4 5 5 6 6 7 7 8 8
REMARK H PARENT
REMARK Flexibility Score: inf
ROOT
ATOM      1  C   UNL     1      -7.361   7.277 -40.927  1.00  0.00     0.059 C 
ENDROOT
BRANCH   1   2
ATOM      2  C   UNL     1      -7.768   5.843 -41.075  1.00  0.00     0.042 C 
ATOM      3  O   UNL     1      -8.092   5.167 -40.063  1.00  0.00    -0.550 OA
ATOM      4  O   UNL     1      -7.751   5.241 -42.328  1.00  0.00    -0.550 OA
ENDBRANCH   1   2
BRANCH   1   5
ATOM      5  C   UNL     1      -6.981   7.610 -39.480  1.00  0.00     0.059 C 
BRANCH   5   6
ATOM      6  C   UNL     1      -6.263   8.921 -39.386  1.00  0.00     0.042 C 
ATOM      7  O   UNL     1      -5.071   8.963 -38.980  1.00  0.00    -0.550 OA
ATOM      8  O   UNL     1      -6.895  10.092 -39.784  1.00  0.00    -0.550 OA
ENDBRANCH   5   6
ENDBRANCH   1   5
TORSDOF 3
ENDMDL
MODEL 4
REMARK VINA RESULT:    -3.562      5.675      8.285
REMARK INTER + INTRA:          -4.219
REMARK INTER:                  -4.189
REMARK INTRA:                  -0.030
REMARK UNBOUND:                -0.033
REMARK SMILES O=C([O-])CCC(=O)[O-]
REMARK SMILES IDX 4 1 2 2 1 3 3 4 5 5 6 6 7 7 8 8
REMARK H PARENT
REMARK Flexibility Score: inf
ROOT
ATOM      1  C   UNL     1      -7.004   7.509 -39.521  1.00  0.00     0.059 C 
ENDROOT
BRANCH   1   2
ATOM      2  C   UNL     1      -6.314   8.830 -39.361  1.00  0.00     0.042 C 
ATOM      3  O   UNL     1      -5.178   8.891 -38.821  1.00  0.00    -0.550 OA
ATOM      4  O   UNL     1      -6.944   9.997 -39.775  1.00  0.00    -0.550 OA
ENDBRANCH   1   2
BRANCH   1   5
ATOM      5  C   UNL     1      -7.354   7.229 -40.986  1.00  0.00     0.059 C 
BRANCH   5   6
ATOM      6  C   UNL     1      -7.779   5.806 -41.189  1.00  0.00     0.042 C 
ATOM      7  O   UNL     1      -7.701   5.279 -42.330  1.00  0.00    -0.550 OA
ATOM      8  O   UNL     1      -8.224   5.051 -40.111  1.00  0.00    -0.550 OA
ENDBRANCH   5   6
ENDBRANCH   1   5
TORSDOF 3
ENDMDL
MODEL 5
REMARK VINA RESULT:    -3.528      3.143      4.491
REMARK INTER + INTRA:          -4.180
REMARK INTER:                  -4.152
REMARK INTRA:                  -0.027
REMARK UNBOUND:                -0.033
REMARK SMILES O=C([O-])CCC(=O)[O-]
REMARK SMILES IDX 4 1 2 2 1 3 3 4 5 5 6 6 7 7 8 8
REMARK H PARENT
REMARK Flexibility Score: inf
ROOT
ATOM      1  C   UNL     1      -4.932   8.864 -38.816  1.00  0.00     0.059 C 
ENDROOT
BRANCH   1   2
ATOM      2  C   UNL     1      -6.265   8.944 -39.496  1.00  0.00     0.042 C 
ATOM      3  O   UNL     1      -6.763  10.063 -39.787  1.00  0.00    -0.550 OA
ATOM      4  O   UNL     1      -6.974   7.781 -39.772  1.00  0.00    -0.550 OA
ENDBRANCH   1   2
BRANCH   1   5
ATOM      5  C   UNL     1      -3.794   9.285 -39.752  1.00  0.00     0.059 C 
BRANCH   5   6
ATOM      6  C   UNL     1      -2.453   9.086 -39.115  1.00  0.00     0.042 C 
ATOM      7  O   UNL     1      -2.127   9.760 -38.102  1.00  0.00    -0.550 OA
ATOM      8  O   UNL     1      -1.579   8.129 -39.614  1.00  0.00    -0.550 OA
ENDBRANCH   5   6
ENDBRANCH   1   5
TORSDOF 3
ENDMDL
MODEL 6
REMARK VINA RESULT:    -3.520      3.150      5.458
REMARK INTER + INTRA:          -4.170
REMARK INTER:                  -4.144
REMARK INTRA:                  -0.026
REMARK UNBOUND:                -0.033
REMARK SMILES O=C([O-])CCC(=O)[O-]
REMARK SMILES IDX 4 1 2 2 1 3 3 4 5 5 6 6 7 7 8 8
REMARK H PARENT
REMARK Flexibility Score: inf
ROOT
ATOM      1  C   UNL     1      -3.822   9.323 -39.706  1.00  0.00     0.059 C 
ENDROOT
BRANCH   1   2
ATOM      2  C   UNL     1      -2.470   9.042 -39.125  1.00  0.00     0.042 C 
ATOM      3  O   UNL     1      -2.001   9.781 -38.220  1.00  0.00    -0.550 OA
ATOM      4  O   UNL     1      -1.711   7.985 -39.613  1.00  0.00    -0.550 OA
ENDBRANCH   1   2
BRANCH   1   5
ATOM      5  C   UNL     1      -4.944   8.792 -38.808  1.00  0.00     0.059 C 
BRANCH   5   6
ATOM      6  C   UNL     1      -6.282   8.903 -39.473  1.00  0.00     0.042 C 
ATOM      7  O   UNL     1      -6.957   7.867 -39.716  1.00  0.00    -0.550 OA
ATOM      8  O   UNL     1      -6.802  10.152 -39.788  1.00  0.00    -0.550 OA
ENDBRANCH   5   6
ENDBRANCH   1   5
TORSDOF 3
ENDMDL
MODEL 7
REMARK VINA RESULT:    -3.432      2.587      5.077
REMARK INTER + INTRA:          -4.066
REMARK INTER:                  -4.036
REMARK INTRA:                  -0.031
REMARK UNBOUND:                -0.033
REMARK SMILES O=C([O-])CCC(=O)[O-]
REMARK SMILES IDX 4 1 2 2 1 3 3 4 5 5 6 6 7 7 8 8
REMARK H PARENT
REMARK Flexibility Score: inf
ROOT
ATOM      1  C   UNL     1      -0.990   7.307 -39.822  1.00  0.00     0.059 C 
ENDROOT
BRANCH   1   2
ATOM      2  C   UNL     1      -1.421   8.600 -39.198  1.00  0.00     0.042 C 
ATOM      3  O   UNL     1      -0.622   9.257 -38.481  1.00  0.00    -0.550 OA
ATOM      4  O   UNL     1      -2.721   9.058 -39.378  1.00  0.00    -0.550 OA
ENDBRANCH   1   2
BRANCH   1   5
ATOM      5  C   UNL     1      -0.178   7.541 -41.100  1.00  0.00     0.059 C 
BRANCH   5   6
ATOM      6  C   UNL     1       0.520   6.292 -41.546  1.00  0.00     0.042 C 
ATOM      7  O   UNL     1       1.510   6.363 -42.321  1.00  0.00    -0.550 OA
ATOM      8  O   UNL     1       0.102   5.054 -41.075  1.00  0.00    -0.550 OA
ENDBRANCH   5   6
ENDBRANCH   1   5
TORSDOF 3
ENDMDL
MODEL 8
REMARK VINA RESULT:    -3.364     12.284     13.443
REMARK INTER + INTRA:          -3.987
REMARK INTER:                  -3.953
REMARK INTRA:                  -0.034
REMARK UNBOUND:                -0.033
REMARK SMILES O=C([O-])CCC(=O)[O-]
REMARK SMILES IDX 4 1 2 2 1 3 3 4 5 5 6 6 7 7 8 8
REMARK H PARENT
REMARK Flexibility Score: inf
ROOT
ATOM      1  C   UNL     1      -7.455  21.248 -39.021  1.00  0.00     0.059 C 
ENDROOT
BRANCH   1   2
ATOM      2  C   UNL     1      -7.278  19.970 -39.783  1.00  0.00     0.042 C 
ATOM      3  O   UNL     1      -7.026  18.897 -39.175  1.00  0.00    -0.550 OA
ATOM      4  O   UNL     1      -7.353  19.974 -41.171  1.00  0.00    -0.550 OA
ENDBRANCH   1   2
BRANCH   1   5
ATOM      5  C   UNL     1      -8.679  22.031 -39.508  1.00  0.00     0.059 C 
BRANCH   5   6
ATOM      6  C   UNL     1      -9.954  21.450 -38.977  1.00  0.00     0.042 C 
ATOM      7  O   UNL     1      -9.927  20.642 -38.010  1.00  0.00    -0.550 OA
ATOM      8  O   UNL     1     -11.174  21.830 -39.521  1.00  0.00    -0.550 OA
ENDBRANCH   5   6
ENDBRANCH   1   5
TORSDOF 3
ENDMDL
MODEL 9
REMARK VINA RESULT:    -3.321     12.383     13.617
REMARK INTER + INTRA:          -3.936
REMARK INTER:                  -3.851
REMARK INTRA:                  -0.085
REMARK UNBOUND:                -0.033
REMARK SMILES O=C([O-])CCC(=O)[O-]
REMARK SMILES IDX 4 1 2 2 1 3 3 4 5 5 6 6 7 7 8 8
REMARK H PARENT
REMARK Flexibility Score: inf
ROOT
ATOM      1  C   UNL     1      -8.755  22.090 -39.580  1.00  0.00     0.059 C 
ENDROOT
BRANCH   1   2
ATOM      2  C   UNL     1      -9.997  21.513 -38.972  1.00  0.00     0.042 C 
ATOM      3  O   UNL     1     -11.131  21.926 -39.333  1.00  0.00    -0.550 OA
ATOM      4  O   UNL     1      -9.900  20.547 -37.978  1.00  0.00    -0.550 OA
ENDBRANCH   1   2
BRANCH   1   5
ATOM      5  C   UNL     1      -7.516  21.259 -39.226  1.00  0.00     0.059 C 
BRANCH   5   6
ATOM      6  C   UNL     1      -7.312  20.133 -40.194  1.00  0.00     0.042 C 
ATOM      7  O   UNL     1      -7.545  20.303 -41.421  1.00  0.00    -0.550 OA
ATOM      8  O   UNL     1      -6.829  18.910 -39.748  1.00  0.00    -0.550 OA
ENDBRANCH   5   6
ENDBRANCH   1   5
TORSDOF 3
ENDMDL
