MODEL 1
REMARK VINA RESULT:     7.890      0.000      0.000
REMARK INTER + INTRA:          14.089
REMARK INTER:                  14.809
REMARK INTRA:                  -0.719
REMARK UNBOUND:                -0.719
REMARK SMILES CCCCCCCCC=CCCCCCCCC(=O)[O-]
REMARK SMILES IDX 10 1 9 2 11 3 12 4 13 5 14 6 15 7 16 8 17 9 18 10 19 11
REMARK SMILES IDX 20 12 8 13 7 14 6 15 5 16 4 17 3 18 2 19 1 20
REMARK H PARENT
REMARK Flexibility Score: inf
ROOT
ATOM      1  C   UNL     1     -17.855 -10.481  15.525  1.00  0.00    -0.031 C 
ATOM      2  C   UNL     1     -17.763  -9.197  15.919  1.00  0.00    -0.031 C 
ENDROOT
BRANCH   1   3
ATOM      3  C   UNL     1     -19.052 -11.371  15.752  1.00  0.00     0.027 C 
BRANCH   3   4
ATOM      4  C   UNL     1     -19.120 -12.522  14.737  1.00  0.00     0.004 C 
BRANCH   4   5
ATOM      5  C   UNL     1     -18.841 -12.043  13.302  1.00  0.00     0.000 C 
BRANCH   5   6
ATOM      6  C   UNL     1     -19.119 -13.125  12.244  1.00  0.00     0.000 C 
BRANCH   6   7
ATOM      7  C   UNL     1     -19.011 -12.652  10.783  1.00  0.00     0.000 C 
BRANCH   7   8
ATOM      8  C   UNL     1     -18.650 -13.789   9.811  1.00  0.00     0.006 C 
BRANCH   8   9
ATOM      9  C   UNL     1     -17.199 -14.257   9.980  1.00  0.00     0.053 C 
BRANCH   9  10
ATOM     10  C   UNL     1     -16.964 -15.585   9.326  1.00  0.00     0.041 C 
ATOM     11  O   UNL     1     -16.996 -16.644  10.009  1.00  0.00    -0.550 OA
ATOM     12  O   UNL     1     -16.684 -15.651   7.968  1.00  0.00    -0.550 OA
ENDBRANCH   9  10
ENDBRANCH   8   9
ENDBRANCH   7   8
ENDBRANCH   6   7
ENDBRANCH   5   6
ENDBRANCH   4   5
ENDBRANCH   3   4
ENDBRANCH   1   3
BRANCH   2  13
ATOM     13  C   UNL     1     -18.863  -8.416  16.602  1.00  0.00     0.027 C 
BRANCH  13  14
ATOM     14  C   UNL     1     -18.353  -7.059  17.103  1.00  0.00     0.004 C 
BRANCH  14  15
ATOM     15  C   UNL     1     -19.015  -5.885  16.362  1.00  0.00     0.000 C 
BRANCH  15  16
ATOM     16  C   UNL     1     -18.989  -4.581  17.176  1.00  0.00     0.000 C 
BRANCH  16  17
ATOM     17  C   UNL     1     -19.125  -3.332  16.290  1.00  0.00    -0.000 C 
BRANCH  17  18
ATOM     18  C   UNL     1     -17.869  -2.442  16.314  1.00  0.00    -0.000 C 
BRANCH  18  19
ATOM     19  C   UNL     1     -16.690  -2.957  15.469  1.00  0.00    -0.003 C 
ATOM     20  C   UNL     1     -15.411  -3.154  16.282  1.00  0.00     0.004 C 
ENDBRANCH  18  19
ENDBRANCH  17  18
ENDBRANCH  16  17
ENDBRANCH  15  16
ENDBRANCH  14  15
ENDBRANCH  13  14
ENDBRANCH   2  13
TORSDOF 15
ENDMDL
MODEL 2
REMARK VINA RESULT:     8.659      3.244      5.340
REMARK INTER + INTRA:          15.533
REMARK INTER:                  13.809
REMARK INTRA:                   1.724
REMARK UNBOUND:                -0.719
REMARK SMILES CCCCCCCCC=CCCCCCCCC(=O)[O-]
REMARK SMILES IDX 10 1 9 2 11 3 12 4 13 5 14 6 15 7 16 8 17 9 18 10 19 11
REMARK SMILES IDX 20 12 8 13 7 14 6 15 5 16 4 17 3 18 2 19 1 20
REMARK H PARENT
REMARK Flexibility Score: inf
ROOT
ATOM      1  C   UNL     1     -19.039 -11.732  12.434  1.00  0.00    -0.031 C 
ATOM      2  C   UNL     1     -19.047 -11.781  13.780  1.00  0.00    -0.031 C 
ENDROOT
BRANCH   1   3
ATOM      3  C   UNL     1     -19.017 -12.937  11.526  1.00  0.00     0.027 C 
BRANCH   3   4
ATOM      4  C   UNL     1     -18.213 -12.681  10.243  1.00  0.00     0.004 C 
BRANCH   4   5
ATOM      5  C   UNL     1     -19.007 -13.061   8.981  1.00  0.00     0.000 C 
BRANCH   5   6
ATOM      6  C   UNL     1     -19.125 -14.583   8.782  1.00  0.00     0.000 C 
BRANCH   6   7
ATOM      7  C   UNL     1     -17.785 -15.332   8.669  1.00  0.00     0.000 C 
BRANCH   7   8
ATOM      8  C   UNL     1     -17.622 -16.432   9.732  1.00  0.00     0.006 C 
BRANCH   8   9
ATOM      9  C   UNL     1     -16.544 -16.083  10.767  1.00  0.00     0.053 C 
BRANCH   9  10
ATOM     10  C   UNL     1     -15.532 -15.126  10.213  1.00  0.00     0.041 C 
ATOM     11  O   UNL     1     -15.063 -14.208  10.937  1.00  0.00    -0.550 OA
ATOM     12  O   UNL     1     -15.126 -15.232   8.889  1.00  0.00    -0.550 OA
ENDBRANCH   9  10
ENDBRANCH   8   9
ENDBRANCH   7   8
ENDBRANCH   6   7
ENDBRANCH   5   6
ENDBRANCH   4   5
ENDBRANCH   3   4
ENDBRANCH   1   3
BRANCH   2  13
ATOM     13  C   UNL     1     -19.094 -13.047  14.604  1.00  0.00     0.027 C 
BRANCH  13  14
ATOM     14  C   UNL     1     -18.948 -12.743  16.100  1.00  0.00     0.004 C 
BRANCH  14  15
ATOM     15  C   UNL     1     -17.880 -13.625  16.767  1.00  0.00     0.000 C 
BRANCH  15  16
ATOM     16  C   UNL     1     -17.235 -12.953  17.990  1.00  0.00     0.000 C 
BRANCH  16  17
ATOM     17  C   UNL     1     -17.186 -11.422  17.861  1.00  0.00    -0.000 C 
BRANCH  17  18
ATOM     18  C   UNL     1     -17.672 -10.921  16.489  1.00  0.00    -0.000 C 
BRANCH  18  19
ATOM     19  C   UNL     1     -17.707  -9.390  16.332  1.00  0.00    -0.003 C 
ATOM     20  C   UNL     1     -19.125  -8.819  16.356  1.00  0.00     0.004 C 
ENDBRANCH  18  19
ENDBRANCH  17  18
ENDBRANCH  16  17
ENDBRANCH  15  16
ENDBRANCH  14  15
ENDBRANCH  13  14
ENDBRANCH   2  13
TORSDOF 15
ENDMDL
MODEL 3
REMARK VINA RESULT:     8.789     14.138     18.551
REMARK INTER + INTRA:          15.776
REMARK INTER:                  16.607
REMARK INTRA:                  -0.831
REMARK UNBOUND:                -0.719
REMARK SMILES CCCCCCCCC=CCCCCCCCC(=O)[O-]
REMARK SMILES IDX 10 1 9 2 11 3 12 4 13 5 14 6 15 7 16 8 17 9 18 10 19 11
REMARK SMILES IDX 20 12 8 13 7 14 6 15 5 16 4 17 3 18 2 19 1 20
REMARK H PARENT
REMARK Flexibility Score: inf
ROOT
ATOM      1  C   UNL     1      -2.421  -3.663  19.517  1.00  0.00    -0.031 C 
ATOM      2  C   UNL     1      -1.200  -4.211  19.371  1.00  0.00    -0.031 C 
ENDROOT
BRANCH   1   3
ATOM      3  C   UNL     1      -2.683  -2.228  19.905  1.00  0.00     0.027 C 
BRANCH   3   4
ATOM      4  C   UNL     1      -4.177  -1.874  19.844  1.00  0.00     0.004 C 
BRANCH   4   5
ATOM      5  C   UNL     1      -4.592  -1.367  18.452  1.00  0.00     0.000 C 
BRANCH   5   6
ATOM      6  C   UNL     1      -6.077  -0.967  18.379  1.00  0.00     0.000 C 
BRANCH   6   7
ATOM      7  C   UNL     1      -6.338   0.541  18.215  1.00  0.00     0.000 C 
BRANCH   7   8
ATOM      8  C   UNL     1      -7.182   0.872  16.972  1.00  0.00     0.006 C 
BRANCH   8   9
ATOM      9  C   UNL     1      -8.671   0.569  17.186  1.00  0.00     0.053 C 
BRANCH   9  10
ATOM     10  C   UNL     1      -9.181  -0.436  16.197  1.00  0.00     0.041 C 
ATOM     11  O   UNL     1      -8.473  -1.428  15.879  1.00  0.00    -0.550 OA
ATOM     12  O   UNL     1     -10.427  -0.263  15.610  1.00  0.00    -0.550 OA
ENDBRANCH   9  10
ENDBRANCH   8   9
ENDBRANCH   7   8
ENDBRANCH   6   7
ENDBRANCH   5   6
ENDBRANCH   4   5
ENDBRANCH   3   4
ENDBRANCH   1   3
BRANCH   2  13
ATOM     13  C   UNL     1       0.109  -3.469  19.513  1.00  0.00     0.027 C 
BRANCH  13  14
ATOM     14  C   UNL     1       1.124  -3.922  18.455  1.00  0.00     0.004 C 
BRANCH  14  15
ATOM     15  C   UNL     1       1.036  -5.433  18.183  1.00  0.00     0.000 C 
BRANCH  15  16
ATOM     16  C   UNL     1       1.123  -5.771  16.686  1.00  0.00     0.000 C 
BRANCH  16  17
ATOM     17  C   UNL     1       0.053  -6.786  16.250  1.00  0.00    -0.000 C 
BRANCH  17  18
ATOM     18  C   UNL     1      -0.494  -6.509  14.838  1.00  0.00    -0.000 C 
BRANCH  18  19
ATOM     19  C   UNL     1      -1.989  -6.826  14.646  1.00  0.00    -0.003 C 
ATOM     20  C   UNL     1      -2.786  -5.642  14.098  1.00  0.00     0.004 C 
ENDBRANCH  18  19
ENDBRANCH  17  18
ENDBRANCH  16  17
ENDBRANCH  15  16
ENDBRANCH  14  15
ENDBRANCH  13  14
ENDBRANCH   2  13
TORSDOF 15
ENDMDL
MODEL 4
REMARK VINA RESULT:     9.179     13.853     17.470
REMARK INTER + INTRA:          16.509
REMARK INTER:                  17.414
REMARK INTRA:                  -0.904
REMARK UNBOUND:                -0.719
REMARK SMILES CCCCCCCCC=CCCCCCCCC(=O)[O-]
REMARK SMILES IDX 10 1 9 2 11 3 12 4 13 5 14 6 15 7 16 8 17 9 18 10 19 11
REMARK SMILES IDX 20 12 8 13 7 14 6 15 5 16 4 17 3 18 2 19 1 20
REMARK H PARENT
REMARK Flexibility Score: inf
ROOT
ATOM      1  C   UNL     1      -1.298  -3.689  19.695  1.00  0.00    -0.031 C 
ATOM      2  C   UNL     1      -2.551  -3.290  19.983  1.00  0.00    -0.031 C 
ENDROOT
BRANCH   1   3
ATOM      3  C   UNL     1      -0.196  -2.785  19.200  1.00  0.00     0.027 C 
BRANCH   3   4
ATOM      4  C   UNL     1       1.124  -3.540  18.990  1.00  0.00     0.004 C 
BRANCH   4   5
ATOM      5  C   UNL     1       0.921  -5.065  18.982  1.00  0.00     0.000 C 
BRANCH   5   6
ATOM      6  C   UNL     1       1.118  -5.689  17.589  1.00  0.00     0.000 C 
BRANCH   6   7
ATOM      7  C   UNL     1      -0.089  -6.480  17.052  1.00  0.00     0.000 C 
BRANCH   7   8
ATOM      8  C   UNL     1      -0.066  -6.643  15.522  1.00  0.00     0.006 C 
BRANCH   8   9
ATOM      9  C   UNL     1      -1.429  -7.072  14.965  1.00  0.00     0.053 C 
BRANCH   9  10
ATOM     10  C   UNL     1      -2.048  -5.999  14.121  1.00  0.00     0.041 C 
ATOM     11  O   UNL     1      -1.419  -5.523  13.139  1.00  0.00    -0.550 OA
ATOM     12  O   UNL     1      -3.307  -5.507  14.436  1.00  0.00    -0.550 OA
ENDBRANCH   9  10
ENDBRANCH   8   9
ENDBRANCH   7   8
ENDBRANCH   6   7
ENDBRANCH   5   6
ENDBRANCH   4   5
ENDBRANCH   3   4
ENDBRANCH   1   3
BRANCH   2  13
ATOM     13  C   UNL     1      -3.048  -1.864  19.913  1.00  0.00     0.027 C 
BRANCH  13  14
ATOM     14  C   UNL     1      -4.563  -1.814  19.675  1.00  0.00     0.004 C 
BRANCH  14  15
ATOM     15  C   UNL     1      -4.918  -1.055  18.385  1.00  0.00     0.000 C 
BRANCH  15  16
ATOM     16  C   UNL     1      -6.402  -0.660  18.320  1.00  0.00     0.000 C 
BRANCH  16  17
ATOM     17  C   UNL     1      -6.600   0.829  17.994  1.00  0.00    -0.000 C 
BRANCH  17  18
ATOM     18  C   UNL     1      -7.727   1.074  16.974  1.00  0.00    -0.000 C 
BRANCH  18  19
ATOM     19  C   UNL     1      -8.222  -0.184  16.238  1.00  0.00    -0.003 C 
ATOM     20  C   UNL     1      -9.685  -0.514  16.533  1.00  0.00     0.004 C 
ENDBRANCH  18  19
ENDBRANCH  17  18
ENDBRANCH  16  17
ENDBRANCH  15  16
ENDBRANCH  14  15
ENDBRANCH  13  14
ENDBRANCH   2  13
TORSDOF 15
ENDMDL
MODEL 5
REMARK VINA RESULT:     9.604      3.533      5.562
REMARK INTER + INTRA:          17.307
REMARK INTER:                  17.805
REMARK INTRA:                  -0.497
REMARK UNBOUND:                -0.719
REMARK SMILES CCCCCCCCC=CCCCCCCCC(=O)[O-]
REMARK SMILES IDX 10 1 9 2 11 3 12 4 13 5 14 6 15 7 16 8 17 9 18 10 19 11
REMARK SMILES IDX 20 12 8 13 7 14 6 15 5 16 4 17 3 18 2 19 1 20
REMARK H PARENT
REMARK Flexibility Score: inf
ROOT
ATOM      1  C   UNL     1     -17.339 -11.902  11.979  1.00  0.00    -0.031 C 
ATOM      2  C   UNL     1     -17.960 -11.974  13.172  1.00  0.00    -0.031 C 
ENDROOT
BRANCH   1   3
ATOM      3  C   UNL     1     -17.665 -12.762  10.783  1.00  0.00     0.027 C 
BRANCH   3   4
ATOM      4  C   UNL     1     -16.405 -13.361  10.139  1.00  0.00     0.004 C 
BRANCH   4   5
ATOM      5  C   UNL     1     -16.575 -13.566   8.624  1.00  0.00     0.000 C 
BRANCH   5   6
ATOM      6  C   UNL     1     -17.446 -14.786   8.277  1.00  0.00     0.000 C 
BRANCH   6   7
ATOM      7  C   UNL     1     -16.882 -16.142   8.739  1.00  0.00     0.000 C 
BRANCH   7   8
ATOM      8  C   UNL     1     -17.976 -17.120   9.201  1.00  0.00     0.006 C 
BRANCH   8   9
ATOM      9  C   UNL     1     -18.805 -16.556  10.362  1.00  0.00     0.053 C 
BRANCH   9  10
ATOM     10  C   UNL     1     -17.950 -16.243  11.553  1.00  0.00     0.041 C 
ATOM     11  O   UNL     1     -16.708 -16.084  11.419  1.00  0.00    -0.550 OA
ATOM     12  O   UNL     1     -18.522 -16.154  12.815  1.00  0.00    -0.550 OA
ENDBRANCH   9  10
ENDBRANCH   8   9
ENDBRANCH   7   8
ENDBRANCH   6   7
ENDBRANCH   5   6
ENDBRANCH   4   5
ENDBRANCH   3   4
ENDBRANCH   1   3
BRANCH   2  13
ATOM     13  C   UNL     1     -19.121 -12.885  13.494  1.00  0.00     0.027 C 
BRANCH  13  14
ATOM     14  C   UNL     1     -18.996 -13.467  14.908  1.00  0.00     0.004 C 
BRANCH  14  15
ATOM     15  C   UNL     1     -17.644 -13.123  15.555  1.00  0.00     0.000 C 
BRANCH  15  16
ATOM     16  C   UNL     1     -17.792 -12.221  16.792  1.00  0.00     0.000 C 
BRANCH  16  17
ATOM     17  C   UNL     1     -19.119 -11.445  16.798  1.00  0.00    -0.000 C 
BRANCH  17  18
ATOM     18  C   UNL     1     -19.009 -10.068  16.118  1.00  0.00    -0.000 C 
BRANCH  18  19
ATOM     19  C   UNL     1     -17.645  -9.372  16.275  1.00  0.00    -0.003 C 
ATOM     20  C   UNL     1     -16.730  -9.568  15.067  1.00  0.00     0.004 C 
ENDBRANCH  18  19
ENDBRANCH  17  18
ENDBRANCH  16  17
ENDBRANCH  15  16
ENDBRANCH  14  15
ENDBRANCH  13  14
ENDBRANCH   2  13
TORSDOF 15
ENDMDL
MODEL 6
REMARK VINA RESULT:    10.475      8.899     13.027
REMARK INTER + INTRA:          18.941
REMARK INTER:                  19.925
REMARK INTRA:                  -0.984
REMARK UNBOUND:                -0.719
REMARK SMILES CCCCCCCCC=CCCCCCCCC(=O)[O-]
REMARK SMILES IDX 10 1 9 2 11 3 12 4 13 5 14 6 15 7 16 8 17 9 18 10 19 11
REMARK SMILES IDX 20 12 8 13 7 14 6 15 5 16 4 17 3 18 2 19 1 20
REMARK H PARENT
REMARK Flexibility Score: inf
ROOT
ATOM      1  C   UNL     1     -10.001  -1.050  14.726  1.00  0.00    -0.031 C 
ATOM      2  C   UNL     1      -9.492  -0.922  15.966  1.00  0.00    -0.031 C 
ENDROOT
BRANCH   1   3
ATOM      3  C   UNL     1     -11.254  -0.369  14.232  1.00  0.00     0.027 C 
BRANCH   3   4
ATOM      4  C   UNL     1     -12.356  -1.375  13.867  1.00  0.00     0.004 C 
BRANCH   4   5
ATOM      5  C   UNL     1     -13.559  -0.693  13.195  1.00  0.00     0.000 C 
BRANCH   5   6
ATOM      6  C   UNL     1     -14.646  -1.690  12.756  1.00  0.00     0.000 C 
BRANCH   6   7
ATOM      7  C   UNL     1     -14.497  -3.112  13.328  1.00  0.00     0.000 C 
BRANCH   7   8
ATOM      8  C   UNL     1     -15.596  -3.468  14.343  1.00  0.00     0.006 C 
BRANCH   8   9
ATOM      9  C   UNL     1     -16.343  -2.226  14.848  1.00  0.00     0.053 C 
BRANCH   9  10
ATOM     10  C   UNL     1     -17.145  -2.523  16.079  1.00  0.00     0.041 C 
ATOM     11  O   UNL     1     -16.571  -2.681  17.189  1.00  0.00    -0.550 OA
ATOM     12  O   UNL     1     -18.525  -2.650  15.994  1.00  0.00    -0.550 OA
ENDBRANCH   9  10
ENDBRANCH   8   9
ENDBRANCH   7   8
ENDBRANCH   6   7
ENDBRANCH   5   6
ENDBRANCH   4   5
ENDBRANCH   3   4
ENDBRANCH   1   3
BRANCH   2  13
ATOM     13  C   UNL     1     -10.056  -0.031  17.050  1.00  0.00     0.027 C 
BRANCH  13  14
ATOM     14  C   UNL     1      -9.221   1.245  17.210  1.00  0.00     0.004 C 
BRANCH  14  15
ATOM     15  C   UNL     1      -7.787   1.067  16.685  1.00  0.00     0.000 C 
BRANCH  15  16
ATOM     16  C   UNL     1      -6.764   0.859  17.814  1.00  0.00     0.000 C 
BRANCH  16  17
ATOM     17  C   UNL     1      -6.380  -0.619  17.994  1.00  0.00    -0.000 C 
BRANCH  17  18
ATOM     18  C   UNL     1      -5.499  -0.862  19.233  1.00  0.00    -0.000 C 
BRANCH  18  19
ATOM     19  C   UNL     1      -4.336  -1.847  19.020  1.00  0.00    -0.003 C 
ATOM     20  C   UNL     1      -3.340  -1.856  20.180  1.00  0.00     0.004 C 
ENDBRANCH  18  19
ENDBRANCH  17  18
ENDBRANCH  16  17
ENDBRANCH  15  16
ENDBRANCH  14  15
ENDBRANCH  13  14
ENDBRANCH   2  13
TORSDOF 15
ENDMDL
