MODEL 1
REMARK VINA RESULT:    -4.451      0.000      0.000
REMARK INTER + INTRA:          -7.126
REMARK INTER:                  -6.792
REMARK INTRA:                  -0.333
REMARK UNBOUND:                -0.333
REMARK SMILES O=C([O-])CCCCCCCCC(=O)[O-]
REMARK SMILES IDX 7 1 6 2 5 3 4 4 2 5 1 6 3 7 8 8 9 9 10 10 11 11 12 12 13 13
REMARK SMILES IDX 14 14
REMARK H PARENT
REMARK Flexibility Score: inf
ROOT
ATOM      1  C   UNL     1      10.697   8.064  -7.446  1.00  0.00     0.000 C 
ENDROOT
BRANCH   1   2
ATOM      2  C   UNL     1       9.930   7.041  -6.588  1.00  0.00     0.000 C 
BRANCH   2   3
ATOM      3  C   UNL     1       9.911   5.606  -7.148  1.00  0.00     0.006 C 
BRANCH   3   4
ATOM      4  C   UNL     1      10.550   4.584  -6.199  1.00  0.00     0.053 C 
BRANCH   4   5
ATOM      5  C   UNL     1      12.042   4.680  -6.257  1.00  0.00     0.041 C 
ATOM      6  O   UNL     1      12.688   4.003  -7.100  1.00  0.00    -0.550 OA
ATOM      7  O   UNL     1      12.723   5.478  -5.347  1.00  0.00    -0.550 OA
ENDBRANCH   4   5
ENDBRANCH   3   4
ENDBRANCH   2   3
ENDBRANCH   1   2
BRANCH   1   8
ATOM      8  C   UNL     1      10.956   9.388  -6.712  1.00  0.00     0.000 C 
BRANCH   8   9
ATOM      9  C   UNL     1      12.004  10.231  -7.454  1.00  0.00     0.000 C 
BRANCH   9  10
ATOM     10  C   UNL     1      11.602  10.531  -8.908  1.00  0.00     0.006 C 
BRANCH  10  11
ATOM     11  C   UNL     1      12.802  10.897  -9.790  1.00  0.00     0.053 C 
BRANCH  11  12
ATOM     12  C   UNL     1      12.351  11.202 -11.183  1.00  0.00     0.041 C 
ATOM     13  O   UNL     1      11.189  11.641 -11.392  1.00  0.00    -0.550 OA
ATOM     14  O   UNL     1      13.231  11.051 -12.247  1.00  0.00    -0.550 OA
ENDBRANCH  11  12
ENDBRANCH  10  11
ENDBRANCH   9  10
ENDBRANCH   8   9
ENDBRANCH   1   8
TORSDOF 9
ENDMDL
MODEL 2
REMARK VINA RESULT:    -4.315      2.133      6.761
REMARK INTER + INTRA:          -6.919
REMARK INTER:                  -6.419
REMARK INTRA:                  -0.500
REMARK UNBOUND:                -0.333
REMARK SMILES O=C([O-])CCCCCCCCC(=O)[O-]
REMARK SMILES IDX 7 1 6 2 5 3 4 4 2 5 1 6 3 7 8 8 9 9 10 10 11 11 12 12 13 13
REMARK SMILES IDX 14 14
REMARK H PARENT
REMARK Flexibility Score: inf
ROOT
ATOM      1  C   UNL     1      10.827   7.522  -7.189  1.00  0.00     0.000 C 
ENDROOT
BRANCH   1   2
ATOM      2  C   UNL     1       9.905   8.620  -7.753  1.00  0.00     0.000 C 
BRANCH   2   3
ATOM      3  C   UNL     1      10.630   9.883  -8.258  1.00  0.00     0.006 C 
BRANCH   3   4
ATOM      4  C   UNL     1      12.078   9.980  -7.762  1.00  0.00     0.053 C 
BRANCH   4   5
ATOM      5  C   UNL     1      12.870  10.895  -8.641  1.00  0.00     0.041 C 
ATOM      6  O   UNL     1      13.584  11.801  -8.134  1.00  0.00    -0.550 OA
ATOM      7  O   UNL     1      12.781  10.782 -10.022  1.00  0.00    -0.550 OA
ENDBRANCH   4   5
ENDBRANCH   3   4
ENDBRANCH   2   3
ENDBRANCH   1   2
BRANCH   1   8
ATOM      8  C   UNL     1      10.198   6.122  -7.247  1.00  0.00     0.000 C 
BRANCH   8   9
ATOM      9  C   UNL     1      11.215   5.046  -6.837  1.00  0.00     0.000 C 
BRANCH   9  10
ATOM     10  C   UNL     1      11.117   4.676  -5.348  1.00  0.00     0.006 C 
BRANCH  10  11
ATOM     11  C   UNL     1      12.124   5.442  -4.481  1.00  0.00     0.053 C 
BRANCH  11  12
ATOM     12  C   UNL     1      11.415   6.422  -3.600  1.00  0.00     0.041 C 
ATOM     13  O   UNL     1      12.054   7.071  -2.730  1.00  0.00    -0.550 OA
ATOM     14  O   UNL     1      10.057   6.657  -3.774  1.00  0.00    -0.550 OA
ENDBRANCH  11  12
ENDBRANCH  10  11
ENDBRANCH   9  10
ENDBRANCH   8   9
ENDBRANCH   1   8
TORSDOF 9
ENDMDL
MODEL 3
REMARK VINA RESULT:    -4.218      0.671      6.816
REMARK INTER + INTRA:          -6.771
REMARK INTER:                  -6.457
REMARK INTRA:                  -0.314
REMARK UNBOUND:                -0.333
REMARK SMILES O=C([O-])CCCCCCCCC(=O)[O-]
REMARK SMILES IDX 7 1 6 2 5 3 4 4 2 5 1 6 3 7 8 8 9 9 10 10 11 11 12 12 13 13
REMARK SMILES IDX 14 14
REMARK H PARENT
REMARK Flexibility Score: inf
ROOT
ATOM      1  C   UNL     1      11.216   9.781  -6.654  1.00  0.00     0.000 C 
ENDROOT
BRANCH   1   2
ATOM      2  C   UNL     1      12.297  10.025  -7.723  1.00  0.00     0.000 C 
BRANCH   2   3
ATOM      3  C   UNL     1      11.793  10.689  -9.019  1.00  0.00     0.006 C 
BRANCH   3   4
ATOM      4  C   UNL     1      12.909  11.384  -9.809  1.00  0.00     0.053 C 
BRANCH   4   5
ATOM      5  C   UNL     1      12.536  11.493 -11.253  1.00  0.00     0.041 C 
ATOM      6  O   UNL     1      13.416  11.747 -12.118  1.00  0.00    -0.550 OA
ATOM      7  O   UNL     1      11.208  11.365 -11.641  1.00  0.00    -0.550 OA
ENDBRANCH   4   5
ENDBRANCH   3   4
ENDBRANCH   2   3
ENDBRANCH   1   2
BRANCH   1   8
ATOM      8  C   UNL     1       9.875   9.327  -7.249  1.00  0.00     0.000 C 
BRANCH   8   9
ATOM      9  C   UNL     1       9.905   7.831  -7.594  1.00  0.00     0.000 C 
BRANCH   9  10
ATOM     10  C   UNL     1      10.895   7.042  -6.722  1.00  0.00     0.006 C 
BRANCH  10  11
ATOM     11  C   UNL     1      10.816   5.529  -6.957  1.00  0.00     0.053 C 
BRANCH  11  12
ATOM     12  C   UNL     1      11.939   4.832  -6.257  1.00  0.00     0.041 C 
ATOM     13  O   UNL     1      12.139   5.027  -5.028  1.00  0.00    -0.550 OA
ATOM     14  O   UNL     1      12.734   3.927  -6.948  1.00  0.00    -0.550 OA
ENDBRANCH  11  12
ENDBRANCH  10  11
ENDBRANCH   9  10
ENDBRANCH   8   9
ENDBRANCH   1   8
TORSDOF 9
ENDMDL
MODEL 4
REMARK VINA RESULT:    -4.205     15.964     17.932
REMARK INTER + INTRA:          -6.750
REMARK INTER:                  -6.066
REMARK INTRA:                  -0.684
REMARK UNBOUND:                -0.333
REMARK SMILES O=C([O-])CCCCCCCCC(=O)[O-]
REMARK SMILES IDX 7 1 6 2 5 3 4 4 2 5 1 6 3 7 8 8 9 9 10 10 11 11 12 12 13 13
REMARK SMILES IDX 14 14
REMARK H PARENT
REMARK Flexibility Score: inf
ROOT
ATOM      1  C   UNL     1      25.730  -0.876 -10.756  1.00  0.00     0.000 C 
ENDROOT
BRANCH   1   2
ATOM      2  C   UNL     1      24.340  -1.118 -11.375  1.00  0.00     0.000 C 
BRANCH   2   3
ATOM      3  C   UNL     1      23.926  -0.106 -12.461  1.00  0.00     0.006 C 
BRANCH   3   4
ATOM      4  C   UNL     1      24.617  -0.358 -13.807  1.00  0.00     0.053 C 
BRANCH   4   5
ATOM      5  C   UNL     1      25.188   0.915 -14.346  1.00  0.00     0.041 C 
ATOM      6  O   UNL     1      25.234   1.946 -13.623  1.00  0.00    -0.550 OA
ATOM      7  O   UNL     1      25.624   0.980 -15.663  1.00  0.00    -0.550 OA
ENDBRANCH   4   5
ENDBRANCH   3   4
ENDBRANCH   2   3
ENDBRANCH   1   2
BRANCH   1   8
ATOM      8  C   UNL     1      25.715  -0.898  -9.220  1.00  0.00     0.000 C 
BRANCH   8   9
ATOM      9  C   UNL     1      24.561  -1.765  -8.695  1.00  0.00     0.000 C 
BRANCH   9  10
ATOM     10  C   UNL     1      25.048  -2.932  -7.821  1.00  0.00     0.006 C 
BRANCH  10  11
ATOM     11  C   UNL     1      25.525  -4.132  -8.648  1.00  0.00     0.053 C 
BRANCH  11  12
ATOM     12  C   UNL     1      24.432  -4.614  -9.548  1.00  0.00     0.041 C 
ATOM     13  O   UNL     1      24.586  -4.598 -10.798  1.00  0.00    -0.550 OA
ATOM     14  O   UNL     1      23.261  -5.128  -9.006  1.00  0.00    -0.550 OA
ENDBRANCH  11  12
ENDBRANCH  10  11
ENDBRANCH   9  10
ENDBRANCH   8   9
ENDBRANCH   1   8
TORSDOF 9
ENDMDL
MODEL 5
REMARK VINA RESULT:    -4.161     15.924     18.143
REMARK INTER + INTRA:          -6.683
REMARK INTER:                  -6.061
REMARK INTRA:                  -0.623
REMARK UNBOUND:                -0.333
REMARK SMILES O=C([O-])CCCCCCCCC(=O)[O-]
REMARK SMILES IDX 7 1 6 2 5 3 4 4 2 5 1 6 3 7 8 8 9 9 10 10 11 11 12 12 13 13
REMARK SMILES IDX 14 14
REMARK H PARENT
REMARK Flexibility Score: inf
ROOT
ATOM      1  C   UNL     1      25.481  -0.782  -9.163  1.00  0.00     0.000 C 
ENDROOT
BRANCH   1   2
ATOM      2  C   UNL     1      25.718  -0.680 -10.682  1.00  0.00     0.000 C 
BRANCH   2   3
ATOM      3  C   UNL     1      24.653  -1.369 -11.555  1.00  0.00     0.006 C 
BRANCH   3   4
ATOM      4  C   UNL     1      23.828  -0.377 -12.386  1.00  0.00     0.053 C 
BRANCH   4   5
ATOM      5  C   UNL     1      24.683   0.265 -13.431  1.00  0.00     0.041 C 
ATOM      6  O   UNL     1      24.641   1.512 -13.606  1.00  0.00    -0.550 OA
ATOM      7  O   UNL     1      25.489  -0.517 -14.248  1.00  0.00    -0.550 OA
ENDBRANCH   4   5
ENDBRANCH   3   4
ENDBRANCH   2   3
ENDBRANCH   1   2
BRANCH   1   8
ATOM      8  C   UNL     1      24.495  -1.897  -8.784  1.00  0.00     0.000 C 
BRANCH   8   9
ATOM      9  C   UNL     1      25.158  -2.923  -7.853  1.00  0.00     0.000 C 
BRANCH   9  10
ATOM     10  C   UNL     1      25.039  -4.362  -8.378  1.00  0.00     0.006 C 
BRANCH  10  11
ATOM     11  C   UNL     1      23.871  -4.541  -9.355  1.00  0.00     0.053 C 
BRANCH  11  12
ATOM     12  C   UNL     1      23.495  -5.985  -9.460  1.00  0.00     0.041 C 
ATOM     13  O   UNL     1      24.382  -6.878  -9.400  1.00  0.00    -0.550 OA
ATOM     14  O   UNL     1      22.159  -6.350  -9.573  1.00  0.00    -0.550 OA
ENDBRANCH  11  12
ENDBRANCH  10  11
ENDBRANCH   9  10
ENDBRANCH   8   9
ENDBRANCH   1   8
TORSDOF 9
ENDMDL
MODEL 6
REMARK VINA RESULT:    -4.130      2.176      2.899
REMARK INTER + INTRA:          -6.636
REMARK INTER:                  -6.057
REMARK INTRA:                  -0.580
REMARK UNBOUND:                -0.333
REMARK SMILES O=C([O-])CCCCCCCCC(=O)[O-]
REMARK SMILES IDX 7 1 6 2 5 3 4 4 2 5 1 6 3 7 8 8 9 9 10 10 11 11 12 12 13 13
REMARK SMILES IDX 14 14
REMARK H PARENT
REMARK Flexibility Score: inf
ROOT
ATOM      1  C   UNL     1      10.427   7.340  -4.395  1.00  0.00     0.000 C 
ENDROOT
BRANCH   1   2
ATOM      2  C   UNL     1      11.620   6.571  -3.797  1.00  0.00     0.000 C 
BRANCH   2   3
ATOM      3  C   UNL     1      12.134   5.397  -4.653  1.00  0.00     0.006 C 
BRANCH   3   4
ATOM      4  C   UNL     1      11.011   4.662  -5.395  1.00  0.00     0.053 C 
BRANCH   4   5
ATOM      5  C   UNL     1      11.181   4.807  -6.875  1.00  0.00     0.041 C 
ATOM      6  O   UNL     1      10.520   5.673  -7.507  1.00  0.00    -0.550 OA
ATOM      7  O   UNL     1      12.033   3.953  -7.564  1.00  0.00    -0.550 OA
ENDBRANCH   4   5
ENDBRANCH   3   4
ENDBRANCH   2   3
ENDBRANCH   1   2
BRANCH   1   8
ATOM      8  C   UNL     1      10.582   8.864  -4.290  1.00  0.00     0.000 C 
BRANCH   8   9
ATOM      9  C   UNL     1      10.361   9.533  -5.655  1.00  0.00     0.000 C 
BRANCH   9  10
ATOM     10  C   UNL     1      11.284   8.968  -6.748  1.00  0.00     0.006 C 
BRANCH  10  11
ATOM     11  C   UNL     1      11.164   9.728  -8.074  1.00  0.00     0.053 C 
BRANCH  11  12
ATOM     12  C   UNL     1      12.372  10.580  -8.299  1.00  0.00     0.041 C 
ATOM     13  O   UNL     1      12.865  10.690  -9.453  1.00  0.00    -0.550 OA
ATOM     14  O   UNL     1      12.925  11.295  -7.244  1.00  0.00    -0.550 OA
ENDBRANCH  11  12
ENDBRANCH  10  11
ENDBRANCH   9  10
ENDBRANCH   8   9
ENDBRANCH   1   8
TORSDOF 9
ENDMDL
MODEL 7
REMARK VINA RESULT:    -4.119      2.132      6.219
REMARK INTER + INTRA:          -6.619
REMARK INTER:                  -6.009
REMARK INTRA:                  -0.610
REMARK UNBOUND:                -0.333
REMARK SMILES O=C([O-])CCCCCCCCC(=O)[O-]
REMARK SMILES IDX 7 1 6 2 5 3 4 4 2 5 1 6 3 7 8 8 9 9 10 10 11 11 12 12 13 13
REMARK SMILES IDX 14 14
REMARK H PARENT
REMARK Flexibility Score: inf
ROOT
ATOM      1  C   UNL     1      10.130   7.863  -5.051  1.00  0.00     0.000 C 
ENDROOT
BRANCH   1   2
ATOM      2  C   UNL     1      10.742   9.067  -5.793  1.00  0.00     0.000 C 
BRANCH   2   3
ATOM      3  C   UNL     1      11.356   8.741  -7.168  1.00  0.00     0.006 C 
BRANCH   3   4
ATOM      4  C   UNL     1      11.121   9.846  -8.205  1.00  0.00     0.053 C 
BRANCH   4   5
ATOM      5  C   UNL     1      12.384  10.609  -8.450  1.00  0.00     0.041 C 
ATOM      6  O   UNL     1      12.920  11.263  -7.516  1.00  0.00    -0.550 OA
ATOM      7  O   UNL     1      12.943  10.641  -9.721  1.00  0.00    -0.550 OA
ENDBRANCH   4   5
ENDBRANCH   3   4
ENDBRANCH   2   3
ENDBRANCH   1   2
BRANCH   1   8
ATOM      8  C   UNL     1      10.618   7.741  -3.600  1.00  0.00     0.000 C 
BRANCH   8   9
ATOM      9  C   UNL     1      11.491   6.491  -3.418  1.00  0.00     0.000 C 
BRANCH   9  10
ATOM     10  C   UNL     1      11.170   5.390  -4.442  1.00  0.00     0.006 C 
BRANCH  10  11
ATOM     11  C   UNL     1      12.337   5.111  -5.396  1.00  0.00     0.053 C 
BRANCH  11  12
ATOM     12  C   UNL     1      11.831   4.576  -6.698  1.00  0.00     0.041 C 
ATOM     13  O   UNL     1      10.692   4.910  -7.121  1.00  0.00    -0.550 OA
ATOM     14  O   UNL     1      12.636   3.748  -7.471  1.00  0.00    -0.550 OA
ENDBRANCH  11  12
ENDBRANCH  10  11
ENDBRANCH   9  10
ENDBRANCH   8   9
ENDBRANCH   1   8
TORSDOF 9
ENDMDL
MODEL 8
REMARK VINA RESULT:    -4.115     12.322     13.914
REMARK INTER + INTRA:          -6.614
REMARK INTER:                  -6.225
REMARK INTRA:                  -0.388
REMARK UNBOUND:                -0.333
REMARK SMILES O=C([O-])CCCCCCCCC(=O)[O-]
REMARK SMILES IDX 7 1 6 2 5 3 4 4 2 5 1 6 3 7 8 8 9 9 10 10 11 11 12 12 13 13
REMARK SMILES IDX 14 14
REMARK H PARENT
REMARK Flexibility Score: inf
ROOT
ATOM      1  C   UNL     1      20.159   9.955   2.575  1.00  0.00     0.000 C 
ENDROOT
BRANCH   1   2
ATOM      2  C   UNL     1      21.417   9.145   2.942  1.00  0.00     0.000 C 
BRANCH   2   3
ATOM      3  C   UNL     1      22.652   9.991   3.305  1.00  0.00     0.006 C 
BRANCH   3   4
ATOM      4  C   UNL     1      23.910   9.575   2.532  1.00  0.00     0.053 C 
BRANCH   4   5
ATOM      5  C   UNL     1      24.137  10.493   1.373  1.00  0.00     0.041 C 
ATOM      6  O   UNL     1      23.616  11.640   1.361  1.00  0.00    -0.550 OA
ATOM      7  O   UNL     1      24.884  10.065   0.282  1.00  0.00    -0.550 OA
ENDBRANCH   4   5
ENDBRANCH   3   4
ENDBRANCH   2   3
ENDBRANCH   1   2
BRANCH   1   8
ATOM      8  C   UNL     1      18.924   9.547   3.392  1.00  0.00     0.000 C 
BRANCH   8   9
ATOM      9  C   UNL     1      17.655  10.209   2.835  1.00  0.00     0.000 C 
BRANCH   9  10
ATOM     10  C   UNL     1      17.803  10.632   1.365  1.00  0.00     0.006 C 
BRANCH  10  11
ATOM     11  C   UNL     1      16.458  10.710   0.632  1.00  0.00     0.053 C 
BRANCH  11  12
ATOM     12  C   UNL     1      16.136   9.397  -0.008  1.00  0.00     0.041 C 
ATOM     13  O   UNL     1      16.744   9.033  -1.050  1.00  0.00    -0.550 OA
ATOM     14  O   UNL     1      15.201   8.550   0.574  1.00  0.00    -0.550 OA
ENDBRANCH  11  12
ENDBRANCH  10  11
ENDBRANCH   9  10
ENDBRANCH   8   9
ENDBRANCH   1   8
TORSDOF 9
ENDMDL
MODEL 9
REMARK VINA RESULT:    -4.054     16.326     17.002
REMARK INTER + INTRA:          -6.520
REMARK INTER:                  -5.837
REMARK INTRA:                  -0.682
REMARK UNBOUND:                -0.333
REMARK SMILES O=C([O-])CCCCCCCCC(=O)[O-]
REMARK SMILES IDX 7 1 6 2 5 3 4 4 2 5 1 6 3 7 8 8 9 9 10 10 11 11 12 12 13 13
REMARK SMILES IDX 14 14
REMARK H PARENT
REMARK Flexibility Score: inf
ROOT
ATOM      1  C   UNL     1      25.675  -0.839  -9.419  1.00  0.00     0.000 C 
ENDROOT
BRANCH   1   2
ATOM      2  C   UNL     1      24.495  -1.674  -8.888  1.00  0.00     0.000 C 
BRANCH   2   3
ATOM      3  C   UNL     1      24.872  -2.748  -7.850  1.00  0.00     0.006 C 
BRANCH   3   4
ATOM      4  C   UNL     1      25.366  -4.051  -8.490  1.00  0.00     0.053 C 
BRANCH   4   5
ATOM      5  C   UNL     1      24.371  -4.552  -9.488  1.00  0.00     0.041 C 
ATOM      6  O   UNL     1      23.285  -5.060  -9.101  1.00  0.00    -0.550 OA
ATOM      7  O   UNL     1      24.663  -4.505 -10.845  1.00  0.00    -0.550 OA
ENDBRANCH   4   5
ENDBRANCH   3   4
ENDBRANCH   2   3
ENDBRANCH   1   2
BRANCH   1   8
ATOM      8  C   UNL     1      25.611  -0.606 -10.936  1.00  0.00     0.000 C 
BRANCH   8   9
ATOM      9  C   UNL     1      24.235  -0.998 -11.493  1.00  0.00     0.000 C 
BRANCH   9  10
ATOM     10  C   UNL     1      24.027  -0.527 -12.942  1.00  0.00     0.006 C 
BRANCH  10  11
ATOM     11  C   UNL     1      24.855   0.718 -13.284  1.00  0.00     0.053 C 
BRANCH  11  12
ATOM     12  C   UNL     1      25.702   0.466 -14.490  1.00  0.00     0.041 C 
ATOM     13  O   UNL     1      26.546  -0.471 -14.488  1.00  0.00    -0.550 OA
ATOM     14  O   UNL     1      25.527   1.231 -15.636  1.00  0.00    -0.550 OA
ENDBRANCH  11  12
ENDBRANCH  10  11
ENDBRANCH   9  10
ENDBRANCH   8   9
ENDBRANCH   1   8
TORSDOF 9
ENDMDL
