MODEL 1
REMARK VINA RESULT:     5.663      0.000      0.000
REMARK INTER + INTRA:          14.171
REMARK INTER:                  14.932
REMARK INTRA:                  -0.761
REMARK UNBOUND:                -0.761
REMARK SMILES CCCCCCCCCCCCCCCCCCCCCCCCCCCCCC(=O)[O-]
REMARK SMILES IDX 16 1 17 2 18 3 19 4 20 5 21 6 22 7 23 8 24 9 25 10 26 11
REMARK SMILES IDX 27 12 28 13 29 14 30 15 31 16 32 17 15 18 14 19 13 20 12 21
REMARK SMILES IDX 11 22 10 23 9 24 8 25 7 26 6 27 5 28 4 29 3 30 2 31 1 32
REMARK H PARENT
REMARK Flexibility Score: inf
ROOT
ATOM      1  C   UNL     1     -29.481 -19.305 -30.317  1.00  0.00     0.000 C 
ENDROOT
BRANCH   1   2
ATOM      2  C   UNL     1     -28.342 -18.876 -31.266  1.00  0.00     0.000 C 
BRANCH   2   3
ATOM      3  C   UNL     1     -28.521 -19.376 -32.709  1.00  0.00     0.000 C 
BRANCH   3   4
ATOM      4  C   UNL     1     -29.086 -20.805 -32.781  1.00  0.00     0.000 C 
BRANCH   4   5
ATOM      5  C   UNL     1     -29.780 -21.092 -34.131  1.00  0.00     0.000 C 
BRANCH   5   6
ATOM      6  C   UNL     1     -31.275 -20.729 -34.146  1.00  0.00     0.000 C 
BRANCH   6   7
ATOM      7  C   UNL     1     -32.186 -21.949 -33.947  1.00  0.00     0.000 C 
BRANCH   7   8
ATOM      8  C   UNL     1     -32.616 -22.544 -35.293  1.00  0.00     0.000 C 
BRANCH   8   9
ATOM      9  C   UNL     1     -33.788 -21.752 -35.888  1.00  0.00     0.000 C 
BRANCH   9  10
ATOM     10  C   UNL     1     -33.515 -21.270 -37.322  1.00  0.00     0.000 C 
BRANCH  10  11
ATOM     11  C   UNL     1     -33.197 -22.418 -38.304  1.00  0.00     0.000 C 
BRANCH  11  12
ATOM     12  C   UNL     1     -31.773 -22.968 -38.106  1.00  0.00     0.000 C 
BRANCH  12  13
ATOM     13  C   UNL     1     -31.750 -24.471 -37.794  1.00  0.00     0.006 C 
BRANCH  13  14
ATOM     14  C   UNL     1     -32.100 -25.339 -39.012  1.00  0.00     0.053 C 
BRANCH  14  15
ATOM     15  C   UNL     1     -32.678 -26.653 -38.582  1.00  0.00     0.041 C 
ATOM     16  O   UNL     1     -33.629 -26.688 -37.756  1.00  0.00    -0.550 OA
ATOM     17  O   UNL     1     -32.172 -27.840 -39.103  1.00  0.00    -0.550 OA
ENDBRANCH  14  15
ENDBRANCH  13  14
ENDBRANCH  12  13
ENDBRANCH  11  12
ENDBRANCH  10  11
ENDBRANCH   9  10
ENDBRANCH   8   9
ENDBRANCH   7   8
ENDBRANCH   6   7
ENDBRANCH   5   6
ENDBRANCH   4   5
ENDBRANCH   3   4
ENDBRANCH   2   3
ENDBRANCH   1   2
BRANCH   1  18
ATOM     18  C   UNL     1     -30.867 -18.875 -30.830  1.00  0.00     0.000 C 
BRANCH  18  19
ATOM     19  C   UNL     1     -32.016 -19.482 -29.997  1.00  0.00     0.000 C 
BRANCH  19  20
ATOM     20  C   UNL     1     -31.566 -20.593 -29.029  1.00  0.00     0.000 C 
BRANCH  20  21
ATOM     21  C   UNL     1     -30.555 -21.598 -29.613  1.00  0.00     0.000 C 
BRANCH  21  22
ATOM     22  C   UNL     1     -30.051 -22.661 -28.620  1.00  0.00     0.000 C 
BRANCH  22  23
ATOM     23  C   UNL     1     -29.382 -22.050 -27.378  1.00  0.00     0.000 C 
BRANCH  23  24
ATOM     24  C   UNL     1     -27.934 -21.603 -27.646  1.00  0.00    -0.000 C 
BRANCH  24  25
ATOM     25  C   UNL     1     -27.650 -20.116 -27.355  1.00  0.00    -0.000 C 
BRANCH  25  26
ATOM     26  C   UNL     1     -27.643 -19.728 -25.862  1.00  0.00    -0.000 C 
BRANCH  26  27
ATOM     27  C   UNL     1     -27.429 -20.900 -24.888  1.00  0.00    -0.000 C 
BRANCH  27  28
ATOM     28  C   UNL     1     -28.630 -21.129 -23.959  1.00  0.00    -0.000 C 
BRANCH  28  29
ATOM     29  C   UNL     1     -28.250 -20.866 -22.497  1.00  0.00    -0.000 C 
BRANCH  29  30
ATOM     30  C   UNL     1     -26.760 -21.157 -22.258  1.00  0.00    -0.000 C 
BRANCH  30  31
ATOM     31  C   UNL     1     -26.533 -22.200 -21.152  1.00  0.00    -0.003 C 
ATOM     32  C   UNL     1     -27.609 -23.286 -21.128  1.00  0.00     0.004 C 
ENDBRANCH  30  31
ENDBRANCH  29  30
ENDBRANCH  28  29
ENDBRANCH  27  28
ENDBRANCH  26  27
ENDBRANCH  25  26
ENDBRANCH  24  25
ENDBRANCH  23  24
ENDBRANCH  22  23
ENDBRANCH  21  22
ENDBRANCH  20  21
ENDBRANCH  19  20
ENDBRANCH  18  19
ENDBRANCH   1  18
TORSDOF 28
ENDMDL
MODEL 2
REMARK VINA RESULT:     6.388      4.870     12.671
REMARK INTER + INTRA:          16.084
REMARK INTER:                  15.465
REMARK INTRA:                   0.620
REMARK UNBOUND:                -0.761
REMARK SMILES CCCCCCCCCCCCCCCCCCCCCCCCCCCCCC(=O)[O-]
REMARK SMILES IDX 16 1 17 2 18 3 19 4 20 5 21 6 22 7 23 8 24 9 25 10 26 11
REMARK SMILES IDX 27 12 28 13 29 14 30 15 31 16 32 17 15 18 14 19 13 20 12 21
REMARK SMILES IDX 11 22 10 23 9 24 8 25 7 26 6 27 5 28 4 29 3 30 2 31 1 32
REMARK H PARENT
REMARK Flexibility Score: inf
ROOT
ATOM      1  C   UNL     1     -31.168 -21.403 -32.011  1.00  0.00     0.000 C 
ENDROOT
BRANCH   1   2
ATOM      2  C   UNL     1     -31.029 -20.371 -30.873  1.00  0.00     0.000 C 
BRANCH   2   3
ATOM      3  C   UNL     1     -30.480 -19.011 -31.336  1.00  0.00     0.000 C 
BRANCH   3   4
ATOM      4  C   UNL     1     -29.166 -19.134 -32.126  1.00  0.00     0.000 C 
BRANCH   4   5
ATOM      5  C   UNL     1     -27.926 -18.875 -31.242  1.00  0.00     0.000 C 
BRANCH   5   6
ATOM      6  C   UNL     1     -28.215 -18.964 -29.733  1.00  0.00     0.000 C 
BRANCH   6   7
ATOM      7  C   UNL     1     -28.574 -20.385 -29.278  1.00  0.00     0.000 C 
BRANCH   7   8
ATOM      8  C   UNL     1     -27.880 -20.735 -27.956  1.00  0.00     0.000 C 
BRANCH   8   9
ATOM      9  C   UNL     1     -28.537 -21.960 -27.305  1.00  0.00     0.000 C 
BRANCH   9  10
ATOM     10  C   UNL     1     -28.835 -21.753 -25.811  1.00  0.00     0.000 C 
BRANCH  10  11
ATOM     11  C   UNL     1     -27.898 -20.727 -25.136  1.00  0.00     0.000 C 
BRANCH  11  12
ATOM     12  C   UNL     1     -28.231 -20.536 -23.646  1.00  0.00     0.000 C 
BRANCH  12  13
ATOM     13  C   UNL     1     -28.369 -21.864 -22.888  1.00  0.00     0.006 C 
BRANCH  13  14
ATOM     14  C   UNL     1     -27.935 -21.761 -21.418  1.00  0.00     0.053 C 
BRANCH  14  15
ATOM     15  C   UNL     1     -26.444 -21.838 -21.295  1.00  0.00     0.041 C 
ATOM     16  O   UNL     1     -25.837 -22.902 -21.590  1.00  0.00    -0.550 OA
ATOM     17  O   UNL     1     -25.723 -20.729 -20.863  1.00  0.00    -0.550 OA
ENDBRANCH  14  15
ENDBRANCH  13  14
ENDBRANCH  12  13
ENDBRANCH  11  12
ENDBRANCH  10  11
ENDBRANCH   9  10
ENDBRANCH   8   9
ENDBRANCH   7   8
ENDBRANCH   6   7
ENDBRANCH   5   6
ENDBRANCH   4   5
ENDBRANCH   3   4
ENDBRANCH   2   3
ENDBRANCH   1   2
BRANCH   1  18
ATOM     18  C   UNL     1     -31.692 -20.774 -33.314  1.00  0.00     0.000 C 
BRANCH  18  19
ATOM     19  C   UNL     1     -31.016 -21.370 -34.568  1.00  0.00     0.000 C 
BRANCH  19  20
ATOM     20  C   UNL     1     -31.579 -22.741 -34.988  1.00  0.00     0.000 C 
BRANCH  20  21
ATOM     21  C   UNL     1     -33.113 -22.866 -34.922  1.00  0.00     0.000 C 
BRANCH  21  22
ATOM     22  C   UNL     1     -33.874 -22.059 -35.990  1.00  0.00     0.000 C 
BRANCH  22  23
ATOM     23  C   UNL     1     -33.119 -20.796 -36.437  1.00  0.00     0.000 C 
BRANCH  23  24
ATOM     24  C   UNL     1     -33.835 -20.053 -37.579  1.00  0.00    -0.000 C 
BRANCH  24  25
ATOM     25  C   UNL     1     -33.603 -20.645 -38.984  1.00  0.00    -0.000 C 
BRANCH  25  26
ATOM     26  C   UNL     1     -33.456 -22.180 -39.033  1.00  0.00    -0.000 C 
BRANCH  26  27
ATOM     27  C   UNL     1     -32.092 -22.717 -38.565  1.00  0.00    -0.000 C 
BRANCH  27  28
ATOM     28  C   UNL     1     -31.781 -24.115 -39.118  1.00  0.00    -0.000 C 
BRANCH  28  29
ATOM     29  C   UNL     1     -31.835 -25.169 -38.005  1.00  0.00    -0.000 C 
BRANCH  29  30
ATOM     30  C   UNL     1     -33.238 -25.787 -37.903  1.00  0.00    -0.000 C 
BRANCH  30  31
ATOM     31  C   UNL     1     -33.267 -27.259 -38.344  1.00  0.00    -0.003 C 
ATOM     32  C   UNL     1     -31.880 -27.807 -38.680  1.00  0.00     0.004 C 
ENDBRANCH  30  31
ENDBRANCH  29  30
ENDBRANCH  28  29
ENDBRANCH  27  28
ENDBRANCH  26  27
ENDBRANCH  25  26
ENDBRANCH  24  25
ENDBRANCH  23  24
ENDBRANCH  22  23
ENDBRANCH  21  22
ENDBRANCH  20  21
ENDBRANCH  19  20
ENDBRANCH  18  19
ENDBRANCH   1  18
TORSDOF 28
ENDMDL
MODEL 3
REMARK VINA RESULT:     6.893      4.591     12.772
REMARK INTER + INTRA:          17.414
REMARK INTER:                  19.802
REMARK INTRA:                  -2.388
REMARK UNBOUND:                -0.761
REMARK SMILES CCCCCCCCCCCCCCCCCCCCCCCCCCCCCC(=O)[O-]
REMARK SMILES IDX 16 1 17 2 18 3 19 4 20 5 21 6 22 7 23 8 24 9 25 10 26 11
REMARK SMILES IDX 27 12 28 13 29 14 30 15 31 16 32 17 15 18 14 19 13 20 12 21
REMARK SMILES IDX 11 22 10 23 9 24 8 25 7 26 6 27 5 28 4 29 3 30 2 31 1 32
REMARK H PARENT
REMARK Flexibility Score: inf
ROOT
ATOM      1  C   UNL     1     -30.822 -19.093 -31.088  1.00  0.00     0.000 C 
ENDROOT
BRANCH   1   2
ATOM      2  C   UNL     1     -31.336 -20.496 -30.703  1.00  0.00     0.000 C 
BRANCH   2   3
ATOM      3  C   UNL     1     -31.096 -20.857 -29.228  1.00  0.00     0.000 C 
BRANCH   3   4
ATOM      4  C   UNL     1     -30.403 -22.220 -29.051  1.00  0.00     0.000 C 
BRANCH   4   5
ATOM      5  C   UNL     1     -29.280 -22.171 -27.993  1.00  0.00     0.000 C 
BRANCH   5   6
ATOM      6  C   UNL     1     -28.185 -21.134 -28.301  1.00  0.00     0.000 C 
BRANCH   6   7
ATOM      7  C   UNL     1     -27.353 -20.762 -27.066  1.00  0.00     0.000 C 
BRANCH   7   8
ATOM      8  C   UNL     1     -28.150 -20.977 -25.775  1.00  0.00     0.000 C 
BRANCH   8   9
ATOM      9  C   UNL     1     -27.435 -20.332 -24.580  1.00  0.00     0.000 C 
BRANCH   9  10
ATOM     10  C   UNL     1     -25.986 -19.930 -24.897  1.00  0.00     0.000 C 
BRANCH  10  11
ATOM     11  C   UNL     1     -25.056 -19.973 -23.665  1.00  0.00     0.000 C 
BRANCH  11  12
ATOM     12  C   UNL     1     -25.807 -20.399 -22.391  1.00  0.00     0.000 C 
BRANCH  12  13
ATOM     13  C   UNL     1     -25.180 -21.624 -21.709  1.00  0.00     0.006 C 
BRANCH  13  14
ATOM     14  C   UNL     1     -26.129 -22.301 -20.708  1.00  0.00     0.053 C 
BRANCH  14  15
ATOM     15  C   UNL     1     -27.334 -22.853 -21.405  1.00  0.00     0.041 C 
ATOM     16  O   UNL     1     -28.177 -22.075 -21.929  1.00  0.00    -0.550 OA
ATOM     17  O   UNL     1     -27.523 -24.229 -21.487  1.00  0.00    -0.550 OA
ENDBRANCH  14  15
ENDBRANCH  13  14
ENDBRANCH  12  13
ENDBRANCH  11  12
ENDBRANCH  10  11
ENDBRANCH   9  10
ENDBRANCH   8   9
ENDBRANCH   7   8
ENDBRANCH   6   7
ENDBRANCH   5   6
ENDBRANCH   4   5
ENDBRANCH   3   4
ENDBRANCH   2   3
ENDBRANCH   1   2
BRANCH   1  18
ATOM     18  C   UNL     1     -29.286 -18.997 -31.043  1.00  0.00     0.000 C 
BRANCH  18  19
ATOM     19  C   UNL     1     -28.616 -19.734 -32.222  1.00  0.00     0.000 C 
BRANCH  19  20
ATOM     20  C   UNL     1     -29.276 -19.458 -33.587  1.00  0.00     0.000 C 
BRANCH  20  21
ATOM     21  C   UNL     1     -29.862 -20.697 -34.291  1.00  0.00     0.000 C 
BRANCH  21  22
ATOM     22  C   UNL     1     -31.400 -20.769 -34.298  1.00  0.00     0.000 C 
BRANCH  22  23
ATOM     23  C   UNL     1     -31.934 -22.180 -33.999  1.00  0.00     0.000 C 
BRANCH  23  24
ATOM     24  C   UNL     1     -32.855 -22.711 -35.112  1.00  0.00    -0.000 C 
BRANCH  24  25
ATOM     25  C   UNL     1     -32.966 -21.800 -36.352  1.00  0.00    -0.000 C 
BRANCH  25  26
ATOM     26  C   UNL     1     -32.216 -22.299 -37.603  1.00  0.00    -0.000 C 
BRANCH  26  27
ATOM     27  C   UNL     1     -31.401 -23.589 -37.400  1.00  0.00    -0.000 C 
BRANCH  27  28
ATOM     28  C   UNL     1     -31.170 -24.359 -38.708  1.00  0.00    -0.000 C 
BRANCH  28  29
ATOM     29  C   UNL     1     -32.410 -25.178 -39.089  1.00  0.00    -0.000 C 
BRANCH  29  30
ATOM     30  C   UNL     1     -33.126 -25.702 -37.835  1.00  0.00    -0.000 C 
BRANCH  30  31
ATOM     31  C   UNL     1     -33.274 -27.232 -37.837  1.00  0.00    -0.003 C 
ATOM     32  C   UNL     1     -32.761 -27.878 -39.124  1.00  0.00     0.004 C 
ENDBRANCH  30  31
ENDBRANCH  29  30
ENDBRANCH  28  29
ENDBRANCH  27  28
ENDBRANCH  26  27
ENDBRANCH  25  26
ENDBRANCH  24  25
ENDBRANCH  23  24
ENDBRANCH  22  23
ENDBRANCH  21  22
ENDBRANCH  20  21
ENDBRANCH  19  20
ENDBRANCH  18  19
ENDBRANCH   1  18
TORSDOF 28
ENDMDL
MODEL 4
REMARK VINA RESULT:     7.003      5.194     13.220
REMARK INTER + INTRA:          17.706
REMARK INTER:                  19.780
REMARK INTRA:                  -2.073
REMARK UNBOUND:                -0.761
REMARK SMILES CCCCCCCCCCCCCCCCCCCCCCCCCCCCCC(=O)[O-]
REMARK SMILES IDX 16 1 17 2 18 3 19 4 20 5 21 6 22 7 23 8 24 9 25 10 26 11
REMARK SMILES IDX 27 12 28 13 29 14 30 15 31 16 32 17 15 18 14 19 13 20 12 21
REMARK SMILES IDX 11 22 10 23 9 24 8 25 7 26 6 27 5 28 4 29 3 30 2 31 1 32
REMARK H PARENT
REMARK Flexibility Score: inf
ROOT
ATOM      1  C   UNL     1     -31.443 -21.111 -29.529  1.00  0.00     0.000 C 
ENDROOT
BRANCH   1   2
ATOM      2  C   UNL     1     -30.050 -21.759 -29.382  1.00  0.00     0.000 C 
BRANCH   2   3
ATOM      3  C   UNL     1     -29.703 -22.154 -27.937  1.00  0.00     0.000 C 
BRANCH   3   4
ATOM      4  C   UNL     1     -28.360 -21.571 -27.464  1.00  0.00     0.000 C 
BRANCH   4   5
ATOM      5  C   UNL     1     -28.228 -21.583 -25.925  1.00  0.00     0.000 C 
BRANCH   5   6
ATOM      6  C   UNL     1     -27.610 -20.297 -25.349  1.00  0.00     0.000 C 
BRANCH   6   7
ATOM      7  C   UNL     1     -27.022 -20.495 -23.945  1.00  0.00     0.000 C 
BRANCH   7   8
ATOM      8  C   UNL     1     -28.029 -21.183 -23.015  1.00  0.00     0.000 C 
BRANCH   8   9
ATOM      9  C   UNL     1     -27.472 -21.285 -21.589  1.00  0.00     0.000 C 
BRANCH   9  10
ATOM     10  C   UNL     1     -27.125 -22.727 -21.186  1.00  0.00     0.000 C 
BRANCH  10  11
ATOM     11  C   UNL     1     -25.652 -23.101 -21.459  1.00  0.00     0.000 C 
BRANCH  11  12
ATOM     12  C   UNL     1     -25.496 -24.582 -21.850  1.00  0.00     0.000 C 
BRANCH  12  13
ATOM     13  C   UNL     1     -24.591 -24.786 -23.073  1.00  0.00     0.006 C 
BRANCH  13  14
ATOM     14  C   UNL     1     -23.718 -26.046 -22.967  1.00  0.00     0.053 C 
BRANCH  14  15
ATOM     15  C   UNL     1     -22.341 -25.702 -22.489  1.00  0.00     0.041 C 
ATOM     16  O   UNL     1     -22.102 -25.611 -21.255  1.00  0.00    -0.550 OA
ATOM     17  O   UNL     1     -21.317 -25.491 -23.407  1.00  0.00    -0.550 OA
ENDBRANCH  14  15
ENDBRANCH  13  14
ENDBRANCH  12  13
ENDBRANCH  11  12
ENDBRANCH  10  11
ENDBRANCH   9  10
ENDBRANCH   8   9
ENDBRANCH   7   8
ENDBRANCH   6   7
ENDBRANCH   5   6
ENDBRANCH   4   5
ENDBRANCH   3   4
ENDBRANCH   2   3
ENDBRANCH   1   2
BRANCH   1  18
ATOM     18  C   UNL     1     -31.370 -19.577 -29.633  1.00  0.00     0.000 C 
BRANCH  18  19
ATOM     19  C   UNL     1     -30.140 -19.100 -30.435  1.00  0.00     0.000 C 
BRANCH  19  20
ATOM     20  C   UNL     1     -30.340 -19.134 -31.963  1.00  0.00     0.000 C 
BRANCH  20  21
ATOM     21  C   UNL     1     -29.342 -20.020 -32.732  1.00  0.00     0.000 C 
BRANCH  21  22
ATOM     22  C   UNL     1     -29.936 -20.758 -33.946  1.00  0.00     0.000 C 
BRANCH  22  23
ATOM     23  C   UNL     1     -31.352 -21.297 -33.686  1.00  0.00     0.000 C 
BRANCH  23  24
ATOM     24  C   UNL     1     -31.755 -22.404 -34.677  1.00  0.00    -0.000 C 
BRANCH  24  25
ATOM     25  C   UNL     1     -33.127 -22.203 -35.351  1.00  0.00    -0.000 C 
BRANCH  25  26
ATOM     26  C   UNL     1     -33.173 -21.103 -36.431  1.00  0.00    -0.000 C 
BRANCH  26  27
ATOM     27  C   UNL     1     -32.578 -21.503 -37.793  1.00  0.00    -0.000 C 
BRANCH  27  28
ATOM     28  C   UNL     1     -33.116 -22.847 -38.305  1.00  0.00    -0.000 C 
BRANCH  28  29
ATOM     29  C   UNL     1     -31.967 -23.797 -38.661  1.00  0.00    -0.000 C 
BRANCH  29  30
ATOM     30  C   UNL     1     -32.068 -25.104 -37.860  1.00  0.00    -0.000 C 
BRANCH  30  31
ATOM     31  C   UNL     1     -32.254 -26.335 -38.761  1.00  0.00    -0.003 C 
ATOM     32  C   UNL     1     -33.354 -27.274 -38.266  1.00  0.00     0.004 C 
ENDBRANCH  30  31
ENDBRANCH  29  30
ENDBRANCH  28  29
ENDBRANCH  27  28
ENDBRANCH  26  27
ENDBRANCH  25  26
ENDBRANCH  24  25
ENDBRANCH  23  24
ENDBRANCH  22  23
ENDBRANCH  21  22
ENDBRANCH  20  21
ENDBRANCH  19  20
ENDBRANCH  18  19
ENDBRANCH   1  18
TORSDOF 28
ENDMDL
MODEL 5
REMARK VINA RESULT:     7.154      1.955      3.747
REMARK INTER + INTRA:          18.104
REMARK INTER:                  20.765
REMARK INTRA:                  -2.661
REMARK UNBOUND:                -0.761
REMARK SMILES CCCCCCCCCCCCCCCCCCCCCCCCCCCCCC(=O)[O-]
REMARK SMILES IDX 16 1 17 2 18 3 19 4 20 5 21 6 22 7 23 8 24 9 25 10 26 11
REMARK SMILES IDX 27 12 28 13 29 14 30 15 31 16 32 17 15 18 14 19 13 20 12 21
REMARK SMILES IDX 11 22 10 23 9 24 8 25 7 26 6 27 5 28 4 29 3 30 2 31 1 32
REMARK H PARENT
REMARK Flexibility Score: inf
ROOT
ATOM      1  C   UNL     1     -30.268 -21.423 -30.078  1.00  0.00     0.000 C 
ENDROOT
BRANCH   1   2
ATOM      2  C   UNL     1     -31.164 -20.180 -29.892  1.00  0.00     0.000 C 
BRANCH   2   3
ATOM      3  C   UNL     1     -30.524 -18.877 -30.399  1.00  0.00     0.000 C 
BRANCH   3   4
ATOM      4  C   UNL     1     -29.164 -19.105 -31.082  1.00  0.00     0.000 C 
BRANCH   4   5
ATOM      5  C   UNL     1     -29.267 -19.049 -32.622  1.00  0.00     0.000 C 
BRANCH   5   6
ATOM      6  C   UNL     1     -29.078 -20.416 -33.304  1.00  0.00     0.000 C 
BRANCH   6   7
ATOM      7  C   UNL     1     -30.213 -20.757 -34.278  1.00  0.00     0.000 C 
BRANCH   7   8
ATOM      8  C   UNL     1     -31.510 -21.082 -33.527  1.00  0.00     0.000 C 
BRANCH   8   9
ATOM      9  C   UNL     1     -32.631 -20.115 -33.933  1.00  0.00     0.000 C 
BRANCH   9  10
ATOM     10  C   UNL     1     -33.742 -20.799 -34.746  1.00  0.00     0.000 C 
BRANCH  10  11
ATOM     11  C   UNL     1     -33.853 -20.273 -36.194  1.00  0.00     0.000 C 
BRANCH  11  12
ATOM     12  C   UNL     1     -33.723 -21.405 -37.229  1.00  0.00     0.000 C 
BRANCH  12  13
ATOM     13  C   UNL     1     -33.567 -22.790 -36.584  1.00  0.00     0.006 C 
BRANCH  13  14
ATOM     14  C   UNL     1     -32.120 -23.305 -36.620  1.00  0.00     0.053 C 
BRANCH  14  15
ATOM     15  C   UNL     1     -31.963 -24.382 -37.649  1.00  0.00     0.041 C 
ATOM     16  O   UNL     1     -31.011 -24.337 -38.475  1.00  0.00    -0.550 OA
ATOM     17  O   UNL     1     -32.862 -25.443 -37.691  1.00  0.00    -0.550 OA
ENDBRANCH  14  15
ENDBRANCH  13  14
ENDBRANCH  12  13
ENDBRANCH  11  12
ENDBRANCH  10  11
ENDBRANCH   9  10
ENDBRANCH   8   9
ENDBRANCH   7   8
ENDBRANCH   6   7
ENDBRANCH   5   6
ENDBRANCH   4   5
ENDBRANCH   3   4
ENDBRANCH   2   3
ENDBRANCH   1   2
BRANCH   1  18
ATOM     18  C   UNL     1     -30.336 -22.381 -28.875  1.00  0.00     0.000 C 
BRANCH  18  19
ATOM     19  C   UNL     1     -29.333 -22.004 -27.765  1.00  0.00     0.000 C 
BRANCH  19  20
ATOM     20  C   UNL     1     -28.139 -21.165 -28.261  1.00  0.00     0.000 C 
BRANCH  20  21
ATOM     21  C   UNL     1     -27.142 -20.737 -27.168  1.00  0.00     0.000 C 
BRANCH  21  22
ATOM     22  C   UNL     1     -27.771 -19.997 -25.973  1.00  0.00     0.000 C 
BRANCH  22  23
ATOM     23  C   UNL     1     -27.336 -20.573 -24.615  1.00  0.00     0.000 C 
BRANCH  23  24
ATOM     24  C   UNL     1     -28.474 -20.568 -23.579  1.00  0.00    -0.000 C 
BRANCH  24  25
ATOM     25  C   UNL     1     -28.553 -21.830 -22.697  1.00  0.00    -0.000 C 
BRANCH  25  26
ATOM     26  C   UNL     1     -27.689 -21.795 -21.420  1.00  0.00    -0.000 C 
BRANCH  26  27
ATOM     27  C   UNL     1     -26.853 -23.062 -21.167  1.00  0.00    -0.000 C 
BRANCH  27  28
ATOM     28  C   UNL     1     -25.350 -22.838 -21.389  1.00  0.00    -0.000 C 
BRANCH  28  29
ATOM     29  C   UNL     1     -24.601 -24.175 -21.448  1.00  0.00    -0.000 C 
BRANCH  29  30
ATOM     30  C   UNL     1     -24.151 -24.487 -22.884  1.00  0.00    -0.000 C 
BRANCH  30  31
ATOM     31  C   UNL     1     -23.470 -25.860 -23.003  1.00  0.00    -0.003 C 
ATOM     32  C   UNL     1     -21.962 -25.800 -22.760  1.00  0.00     0.004 C 
ENDBRANCH  30  31
ENDBRANCH  29  30
ENDBRANCH  28  29
ENDBRANCH  27  28
ENDBRANCH  26  27
ENDBRANCH  25  26
ENDBRANCH  24  25
ENDBRANCH  23  24
ENDBRANCH  22  23
ENDBRANCH  21  22
ENDBRANCH  20  21
ENDBRANCH  19  20
ENDBRANCH  18  19
ENDBRANCH   1  18
TORSDOF 28
ENDMDL
MODEL 6
REMARK VINA RESULT:     7.161      1.538      3.083
REMARK INTER + INTRA:          18.123
REMARK INTER:                  19.707
REMARK INTRA:                  -1.584
REMARK UNBOUND:                -0.761
REMARK SMILES CCCCCCCCCCCCCCCCCCCCCCCCCCCCCC(=O)[O-]
REMARK SMILES IDX 16 1 17 2 18 3 19 4 20 5 21 6 22 7 23 8 24 9 25 10 26 11
REMARK SMILES IDX 27 12 28 13 29 14 30 15 31 16 32 17 15 18 14 19 13 20 12 21
REMARK SMILES IDX 11 22 10 23 9 24 8 25 7 26 6 27 5 28 4 29 3 30 2 31 1 32
REMARK H PARENT
REMARK Flexibility Score: inf
ROOT
ATOM      1  C   UNL     1     -30.546 -21.392 -30.476  1.00  0.00     0.000 C 
ENDROOT
BRANCH   1   2
ATOM      2  C   UNL     1     -31.507 -20.291 -29.982  1.00  0.00     0.000 C 
BRANCH   2   3
ATOM      3  C   UNL     1     -31.113 -18.877 -30.439  1.00  0.00     0.000 C 
BRANCH   3   4
ATOM      4  C   UNL     1     -29.937 -18.875 -31.431  1.00  0.00     0.000 C 
BRANCH   4   5
ATOM      5  C   UNL     1     -30.409 -18.975 -32.898  1.00  0.00     0.000 C 
BRANCH   5   6
ATOM      6  C   UNL     1     -29.506 -19.856 -33.779  1.00  0.00     0.000 C 
BRANCH   6   7
ATOM      7  C   UNL     1     -30.171 -21.182 -34.174  1.00  0.00     0.000 C 
BRANCH   7   8
ATOM      8  C   UNL     1     -31.693 -21.112 -34.002  1.00  0.00     0.000 C 
BRANCH   8   9
ATOM      9  C   UNL     1     -32.396 -22.041 -35.001  1.00  0.00     0.000 C 
BRANCH   9  10
ATOM     10  C   UNL     1     -31.430 -22.658 -36.025  1.00  0.00     0.000 C 
BRANCH  10  11
ATOM     11  C   UNL     1     -31.709 -22.210 -37.476  1.00  0.00     0.000 C 
BRANCH  11  12
ATOM     12  C   UNL     1     -31.480 -23.350 -38.485  1.00  0.00     0.000 C 
BRANCH  12  13
ATOM     13  C   UNL     1     -32.008 -24.704 -37.988  1.00  0.00     0.006 C 
BRANCH  13  14
ATOM     14  C   UNL     1     -32.552 -25.585 -39.123  1.00  0.00     0.053 C 
BRANCH  14  15
ATOM     15  C   UNL     1     -32.791 -26.984 -38.644  1.00  0.00     0.041 C 
ATOM     16  O   UNL     1     -33.961 -27.378 -38.391  1.00  0.00    -0.550 OA
ATOM     17  O   UNL     1     -31.720 -27.859 -38.486  1.00  0.00    -0.550 OA
ENDBRANCH  14  15
ENDBRANCH  13  14
ENDBRANCH  12  13
ENDBRANCH  11  12
ENDBRANCH  10  11
ENDBRANCH   9  10
ENDBRANCH   8   9
ENDBRANCH   7   8
ENDBRANCH   6   7
ENDBRANCH   5   6
ENDBRANCH   4   5
ENDBRANCH   3   4
ENDBRANCH   2   3
ENDBRANCH   1   2
BRANCH   1  18
ATOM     18  C   UNL     1     -30.766 -22.733 -29.753  1.00  0.00     0.000 C 
BRANCH  18  19
ATOM     19  C   UNL     1     -30.029 -22.798 -28.398  1.00  0.00     0.000 C 
BRANCH  19  20
ATOM     20  C   UNL     1     -29.162 -21.560 -28.099  1.00  0.00     0.000 C 
BRANCH  20  21
ATOM     21  C   UNL     1     -28.291 -21.663 -26.833  1.00  0.00     0.000 C 
BRANCH  21  22
ATOM     22  C   UNL     1     -27.533 -20.376 -26.463  1.00  0.00     0.000 C 
BRANCH  22  23
ATOM     23  C   UNL     1     -27.205 -20.284 -24.963  1.00  0.00     0.000 C 
BRANCH  23  24
ATOM     24  C   UNL     1     -25.691 -20.203 -24.693  1.00  0.00    -0.000 C 
BRANCH  24  25
ATOM     25  C   UNL     1     -25.311 -19.786 -23.258  1.00  0.00    -0.000 C 
BRANCH  25  26
ATOM     26  C   UNL     1     -25.435 -20.897 -22.196  1.00  0.00    -0.000 C 
BRANCH  26  27
ATOM     27  C   UNL     1     -26.842 -21.507 -22.056  1.00  0.00    -0.000 C 
BRANCH  27  28
ATOM     28  C   UNL     1     -26.897 -22.649 -21.032  1.00  0.00    -0.000 C 
BRANCH  28  29
ATOM     29  C   UNL     1     -26.702 -24.008 -21.716  1.00  0.00    -0.000 C 
BRANCH  29  30
ATOM     30  C   UNL     1     -25.268 -24.521 -21.517  1.00  0.00    -0.000 C 
BRANCH  30  31
ATOM     31  C   UNL     1     -24.490 -24.623 -22.839  1.00  0.00    -0.003 C 
ATOM     32  C   UNL     1     -23.195 -25.424 -22.706  1.00  0.00     0.004 C 
ENDBRANCH  30  31
ENDBRANCH  29  30
ENDBRANCH  28  29
ENDBRANCH  27  28
ENDBRANCH  26  27
ENDBRANCH  25  26
ENDBRANCH  24  25
ENDBRANCH  23  24
ENDBRANCH  22  23
ENDBRANCH  21  22
ENDBRANCH  20  21
ENDBRANCH  19  20
ENDBRANCH  18  19
ENDBRANCH   1  18
TORSDOF 28
ENDMDL
MODEL 7
REMARK VINA RESULT:     7.281      4.482     12.853
REMARK INTER + INTRA:          18.438
REMARK INTER:                  21.159
REMARK INTRA:                  -2.721
REMARK UNBOUND:                -0.761
REMARK SMILES CCCCCCCCCCCCCCCCCCCCCCCCCCCCCC(=O)[O-]
REMARK SMILES IDX 16 1 17 2 18 3 19 4 20 5 21 6 22 7 23 8 24 9 25 10 26 11
REMARK SMILES IDX 27 12 28 13 29 14 30 15 31 16 32 17 15 18 14 19 13 20 12 21
REMARK SMILES IDX 11 22 10 23 9 24 8 25 7 26 6 27 5 28 4 29 3 30 2 31 1 32
REMARK H PARENT
REMARK Flexibility Score: inf
ROOT
ATOM      1  C   UNL     1     -31.774 -19.765 -30.169  1.00  0.00     0.000 C 
ENDROOT
BRANCH   1   2
ATOM      2  C   UNL     1     -31.436 -21.250 -29.919  1.00  0.00     0.000 C 
BRANCH   2   3
ATOM      3  C   UNL     1     -31.049 -21.557 -28.463  1.00  0.00     0.000 C 
BRANCH   3   4
ATOM      4  C   UNL     1     -29.848 -22.513 -28.353  1.00  0.00     0.000 C 
BRANCH   4   5
ATOM      5  C   UNL     1     -28.725 -21.941 -27.460  1.00  0.00     0.000 C 
BRANCH   5   6
ATOM      6  C   UNL     1     -27.918 -20.814 -28.129  1.00  0.00     0.000 C 
BRANCH   6   7
ATOM      7  C   UNL     1     -26.854 -20.212 -27.202  1.00  0.00     0.000 C 
BRANCH   7   8
ATOM      8  C   UNL     1     -27.264 -20.343 -25.730  1.00  0.00     0.000 C 
BRANCH   8   9
ATOM      9  C   UNL     1     -26.038 -20.601 -24.844  1.00  0.00     0.000 C 
BRANCH   9  10
ATOM     10  C   UNL     1     -25.526 -19.330 -24.149  1.00  0.00     0.000 C 
BRANCH  10  11
ATOM     11  C   UNL     1     -24.704 -19.619 -22.874  1.00  0.00     0.000 C 
BRANCH  11  12
ATOM     12  C   UNL     1     -24.936 -21.048 -22.351  1.00  0.00     0.000 C 
BRANCH  12  13
ATOM     13  C   UNL     1     -25.536 -21.078 -20.937  1.00  0.00     0.006 C 
BRANCH  13  14
ATOM     14  C   UNL     1     -27.065 -20.931 -20.934  1.00  0.00     0.053 C 
BRANCH  14  15
ATOM     15  C   UNL     1     -27.714 -22.096 -21.615  1.00  0.00     0.041 C 
ATOM     16  O   UNL     1     -28.679 -21.914 -22.405  1.00  0.00    -0.550 OA
ATOM     17  O   UNL     1     -27.247 -23.386 -21.384  1.00  0.00    -0.550 OA
ENDBRANCH  14  15
ENDBRANCH  13  14
ENDBRANCH  12  13
ENDBRANCH  11  12
ENDBRANCH  10  11
ENDBRANCH   9  10
ENDBRANCH   8   9
ENDBRANCH   7   8
ENDBRANCH   6   7
ENDBRANCH   5   6
ENDBRANCH   4   5
ENDBRANCH   3   4
ENDBRANCH   2   3
ENDBRANCH   1   2
BRANCH   1  18
ATOM     18  C   UNL     1     -30.518 -18.877 -30.219  1.00  0.00     0.000 C 
BRANCH  18  19
ATOM     19  C   UNL     1     -29.419 -19.464 -31.131  1.00  0.00     0.000 C 
BRANCH  19  20
ATOM     20  C   UNL     1     -29.791 -19.479 -32.626  1.00  0.00     0.000 C 
BRANCH  20  21
ATOM     21  C   UNL     1     -29.449 -20.784 -33.370  1.00  0.00     0.000 C 
BRANCH  21  22
ATOM     22  C   UNL     1     -30.339 -21.084 -34.590  1.00  0.00     0.000 C 
BRANCH  22  23
ATOM     23  C   UNL     1     -31.832 -21.180 -34.234  1.00  0.00     0.000 C 
BRANCH  23  24
ATOM     24  C   UNL     1     -32.543 -22.329 -34.971  1.00  0.00    -0.000 C 
BRANCH  24  25
ATOM     25  C   UNL     1     -33.821 -21.919 -35.730  1.00  0.00    -0.000 C 
BRANCH  25  26
ATOM     26  C   UNL     1     -33.624 -21.602 -37.227  1.00  0.00    -0.000 C 
BRANCH  26  27
ATOM     27  C   UNL     1     -32.218 -21.906 -37.775  1.00  0.00    -0.000 C 
BRANCH  27  28
ATOM     28  C   UNL     1     -32.225 -22.986 -38.866  1.00  0.00    -0.000 C 
BRANCH  28  29
ATOM     29  C   UNL     1     -31.172 -24.063 -38.576  1.00  0.00    -0.000 C 
BRANCH  29  30
ATOM     30  C   UNL     1     -31.811 -25.286 -37.901  1.00  0.00    -0.000 C 
BRANCH  30  31
ATOM     31  C   UNL     1     -32.817 -26.006 -38.813  1.00  0.00    -0.003 C 
ATOM     32  C   UNL     1     -33.006 -27.478 -38.446  1.00  0.00     0.004 C 
ENDBRANCH  30  31
ENDBRANCH  29  30
ENDBRANCH  28  29
ENDBRANCH  27  28
ENDBRANCH  26  27
ENDBRANCH  25  26
ENDBRANCH  24  25
ENDBRANCH  23  24
ENDBRANCH  22  23
ENDBRANCH  21  22
ENDBRANCH  20  21
ENDBRANCH  19  20
ENDBRANCH  18  19
ENDBRANCH   1  18
TORSDOF 28
ENDMDL
MODEL 8
REMARK VINA RESULT:     7.356      4.570     12.968
REMARK INTER + INTRA:          18.637
REMARK INTER:                  20.870
REMARK INTRA:                  -2.233
REMARK UNBOUND:                -0.761
REMARK SMILES CCCCCCCCCCCCCCCCCCCCCCCCCCCCCC(=O)[O-]
REMARK SMILES IDX 16 1 17 2 18 3 19 4 20 5 21 6 22 7 23 8 24 9 25 10 26 11
REMARK SMILES IDX 27 12 28 13 29 14 30 15 31 16 32 17 15 18 14 19 13 20 12 21
REMARK SMILES IDX 11 22 10 23 9 24 8 25 7 26 6 27 5 28 4 29 3 30 2 31 1 32
REMARK H PARENT
REMARK Flexibility Score: inf
ROOT
ATOM      1  C   UNL     1     -31.738 -20.063 -30.118  1.00  0.00     0.000 C 
ENDROOT
BRANCH   1   2
ATOM      2  C   UNL     1     -30.995 -21.411 -30.018  1.00  0.00     0.000 C 
BRANCH   2   3
ATOM      3  C   UNL     1     -30.699 -21.847 -28.573  1.00  0.00     0.000 C 
BRANCH   3   4
ATOM      4  C   UNL     1     -29.215 -22.185 -28.343  1.00  0.00     0.000 C 
BRANCH   4   5
ATOM      5  C   UNL     1     -28.731 -21.760 -26.940  1.00  0.00     0.000 C 
BRANCH   5   6
ATOM      6  C   UNL     1     -27.595 -20.721 -26.967  1.00  0.00     0.000 C 
BRANCH   6   7
ATOM      7  C   UNL     1     -26.980 -20.474 -25.582  1.00  0.00     0.000 C 
BRANCH   7   8
ATOM      8  C   UNL     1     -28.035 -20.602 -24.477  1.00  0.00     0.000 C 
BRANCH   8   9
ATOM      9  C   UNL     1     -27.371 -20.862 -23.118  1.00  0.00     0.000 C 
BRANCH   9  10
ATOM     10  C   UNL     1     -28.266 -21.665 -22.161  1.00  0.00     0.000 C 
BRANCH  10  11
ATOM     11  C   UNL     1     -27.473 -22.596 -21.218  1.00  0.00     0.000 C 
BRANCH  11  12
ATOM     12  C   UNL     1     -25.965 -22.581 -21.528  1.00  0.00     0.000 C 
BRANCH  12  13
ATOM     13  C   UNL     1     -25.254 -23.874 -21.104  1.00  0.00     0.006 C 
BRANCH  13  14
ATOM     14  C   UNL     1     -23.869 -24.032 -21.748  1.00  0.00     0.053 C 
BRANCH  14  15
ATOM     15  C   UNL     1     -23.874 -25.138 -22.759  1.00  0.00     0.041 C 
ATOM     16  O   UNL     1     -22.788 -25.595 -23.206  1.00  0.00    -0.550 OA
ATOM     17  O   UNL     1     -25.081 -25.673 -23.200  1.00  0.00    -0.550 OA
ENDBRANCH  14  15
ENDBRANCH  13  14
ENDBRANCH  12  13
ENDBRANCH  11  12
ENDBRANCH  10  11
ENDBRANCH   9  10
ENDBRANCH   8   9
ENDBRANCH   7   8
ENDBRANCH   6   7
ENDBRANCH   5   6
ENDBRANCH   4   5
ENDBRANCH   3   4
ENDBRANCH   2   3
ENDBRANCH   1   2
BRANCH   1  18
ATOM     18  C   UNL     1     -30.777 -18.876 -30.311  1.00  0.00     0.000 C 
BRANCH  18  19
ATOM     19  C   UNL     1     -29.522 -19.260 -31.122  1.00  0.00     0.000 C 
BRANCH  19  20
ATOM     20  C   UNL     1     -29.757 -19.321 -32.644  1.00  0.00     0.000 C 
BRANCH  20  21
ATOM     21  C   UNL     1     -29.198 -20.576 -33.341  1.00  0.00     0.000 C 
BRANCH  21  22
ATOM     22  C   UNL     1     -30.071 -21.123 -34.485  1.00  0.00     0.000 C 
BRANCH  22  23
ATOM     23  C   UNL     1     -31.542 -21.312 -34.078  1.00  0.00     0.000 C 
BRANCH  23  24
ATOM     24  C   UNL     1     -32.249 -22.402 -34.903  1.00  0.00    -0.000 C 
BRANCH  24  25
ATOM     25  C   UNL     1     -33.519 -21.935 -35.642  1.00  0.00    -0.000 C 
BRANCH  25  26
ATOM     26  C   UNL     1     -33.323 -21.588 -37.132  1.00  0.00    -0.000 C 
BRANCH  26  27
ATOM     27  C   UNL     1     -31.952 -21.977 -37.714  1.00  0.00    -0.000 C 
BRANCH  27  28
ATOM     28  C   UNL     1     -32.065 -22.871 -38.957  1.00  0.00    -0.000 C 
BRANCH  28  29
ATOM     29  C   UNL     1     -31.429 -24.244 -38.705  1.00  0.00    -0.000 C 
BRANCH  29  30
ATOM     30  C   UNL     1     -32.466 -25.236 -38.157  1.00  0.00    -0.000 C 
BRANCH  30  31
ATOM     31  C   UNL     1     -32.581 -26.504 -39.017  1.00  0.00    -0.003 C 
ATOM     32  C   UNL     1     -33.077 -27.715 -38.228  1.00  0.00     0.004 C 
ENDBRANCH  30  31
ENDBRANCH  29  30
ENDBRANCH  28  29
ENDBRANCH  27  28
ENDBRANCH  26  27
ENDBRANCH  25  26
ENDBRANCH  24  25
ENDBRANCH  23  24
ENDBRANCH  22  23
ENDBRANCH  21  22
ENDBRANCH  20  21
ENDBRANCH  19  20
ENDBRANCH  18  19
ENDBRANCH   1  18
TORSDOF 28
ENDMDL
MODEL 9
REMARK VINA RESULT:     7.376      5.028     13.372
REMARK INTER + INTRA:          18.689
REMARK INTER:                  19.223
REMARK INTRA:                  -0.534
REMARK UNBOUND:                -0.761
REMARK SMILES CCCCCCCCCCCCCCCCCCCCCCCCCCCCCC(=O)[O-]
REMARK SMILES IDX 16 1 17 2 18 3 19 4 20 5 21 6 22 7 23 8 24 9 25 10 26 11
REMARK SMILES IDX 27 12 28 13 29 14 30 15 31 16 32 17 15 18 14 19 13 20 12 21
REMARK SMILES IDX 11 22 10 23 9 24 8 25 7 26 6 27 5 28 4 29 3 30 2 31 1 32
REMARK H PARENT
REMARK Flexibility Score: inf
ROOT
ATOM      1  C   UNL     1     -30.480 -19.009 -30.930  1.00  0.00     0.000 C 
ENDROOT
BRANCH   1   2
ATOM      2  C   UNL     1     -29.758 -20.135 -30.160  1.00  0.00     0.000 C 
BRANCH   2   3
ATOM      3  C   UNL     1     -30.599 -20.746 -29.028  1.00  0.00     0.000 C 
BRANCH   3   4
ATOM      4  C   UNL     1     -29.957 -22.004 -28.418  1.00  0.00     0.000 C 
BRANCH   4   5
ATOM      5  C   UNL     1     -28.682 -21.676 -27.610  1.00  0.00     0.000 C 
BRANCH   5   6
ATOM      6  C   UNL     1     -28.902 -21.662 -26.087  1.00  0.00     0.000 C 
BRANCH   6   7
ATOM      7  C   UNL     1     -27.800 -20.906 -25.333  1.00  0.00     0.000 C 
BRANCH   7   8
ATOM      8  C   UNL     1     -28.251 -20.540 -23.914  1.00  0.00     0.000 C 
BRANCH   8   9
ATOM      9  C   UNL     1     -28.518 -21.803 -23.085  1.00  0.00     0.000 C 
BRANCH   9  10
ATOM     10  C   UNL     1     -27.846 -21.763 -21.703  1.00  0.00     0.000 C 
BRANCH  10  11
ATOM     11  C   UNL     1     -26.346 -22.130 -21.742  1.00  0.00     0.000 C 
BRANCH  11  12
ATOM     12  C   UNL     1     -26.078 -23.520 -21.139  1.00  0.00     0.000 C 
BRANCH  12  13
ATOM     13  C   UNL     1     -24.609 -23.951 -21.260  1.00  0.00     0.006 C 
BRANCH  13  14
ATOM     14  C   UNL     1     -24.356 -24.882 -22.456  1.00  0.00     0.053 C 
BRANCH  14  15
ATOM     15  C   UNL     1     -22.968 -25.444 -22.411  1.00  0.00     0.041 C 
ATOM     16  O   UNL     1     -22.368 -25.741 -23.479  1.00  0.00    -0.550 OA
ATOM     17  O   UNL     1     -22.331 -25.629 -21.188  1.00  0.00    -0.550 OA
ENDBRANCH  14  15
ENDBRANCH  13  14
ENDBRANCH  12  13
ENDBRANCH  11  12
ENDBRANCH  10  11
ENDBRANCH   9  10
ENDBRANCH   8   9
ENDBRANCH   7   8
ENDBRANCH   6   7
ENDBRANCH   5   6
ENDBRANCH   4   5
ENDBRANCH   3   4
ENDBRANCH   2   3
ENDBRANCH   1   2
BRANCH   1  18
ATOM     18  C   UNL     1     -30.616 -19.317 -32.432  1.00  0.00     0.000 C 
BRANCH  18  19
ATOM     19  C   UNL     1     -29.514 -20.273 -32.938  1.00  0.00     0.000 C 
BRANCH  19  20
ATOM     20  C   UNL     1     -30.006 -21.296 -33.980  1.00  0.00     0.000 C 
BRANCH  20  21
ATOM     21  C   UNL     1     -31.519 -21.584 -33.949  1.00  0.00     0.000 C 
BRANCH  21  22
ATOM     22  C   UNL     1     -32.413 -20.386 -34.318  1.00  0.00     0.000 C 
BRANCH  22  23
ATOM     23  C   UNL     1     -33.656 -20.793 -35.127  1.00  0.00     0.000 C 
BRANCH  23  24
ATOM     24  C   UNL     1     -33.351 -21.881 -36.173  1.00  0.00    -0.000 C 
BRANCH  24  25
ATOM     25  C   UNL     1     -32.323 -21.475 -37.248  1.00  0.00    -0.000 C 
BRANCH  25  26
ATOM     26  C   UNL     1     -32.676 -21.901 -38.688  1.00  0.00    -0.000 C 
BRANCH  26  27
ATOM     27  C   UNL     1     -32.237 -23.327 -39.069  1.00  0.00    -0.000 C 
BRANCH  27  28
ATOM     28  C   UNL     1     -31.815 -24.165 -37.853  1.00  0.00    -0.000 C 
BRANCH  28  29
ATOM     29  C   UNL     1     -31.526 -25.614 -38.261  1.00  0.00    -0.000 C 
BRANCH  29  30
ATOM     30  C   UNL     1     -32.665 -26.178 -39.125  1.00  0.00    -0.000 C 
BRANCH  30  31
ATOM     31  C   UNL     1     -33.381 -27.363 -38.457  1.00  0.00    -0.003 C 
ATOM     32  C   UNL     1     -33.063 -28.702 -39.123  1.00  0.00     0.004 C 
ENDBRANCH  30  31
ENDBRANCH  29  30
ENDBRANCH  28  29
ENDBRANCH  27  28
ENDBRANCH  26  27
ENDBRANCH  25  26
ENDBRANCH  24  25
ENDBRANCH  23  24
ENDBRANCH  22  23
ENDBRANCH  21  22
ENDBRANCH  20  21
ENDBRANCH  19  20
ENDBRANCH  18  19
ENDBRANCH   1  18
TORSDOF 28
ENDMDL
