MODEL 1
REMARK VINA RESULT:    -5.268      0.000      0.000
REMARK INTER + INTRA:         -11.251
REMARK INTER:                  -9.887
REMARK INTRA:                  -1.364
REMARK UNBOUND:                -1.364
REMARK SMILES O=C([O-])CCCCCCCCCCCCCCC(=O)[O-]
REMARK SMILES IDX 10 1 9 2 8 3 7 4 6 5 5 6 4 7 2 8 1 9 3 10 11 11 12 12 13 13
REMARK SMILES IDX 14 14 15 15 16 16 17 17 18 18 19 19 20 20
REMARK H PARENT
REMARK Flexibility Score: inf
ROOT
ATOM      1  C   UNL     1      -6.432  65.275  53.099  1.00  0.00     0.000 C 
ENDROOT
BRANCH   1   2
ATOM      2  C   UNL     1      -6.347  66.310  51.962  1.00  0.00     0.000 C 
BRANCH   2   3
ATOM      3  C   UNL     1      -5.569  65.796  50.739  1.00  0.00     0.000 C 
BRANCH   3   4
ATOM      4  C   UNL     1      -6.158  64.496  50.156  1.00  0.00     0.000 C 
BRANCH   4   5
ATOM      5  C   UNL     1      -7.186  64.689  49.026  1.00  0.00     0.000 C 
BRANCH   5   6
ATOM      6  C   UNL     1      -8.641  64.626  49.521  1.00  0.00     0.006 C 
BRANCH   6   7
ATOM      7  C   UNL     1      -9.592  64.064  48.456  1.00  0.00     0.053 C 
BRANCH   7   8
ATOM      8  C   UNL     1      -9.234  62.658  48.077  1.00  0.00     0.041 C 
ATOM      9  O   UNL     1      -8.919  62.381  46.890  1.00  0.00    -0.550 OA
ATOM     10  O   UNL     1      -9.279  61.650  49.031  1.00  0.00    -0.550 OA
ENDBRANCH   7   8
ENDBRANCH   6   7
ENDBRANCH   5   6
ENDBRANCH   4   5
ENDBRANCH   3   4
ENDBRANCH   2   3
ENDBRANCH   1   2
BRANCH   1  11
ATOM     11  C   UNL     1      -7.796  64.578  53.255  1.00  0.00     0.000 C 
BRANCH  11  12
ATOM     12  C   UNL     1      -7.671  63.100  53.665  1.00  0.00     0.000 C 
BRANCH  12  13
ATOM     13  C   UNL     1      -6.341  62.474  53.216  1.00  0.00     0.000 C 
BRANCH  13  14
ATOM     14  C   UNL     1      -5.763  61.506  54.264  1.00  0.00     0.000 C 
BRANCH  14  15
ATOM     15  C   UNL     1      -6.835  60.971  55.227  1.00  0.00     0.000 C 
BRANCH  15  16
ATOM     16  C   UNL     1      -6.274  59.951  56.233  1.00  0.00     0.006 C 
BRANCH  16  17
ATOM     17  C   UNL     1      -5.078  59.174  55.665  1.00  0.00     0.053 C 
BRANCH  17  18
ATOM     18  C   UNL     1      -3.894  59.226  56.579  1.00  0.00     0.041 C 
ATOM     19  O   UNL     1      -3.394  60.335  56.907  1.00  0.00    -0.550 OA
ATOM     20  O   UNL     1      -3.323  58.049  57.047  1.00  0.00    -0.550 OA
ENDBRANCH  17  18
ENDBRANCH  16  17
ENDBRANCH  15  16
ENDBRANCH  14  15
ENDBRANCH  13  14
ENDBRANCH  12  13
ENDBRANCH  11  12
ENDBRANCH   1  11
TORSDOF 15
ENDMDL
MODEL 2
REMARK VINA RESULT:    -5.246      0.935      8.215
REMARK INTER + INTRA:         -11.211
REMARK INTER:                  -9.788
REMARK INTRA:                  -1.423
REMARK UNBOUND:                -1.364
REMARK SMILES O=C([O-])CCCCCCCCCCCCCCC(=O)[O-]
REMARK SMILES IDX 10 1 9 2 8 3 7 4 6 5 5 6 4 7 2 8 1 9 3 10 11 11 12 12 13 13
REMARK SMILES IDX 14 14 15 15 16 16 17 17 18 18 19 19 20 20
REMARK H PARENT
REMARK Flexibility Score: inf
ROOT
ATOM      1  C   UNL     1      -7.626  63.251  53.635  1.00  0.00     0.000 C 
ENDROOT
BRANCH   1   2
ATOM      2  C   UNL     1      -6.223  62.634  53.494  1.00  0.00     0.000 C 
BRANCH   2   3
ATOM      3  C   UNL     1      -6.133  61.212  54.070  1.00  0.00     0.000 C 
BRANCH   3   4
ATOM      4  C   UNL     1      -6.706  61.103  55.497  1.00  0.00     0.000 C 
BRANCH   4   5
ATOM      5  C   UNL     1      -6.276  59.852  56.285  1.00  0.00     0.000 C 
BRANCH   5   6
ATOM      6  C   UNL     1      -5.332  58.934  55.489  1.00  0.00     0.006 C 
BRANCH   6   7
ATOM      7  C   UNL     1      -4.037  58.632  56.253  1.00  0.00     0.053 C 
BRANCH   7   8
ATOM      8  C   UNL     1      -3.455  59.867  56.872  1.00  0.00     0.041 C 
ATOM      9  O   UNL     1      -3.399  59.983  58.125  1.00  0.00    -0.550 OA
ATOM     10  O   UNL     1      -3.002  60.901  56.064  1.00  0.00    -0.550 OA
ENDBRANCH   7   8
ENDBRANCH   6   7
ENDBRANCH   5   6
ENDBRANCH   4   5
ENDBRANCH   3   4
ENDBRANCH   2   3
ENDBRANCH   1   2
BRANCH   1  11
ATOM     11  C   UNL     1      -7.737  64.736  53.241  1.00  0.00     0.000 C 
BRANCH  11  12
ATOM     12  C   UNL     1      -6.368  65.414  53.063  1.00  0.00     0.000 C 
BRANCH  12  13
ATOM     13  C   UNL     1      -6.409  66.566  52.045  1.00  0.00     0.000 C 
BRANCH  13  14
ATOM     14  C   UNL     1      -5.538  66.288  50.807  1.00  0.00     0.000 C 
BRANCH  14  15
ATOM     15  C   UNL     1      -5.779  64.889  50.217  1.00  0.00     0.000 C 
BRANCH  15  16
ATOM     16  C   UNL     1      -7.096  64.796  49.428  1.00  0.00     0.006 C 
BRANCH  16  17
ATOM     17  C   UNL     1      -7.784  63.436  49.608  1.00  0.00     0.053 C 
BRANCH  17  18
ATOM     18  C   UNL     1      -8.996  63.304  48.739  1.00  0.00     0.041 C 
ATOM     19  O   UNL     1      -9.222  62.228  48.125  1.00  0.00    -0.550 OA
ATOM     20  O   UNL     1      -9.862  64.380  48.583  1.00  0.00    -0.550 OA
ENDBRANCH  17  18
ENDBRANCH  16  17
ENDBRANCH  15  16
ENDBRANCH  14  15
ENDBRANCH  13  14
ENDBRANCH  12  13
ENDBRANCH  11  12
ENDBRANCH   1  11
TORSDOF 15
ENDMDL
MODEL 3
REMARK VINA RESULT:    -5.127      6.652     12.728
REMARK INTER + INTRA:         -10.987
REMARK INTER:                  -9.620
REMARK INTRA:                  -1.368
REMARK UNBOUND:                -1.364
REMARK SMILES O=C([O-])CCCCCCCCCCCCCCC(=O)[O-]
REMARK SMILES IDX 10 1 9 2 8 3 7 4 6 5 5 6 4 7 2 8 1 9 3 10 11 11 12 12 13 13
REMARK SMILES IDX 14 14 15 15 16 16 17 17 18 18 19 19 20 20
REMARK H PARENT
REMARK Flexibility Score: inf
ROOT
ATOM      1  C   UNL     1      -9.946  63.998  42.283  1.00  0.00     0.000 C 
ENDROOT
BRANCH   1   2
ATOM      2  C   UNL     1      -9.605  62.501  42.401  1.00  0.00     0.000 C 
BRANCH   2   3
ATOM      3  C   UNL     1     -10.355  61.804  43.548  1.00  0.00     0.000 C 
BRANCH   3   4
ATOM      4  C   UNL     1      -9.446  61.473  44.748  1.00  0.00     0.000 C 
BRANCH   4   5
ATOM      5  C   UNL     1      -9.161  62.648  45.700  1.00  0.00     0.000 C 
BRANCH   5   6
ATOM      6  C   UNL     1      -9.319  62.272  47.183  1.00  0.00     0.006 C 
BRANCH   6   7
ATOM      7  C   UNL     1      -8.324  63.021  48.080  1.00  0.00     0.053 C 
BRANCH   7   8
ATOM      8  C   UNL     1      -8.974  64.163  48.800  1.00  0.00     0.041 C 
ATOM      9  O   UNL     1     -10.100  64.589  48.431  1.00  0.00    -0.550 OA
ATOM     10  O   UNL     1      -8.321  64.775  49.863  1.00  0.00    -0.550 OA
ENDBRANCH   7   8
ENDBRANCH   6   7
ENDBRANCH   5   6
ENDBRANCH   4   5
ENDBRANCH   3   4
ENDBRANCH   2   3
ENDBRANCH   1   2
BRANCH   1  11
ATOM     11  C   UNL     1      -9.077  64.796  41.293  1.00  0.00     0.000 C 
BRANCH  11  12
ATOM     12  C   UNL     1      -8.760  64.015  40.006  1.00  0.00     0.000 C 
BRANCH  12  13
ATOM     13  C   UNL     1      -9.555  64.529  38.794  1.00  0.00     0.000 C 
BRANCH  13  14
ATOM     14  C   UNL     1     -10.234  63.391  38.011  1.00  0.00     0.000 C 
BRANCH  14  15
ATOM     15  C   UNL     1     -10.328  62.089  38.822  1.00  0.00     0.000 C 
BRANCH  15  16
ATOM     16  C   UNL     1     -11.768  61.759  39.251  1.00  0.00     0.006 C 
BRANCH  16  17
ATOM     17  C   UNL     1     -11.825  60.581  40.233  1.00  0.00     0.053 C 
BRANCH  17  18
ATOM     18  C   UNL     1     -13.194  60.403  40.813  1.00  0.00     0.041 C 
ATOM     19  O   UNL     1     -14.212  60.508  40.079  1.00  0.00    -0.550 OA
ATOM     20  O   UNL     1     -13.348  60.150  42.171  1.00  0.00    -0.550 OA
ENDBRANCH  17  18
ENDBRANCH  16  17
ENDBRANCH  15  16
ENDBRANCH  14  15
ENDBRANCH  13  14
ENDBRANCH  12  13
ENDBRANCH  11  12
ENDBRANCH   1  11
TORSDOF 15
ENDMDL
MODEL 4
REMARK VINA RESULT:    -5.012      2.053      3.853
REMARK INTER + INTRA:         -10.771
REMARK INTER:                  -9.378
REMARK INTRA:                  -1.394
REMARK UNBOUND:                -1.364
REMARK SMILES O=C([O-])CCCCCCCCCCCCCCC(=O)[O-]
REMARK SMILES IDX 10 1 9 2 8 3 7 4 6 5 5 6 4 7 2 8 1 9 3 10 11 11 12 12 13 13
REMARK SMILES IDX 14 14 15 15 16 16 17 17 18 18 19 19 20 20
REMARK H PARENT
REMARK Flexibility Score: inf
ROOT
ATOM      1  C   UNL     1      -6.151  64.015  49.771  1.00  0.00     0.000 C 
ENDROOT
BRANCH   1   2
ATOM      2  C   UNL     1      -7.554  63.416  49.559  1.00  0.00     0.000 C 
BRANCH   2   3
ATOM      3  C   UNL     1      -8.662  64.482  49.524  1.00  0.00     0.000 C 
BRANCH   3   4
ATOM      4  C   UNL     1      -9.690  64.244  48.400  1.00  0.00     0.000 C 
BRANCH   4   5
ATOM      5  C   UNL     1      -9.103  64.154  46.980  1.00  0.00     0.000 C 
BRANCH   5   6
ATOM      6  C   UNL     1      -9.210  62.744  46.373  1.00  0.00     0.006 C 
BRANCH   6   7
ATOM      7  C   UNL     1      -9.193  62.771  44.839  1.00  0.00     0.053 C 
BRANCH   7   8
ATOM      8  C   UNL     1      -9.959  61.624  44.254  1.00  0.00     0.041 C 
ATOM      9  O   UNL     1     -10.097  60.554  44.904  1.00  0.00    -0.550 OA
ATOM     10  O   UNL     1     -10.496  61.727  42.977  1.00  0.00    -0.550 OA
ENDBRANCH   7   8
ENDBRANCH   6   7
ENDBRANCH   5   6
ENDBRANCH   4   5
ENDBRANCH   3   4
ENDBRANCH   2   3
ENDBRANCH   1   2
BRANCH   1  11
ATOM     11  C   UNL     1      -6.084  65.553  49.778  1.00  0.00     0.000 C 
BRANCH  11  12
ATOM     12  C   UNL     1      -5.587  66.126  51.116  1.00  0.00     0.000 C 
BRANCH  12  13
ATOM     13  C   UNL     1      -6.672  66.104  52.206  1.00  0.00     0.000 C 
BRANCH  13  14
ATOM     14  C   UNL     1      -6.458  64.972  53.226  1.00  0.00     0.000 C 
BRANCH  14  15
ATOM     15  C   UNL     1      -7.629  63.977  53.259  1.00  0.00     0.000 C 
BRANCH  15  16
ATOM     16  C   UNL     1      -7.165  62.518  53.422  1.00  0.00     0.006 C 
BRANCH  16  17
ATOM     17  C   UNL     1      -7.427  61.983  54.836  1.00  0.00     0.053 C 
BRANCH  17  18
ATOM     18  C   UNL     1      -6.280  61.164  55.343  1.00  0.00     0.041 C 
ATOM     19  O   UNL     1      -5.095  61.505  55.086  1.00  0.00    -0.550 OA
ATOM     20  O   UNL     1      -6.520  60.008  56.076  1.00  0.00    -0.550 OA
ENDBRANCH  17  18
ENDBRANCH  16  17
ENDBRANCH  15  16
ENDBRANCH  14  15
ENDBRANCH  13  14
ENDBRANCH  12  13
ENDBRANCH  11  12
ENDBRANCH   1  11
TORSDOF 15
ENDMDL
MODEL 5
REMARK VINA RESULT:    -4.999      5.545      8.455
REMARK INTER + INTRA:         -10.746
REMARK INTER:                  -9.950
REMARK INTRA:                  -0.796
REMARK UNBOUND:                -1.364
REMARK SMILES O=C([O-])CCCCCCCCCCCCCCC(=O)[O-]
REMARK SMILES IDX 10 1 9 2 8 3 7 4 6 5 5 6 4 7 2 8 1 9 3 10 11 11 12 12 13 13
REMARK SMILES IDX 14 14 15 15 16 16 17 17 18 18 19 19 20 20
REMARK H PARENT
REMARK Flexibility Score: inf
ROOT
ATOM      1  C   UNL     1      -9.587  61.392  44.713  1.00  0.00     0.000 C 
ENDROOT
BRANCH   1   2
ATOM      2  C   UNL     1     -10.272  61.738  43.378  1.00  0.00     0.000 C 
BRANCH   2   3
ATOM      3  C   UNL     1      -9.862  63.117  42.834  1.00  0.00     0.000 C 
BRANCH   3   4
ATOM      4  C   UNL     1      -9.715  63.138  41.300  1.00  0.00     0.000 C 
BRANCH   4   5
ATOM      5  C   UNL     1      -9.907  61.780  40.602  1.00  0.00     0.000 C 
BRANCH   5   6
ATOM      6  C   UNL     1     -10.730  61.881  39.306  1.00  0.00     0.006 C 
BRANCH   6   7
ATOM      7  C   UNL     1     -12.238  61.783  39.568  1.00  0.00     0.053 C 
BRANCH   7   8
ATOM      8  C   UNL     1     -12.607  60.485  40.221  1.00  0.00     0.041 C 
ATOM      9  O   UNL     1     -12.567  59.411  39.566  1.00  0.00    -0.550 OA
ATOM     10  O   UNL     1     -13.022  60.469  41.546  1.00  0.00    -0.550 OA
ENDBRANCH   7   8
ENDBRANCH   6   7
ENDBRANCH   5   6
ENDBRANCH   4   5
ENDBRANCH   3   4
ENDBRANCH   2   3
ENDBRANCH   1   2
BRANCH   1  11
ATOM     11  C   UNL     1      -9.169  62.599  45.573  1.00  0.00     0.000 C 
BRANCH  11  12
ATOM     12  C   UNL     1      -9.167  62.290  47.080  1.00  0.00     0.000 C 
BRANCH  12  13
ATOM     13  C   UNL     1      -9.083  63.561  47.941  1.00  0.00     0.000 C 
BRANCH  13  14
ATOM     14  C   UNL     1      -7.974  63.479  49.005  1.00  0.00     0.000 C 
BRANCH  14  15
ATOM     15  C   UNL     1      -7.762  64.812  49.742  1.00  0.00     0.000 C 
BRANCH  15  16
ATOM     16  C   UNL     1      -6.303  65.021  50.184  1.00  0.00     0.006 C 
BRANCH  16  17
ATOM     17  C   UNL     1      -6.201  65.869  51.459  1.00  0.00     0.053 C 
BRANCH  17  18
ATOM     18  C   UNL     1      -6.554  65.082  52.682  1.00  0.00     0.041 C 
ATOM     19  O   UNL     1      -7.135  65.640  53.650  1.00  0.00    -0.550 OA
ATOM     20  O   UNL     1      -6.215  63.737  52.767  1.00  0.00    -0.550 OA
ENDBRANCH  17  18
ENDBRANCH  16  17
ENDBRANCH  15  16
ENDBRANCH  14  15
ENDBRANCH  13  14
ENDBRANCH  12  13
ENDBRANCH  11  12
ENDBRANCH   1  11
TORSDOF 15
ENDMDL
MODEL 6
REMARK VINA RESULT:    -4.982      5.121      7.697
REMARK INTER + INTRA:         -10.715
REMARK INTER:                  -9.968
REMARK INTRA:                  -0.747
REMARK UNBOUND:                -1.364
REMARK SMILES O=C([O-])CCCCCCCCCCCCCCC(=O)[O-]
REMARK SMILES IDX 10 1 9 2 8 3 7 4 6 5 5 6 4 7 2 8 1 9 3 10 11 11 12 12 13 13
REMARK SMILES IDX 14 14 15 15 16 16 17 17 18 18 19 19 20 20
REMARK H PARENT
REMARK Flexibility Score: inf
ROOT
ATOM      1  C   UNL     1      -9.075  62.541  45.619  1.00  0.00     0.000 C 
ENDROOT
BRANCH   1   2
ATOM      2  C   UNL     1      -9.542  61.372  44.731  1.00  0.00     0.000 C 
BRANCH   2   3
ATOM      3  C   UNL     1     -10.192  61.839  43.419  1.00  0.00     0.000 C 
BRANCH   3   4
ATOM      4  C   UNL     1      -9.747  63.253  42.996  1.00  0.00     0.000 C 
BRANCH   4   5
ATOM      5  C   UNL     1      -9.807  63.537  41.485  1.00  0.00     0.000 C 
BRANCH   5   6
ATOM      6  C   UNL     1      -9.617  62.274  40.627  1.00  0.00     0.006 C 
BRANCH   6   7
ATOM      7  C   UNL     1     -10.542  62.260  39.403  1.00  0.00     0.053 C 
BRANCH   7   8
ATOM      8  C   UNL     1     -11.767  61.430  39.641  1.00  0.00     0.041 C 
ATOM      9  O   UNL     1     -11.718  60.427  40.401  1.00  0.00    -0.550 OA
ATOM     10  O   UNL     1     -12.957  61.750  39.000  1.00  0.00    -0.550 OA
ENDBRANCH   7   8
ENDBRANCH   6   7
ENDBRANCH   5   6
ENDBRANCH   4   5
ENDBRANCH   3   4
ENDBRANCH   2   3
ENDBRANCH   1   2
BRANCH   1  11
ATOM     11  C   UNL     1      -9.138  62.284  47.136  1.00  0.00     0.000 C 
BRANCH  11  12
ATOM     12  C   UNL     1      -9.089  63.577  47.967  1.00  0.00     0.000 C 
BRANCH  12  13
ATOM     13  C   UNL     1      -8.108  63.483  49.147  1.00  0.00     0.000 C 
BRANCH  13  14
ATOM     14  C   UNL     1      -8.064  64.777  49.980  1.00  0.00     0.000 C 
BRANCH  14  15
ATOM     15  C   UNL     1      -6.659  65.082  50.523  1.00  0.00     0.000 C 
BRANCH  15  16
ATOM     16  C   UNL     1      -6.648  65.324  52.042  1.00  0.00     0.006 C 
BRANCH  16  17
ATOM     17  C   UNL     1      -7.828  64.640  52.746  1.00  0.00     0.053 C 
BRANCH  17  18
ATOM     18  C   UNL     1      -7.398  63.415  53.492  1.00  0.00     0.041 C 
ATOM     19  O   UNL     1      -6.324  62.832  53.189  1.00  0.00    -0.550 OA
ATOM     20  O   UNL     1      -8.198  62.900  54.505  1.00  0.00    -0.550 OA
ENDBRANCH  17  18
ENDBRANCH  16  17
ENDBRANCH  15  16
ENDBRANCH  14  15
ENDBRANCH  13  14
ENDBRANCH  12  13
ENDBRANCH  11  12
ENDBRANCH   1  11
TORSDOF 15
ENDMDL
MODEL 7
REMARK VINA RESULT:    -4.885      6.670     10.178
REMARK INTER + INTRA:         -10.531
REMARK INTER:                  -9.738
REMARK INTRA:                  -0.793
REMARK UNBOUND:                -1.364
REMARK SMILES O=C([O-])CCCCCCCCCCCCCCC(=O)[O-]
REMARK SMILES IDX 10 1 9 2 8 3 7 4 6 5 5 6 4 7 2 8 1 9 3 10 11 11 12 12 13 13
REMARK SMILES IDX 14 14 15 15 16 16 17 17 18 18 19 19 20 20
REMARK H PARENT
REMARK Flexibility Score: inf
ROOT
ATOM      1  C   UNL     1      -9.692  63.672  42.453  1.00  0.00     0.000 C 
ENDROOT
BRANCH   1   2
ATOM      2  C   UNL     1      -9.697  64.110  40.977  1.00  0.00     0.000 C 
BRANCH   2   3
ATOM      3  C   UNL     1      -9.553  62.930  40.001  1.00  0.00     0.000 C 
BRANCH   3   4
ATOM      4  C   UNL     1     -10.547  62.999  38.825  1.00  0.00     0.000 C 
BRANCH   4   5
ATOM      5  C   UNL     1     -11.827  62.161  38.994  1.00  0.00     0.000 C 
BRANCH   5   6
ATOM      6  C   UNL     1     -11.648  60.981  39.966  1.00  0.00     0.006 C 
BRANCH   6   7
ATOM      7  C   UNL     1     -12.634  59.840  39.679  1.00  0.00     0.053 C 
BRANCH   7   8
ATOM      8  C   UNL     1     -14.025  60.350  39.455  1.00  0.00     0.041 C 
ATOM      9  O   UNL     1     -14.669  60.875  40.401  1.00  0.00    -0.550 OA
ATOM     10  O   UNL     1     -14.621  60.217  38.207  1.00  0.00    -0.550 OA
ENDBRANCH   7   8
ENDBRANCH   6   7
ENDBRANCH   5   6
ENDBRANCH   4   5
ENDBRANCH   3   4
ENDBRANCH   2   3
ENDBRANCH   1   2
BRANCH   1  11
ATOM     11  C   UNL     1     -10.011  62.187  42.702  1.00  0.00     0.000 C 
BRANCH  11  12
ATOM     12  C   UNL     1      -9.978  61.807  44.192  1.00  0.00     0.000 C 
BRANCH  12  13
ATOM     13  C   UNL     1      -9.226  62.841  45.047  1.00  0.00     0.000 C 
BRANCH  13  14
ATOM     14  C   UNL     1      -9.063  62.388  46.509  1.00  0.00     0.000 C 
BRANCH  14  15
ATOM     15  C   UNL     1      -9.147  63.558  47.503  1.00  0.00     0.000 C 
BRANCH  15  16
ATOM     16  C   UNL     1      -8.545  63.215  48.877  1.00  0.00     0.006 C 
BRANCH  16  17
ATOM     17  C   UNL     1      -8.066  64.465  49.627  1.00  0.00     0.053 C 
BRANCH  17  18
ATOM     18  C   UNL     1      -6.575  64.499  49.760  1.00  0.00     0.041 C 
ATOM     19  O   UNL     1      -5.903  63.441  49.632  1.00  0.00    -0.550 OA
ATOM     20  O   UNL     1      -5.929  65.693  50.055  1.00  0.00    -0.550 OA
ENDBRANCH  17  18
ENDBRANCH  16  17
ENDBRANCH  15  16
ENDBRANCH  14  15
ENDBRANCH  13  14
ENDBRANCH  12  13
ENDBRANCH  11  12
ENDBRANCH   1  11
TORSDOF 15
ENDMDL
MODEL 8
REMARK VINA RESULT:    -4.844      5.878     12.024
REMARK INTER + INTRA:         -10.455
REMARK INTER:                  -9.645
REMARK INTRA:                  -0.811
REMARK UNBOUND:                -1.364
REMARK SMILES O=C([O-])CCCCCCCCCCCCCCC(=O)[O-]
REMARK SMILES IDX 10 1 9 2 8 3 7 4 6 5 5 6 4 7 2 8 1 9 3 10 11 11 12 12 13 13
REMARK SMILES IDX 14 14 15 15 16 16 17 17 18 18 19 19 20 20
REMARK H PARENT
REMARK Flexibility Score: inf
ROOT
ATOM      1  C   UNL     1      -9.665  61.573  44.661  1.00  0.00     0.000 C 
ENDROOT
BRANCH   1   2
ATOM      2  C   UNL     1      -9.004  62.586  45.613  1.00  0.00     0.000 C 
BRANCH   2   3
ATOM      3  C   UNL     1      -9.229  62.251  47.097  1.00  0.00     0.000 C 
BRANCH   3   4
ATOM      4  C   UNL     1      -9.171  63.492  48.009  1.00  0.00     0.000 C 
BRANCH   4   5
ATOM      5  C   UNL     1      -8.091  63.453  49.105  1.00  0.00     0.000 C 
BRANCH   5   6
ATOM      6  C   UNL     1      -7.655  64.853  49.570  1.00  0.00     0.006 C 
BRANCH   6   7
ATOM      7  C   UNL     1      -6.259  64.844  50.204  1.00  0.00     0.053 C 
BRANCH   7   8
ATOM      8  C   UNL     1      -6.327  64.838  51.702  1.00  0.00     0.041 C 
ATOM      9  O   UNL     1      -6.171  63.764  52.340  1.00  0.00    -0.550 OA
ATOM     10  O   UNL     1      -6.592  66.015  52.389  1.00  0.00    -0.550 OA
ENDBRANCH   7   8
ENDBRANCH   6   7
ENDBRANCH   5   6
ENDBRANCH   4   5
ENDBRANCH   3   4
ENDBRANCH   2   3
ENDBRANCH   1   2
BRANCH   1  11
ATOM     11  C   UNL     1     -10.020  62.114  43.264  1.00  0.00     0.000 C 
BRANCH  11  12
ATOM     12  C   UNL     1      -9.675  63.604  43.092  1.00  0.00     0.000 C 
BRANCH  12  13
ATOM     13  C   UNL     1      -9.899  64.098  41.653  1.00  0.00     0.000 C 
BRANCH  13  14
ATOM     14  C   UNL     1      -9.424  63.079  40.601  1.00  0.00     0.000 C 
BRANCH  14  15
ATOM     15  C   UNL     1     -10.157  63.231  39.259  1.00  0.00     0.000 C 
BRANCH  15  16
ATOM     16  C   UNL     1     -11.335  62.252  39.111  1.00  0.00     0.006 C 
BRANCH  16  17
ATOM     17  C   UNL     1     -11.178  61.017  40.008  1.00  0.00     0.053 C 
BRANCH  17  18
ATOM     18  C   UNL     1     -12.469  60.273  40.164  1.00  0.00     0.041 C 
ATOM     19  O   UNL     1     -13.079  60.287  41.265  1.00  0.00    -0.550 OA
ATOM     20  O   UNL     1     -12.983  59.541  39.101  1.00  0.00    -0.550 OA
ENDBRANCH  17  18
ENDBRANCH  16  17
ENDBRANCH  15  16
ENDBRANCH  14  15
ENDBRANCH  13  14
ENDBRANCH  12  13
ENDBRANCH  11  12
ENDBRANCH   1  11
TORSDOF 15
ENDMDL
MODEL 9
REMARK VINA RESULT:    -4.818     12.759     14.969
REMARK INTER + INTRA:         -10.406
REMARK INTER:                  -9.314
REMARK INTRA:                  -1.092
REMARK UNBOUND:                -1.364
REMARK SMILES O=C([O-])CCCCCCCCCCCCCCC(=O)[O-]
REMARK SMILES IDX 10 1 9 2 8 3 7 4 6 5 5 6 4 7 2 8 1 9 3 10 11 11 12 12 13 13
REMARK SMILES IDX 14 14 15 15 16 16 17 17 18 18 19 19 20 20
REMARK H PARENT
REMARK Flexibility Score: inf
ROOT
ATOM      1  C   UNL     1     -11.815  50.744  53.881  1.00  0.00     0.000 C 
ENDROOT
BRANCH   1   2
ATOM      2  C   UNL     1     -12.530  50.979  52.538  1.00  0.00     0.000 C 
BRANCH   2   3
ATOM      3  C   UNL     1     -13.490  49.838  52.162  1.00  0.00     0.000 C 
BRANCH   3   4
ATOM      4  C   UNL     1     -14.163  49.190  53.388  1.00  0.00     0.000 C 
BRANCH   4   5
ATOM      5  C   UNL     1     -14.681  47.756  53.173  1.00  0.00     0.000 C 
BRANCH   5   6
ATOM      6  C   UNL     1     -16.195  47.621  53.412  1.00  0.00     0.006 C 
BRANCH   6   7
ATOM      7  C   UNL     1     -16.957  48.897  53.031  1.00  0.00     0.053 C 
BRANCH   7   8
ATOM      8  C   UNL     1     -18.064  49.193  53.998  1.00  0.00     0.041 C 
ATOM      9  O   UNL     1     -18.329  48.386  54.927  1.00  0.00    -0.550 OA
ATOM     10  O   UNL     1     -18.822  50.347  53.852  1.00  0.00    -0.550 OA
ENDBRANCH   7   8
ENDBRANCH   6   7
ENDBRANCH   5   6
ENDBRANCH   4   5
ENDBRANCH   3   4
ENDBRANCH   2   3
ENDBRANCH   1   2
BRANCH   1  11
ATOM     11  C   UNL     1     -10.350  51.215  53.940  1.00  0.00     0.000 C 
BRANCH  11  12
ATOM     12  C   UNL     1      -9.431  50.228  54.679  1.00  0.00     0.000 C 
BRANCH  12  13
ATOM     13  C   UNL     1     -10.175  48.964  55.142  1.00  0.00     0.000 C 
BRANCH  13  14
ATOM     14  C   UNL     1      -9.257  47.983  55.893  1.00  0.00     0.000 C 
BRANCH  14  15
ATOM     15  C   UNL     1      -9.423  48.070  57.419  1.00  0.00     0.000 C 
BRANCH  15  16
ATOM     16  C   UNL     1      -8.160  48.594  58.125  1.00  0.00     0.006 C 
BRANCH  16  17
ATOM     17  C   UNL     1      -7.013  48.859  57.140  1.00  0.00     0.053 C 
BRANCH  17  18
ATOM     18  C   UNL     1      -6.529  50.274  57.215  1.00  0.00     0.041 C 
ATOM     19  O   UNL     1      -7.339  51.210  57.446  1.00  0.00    -0.550 OA
ATOM     20  O   UNL     1      -5.187  50.563  57.002  1.00  0.00    -0.550 OA
ENDBRANCH  17  18
ENDBRANCH  16  17
ENDBRANCH  15  16
ENDBRANCH  14  15
ENDBRANCH  13  14
ENDBRANCH  12  13
ENDBRANCH  11  12
ENDBRANCH   1  11
TORSDOF 15
ENDMDL
