MODEL 1
REMARK VINA RESULT:    -6.114      0.000      0.000
REMARK INTER + INTRA:          -6.488
REMARK INTER:                  -6.472
REMARK INTRA:                  -0.016
REMARK UNBOUND:                -0.016
REMARK SMILES O=C([O-])c1cccnc1
REMARK SMILES IDX 4 1 5 2 9 3 6 4 8 5 7 6 2 7 1 8 3 9
REMARK H PARENT
REMARK Flexibility Score: inf
ROOT
ATOM      1  C   UNL     1       8.963  -4.546  -1.451  1.00  0.00     0.016 A 
ATOM      2  C   UNL     1       9.807  -3.465  -1.149  1.00  0.00     0.013 A 
ATOM      3  C   UNL     1       8.995  -5.074  -2.754  1.00  0.00     0.120 A 
ATOM      4  C   UNL     1      10.650  -2.937  -2.130  1.00  0.00     0.021 A 
ATOM      5  N   UNL     1       9.825  -4.542  -3.691  1.00  0.00    -0.264 NA
ATOM      6  C   UNL     1      10.645  -3.495  -3.409  1.00  0.00     0.111 A 
ENDROOT
BRANCH   1   7
ATOM      7  C   UNL     1       8.067  -5.113  -0.422  1.00  0.00     0.073 C 
ATOM      8  O   UNL     1       8.506  -5.930   0.430  1.00  0.00    -0.545 OA
ATOM      9  O   UNL     1       6.725  -4.754  -0.382  1.00  0.00    -0.545 OA
ENDBRANCH   1   7
TORSDOF 1
ENDMDL
MODEL 2
REMARK VINA RESULT:    -5.876      1.717      2.016
REMARK INTER + INTRA:          -6.235
REMARK INTER:                  -6.215
REMARK INTRA:                  -0.021
REMARK UNBOUND:                -0.016
REMARK SMILES O=C([O-])c1cccnc1
REMARK SMILES IDX 4 1 5 2 9 3 6 4 8 5 7 6 2 7 1 8 3 9
REMARK H PARENT
REMARK Flexibility Score: inf
ROOT
ATOM      1  C   UNL     1       9.625  -3.601  -1.121  1.00  0.00     0.016 A 
ATOM      2  C   UNL     1      10.562  -3.009  -1.982  1.00  0.00     0.013 A 
ATOM      3  C   UNL     1       8.882  -4.698  -1.595  1.00  0.00     0.120 A 
ATOM      4  C   UNL     1      10.739  -3.506  -3.275  1.00  0.00     0.021 A 
ATOM      5  N   UNL     1       9.074  -5.163  -2.857  1.00  0.00    -0.264 NA
ATOM      6  C   UNL     1       9.978  -4.596  -3.700  1.00  0.00     0.111 A 
ENDROOT
BRANCH   1   7
ATOM      7  C   UNL     1       9.428  -3.084   0.250  1.00  0.00     0.073 C 
ATOM      8  O   UNL     1      10.414  -2.717   0.943  1.00  0.00    -0.545 OA
ATOM      9  O   UNL     1       8.152  -2.998   0.793  1.00  0.00    -0.545 OA
ENDBRANCH   1   7
TORSDOF 1
ENDMDL
MODEL 3
REMARK VINA RESULT:    -5.831      0.940      1.931
REMARK INTER + INTRA:          -6.188
REMARK INTER:                  -6.172
REMARK INTRA:                  -0.016
REMARK UNBOUND:                -0.016
REMARK SMILES O=C([O-])c1cccnc1
REMARK SMILES IDX 4 1 5 2 9 3 6 4 8 5 7 6 2 7 1 8 3 9
REMARK H PARENT
REMARK Flexibility Score: inf
ROOT
ATOM      1  C   UNL     1       8.946  -4.488  -1.385  1.00  0.00     0.016 A 
ATOM      2  C   UNL     1       9.019  -5.019  -2.683  1.00  0.00     0.013 A 
ATOM      3  C   UNL     1       9.781  -3.405  -1.058  1.00  0.00     0.120 A 
ATOM      4  C   UNL     1       9.905  -4.473  -3.615  1.00  0.00     0.021 A 
ATOM      5  N   UNL     1      10.635  -2.892  -1.984  1.00  0.00    -0.264 NA
ATOM      6  C   UNL     1      10.713  -3.399  -3.243  1.00  0.00     0.111 A 
ENDROOT
BRANCH   1   7
ATOM      7  C   UNL     1       8.013  -5.057  -0.389  1.00  0.00     0.073 C 
ATOM      8  O   UNL     1       6.798  -4.726  -0.389  1.00  0.00    -0.545 OA
ATOM      9  O   UNL     1       8.465  -5.964   0.561  1.00  0.00    -0.545 OA
ENDBRANCH   1   7
TORSDOF 1
ENDMDL
MODEL 4
REMARK VINA RESULT:    -5.680      2.681      3.229
REMARK INTER + INTRA:          -6.029
REMARK INTER:                  -6.006
REMARK INTRA:                  -0.022
REMARK UNBOUND:                -0.016
REMARK SMILES O=C([O-])c1cccnc1
REMARK SMILES IDX 4 1 5 2 9 3 6 4 8 5 7 6 2 7 1 8 3 9
REMARK H PARENT
REMARK Flexibility Score: inf
ROOT
ATOM      1  C   UNL     1       9.325  -4.182  -1.753  1.00  0.00     0.016 A 
ATOM      2  C   UNL     1      10.170  -3.084  -1.524  1.00  0.00     0.013 A 
ATOM      3  C   UNL     1       8.365  -4.501  -0.777  1.00  0.00     0.120 A 
ATOM      4  C   UNL     1      10.048  -2.339  -0.349  1.00  0.00     0.021 A 
ATOM      5  N   UNL     1       8.266  -3.759   0.358  1.00  0.00    -0.264 NA
ATOM      6  C   UNL     1       9.080  -2.695   0.590  1.00  0.00     0.111 A 
ENDROOT
BRANCH   1   7
ATOM      7  C   UNL     1       9.445  -4.979  -2.993  1.00  0.00     0.073 C 
ATOM      8  O   UNL     1       9.003  -6.157  -3.042  1.00  0.00    -0.545 OA
ATOM      9  O   UNL     1      10.050  -4.438  -4.121  1.00  0.00    -0.545 OA
ENDBRANCH   1   7
TORSDOF 1
ENDMDL
MODEL 5
REMARK VINA RESULT:    -5.444      1.409      1.834
REMARK INTER + INTRA:          -5.779
REMARK INTER:                  -5.762
REMARK INTRA:                  -0.016
REMARK UNBOUND:                -0.016
REMARK SMILES O=C([O-])c1cccnc1
REMARK SMILES IDX 4 1 5 2 9 3 6 4 8 5 7 6 2 7 1 8 3 9
REMARK H PARENT
REMARK Flexibility Score: inf
ROOT
ATOM      1  C   UNL     1       9.108  -3.750  -0.616  1.00  0.00     0.016 A 
ATOM      2  C   UNL     1      10.110  -2.867  -1.052  1.00  0.00     0.013 A 
ATOM      3  C   UNL     1       8.648  -4.732  -1.511  1.00  0.00     0.120 A 
ATOM      4  C   UNL     1      10.624  -2.974  -2.346  1.00  0.00     0.021 A 
ATOM      5  N   UNL     1       9.166  -4.816  -2.765  1.00  0.00    -0.264 NA
ATOM      6  C   UNL     1      10.135  -3.966  -3.197  1.00  0.00     0.111 A 
ENDROOT
BRANCH   1   7
ATOM      7  C   UNL     1       8.555  -3.647   0.751  1.00  0.00     0.073 C 
ATOM      8  O   UNL     1       7.581  -2.885   0.993  1.00  0.00    -0.545 OA
ATOM      9  O   UNL     1       9.106  -4.387   1.791  1.00  0.00    -0.545 OA
ENDBRANCH   1   7
TORSDOF 1
ENDMDL
MODEL 6
REMARK VINA RESULT:    -5.293      2.962      3.903
REMARK INTER + INTRA:          -5.619
REMARK INTER:                  -5.596
REMARK INTRA:                  -0.023
REMARK UNBOUND:                -0.016
REMARK SMILES O=C([O-])c1cccnc1
REMARK SMILES IDX 4 1 5 2 9 3 6 4 8 5 7 6 2 7 1 8 3 9
REMARK H PARENT
REMARK Flexibility Score: inf
ROOT
ATOM      1  C   UNL     1       9.646  -3.888  -1.970  1.00  0.00     0.016 A 
ATOM      2  C   UNL     1       8.664  -4.821  -1.598  1.00  0.00     0.013 A 
ATOM      3  C   UNL     1      10.019  -2.904  -1.038  1.00  0.00     0.120 A 
ATOM      4  C   UNL     1       8.080  -4.757  -0.331  1.00  0.00     0.021 A 
ATOM      5  N   UNL     1       9.436  -2.863   0.190  1.00  0.00    -0.264 NA
ATOM      6  C   UNL     1       8.483  -3.760   0.559  1.00  0.00     0.111 A 
ENDROOT
BRANCH   1   7
ATOM      7  C   UNL     1      10.272  -3.946  -3.308  1.00  0.00     0.073 C 
ATOM      8  O   UNL     1      10.940  -2.972  -3.745  1.00  0.00    -0.545 OA
ATOM      9  O   UNL     1      10.128  -5.076  -4.104  1.00  0.00    -0.545 OA
ENDBRANCH   1   7
TORSDOF 1
ENDMDL
MODEL 7
REMARK VINA RESULT:    -5.175     15.055     15.738
REMARK INTER + INTRA:          -5.494
REMARK INTER:                  -5.476
REMARK INTRA:                  -0.018
REMARK UNBOUND:                -0.016
REMARK SMILES O=C([O-])c1cccnc1
REMARK SMILES IDX 4 1 5 2 9 3 6 4 8 5 7 6 2 7 1 8 3 9
REMARK H PARENT
REMARK Flexibility Score: inf
ROOT
ATOM      1  C   UNL     1      -4.509   2.798  -0.947  1.00  0.00     0.016 A 
ATOM      2  C   UNL     1      -5.172   2.352  -2.102  1.00  0.00     0.013 A 
ATOM      3  C   UNL     1      -4.153   1.848   0.027  1.00  0.00     0.120 A 
ATOM      4  C   UNL     1      -5.464   0.996  -2.263  1.00  0.00     0.021 A 
ATOM      5  N   UNL     1      -4.448   0.534  -0.155  1.00  0.00    -0.264 NA
ATOM      6  C   UNL     1      -5.090   0.092  -1.269  1.00  0.00     0.111 A 
ENDROOT
BRANCH   1   7
ATOM      7  C   UNL     1      -4.195   4.231  -0.765  1.00  0.00     0.073 C 
ATOM      8  O   UNL     1      -3.006   4.608  -0.586  1.00  0.00    -0.545 OA
ATOM      9  O   UNL     1      -5.208   5.182  -0.785  1.00  0.00    -0.545 OA
ENDBRANCH   1   7
TORSDOF 1
ENDMDL
MODEL 8
REMARK VINA RESULT:    -5.097      7.871      8.859
REMARK INTER + INTRA:          -5.411
REMARK INTER:                  -5.387
REMARK INTRA:                  -0.024
REMARK UNBOUND:                -0.016
REMARK SMILES O=C([O-])c1cccnc1
REMARK SMILES IDX 4 1 5 2 9 3 6 4 8 5 7 6 2 7 1 8 3 9
REMARK H PARENT
REMARK Flexibility Score: inf
ROOT
ATOM      1  C   UNL     1       9.013  -6.200   7.141  1.00  0.00     0.016 A 
ATOM      2  C   UNL     1      10.389  -6.465   7.239  1.00  0.00     0.013 A 
ATOM      3  C   UNL     1       8.402  -6.306   5.878  1.00  0.00     0.120 A 
ATOM      4  C   UNL     1      11.118  -6.820   6.102  1.00  0.00     0.021 A 
ATOM      5  N   UNL     1       9.134  -6.654   4.787  1.00  0.00    -0.264 NA
ATOM      6  C   UNL     1      10.467  -6.911   4.872  1.00  0.00     0.111 A 
ENDROOT
BRANCH   1   7
ATOM      7  C   UNL     1       8.231  -5.823   8.337  1.00  0.00     0.073 C 
ATOM      8  O   UNL     1       8.743  -5.893   9.485  1.00  0.00    -0.545 OA
ATOM      9  O   UNL     1       6.917  -5.388   8.209  1.00  0.00    -0.545 OA
ENDBRANCH   1   7
TORSDOF 1
ENDMDL
MODEL 9
REMARK VINA RESULT:    -4.883      6.283      7.547
REMARK INTER + INTRA:          -5.184
REMARK INTER:                  -5.168
REMARK INTRA:                  -0.017
REMARK UNBOUND:                -0.016
REMARK SMILES O=C([O-])c1cccnc1
REMARK SMILES IDX 4 1 5 2 9 3 6 4 8 5 7 6 2 7 1 8 3 9
REMARK H PARENT
REMARK Flexibility Score: inf
ROOT
ATOM      1  C   UNL     1       9.623  -6.596   4.359  1.00  0.00     0.016 A 
ATOM      2  C   UNL     1      10.809  -6.869   5.059  1.00  0.00     0.013 A 
ATOM      3  C   UNL     1       8.467  -6.287   5.099  1.00  0.00     0.120 A 
ATOM      4  C   UNL     1      10.825  -6.833   6.455  1.00  0.00     0.021 A 
ATOM      5  N   UNL     1       8.509  -6.258   6.458  1.00  0.00    -0.264 NA
ATOM      6  C   UNL     1       9.652  -6.522   7.144  1.00  0.00     0.111 A 
ENDROOT
BRANCH   1   7
ATOM      7  C   UNL     1       9.593  -6.631   2.881  1.00  0.00     0.073 C 
ATOM      8  O   UNL     1      10.167  -5.735   2.208  1.00  0.00    -0.545 OA
ATOM      9  O   UNL     1       8.930  -7.655   2.215  1.00  0.00    -0.545 OA
ENDBRANCH   1   7
TORSDOF 1
ENDMDL
