MODEL 1
REMARK VINA RESULT:    -6.291      0.000      0.000
REMARK INTER + INTRA:          -6.892
REMARK INTER:                  -6.659
REMARK INTRA:                  -0.233
REMARK UNBOUND:                -0.233
REMARK SMILES CC1=CC[C@@H]2[C@H]3[C@H](C(C)C)CC[C@]2(C)[C@@H]13
REMARK SMILES IDX 1 1 2 2 3 3 4 4 5 5 6 6 15 7 13 8 12 9 11 10 7 11 14 12 8 13
REMARK SMILES IDX 9 14 10 15
REMARK H PARENT
REMARK Flexibility Score: inf
ROOT
ATOM      1  C   UNL     1     144.497 148.676 160.989  1.00  0.00     0.039 C 
ATOM      2  C   UNL     1     143.124 148.084 160.878  1.00  0.00    -0.073 C 
ATOM      3  C   UNL     1     142.231 148.542 159.963  1.00  0.00    -0.027 C 
ATOM      4  C   UNL     1     140.849 147.885 159.885  1.00  0.00     0.031 C 
ATOM      5  C   UNL     1     140.715 146.766 160.969  1.00  0.00     0.003 C 
ATOM      6  C   UNL     1     141.243 147.345 162.304  1.00  0.00     0.004 C 
ATOM      7  C   UNL     1     142.658 146.956 161.802  1.00  0.00     0.024 C 
ATOM      8  C   UNL     1     141.956 145.842 160.988  1.00  0.00    -0.022 C 
ATOM      9  C   UNL     1     141.656 144.606 161.892  1.00  0.00     0.008 C 
ATOM     10  C   UNL     1     141.350 145.004 163.360  1.00  0.00     0.005 C 
ATOM     11  C   UNL     1     140.764 146.443 163.484  1.00  0.00    -0.005 C 
ATOM     12  C   UNL     1     142.574 145.402 159.639  1.00  0.00     0.012 C 
ENDROOT
BRANCH  11  13
ATOM     13  C   UNL     1     141.012 147.064 164.893  1.00  0.00    -0.014 C 
ATOM     14  C   UNL     1     142.492 147.353 165.194  1.00  0.00     0.007 C 
ATOM     15  C   UNL     1     140.179 148.338 165.100  1.00  0.00     0.007 C 
ENDBRANCH  11  13
TORSDOF 1
ENDMDL
MODEL 2
REMARK VINA RESULT:    -6.281      4.115      5.944
REMARK INTER + INTRA:          -6.881
REMARK INTER:                  -6.648
REMARK INTRA:                  -0.233
REMARK UNBOUND:                -0.233
REMARK SMILES CC1=CC[C@@H]2[C@H]3[C@H](C(C)C)CC[C@]2(C)[C@@H]13
REMARK SMILES IDX 1 1 2 2 3 3 4 4 5 5 6 6 15 7 13 8 12 9 11 10 7 11 14 12 8 13
REMARK SMILES IDX 9 14 10 15
REMARK H PARENT
REMARK Flexibility Score: inf
ROOT
ATOM      1  C   UNL     1     148.738 146.279 160.975  1.00  0.00     0.039 C 
ATOM      2  C   UNL     1     148.113 147.638 160.869  1.00  0.00    -0.073 C 
ATOM      3  C   UNL     1     148.557 148.549 159.965  1.00  0.00    -0.027 C 
ATOM      4  C   UNL     1     147.867 149.915 159.893  1.00  0.00     0.031 C 
ATOM      5  C   UNL     1     146.736 150.012 160.967  1.00  0.00     0.003 C 
ATOM      6  C   UNL     1     147.315 149.488 162.303  1.00  0.00     0.004 C 
ATOM      7  C   UNL     1     146.965 148.068 161.786  1.00  0.00     0.024 C 
ATOM      8  C   UNL     1     145.842 148.749 160.967  1.00  0.00    -0.022 C 
ATOM      9  C   UNL     1     144.591 149.011 161.861  1.00  0.00     0.008 C 
ATOM     10  C   UNL     1     144.967 149.314 163.336  1.00  0.00     0.005 C 
ATOM     11  C   UNL     1     146.390 149.934 163.478  1.00  0.00    -0.005 C 
ATOM     12  C   UNL     1     145.431 148.131 159.609  1.00  0.00     0.012 C 
ENDROOT
BRANCH  11  13
ATOM     13  C   UNL     1     147.003 149.690 164.891  1.00  0.00    -0.014 C 
ATOM     14  C   UNL     1     147.323 148.214 165.185  1.00  0.00     0.007 C 
ATOM     15  C   UNL     1     148.257 150.550 165.116  1.00  0.00     0.007 C 
ENDBRANCH  11  13
TORSDOF 1
ENDMDL
MODEL 3
REMARK VINA RESULT:    -6.269      6.824      8.453
REMARK INTER + INTRA:          -6.868
REMARK INTER:                  -6.635
REMARK INTRA:                  -0.233
REMARK UNBOUND:                -0.233
REMARK SMILES CC1=CC[C@@H]2[C@H]3[C@H](C(C)C)CC[C@]2(C)[C@@H]13
REMARK SMILES IDX 1 1 2 2 3 3 4 4 5 5 6 6 15 7 13 8 12 9 11 10 7 11 14 12 8 13
REMARK SMILES IDX 9 14 10 15
REMARK H PARENT
REMARK Flexibility Score: inf
ROOT
ATOM      1  C   UNL     1     146.253 142.036 161.029  1.00  0.00     0.039 C 
ATOM      2  C   UNL     1     147.621 142.637 160.905  1.00  0.00    -0.073 C 
ATOM      3  C   UNL     1     148.512 142.177 159.988  1.00  0.00    -0.027 C 
ATOM      4  C   UNL     1     149.889 142.842 159.897  1.00  0.00     0.031 C 
ATOM      5  C   UNL     1     150.021 143.972 160.970  1.00  0.00     0.003 C 
ATOM      6  C   UNL     1     149.505 143.402 162.313  1.00  0.00     0.004 C 
ATOM      7  C   UNL     1     148.084 143.777 161.815  1.00  0.00     0.024 C 
ATOM      8  C   UNL     1     148.774 144.888 160.987  1.00  0.00    -0.022 C 
ATOM      9  C   UNL     1     149.070 146.134 161.877  1.00  0.00     0.008 C 
ATOM     10  C   UNL     1     149.387 145.752 163.348  1.00  0.00     0.005 C 
ATOM     11  C   UNL     1     149.983 144.318 163.481  1.00  0.00    -0.005 C 
ATOM     12  C   UNL     1     148.145 145.310 159.638  1.00  0.00     0.012 C 
ENDROOT
BRANCH  11  13
ATOM     13  C   UNL     1     149.748 143.710 164.898  1.00  0.00    -0.014 C 
ATOM     14  C   UNL     1     148.271 143.418 165.212  1.00  0.00     0.007 C 
ATOM     15  C   UNL     1     150.587 142.440 165.110  1.00  0.00     0.007 C 
ENDBRANCH  11  13
TORSDOF 1
ENDMDL
MODEL 4
REMARK VINA RESULT:    -6.246      4.149      5.963
REMARK INTER + INTRA:          -6.844
REMARK INTER:                  -6.607
REMARK INTRA:                  -0.237
REMARK UNBOUND:                -0.233
REMARK SMILES CC1=CC[C@@H]2[C@H]3[C@H](C(C)C)CC[C@]2(C)[C@@H]13
REMARK SMILES IDX 1 1 2 2 3 3 4 4 5 5 6 6 15 7 13 8 12 9 11 10 7 11 14 12 8 13
REMARK SMILES IDX 9 14 10 15
REMARK H PARENT
REMARK Flexibility Score: inf
ROOT
ATOM      1  C   UNL     1     142.054 144.533 161.033  1.00  0.00     0.039 C 
ATOM      2  C   UNL     1     142.618 143.151 160.896  1.00  0.00    -0.073 C 
ATOM      3  C   UNL     1     142.120 142.274 159.986  1.00  0.00    -0.027 C 
ATOM      4  C   UNL     1     142.750 140.881 159.880  1.00  0.00     0.031 C 
ATOM      5  C   UNL     1     143.895 140.719 160.932  1.00  0.00     0.003 C 
ATOM      6  C   UNL     1     143.362 141.246 162.286  1.00  0.00     0.004 C 
ATOM      7  C   UNL     1     143.763 142.658 161.785  1.00  0.00     0.024 C 
ATOM      8  C   UNL     1     144.842 141.944 160.935  1.00  0.00    -0.022 C 
ATOM      9  C   UNL     1     146.096 141.615 161.802  1.00  0.00     0.008 C 
ATOM     10  C   UNL     1     145.733 141.305 163.279  1.00  0.00     0.005 C 
ATOM     11  C   UNL     1     144.288 140.743 163.437  1.00  0.00    -0.005 C 
ATOM     12  C   UNL     1     145.255 142.565 159.579  1.00  0.00     0.012 C 
ENDROOT
BRANCH  11  13
ATOM     13  C   UNL     1     143.711 140.990 164.865  1.00  0.00    -0.014 C 
ATOM     14  C   UNL     1     143.471 142.474 165.191  1.00  0.00     0.007 C 
ATOM     15  C   UNL     1     142.419 140.191 165.095  1.00  0.00     0.007 C 
ENDBRANCH  11  13
TORSDOF 1
ENDMDL
MODEL 5
REMARK VINA RESULT:    -6.201      4.634      6.694
REMARK INTER + INTRA:          -6.796
REMARK INTER:                  -6.393
REMARK INTRA:                  -0.403
REMARK UNBOUND:                -0.233
REMARK SMILES CC1=CC[C@@H]2[C@H]3[C@H](C(C)C)CC[C@]2(C)[C@@H]13
REMARK SMILES IDX 1 1 2 2 3 3 4 4 5 5 6 6 15 7 13 8 12 9 11 10 7 11 14 12 8 13
REMARK SMILES IDX 9 14 10 15
REMARK H PARENT
REMARK Flexibility Score: inf
ROOT
ATOM      1  C   UNL     1     148.359 150.568 165.207  1.00  0.00     0.039 C 
ATOM      2  C   UNL     1     147.311 149.756 164.507  1.00  0.00    -0.073 C 
ATOM      3  C   UNL     1     146.022 149.749 164.937  1.00  0.00    -0.027 C 
ATOM      4  C   UNL     1     144.992 148.913 164.171  1.00  0.00     0.031 C 
ATOM      5  C   UNL     1     145.676 148.155 162.988  1.00  0.00     0.003 C 
ATOM      6  C   UNL     1     146.971 147.507 163.537  1.00  0.00     0.004 C 
ATOM      7  C   UNL     1     147.646 148.883 163.295  1.00  0.00     0.024 C 
ATOM      8  C   UNL     1     146.601 149.090 162.172  1.00  0.00    -0.022 C 
ATOM      9  C   UNL     1     147.043 148.356 160.868  1.00  0.00     0.008 C 
ATOM     10  C   UNL     1     147.838 147.055 161.159  1.00  0.00     0.005 C 
ATOM     11  C   UNL     1     147.470 146.420 162.534  1.00  0.00    -0.005 C 
ATOM     12  C   UNL     1     146.116 150.525 161.861  1.00  0.00     0.012 C 
ENDROOT
BRANCH  11  13
ATOM     13  C   UNL     1     148.615 145.523 163.096  1.00  0.00    -0.014 C 
ATOM     14  C   UNL     1     149.964 145.716 162.384  1.00  0.00     0.007 C 
ATOM     15  C   UNL     1     148.791 145.718 164.610  1.00  0.00     0.007 C 
ENDBRANCH  11  13
TORSDOF 1
ENDMDL
MODEL 6
REMARK VINA RESULT:    -6.198      3.746      6.052
REMARK INTER + INTRA:          -6.793
REMARK INTER:                  -6.391
REMARK INTRA:                  -0.401
REMARK UNBOUND:                -0.233
REMARK SMILES CC1=CC[C@@H]2[C@H]3[C@H](C(C)C)CC[C@]2(C)[C@@H]13
REMARK SMILES IDX 1 1 2 2 3 3 4 4 5 5 6 6 15 7 13 8 12 9 11 10 7 11 14 12 8 13
REMARK SMILES IDX 9 14 10 15
REMARK H PARENT
REMARK Flexibility Score: inf
ROOT
ATOM      1  C   UNL     1     142.373 140.145 165.233  1.00  0.00     0.039 C 
ATOM      2  C   UNL     1     143.421 140.972 164.551  1.00  0.00    -0.073 C 
ATOM      3  C   UNL     1     144.706 140.984 164.993  1.00  0.00    -0.027 C 
ATOM      4  C   UNL     1     145.736 141.837 164.245  1.00  0.00     0.031 C 
ATOM      5  C   UNL     1     145.056 142.602 163.063  1.00  0.00     0.003 C 
ATOM      6  C   UNL     1     143.751 143.234 163.607  1.00  0.00     0.004 C 
ATOM      7  C   UNL     1     143.090 141.855 163.345  1.00  0.00     0.024 C 
ATOM      8  C   UNL     1     144.146 141.668 162.229  1.00  0.00    -0.022 C 
ATOM      9  C   UNL     1     143.710 142.412 160.929  1.00  0.00     0.008 C 
ATOM     10  C   UNL     1     142.902 143.704 161.226  1.00  0.00     0.005 C 
ATOM     11  C   UNL     1     143.253 144.327 162.611  1.00  0.00    -0.005 C 
ATOM     12  C   UNL     1     144.646 140.240 161.907  1.00  0.00     0.012 C 
ENDROOT
BRANCH  11  13
ATOM     13  C   UNL     1     142.096 145.210 163.172  1.00  0.00    -0.014 C 
ATOM     14  C   UNL     1     140.757 145.020 162.439  1.00  0.00     0.007 C 
ATOM     15  C   UNL     1     141.901 144.989 164.680  1.00  0.00     0.007 C 
ENDBRANCH  11  13
TORSDOF 1
ENDMDL
MODEL 7
REMARK VINA RESULT:    -6.195      6.589      8.024
REMARK INTER + INTRA:          -6.790
REMARK INTER:                  -6.389
REMARK INTRA:                  -0.402
REMARK UNBOUND:                -0.233
REMARK SMILES CC1=CC[C@@H]2[C@H]3[C@H](C(C)C)CC[C@]2(C)[C@@H]13
REMARK SMILES IDX 1 1 2 2 3 3 4 4 5 5 6 6 15 7 13 8 12 9 11 10 7 11 14 12 8 13
REMARK SMILES IDX 9 14 10 15
REMARK H PARENT
REMARK Flexibility Score: inf
ROOT
ATOM      1  C   UNL     1     150.610 142.385 165.210  1.00  0.00     0.039 C 
ATOM      2  C   UNL     1     149.777 143.436 164.539  1.00  0.00    -0.073 C 
ATOM      3  C   UNL     1     149.767 144.718 164.986  1.00  0.00    -0.027 C 
ATOM      4  C   UNL     1     148.909 145.751 164.249  1.00  0.00     0.031 C 
ATOM      5  C   UNL     1     148.136 145.076 163.069  1.00  0.00     0.003 C 
ATOM      6  C   UNL     1     147.509 143.768 163.611  1.00  0.00     0.004 C 
ATOM      7  C   UNL     1     148.887 143.109 163.337  1.00  0.00     0.024 C 
ATOM      8  C   UNL     1     149.065 144.171 162.225  1.00  0.00    -0.022 C 
ATOM      9  C   UNL     1     148.313 143.740 160.928  1.00  0.00     0.008 C 
ATOM     10  C   UNL     1     147.024 142.930 161.229  1.00  0.00     0.005 C 
ATOM     11  C   UNL     1     146.410 143.273 162.620  1.00  0.00    -0.005 C 
ATOM     12  C   UNL     1     150.491 144.673 161.896  1.00  0.00     0.012 C 
ENDROOT
BRANCH  11  13
ATOM     13  C   UNL     1     145.532 142.113 163.181  1.00  0.00    -0.014 C 
ATOM     14  C   UNL     1     145.719 140.777 162.443  1.00  0.00     0.007 C 
ATOM     15  C   UNL     1     145.761 141.913 164.688  1.00  0.00     0.007 C 
ENDBRANCH  11  13
TORSDOF 1
ENDMDL
MODEL 8
REMARK VINA RESULT:    -6.188      1.499      4.126
REMARK INTER + INTRA:          -6.783
REMARK INTER:                  -6.380
REMARK INTRA:                  -0.403
REMARK UNBOUND:                -0.233
REMARK SMILES CC1=CC[C@@H]2[C@H]3[C@H](C(C)C)CC[C@]2(C)[C@@H]13
REMARK SMILES IDX 1 1 2 2 3 3 4 4 5 5 6 6 15 7 13 8 12 9 11 10 7 11 14 12 8 13
REMARK SMILES IDX 9 14 10 15
REMARK H PARENT
REMARK Flexibility Score: inf
ROOT
ATOM      1  C   UNL     1     140.143 148.374 165.238  1.00  0.00     0.039 C 
ATOM      2  C   UNL     1     140.951 147.316 164.548  1.00  0.00    -0.073 C 
ATOM      3  C   UNL     1     140.950 146.031 164.987  1.00  0.00    -0.027 C 
ATOM      4  C   UNL     1     141.783 144.991 164.230  1.00  0.00     0.031 C 
ATOM      5  C   UNL     1     142.547 145.663 163.044  1.00  0.00     0.003 C 
ATOM      6  C   UNL     1     143.200 146.958 163.584  1.00  0.00     0.004 C 
ATOM      7  C   UNL     1     141.828 147.638 163.335  1.00  0.00     0.024 C 
ATOM      8  C   UNL     1     141.619 146.586 162.219  1.00  0.00    -0.022 C 
ATOM      9  C   UNL     1     142.357 147.015 160.913  1.00  0.00     0.008 C 
ATOM     10  C   UNL     1     143.662 147.805 161.201  1.00  0.00     0.005 C 
ATOM     11  C   UNL     1     144.292 147.444 162.580  1.00  0.00    -0.005 C 
ATOM     12  C   UNL     1     140.181 146.106 161.908  1.00  0.00     0.012 C 
ENDROOT
BRANCH  11  13
ATOM     13  C   UNL     1     145.194 148.589 163.135  1.00  0.00    -0.014 C 
ATOM     14  C   UNL     1     145.012 149.933 162.410  1.00  0.00     0.007 C 
ATOM     15  C   UNL     1     144.992 148.780 164.647  1.00  0.00     0.007 C 
ENDBRANCH  11  13
TORSDOF 1
ENDMDL
MODEL 9
REMARK VINA RESULT:    -6.086      2.196      4.362
REMARK INTER + INTRA:          -6.674
REMARK INTER:                  -6.434
REMARK INTRA:                  -0.240
REMARK UNBOUND:                -0.233
REMARK SMILES CC1=CC[C@@H]2[C@H]3[C@H](C(C)C)CC[C@]2(C)[C@@H]13
REMARK SMILES IDX 1 1 2 2 3 3 4 4 5 5 6 6 15 7 13 8 12 9 11 10 7 11 14 12 8 13
REMARK SMILES IDX 9 14 10 15
REMARK H PARENT
REMARK Flexibility Score: inf
ROOT
ATOM      1  C   UNL     1     141.768 146.839 161.099  1.00  0.00     0.039 C 
ATOM      2  C   UNL     1     141.944 147.043 162.574  1.00  0.00    -0.073 C 
ATOM      3  C   UNL     1     140.888 147.339 163.375  1.00  0.00    -0.027 C 
ATOM      4  C   UNL     1     141.127 147.520 164.877  1.00  0.00     0.031 C 
ATOM      5  C   UNL     1     142.645 147.350 165.211  1.00  0.00     0.003 C 
ATOM      6  C   UNL     1     143.445 148.179 164.178  1.00  0.00     0.004 C 
ATOM      7  C   UNL     1     143.319 146.950 163.240  1.00  0.00     0.024 C 
ATOM      8  C   UNL     1     143.241 146.096 164.529  1.00  0.00    -0.022 C 
ATOM      9  C   UNL     1     144.669 145.835 165.102  1.00  0.00     0.008 C 
ATOM     10  C   UNL     1     145.641 147.015 164.837  1.00  0.00     0.005 C 
ATOM     11  C   UNL     1     144.903 148.381 164.694  1.00  0.00    -0.005 C 
ATOM     12  C   UNL     1     142.407 144.794 164.511  1.00  0.00     0.012 C 
ENDROOT
BRANCH  11  13
ATOM     13  C   UNL     1     145.728 149.415 163.867  1.00  0.00    -0.014 C 
ATOM     14  C   UNL     1     145.022 149.892 162.586  1.00  0.00     0.007 C 
ATOM     15  C   UNL     1     146.130 150.626 164.723  1.00  0.00     0.007 C 
ENDBRANCH  11  13
TORSDOF 1
ENDMDL
