MODEL 1
REMARK VINA RESULT:    -3.668      0.000      0.000
REMARK INTER + INTRA:          -4.432
REMARK INTER:                  -4.311
REMARK INTRA:                  -0.121
REMARK UNBOUND:                -0.121
REMARK SMILES O=C([O-])CCC(=O)[O-]
REMARK SMILES IDX 4 1 2 2 1 3 3 4 5 5 6 6 7 7 8 8
REMARK H PARENT
REMARK Flexibility Score: inf
ROOT
ATOM      1  C   UNL     1     -10.631 -13.769   8.680  1.00  0.00     0.059 C 
ENDROOT
BRANCH   1   2
ATOM      2  C   UNL     1     -11.302 -15.105   8.640  1.00  0.00     0.042 C 
ATOM      3  O   UNL     1     -10.669 -16.142   8.971  1.00  0.00    -0.550 OA
ATOM      4  O   UNL     1     -12.611 -15.213   8.188  1.00  0.00    -0.550 OA
ENDBRANCH   1   2
BRANCH   1   5
ATOM      5  C   UNL     1     -10.918 -13.066  10.008  1.00  0.00     0.059 C 
BRANCH   5   6
ATOM      6  C   UNL     1     -12.130 -12.196   9.889  1.00  0.00     0.042 C 
ATOM      7  O   UNL     1     -13.229 -12.572  10.373  1.00  0.00    -0.550 OA
ATOM      8  O   UNL     1     -12.056 -10.991   9.201  1.00  0.00    -0.550 OA
ENDBRANCH   5   6
ENDBRANCH   1   5
TORSDOF 3
ENDMDL
MODEL 2
REMARK VINA RESULT:    -3.641      2.710      4.766
REMARK INTER + INTRA:          -4.401
REMARK INTER:                  -4.215
REMARK INTRA:                  -0.186
REMARK UNBOUND:                -0.121
REMARK SMILES O=C([O-])CCC(=O)[O-]
REMARK SMILES IDX 4 1 2 2 1 3 3 4 5 5 6 6 7 7 8 8
REMARK H PARENT
REMARK Flexibility Score: inf
ROOT
ATOM      1  C   UNL     1     -11.827  -9.621  11.154  1.00  0.00     0.059 C 
ENDROOT
BRANCH   1   2
ATOM      2  C   UNL     1     -12.652  -9.264   9.960  1.00  0.00     0.042 C 
ATOM      3  O   UNL     1     -13.890  -9.064  10.082  1.00  0.00    -0.550 OA
ATOM      4  O   UNL     1     -12.065  -9.201   8.703  1.00  0.00    -0.550 OA
ENDBRANCH   1   2
BRANCH   1   5
ATOM      5  C   UNL     1     -12.306 -10.940  11.762  1.00  0.00     0.059 C 
BRANCH   5   6
ATOM      6  C   UNL     1     -12.132 -12.061  10.786  1.00  0.00     0.042 C 
ATOM      7  O   UNL     1     -10.979 -12.400  10.412  1.00  0.00    -0.550 OA
ATOM      8  O   UNL     1     -13.245 -12.698  10.253  1.00  0.00    -0.550 OA
ENDBRANCH   5   6
ENDBRANCH   1   5
TORSDOF 3
ENDMDL
MODEL 3
REMARK VINA RESULT:    -3.624      2.744      3.859
REMARK INTER + INTRA:          -4.381
REMARK INTER:                  -4.212
REMARK INTRA:                  -0.169
REMARK UNBOUND:                -0.121
REMARK SMILES O=C([O-])CCC(=O)[O-]
REMARK SMILES IDX 4 1 2 2 1 3 3 4 5 5 6 6 7 7 8 8
REMARK H PARENT
REMARK Flexibility Score: inf
ROOT
ATOM      1  C   UNL     1     -12.319 -10.902  11.768  1.00  0.00     0.059 C 
ENDROOT
BRANCH   1   2
ATOM      2  C   UNL     1     -12.152 -12.018  10.788  1.00  0.00     0.042 C 
ATOM      3  O   UNL     1     -13.161 -12.612  10.325  1.00  0.00    -0.550 OA
ATOM      4  O   UNL     1     -10.879 -12.437  10.421  1.00  0.00    -0.550 OA
ENDBRANCH   1   2
BRANCH   1   5
ATOM      5  C   UNL     1     -11.805  -9.589  11.178  1.00  0.00     0.059 C 
BRANCH   5   6
ATOM      6  C   UNL     1     -12.569  -9.236   9.940  1.00  0.00     0.042 C 
ATOM      7  O   UNL     1     -11.961  -9.032   8.857  1.00  0.00    -0.550 OA
ATOM      8  O   UNL     1     -13.949  -9.084   9.994  1.00  0.00    -0.550 OA
ENDBRANCH   5   6
ENDBRANCH   1   5
TORSDOF 3
ENDMDL
MODEL 4
REMARK VINA RESULT:    -3.597      0.153      3.692
REMARK INTER + INTRA:          -4.348
REMARK INTER:                  -4.226
REMARK INTRA:                  -0.122
REMARK UNBOUND:                -0.121
REMARK SMILES O=C([O-])CCC(=O)[O-]
REMARK SMILES IDX 4 1 2 2 1 3 3 4 5 5 6 6 7 7 8 8
REMARK H PARENT
REMARK Flexibility Score: inf
ROOT
ATOM      1  C   UNL     1     -10.873 -13.086  10.039  1.00  0.00     0.059 C 
ENDROOT
BRANCH   1   2
ATOM      2  C   UNL     1     -12.028 -12.139   9.977  1.00  0.00     0.042 C 
ATOM      3  O   UNL     1     -13.152 -12.481  10.428  1.00  0.00    -0.550 OA
ATOM      4  O   UNL     1     -11.876 -10.896   9.376  1.00  0.00    -0.550 OA
ENDBRANCH   1   2
BRANCH   1   5
ATOM      5  C   UNL     1     -10.649 -13.747   8.678  1.00  0.00     0.059 C 
BRANCH   5   6
ATOM      6  C   UNL     1     -11.384 -15.048   8.600  1.00  0.00     0.042 C 
ATOM      7  O   UNL     1     -12.549 -15.089   8.126  1.00  0.00    -0.550 OA
ATOM      8  O   UNL     1     -10.801 -16.208   9.096  1.00  0.00    -0.550 OA
ENDBRANCH   5   6
ENDBRANCH   1   5
TORSDOF 3
ENDMDL
MODEL 5
REMARK VINA RESULT:    -3.591      1.890      3.063
REMARK INTER + INTRA:          -4.341
REMARK INTER:                  -4.195
REMARK INTRA:                  -0.147
REMARK UNBOUND:                -0.121
REMARK SMILES O=C([O-])CCC(=O)[O-]
REMARK SMILES IDX 4 1 2 2 1 3 3 4 5 5 6 6 7 7 8 8
REMARK H PARENT
REMARK Flexibility Score: inf
ROOT
ATOM      1  C   UNL     1     -10.905 -12.886  10.020  1.00  0.00     0.059 C 
ENDROOT
BRANCH   1   2
ATOM      2  C   UNL     1     -12.376 -12.875   9.756  1.00  0.00     0.042 C 
ATOM      3  O   UNL     1     -13.145 -12.187  10.478  1.00  0.00    -0.550 OA
ATOM      4  O   UNL     1     -12.907 -13.665   8.743  1.00  0.00    -0.550 OA
ENDBRANCH   1   2
BRANCH   1   5
ATOM      5  C   UNL     1     -10.272 -11.566   9.575  1.00  0.00     0.059 C 
BRANCH   5   6
ATOM      6  C   UNL     1     -10.232 -11.481   8.082  1.00  0.00     0.042 C 
ATOM      7  O   UNL     1      -9.366 -12.125   7.434  1.00  0.00    -0.550 OA
ATOM      8  O   UNL     1     -11.121 -10.652   7.409  1.00  0.00    -0.550 OA
ENDBRANCH   5   6
ENDBRANCH   1   5
TORSDOF 3
ENDMDL
MODEL 6
REMARK VINA RESULT:    -3.588      3.694      4.872
REMARK INTER + INTRA:          -4.339
REMARK INTER:                  -4.243
REMARK INTRA:                  -0.095
REMARK UNBOUND:                -0.121
REMARK SMILES O=C([O-])CCC(=O)[O-]
REMARK SMILES IDX 4 1 2 2 1 3 3 4 5 5 6 6 7 7 8 8
REMARK H PARENT
REMARK Flexibility Score: inf
ROOT
ATOM      1  C   UNL     1     -12.608  -9.744  10.640  1.00  0.00     0.059 C 
ENDROOT
BRANCH   1   2
ATOM      2  C   UNL     1     -12.233 -10.867  11.553  1.00  0.00     0.042 C 
ATOM      3  O   UNL     1     -12.058 -12.026  11.093  1.00  0.00    -0.550 OA
ATOM      4  O   UNL     1     -12.125 -10.645  12.920  1.00  0.00    -0.550 OA
ENDBRANCH   1   2
BRANCH   1   5
ATOM      5  C   UNL     1     -11.597  -8.602  10.753  1.00  0.00     0.059 C 
BRANCH   5   6
ATOM      6  C   UNL     1     -10.644  -8.629   9.599  1.00  0.00     0.042 C 
ATOM      7  O   UNL     1      -9.659  -9.411   9.610  1.00  0.00    -0.550 OA
ATOM      8  O   UNL     1     -10.818  -7.754   8.533  1.00  0.00    -0.550 OA
ENDBRANCH   5   6
ENDBRANCH   1   5
TORSDOF 3
ENDMDL
MODEL 7
REMARK VINA RESULT:    -3.576      2.197      4.128
REMARK INTER + INTRA:          -4.324
REMARK INTER:                  -4.153
REMARK INTRA:                  -0.170
REMARK UNBOUND:                -0.121
REMARK SMILES O=C([O-])CCC(=O)[O-]
REMARK SMILES IDX 4 1 2 2 1 3 3 4 5 5 6 6 7 7 8 8
REMARK H PARENT
REMARK Flexibility Score: inf
ROOT
ATOM      1  C   UNL     1     -11.267 -10.181  10.572  1.00  0.00     0.059 C 
ENDROOT
BRANCH   1   2
ATOM      2  C   UNL     1     -12.331 -10.563  11.551  1.00  0.00     0.042 C 
ATOM      3  O   UNL     1     -12.040 -10.750  12.761  1.00  0.00    -0.550 OA
ATOM      4  O   UNL     1     -13.635 -10.761  11.118  1.00  0.00    -0.550 OA
ENDBRANCH   1   2
BRANCH   1   5
ATOM      5  C   UNL     1     -10.279 -11.333  10.378  1.00  0.00     0.059 C 
BRANCH   5   6
ATOM      6  C   UNL     1     -10.935 -12.470   9.659  1.00  0.00     0.042 C 
ATOM      7  O   UNL     1     -10.781 -13.650  10.068  1.00  0.00    -0.550 OA
ATOM      8  O   UNL     1     -11.676 -12.231   8.508  1.00  0.00    -0.550 OA
ENDBRANCH   5   6
ENDBRANCH   1   5
TORSDOF 3
ENDMDL
MODEL 8
REMARK VINA RESULT:    -3.573      3.270      4.024
REMARK INTER + INTRA:          -4.321
REMARK INTER:                  -4.198
REMARK INTRA:                  -0.123
REMARK UNBOUND:                -0.121
REMARK SMILES O=C([O-])CCC(=O)[O-]
REMARK SMILES IDX 4 1 2 2 1 3 3 4 5 5 6 6 7 7 8 8
REMARK H PARENT
REMARK Flexibility Score: inf
ROOT
ATOM      1  C   UNL     1     -10.479 -11.357   7.404  1.00  0.00     0.059 C 
ENDROOT
BRANCH   1   2
ATOM      2  C   UNL     1     -10.909 -12.481   8.292  1.00  0.00     0.042 C 
ATOM      3  O   UNL     1     -10.493 -12.544   9.479  1.00  0.00    -0.550 OA
ATOM      4  O   UNL     1     -11.730 -13.485   7.795  1.00  0.00    -0.550 OA
ENDBRANCH   1   2
BRANCH   1   5
ATOM      5  C   UNL     1      -8.957 -11.207   7.427  1.00  0.00     0.059 C 
BRANCH   5   6
ATOM      6  C   UNL     1      -8.571  -9.873   7.984  1.00  0.00     0.042 C 
ATOM      7  O   UNL     1      -7.816  -9.108   7.328  1.00  0.00    -0.550 OA
ATOM      8  O   UNL     1      -9.006  -9.494   9.248  1.00  0.00    -0.550 OA
ENDBRANCH   5   6
ENDBRANCH   1   5
TORSDOF 3
ENDMDL
MODEL 9
REMARK VINA RESULT:    -3.570      1.963      2.775
REMARK INTER + INTRA:          -4.317
REMARK INTER:                  -4.201
REMARK INTRA:                  -0.116
REMARK UNBOUND:                -0.121
REMARK SMILES O=C([O-])CCC(=O)[O-]
REMARK SMILES IDX 4 1 2 2 1 3 3 4 5 5 6 6 7 7 8 8
REMARK H PARENT
REMARK Flexibility Score: inf
ROOT
ATOM      1  C   UNL     1     -11.324 -12.831   9.990  1.00  0.00     0.059 C 
ENDROOT
BRANCH   1   2
ATOM      2  C   UNL     1     -11.596 -12.840   8.520  1.00  0.00     0.042 C 
ATOM      3  O   UNL     1     -11.198 -11.889   7.797  1.00  0.00    -0.550 OA
ATOM      4  O   UNL     1     -12.332 -13.873   7.955  1.00  0.00    -0.550 OA
ENDBRANCH   1   2
BRANCH   1   5
ATOM      5  C   UNL     1     -12.435 -12.091  10.736  1.00  0.00     0.059 C 
BRANCH   5   6
ATOM      6  C   UNL     1     -11.887 -10.884  11.430  1.00  0.00     0.042 C 
ATOM      7  O   UNL     1     -11.207 -10.040  10.791  1.00  0.00    -0.550 OA
ATOM      8  O   UNL     1     -12.086 -10.716  12.796  1.00  0.00    -0.550 OA
ENDBRANCH   5   6
ENDBRANCH   1   5
TORSDOF 3
ENDMDL
