MODEL 1
REMARK VINA RESULT:    -7.066      0.000      0.000
REMARK INTER + INTRA:         -12.104
REMARK INTER:                 -10.370
REMARK INTRA:                  -1.734
REMARK UNBOUND:                -1.734
REMARK SMILES O=c1c(O[C@@H]2O[C@H](CO)[C@H](O)[C@@H](O)[C@H]2O)c(-c2ccc(O)c(O)c2)oc2cc(O)cc(O)c12
REMARK SMILES IDX 4 1 3 2 16 3 25 4 2 5 26 6 1 7 33 8 27 9 31 10 28 11 30 12
REMARK SMILES IDX 17 13 18 14 19 15 20 16 24 17 22 18 21 19 23 21 32 23 29 25
REMARK SMILES IDX 5 27 14 28 6 29 12 30 7 31 10 32 15 33 13 35 8 37 9 38 11 40
REMARK H PARENT 21 20 23 22 32 24 29 26 15 34 13 36 9 39 11 41
REMARK Flexibility Score: inf
ROOT
ATOM      1  O   UNL     1      -0.475 -20.337  28.018  1.00  0.00    -0.454 OA
ENDROOT
BRANCH   1   2
ATOM      2  C   UNL     1      -0.559 -21.626  28.560  1.00  0.00     0.214 A 
ATOM      3  C   UNL     1       0.000 -22.741  27.908  1.00  0.00     0.180 A 
ATOM      4  O   UNL     1      -0.196 -23.956  28.405  1.00  0.00    -0.452 OA
ATOM      5  C   UNL     1      -1.228 -21.813  29.776  1.00  0.00     0.239 A 
ATOM      6  C   UNL     1      -0.848 -24.187  29.538  1.00  0.00     0.146 A 
ATOM      7  O   UNL     1      -1.737 -20.809  30.339  1.00  0.00    -0.285 OA
ATOM      8  C   UNL     1      -1.359 -23.115  30.315  1.00  0.00     0.111 A 
ATOM      9  C   UNL     1      -1.021 -25.510  29.951  1.00  0.00     0.094 A 
ATOM     10  C   UNL     1      -2.003 -23.418  31.552  1.00  0.00     0.134 A 
ATOM     11  C   UNL     1      -1.705 -25.797  31.134  1.00  0.00     0.123 A 
ATOM     12  C   UNL     1      -2.191 -24.755  31.922  1.00  0.00     0.093 A 
BRANCH   3  13
ATOM     13  C   UNL     1       0.810 -22.614  26.674  1.00  0.00     0.025 A 
ATOM     14  C   UNL     1       2.196 -22.820  26.730  1.00  0.00     0.016 A 
ATOM     15  C   UNL     1       2.976 -22.701  25.578  1.00  0.00     0.051 A 
ATOM     16  C   UNL     1       2.382 -22.360  24.355  1.00  0.00     0.157 A 
ATOM     17  C   UNL     1       0.221 -22.247  25.450  1.00  0.00     0.062 A 
ATOM     18  C   UNL     1       0.999 -22.129  24.293  1.00  0.00     0.158 A 
BRANCH  16  19
ATOM     19  O   UNL     1       3.163 -22.248  23.205  1.00  0.00    -0.504 OA
ATOM     20  H   UNL     1       3.407 -21.345  22.815  1.00  0.00     0.293 HD
ENDBRANCH  16  19
BRANCH  18  21
ATOM     21  O   UNL     1       0.378 -21.779  23.094  1.00  0.00    -0.504 OA
ATOM     22  H   UNL     1      -0.504 -21.283  23.070  1.00  0.00     0.293 HD
ENDBRANCH  18  21
ENDBRANCH   3  13
BRANCH  10  23
ATOM     23  O   UNL     1      -2.449 -22.451  32.458  1.00  0.00    -0.507 OA
ATOM     24  H   UNL     1      -2.189 -22.412  33.431  1.00  0.00     0.293 HD
ENDBRANCH  10  23
BRANCH  11  25
ATOM     25  O   UNL     1      -1.897 -27.115  31.541  1.00  0.00    -0.508 OA
ATOM     26  H   UNL     1      -1.140 -27.666  31.929  1.00  0.00     0.293 HD
ENDBRANCH  11  25
ENDBRANCH   1   2
BRANCH   1  27
ATOM     27  C   UNL     1       0.540 -19.400  28.392  1.00  0.00     0.339 C 
ATOM     28  C   UNL     1       1.575 -19.223  27.269  1.00  0.00     0.214 C 
ATOM     29  O   UNL     1      -0.036 -18.166  28.800  1.00  0.00    -0.332 OA
ATOM     30  C   UNL     1       0.939 -18.502  26.073  1.00  0.00     0.180 C 
ATOM     31  C   UNL     1      -0.662 -17.441  27.746  1.00  0.00     0.179 C 
ATOM     32  C   UNL     1       0.288 -17.192  26.547  1.00  0.00     0.177 C 
BRANCH  28  33
ATOM     33  O   UNL     1       2.666 -18.486  27.766  1.00  0.00    -0.384 OA
ATOM     34  H   UNL     1       2.298 -17.811  28.395  1.00  0.00     0.211 HD
ENDBRANCH  28  33
BRANCH  30  35
ATOM     35  O   UNL     1       1.926 -18.235  25.110  1.00  0.00    -0.387 OA
ATOM     36  H   UNL     1       2.058 -19.070  24.589  1.00  0.00     0.211 HD
ENDBRANCH  30  35
BRANCH  31  37
ATOM     37  C   UNL     1      -2.036 -18.039  27.365  1.00  0.00     0.191 C 
BRANCH  37  38
ATOM     38  O   UNL     1      -2.674 -18.543  28.508  1.00  0.00    -0.394 OA
ATOM     39  H   UNL     1      -3.429 -17.927  28.696  1.00  0.00     0.210 HD
ENDBRANCH  37  38
ENDBRANCH  31  37
BRANCH  32  40
ATOM     40  O   UNL     1      -0.414 -16.585  25.491  1.00  0.00    -0.387 OA
ATOM     41  H   UNL     1      -1.143 -16.048  25.897  1.00  0.00     0.211 HD
ENDBRANCH  32  40
ENDBRANCH   1  27
TORSDOF 12
ENDMDL
MODEL 2
REMARK VINA RESULT:    -6.999      0.879      2.181
REMARK INTER + INTRA:         -12.005
REMARK INTER:                 -10.432
REMARK INTRA:                  -1.573
REMARK UNBOUND:                -1.734
REMARK SMILES O=c1c(O[C@@H]2O[C@H](CO)[C@H](O)[C@@H](O)[C@H]2O)c(-c2ccc(O)c(O)c2)oc2cc(O)cc(O)c12
REMARK SMILES IDX 4 1 3 2 16 3 25 4 2 5 26 6 1 7 33 8 27 9 31 10 28 11 30 12
REMARK SMILES IDX 17 13 18 14 19 15 20 16 24 17 22 18 21 19 23 21 32 23 29 25
REMARK SMILES IDX 5 27 14 28 6 29 12 30 7 31 10 32 15 33 13 35 8 37 9 38 11 40
REMARK H PARENT 21 20 23 22 32 24 29 26 15 34 13 36 9 39 11 41
REMARK Flexibility Score: inf
ROOT
ATOM      1  O   UNL     1      -0.384 -20.253  28.003  1.00  0.00    -0.454 OA
ENDROOT
BRANCH   1   2
ATOM      2  C   UNL     1      -0.461 -21.559  28.506  1.00  0.00     0.214 A 
ATOM      3  C   UNL     1       0.115 -22.649  27.826  1.00  0.00     0.180 A 
ATOM      4  O   UNL     1      -0.075 -23.880  28.284  1.00  0.00    -0.452 OA
ATOM      5  C   UNL     1      -1.141 -21.789  29.708  1.00  0.00     0.239 A 
ATOM      6  C   UNL     1      -0.737 -24.151  29.403  1.00  0.00     0.146 A 
ATOM      7  O   UNL     1      -1.665 -20.807  30.296  1.00  0.00    -0.285 OA
ATOM      8  C   UNL     1      -1.266 -23.108  30.207  1.00  0.00     0.111 A 
ATOM      9  C   UNL     1      -0.903 -25.487  29.774  1.00  0.00     0.094 A 
ATOM     10  C   UNL     1      -1.920 -23.453  31.427  1.00  0.00     0.134 A 
ATOM     11  C   UNL     1      -1.596 -25.815  30.940  1.00  0.00     0.123 A 
ATOM     12  C   UNL     1      -2.100 -24.802  31.754  1.00  0.00     0.093 A 
BRANCH   3  13
ATOM     13  C   UNL     1       0.936 -22.477  26.606  1.00  0.00     0.025 A 
ATOM     14  C   UNL     1       2.332 -22.389  26.716  1.00  0.00     0.016 A 
ATOM     15  C   UNL     1       3.122 -22.224  25.576  1.00  0.00     0.051 A 
ATOM     16  C   UNL     1       2.526 -22.131  24.310  1.00  0.00     0.157 A 
ATOM     17  C   UNL     1       0.340 -22.358  25.336  1.00  0.00     0.062 A 
ATOM     18  C   UNL     1       1.129 -22.194  24.192  1.00  0.00     0.158 A 
BRANCH  16  19
ATOM     19  O   UNL     1       3.318 -21.971  23.174  1.00  0.00    -0.504 OA
ATOM     20  H   UNL     1       3.754 -22.762  22.715  1.00  0.00     0.293 HD
ENDBRANCH  16  19
BRANCH  18  21
ATOM     21  O   UNL     1       0.504 -22.095  22.949  1.00  0.00    -0.504 OA
ATOM     22  H   UNL     1       1.011 -22.223  22.082  1.00  0.00     0.293 HD
ENDBRANCH  18  21
ENDBRANCH   3  13
BRANCH  10  23
ATOM     23  O   UNL     1      -2.384 -22.517  32.357  1.00  0.00    -0.507 OA
ATOM     24  H   UNL     1      -2.784 -22.748  33.253  1.00  0.00     0.293 HD
ENDBRANCH  10  23
BRANCH  11  25
ATOM     25  O   UNL     1      -1.781 -27.147  31.305  1.00  0.00    -0.508 OA
ATOM     26  H   UNL     1      -2.396 -27.760  30.783  1.00  0.00     0.293 HD
ENDBRANCH  11  25
ENDBRANCH   1   2
BRANCH   1  27
ATOM     27  C   UNL     1      -1.457 -19.629  27.293  1.00  0.00     0.339 C 
ATOM     28  C   UNL     1      -1.944 -18.363  28.019  1.00  0.00     0.214 C 
ATOM     29  O   UNL     1      -1.091 -19.373  25.943  1.00  0.00    -0.332 OA
ATOM     30  C   UNL     1      -0.870 -17.269  27.948  1.00  0.00     0.180 C 
ATOM     31  C   UNL     1      -0.085 -18.376  25.794  1.00  0.00     0.179 C 
ATOM     32  C   UNL     1      -0.462 -17.040  26.485  1.00  0.00     0.177 C 
BRANCH  28  33
ATOM     33  O   UNL     1      -3.137 -17.923  27.419  1.00  0.00    -0.384 OA
ATOM     34  H   UNL     1      -3.111 -16.930  27.414  1.00  0.00     0.211 HD
ENDBRANCH  28  33
BRANCH  30  35
ATOM     35  O   UNL     1      -1.377 -16.082  28.504  1.00  0.00    -0.387 OA
ATOM     36  H   UNL     1      -0.618 -15.621  28.948  1.00  0.00     0.211 HD
ENDBRANCH  30  35
BRANCH  31  37
ATOM     37  C   UNL     1       1.321 -18.911  26.151  1.00  0.00     0.191 C 
BRANCH  37  38
ATOM     38  O   UNL     1       2.253 -18.489  25.192  1.00  0.00    -0.394 OA
ATOM     39  H   UNL     1       2.618 -17.627  25.522  1.00  0.00     0.210 HD
ENDBRANCH  37  38
ENDBRANCH  31  37
BRANCH  32  40
ATOM     40  O   UNL     1       0.614 -16.138  26.412  1.00  0.00    -0.387 OA
ATOM     41  H   UNL     1       0.306 -15.285  26.815  1.00  0.00     0.211 HD
ENDBRANCH  32  40
ENDBRANCH   1  27
TORSDOF 12
ENDMDL
MODEL 3
REMARK VINA RESULT:    -6.938      2.053      7.282
REMARK INTER + INTRA:         -11.917
REMARK INTER:                 -10.095
REMARK INTRA:                  -1.822
REMARK UNBOUND:                -1.734
REMARK SMILES O=c1c(O[C@@H]2O[C@H](CO)[C@H](O)[C@@H](O)[C@H]2O)c(-c2ccc(O)c(O)c2)oc2cc(O)cc(O)c12
REMARK SMILES IDX 4 1 3 2 16 3 25 4 2 5 26 6 1 7 33 8 27 9 31 10 28 11 30 12
REMARK SMILES IDX 17 13 18 14 19 15 20 16 24 17 22 18 21 19 23 21 32 23 29 25
REMARK SMILES IDX 5 27 14 28 6 29 12 30 7 31 10 32 15 33 13 35 8 37 9 38 11 40
REMARK H PARENT 21 20 23 22 32 24 29 26 15 34 13 36 9 39 11 41
REMARK Flexibility Score: inf
ROOT
ATOM      1  O   UNL     1       0.325 -20.815  26.299  1.00  0.00    -0.454 OA
ENDROOT
BRANCH   1   2
ATOM      2  C   UNL     1      -0.283 -19.583  26.574  1.00  0.00     0.214 A 
ATOM      3  C   UNL     1      -0.865 -19.309  27.827  1.00  0.00     0.180 A 
ATOM      4  O   UNL     1      -1.523 -18.170  28.008  1.00  0.00    -0.452 OA
ATOM      5  C   UNL     1      -0.327 -18.604  25.575  1.00  0.00     0.239 A 
ATOM      6  C   UNL     1      -1.617 -17.224  27.080  1.00  0.00     0.146 A 
ATOM      7  O   UNL     1       0.183 -18.870  24.455  1.00  0.00    -0.285 OA
ATOM      8  C   UNL     1      -0.976 -17.371  25.822  1.00  0.00     0.111 A 
ATOM      9  C   UNL     1      -2.361 -16.078  27.369  1.00  0.00     0.094 A 
ATOM     10  C   UNL     1      -1.064 -16.299  24.885  1.00  0.00     0.134 A 
ATOM     11  C   UNL     1      -2.489 -15.061  26.421  1.00  0.00     0.123 A 
ATOM     12  C   UNL     1      -1.845 -15.178  25.190  1.00  0.00     0.093 A 
BRANCH   3  13
ATOM     13  C   UNL     1      -0.771 -20.249  28.967  1.00  0.00     0.025 A 
ATOM     14  C   UNL     1       0.157 -20.008  29.991  1.00  0.00     0.016 A 
ATOM     15  C   UNL     1       0.261 -20.885  31.073  1.00  0.00     0.051 A 
ATOM     16  C   UNL     1      -0.552 -22.025  31.139  1.00  0.00     0.157 A 
ATOM     17  C   UNL     1      -1.569 -21.407  29.025  1.00  0.00     0.062 A 
ATOM     18  C   UNL     1      -1.468 -22.288  30.107  1.00  0.00     0.158 A 
BRANCH  16  19
ATOM     19  O   UNL     1      -0.449 -22.896  32.222  1.00  0.00    -0.504 OA
ATOM     20  H   UNL     1       0.318 -22.837  32.881  1.00  0.00     0.293 HD
ENDBRANCH  16  19
BRANCH  18  21
ATOM     21  O   UNL     1      -2.285 -23.418  30.138  1.00  0.00    -0.504 OA
ATOM     22  H   UNL     1      -2.069 -24.252  29.605  1.00  0.00     0.293 HD
ENDBRANCH  18  21
ENDBRANCH   3  13
BRANCH  10  23
ATOM     23  O   UNL     1      -0.388 -16.275  23.661  1.00  0.00    -0.507 OA
ATOM     24  H   UNL     1       0.580 -16.018  23.544  1.00  0.00     0.293 HD
ENDBRANCH  10  23
BRANCH  11  25
ATOM     25  O   UNL     1      -3.245 -13.925  26.697  1.00  0.00    -0.508 OA
ATOM     26  H   UNL     1      -2.925 -13.220  27.351  1.00  0.00     0.293 HD
ENDBRANCH  11  25
ENDBRANCH   1   2
BRANCH   1  27
ATOM     27  C   UNL     1       1.729 -21.041  26.458  1.00  0.00     0.339 C 
ATOM     28  C   UNL     1       2.002 -22.126  27.514  1.00  0.00     0.214 C 
ATOM     29  O   UNL     1       2.339 -21.334  25.208  1.00  0.00    -0.332 OA
ATOM     30  C   UNL     1       1.542 -23.495  26.994  1.00  0.00     0.180 C 
ATOM     31  C   UNL     1       1.951 -22.586  24.650  1.00  0.00     0.179 C 
ATOM     32  C   UNL     1       2.182 -23.769  25.624  1.00  0.00     0.177 C 
BRANCH  28  33
ATOM     33  O   UNL     1       3.378 -22.146  27.803  1.00  0.00    -0.384 OA
ATOM     34  H   UNL     1       3.681 -21.200  27.841  1.00  0.00     0.211 HD
ENDBRANCH  28  33
BRANCH  30  35
ATOM     35  O   UNL     1       1.912 -24.491  27.913  1.00  0.00    -0.387 OA
ATOM     36  H   UNL     1       1.476 -25.334  27.619  1.00  0.00     0.211 HD
ENDBRANCH  30  35
BRANCH  31  37
ATOM     37  C   UNL     1       0.536 -22.531  24.030  1.00  0.00     0.191 C 
BRANCH  37  38
ATOM     38  O   UNL     1       0.405 -21.384  23.233  1.00  0.00    -0.394 OA
ATOM     39  H   UNL     1      -0.400 -20.909  23.564  1.00  0.00     0.210 HD
ENDBRANCH  37  38
ENDBRANCH  31  37
BRANCH  32  40
ATOM     40  O   UNL     1       1.669 -24.956  25.073  1.00  0.00    -0.387 OA
ATOM     41  H   UNL     1       1.463 -24.769  24.120  1.00  0.00     0.211 HD
ENDBRANCH  32  40
ENDBRANCH   1  27
TORSDOF 12
ENDMDL
MODEL 4
REMARK VINA RESULT:    -6.938      2.631      7.685
REMARK INTER + INTRA:         -11.916
REMARK INTER:                 -10.715
REMARK INTRA:                  -1.201
REMARK UNBOUND:                -1.734
REMARK SMILES O=c1c(O[C@@H]2O[C@H](CO)[C@H](O)[C@@H](O)[C@H]2O)c(-c2ccc(O)c(O)c2)oc2cc(O)cc(O)c12
REMARK SMILES IDX 4 1 3 2 16 3 25 4 2 5 26 6 1 7 33 8 27 9 31 10 28 11 30 12
REMARK SMILES IDX 17 13 18 14 19 15 20 16 24 17 22 18 21 19 23 21 32 23 29 25
REMARK SMILES IDX 5 27 14 28 6 29 12 30 7 31 10 32 15 33 13 35 8 37 9 38 11 40
REMARK H PARENT 21 20 23 22 32 24 29 26 15 34 13 36 9 39 11 41
REMARK Flexibility Score: inf
ROOT
ATOM      1  O   UNL     1       1.625 -23.332  27.600  1.00  0.00    -0.454 OA
ENDROOT
BRANCH   1   2
ATOM      2  C   UNL     1       0.973 -22.294  26.920  1.00  0.00     0.214 A 
ATOM      3  C   UNL     1      -0.166 -21.661  27.453  1.00  0.00     0.180 A 
ATOM      4  O   UNL     1      -0.812 -20.757  26.727  1.00  0.00    -0.452 OA
ATOM      5  C   UNL     1       1.459 -21.884  25.674  1.00  0.00     0.239 A 
ATOM      6  C   UNL     1      -0.407 -20.357  25.528  1.00  0.00     0.146 A 
ATOM      7  O   UNL     1       2.469 -22.469  25.203  1.00  0.00    -0.285 OA
ATOM      8  C   UNL     1       0.787 -20.866  24.954  1.00  0.00     0.111 A 
ATOM      9  C   UNL     1      -1.183 -19.421  24.840  1.00  0.00     0.094 A 
ATOM     10  C   UNL     1       1.204 -20.359  23.688  1.00  0.00     0.134 A 
ATOM     11  C   UNL     1      -0.795 -18.976  23.574  1.00  0.00     0.123 A 
ATOM     12  C   UNL     1       0.388 -19.447  23.008  1.00  0.00     0.093 A 
BRANCH   3  13
ATOM     13  C   UNL     1      -0.680 -21.966  28.808  1.00  0.00     0.025 A 
ATOM     14  C   UNL     1      -0.979 -23.292  29.155  1.00  0.00     0.016 A 
ATOM     15  C   UNL     1      -1.468 -23.597  30.427  1.00  0.00     0.051 A 
ATOM     16  C   UNL     1      -1.678 -22.579  31.367  1.00  0.00     0.157 A 
ATOM     17  C   UNL     1      -0.916 -20.943  29.746  1.00  0.00     0.062 A 
ATOM     18  C   UNL     1      -1.404 -21.245  31.022  1.00  0.00     0.158 A 
BRANCH  16  19
ATOM     19  O   UNL     1      -2.160 -22.887  32.638  1.00  0.00    -0.504 OA
ATOM     20  H   UNL     1      -2.858 -23.609  32.781  1.00  0.00     0.293 HD
ENDBRANCH  16  19
BRANCH  18  21
ATOM     21  O   UNL     1      -1.611 -20.208  31.930  1.00  0.00    -0.504 OA
ATOM     22  H   UNL     1      -1.065 -20.119  32.779  1.00  0.00     0.293 HD
ENDBRANCH  18  21
ENDBRANCH   3  13
BRANCH  10  23
ATOM     23  O   UNL     1       2.412 -20.697  23.071  1.00  0.00    -0.507 OA
ATOM     24  H   UNL     1       2.517 -20.914  22.092  1.00  0.00     0.293 HD
ENDBRANCH  10  23
BRANCH  11  25
ATOM     25  O   UNL     1      -1.575 -18.057  22.876  1.00  0.00    -0.508 OA
ATOM     26  H   UNL     1      -1.400 -17.847  21.900  1.00  0.00     0.293 HD
ENDBRANCH  11  25
ENDBRANCH   1   2
BRANCH   1  27
ATOM     27  C   UNL     1       2.926 -23.188  28.176  1.00  0.00     0.339 C 
ATOM     28  C   UNL     1       2.844 -23.026  29.703  1.00  0.00     0.214 C 
ATOM     29  O   UNL     1       3.774 -24.262  27.788  1.00  0.00    -0.332 OA
ATOM     30  C   UNL     1       2.383 -24.340  30.349  1.00  0.00     0.180 C 
ATOM     31  C   UNL     1       3.401 -25.522  28.336  1.00  0.00     0.179 C 
ATOM     32  C   UNL     1       3.288 -25.490  29.882  1.00  0.00     0.177 C 
BRANCH  28  33
ATOM     33  O   UNL     1       4.110 -22.655  30.192  1.00  0.00    -0.384 OA
ATOM     34  H   UNL     1       4.114 -21.664  30.266  1.00  0.00     0.211 HD
ENDBRANCH  28  33
BRANCH  30  35
ATOM     35  O   UNL     1       2.435 -24.215  31.748  1.00  0.00    -0.387 OA
ATOM     36  H   UNL     1       3.392 -24.264  32.008  1.00  0.00     0.211 HD
ENDBRANCH  30  35
BRANCH  31  37
ATOM     37  C   UNL     1       2.177 -26.131  27.615  1.00  0.00     0.191 C 
BRANCH  37  38
ATOM     38  O   UNL     1       2.294 -25.943  26.230  1.00  0.00    -0.394 OA
ATOM     39  H   UNL     1       2.977 -26.593  25.920  1.00  0.00     0.210 HD
ENDBRANCH  37  38
ENDBRANCH  31  37
BRANCH  32  40
ATOM     40  O   UNL     1       2.800 -26.720  30.357  1.00  0.00    -0.387 OA
ATOM     41  H   UNL     1       3.209 -26.872  31.248  1.00  0.00     0.211 HD
ENDBRANCH  32  40
ENDBRANCH   1  27
TORSDOF 12
ENDMDL
MODEL 5
REMARK VINA RESULT:    -6.886      2.391      7.336
REMARK INTER + INTRA:         -11.840
REMARK INTER:                 -10.521
REMARK INTRA:                  -1.319
REMARK UNBOUND:                -1.734
REMARK SMILES O=c1c(O[C@@H]2O[C@H](CO)[C@H](O)[C@@H](O)[C@H]2O)c(-c2ccc(O)c(O)c2)oc2cc(O)cc(O)c12
REMARK SMILES IDX 4 1 3 2 16 3 25 4 2 5 26 6 1 7 33 8 27 9 31 10 28 11 30 12
REMARK SMILES IDX 17 13 18 14 19 15 20 16 24 17 22 18 21 19 23 21 32 23 29 25
REMARK SMILES IDX 5 27 14 28 6 29 12 30 7 31 10 32 15 33 13 35 8 37 9 38 11 40
REMARK H PARENT 21 20 23 22 32 24 29 26 15 34 13 36 9 39 11 41
REMARK Flexibility Score: inf
ROOT
ATOM      1  O   UNL     1       0.501 -19.208  26.897  1.00  0.00    -0.454 OA
ENDROOT
BRANCH   1   2
ATOM      2  C   UNL     1      -0.304 -18.146  27.329  1.00  0.00     0.214 A 
ATOM      3  C   UNL     1      -0.918 -18.151  28.596  1.00  0.00     0.180 A 
ATOM      4  O   UNL     1      -1.757 -17.175  28.920  1.00  0.00    -0.452 OA
ATOM      5  C   UNL     1      -0.516 -17.058  26.475  1.00  0.00     0.239 A 
ATOM      6  C   UNL     1      -2.013 -16.138  28.132  1.00  0.00     0.146 A 
ATOM      7  O   UNL     1       0.027 -17.076  25.339  1.00  0.00    -0.285 OA
ATOM      8  C   UNL     1      -1.362 -15.998  26.878  1.00  0.00     0.111 A 
ATOM      9  C   UNL     1      -2.938 -15.184  28.563  1.00  0.00     0.094 A 
ATOM     10  C   UNL     1      -1.632 -14.835  26.097  1.00  0.00     0.134 A 
ATOM     11  C   UNL     1      -3.238 -14.080  27.762  1.00  0.00     0.123 A 
ATOM     12  C   UNL     1      -2.590 -13.914  26.540  1.00  0.00     0.093 A 
BRANCH   3  13
ATOM     13  C   UNL     1      -0.663 -19.213  29.596  1.00  0.00     0.025 A 
ATOM     14  C   UNL     1       0.544 -19.217  30.311  1.00  0.00     0.016 A 
ATOM     15  C   UNL     1       0.803 -20.212  31.257  1.00  0.00     0.051 A 
ATOM     16  C   UNL     1      -0.135 -21.227  31.490  1.00  0.00     0.157 A 
ATOM     17  C   UNL     1      -1.592 -20.247  29.815  1.00  0.00     0.062 A 
ATOM     18  C   UNL     1      -1.336 -21.245  30.762  1.00  0.00     0.158 A 
BRANCH  16  19
ATOM     19  O   UNL     1       0.124 -22.216  32.437  1.00  0.00    -0.504 OA
ATOM     20  H   UNL     1      -0.607 -22.585  33.034  1.00  0.00     0.293 HD
ENDBRANCH  16  19
BRANCH  18  21
ATOM     21  O   UNL     1      -2.286 -22.246  30.963  1.00  0.00    -0.504 OA
ATOM     22  H   UNL     1      -2.661 -22.794  30.198  1.00  0.00     0.293 HD
ENDBRANCH  18  21
ENDBRANCH   3  13
BRANCH  10  23
ATOM     23  O   UNL     1      -0.976 -14.527  24.902  1.00  0.00    -0.507 OA
ATOM     24  H   UNL     1      -0.621 -13.615  24.660  1.00  0.00     0.293 HD
ENDBRANCH  10  23
BRANCH  11  25
ATOM     25  O   UNL     1      -4.174 -13.136  28.179  1.00  0.00    -0.508 OA
ATOM     26  H   UNL     1      -4.290 -12.900  29.157  1.00  0.00     0.293 HD
ENDBRANCH  11  25
ENDBRANCH   1   2
BRANCH   1  27
ATOM     27  C   UNL     1      -0.027 -20.487  26.534  1.00  0.00     0.339 C 
ATOM     28  C   UNL     1      -0.897 -20.392  25.269  1.00  0.00     0.214 C 
ATOM     29  O   UNL     1       1.013 -21.448  26.407  1.00  0.00    -0.332 OA
ATOM     30  C   UNL     1      -0.020 -20.081  24.048  1.00  0.00     0.180 C 
ATOM     31  C   UNL     1       1.882 -21.219  25.302  1.00  0.00     0.179 C 
ATOM     32  C   UNL     1       1.120 -21.107  23.957  1.00  0.00     0.177 C 
BRANCH  28  33
ATOM     33  O   UNL     1      -1.578 -21.610  25.090  1.00  0.00    -0.384 OA
ATOM     34  H   UNL     1      -2.530 -21.448  25.324  1.00  0.00     0.211 HD
ENDBRANCH  28  33
BRANCH  30  35
ATOM     35  O   UNL     1      -0.808 -20.122  22.886  1.00  0.00    -0.387 OA
ATOM     36  H   UNL     1      -1.663 -19.664  23.098  1.00  0.00     0.211 HD
ENDBRANCH  30  35
BRANCH  31  37
ATOM     37  C   UNL     1       2.878 -20.069  25.574  1.00  0.00     0.191 C 
BRANCH  37  38
ATOM     38  O   UNL     1       2.483 -18.917  24.880  1.00  0.00    -0.394 OA
ATOM     39  H   UNL     1       1.607 -19.131  24.465  1.00  0.00     0.210 HD
ENDBRANCH  37  38
ENDBRANCH  31  37
BRANCH  32  40
ATOM     40  O   UNL     1       2.009 -20.760  22.925  1.00  0.00    -0.387 OA
ATOM     41  H   UNL     1       2.928 -20.892  23.275  1.00  0.00     0.211 HD
ENDBRANCH  32  40
ENDBRANCH   1  27
TORSDOF 12
ENDMDL
MODEL 6
REMARK VINA RESULT:    -6.852      1.993      7.311
REMARK INTER + INTRA:         -11.790
REMARK INTER:                 -10.256
REMARK INTRA:                  -1.534
REMARK UNBOUND:                -1.734
REMARK SMILES O=c1c(O[C@@H]2O[C@H](CO)[C@H](O)[C@@H](O)[C@H]2O)c(-c2ccc(O)c(O)c2)oc2cc(O)cc(O)c12
REMARK SMILES IDX 4 1 3 2 16 3 25 4 2 5 26 6 1 7 33 8 27 9 31 10 28 11 30 12
REMARK SMILES IDX 17 13 18 14 19 15 20 16 24 17 22 18 21 19 23 21 32 23 29 25
REMARK SMILES IDX 5 27 14 28 6 29 12 30 7 31 10 32 15 33 13 35 8 37 9 38 11 40
REMARK H PARENT 21 20 23 22 32 24 29 26 15 34 13 36 9 39 11 41
REMARK Flexibility Score: inf
ROOT
ATOM      1  O   UNL     1       0.657 -20.236  26.459  1.00  0.00    -0.454 OA
ENDROOT
BRANCH   1   2
ATOM      2  C   UNL     1      -0.092 -19.091  26.758  1.00  0.00     0.214 A 
ATOM      3  C   UNL     1      -0.772 -18.951  27.983  1.00  0.00     0.180 A 
ATOM      4  O   UNL     1      -1.555 -17.897  28.179  1.00  0.00    -0.452 OA
ATOM      5  C   UNL     1      -0.178 -18.064  25.811  1.00  0.00     0.239 A 
ATOM      6  C   UNL     1      -1.692 -16.913  27.299  1.00  0.00     0.146 A 
ATOM      7  O   UNL     1       0.422 -18.211  24.714  1.00  0.00    -0.285 OA
ATOM      8  C   UNL     1      -0.966 -16.920  26.080  1.00  0.00     0.111 A 
ATOM      9  C   UNL     1      -2.568 -15.867  27.599  1.00  0.00     0.094 A 
ATOM     10  C   UNL     1      -1.109 -15.809  25.196  1.00  0.00     0.134 A 
ATOM     11  C   UNL     1      -2.744 -14.814  26.698  1.00  0.00     0.123 A 
ATOM     12  C   UNL     1      -2.020 -14.792  25.508  1.00  0.00     0.093 A 
BRANCH   3  13
ATOM     13  C   UNL     1      -0.649 -19.942  29.076  1.00  0.00     0.025 A 
ATOM     14  C   UNL     1       0.364 -19.795  30.035  1.00  0.00     0.016 A 
ATOM     15  C   UNL     1       0.498 -20.722  31.071  1.00  0.00     0.051 A 
ATOM     16  C   UNL     1      -0.372 -21.818  31.155  1.00  0.00     0.157 A 
ATOM     17  C   UNL     1      -1.504 -21.058  29.149  1.00  0.00     0.062 A 
ATOM     18  C   UNL     1      -1.374 -21.988  30.186  1.00  0.00     0.158 A 
BRANCH  16  19
ATOM     19  O   UNL     1      -0.239 -22.739  32.193  1.00  0.00    -0.504 OA
ATOM     20  H   UNL     1       0.506 -22.667  32.876  1.00  0.00     0.293 HD
ENDBRANCH  16  19
BRANCH  18  21
ATOM     21  O   UNL     1      -2.249 -23.073  30.235  1.00  0.00    -0.504 OA
ATOM     22  H   UNL     1      -3.225 -22.989  29.977  1.00  0.00     0.293 HD
ENDBRANCH  18  21
ENDBRANCH   3  13
BRANCH  10  23
ATOM     23  O   UNL     1      -0.368 -15.644  24.021  1.00  0.00    -0.507 OA
ATOM     24  H   UNL     1      -0.764 -15.573  23.097  1.00  0.00     0.293 HD
ENDBRANCH  10  23
BRANCH  11  25
ATOM     25  O   UNL     1      -3.631 -13.778  26.984  1.00  0.00    -0.508 OA
ATOM     26  H   UNL     1      -4.074 -13.241  26.248  1.00  0.00     0.293 HD
ENDBRANCH  11  25
ENDBRANCH   1   2
BRANCH   1  27
ATOM     27  C   UNL     1       0.113 -21.360  25.760  1.00  0.00     0.339 C 
ATOM     28  C   UNL     1       0.723 -21.491  24.354  1.00  0.00     0.214 C 
ATOM     29  O   UNL     1       0.254 -22.550  26.527  1.00  0.00    -0.332 OA
ATOM     30  C   UNL     1       2.199 -21.897  24.456  1.00  0.00     0.180 C 
ATOM     31  C   UNL     1       1.602 -22.985  26.680  1.00  0.00     0.179 C 
ATOM     32  C   UNL     1       2.329 -23.160  25.322  1.00  0.00     0.177 C 
BRANCH  28  33
ATOM     33  O   UNL     1      -0.004 -22.453  23.629  1.00  0.00    -0.384 OA
ATOM     34  H   UNL     1       0.653 -22.969  23.091  1.00  0.00     0.211 HD
ENDBRANCH  28  33
BRANCH  30  35
ATOM     35  O   UNL     1       2.707 -22.136  23.168  1.00  0.00    -0.387 OA
ATOM     36  H   UNL     1       1.933 -22.360  22.587  1.00  0.00     0.211 HD
ENDBRANCH  30  35
BRANCH  31  37
ATOM     37  C   UNL     1       2.372 -22.138  27.718  1.00  0.00     0.191 C 
BRANCH  37  38
ATOM     38  O   UNL     1       3.291 -22.942  28.407  1.00  0.00    -0.394 OA
ATOM     39  H   UNL     1       2.967 -22.989  29.344  1.00  0.00     0.210 HD
ENDBRANCH  37  38
ENDBRANCH  31  37
BRANCH  32  40
ATOM     40  O   UNL     1       3.684 -23.469  25.536  1.00  0.00    -0.387 OA
ATOM     41  H   UNL     1       3.751 -24.457  25.596  1.00  0.00     0.211 HD
ENDBRANCH  32  40
ENDBRANCH   1  27
TORSDOF 12
ENDMDL
MODEL 7
REMARK VINA RESULT:    -6.816      7.371     10.660
REMARK INTER + INTRA:         -11.737
REMARK INTER:                 -11.110
REMARK INTRA:                  -0.627
REMARK UNBOUND:                -1.734
REMARK SMILES O=c1c(O[C@@H]2O[C@H](CO)[C@H](O)[C@@H](O)[C@H]2O)c(-c2ccc(O)c(O)c2)oc2cc(O)cc(O)c12
REMARK SMILES IDX 4 1 3 2 16 3 25 4 2 5 26 6 1 7 33 8 27 9 31 10 28 11 30 12
REMARK SMILES IDX 17 13 18 14 19 15 20 16 24 17 22 18 21 19 23 21 32 23 29 25
REMARK SMILES IDX 5 27 14 28 6 29 12 30 7 31 10 32 15 33 13 35 8 37 9 38 11 40
REMARK H PARENT 21 20 23 22 32 24 29 26 15 34 13 36 9 39 11 41
REMARK Flexibility Score: inf
ROOT
ATOM      1  O   UNL     1      -2.542 -12.925  30.152  1.00  0.00    -0.454 OA
ENDROOT
BRANCH   1   2
ATOM      2  C   UNL     1      -2.334 -13.529  28.905  1.00  0.00     0.214 A 
ATOM      3  C   UNL     1      -3.345 -14.270  28.264  1.00  0.00     0.180 A 
ATOM      4  O   UNL     1      -3.070 -14.913  27.136  1.00  0.00    -0.452 OA
ATOM      5  C   UNL     1      -1.084 -13.406  28.286  1.00  0.00     0.239 A 
ATOM      6  C   UNL     1      -1.892 -14.851  26.527  1.00  0.00     0.146 A 
ATOM      7  O   UNL     1      -0.185 -12.755  28.879  1.00  0.00    -0.285 OA
ATOM      8  C   UNL     1      -0.844 -14.048  27.047  1.00  0.00     0.111 A 
ATOM      9  C   UNL     1      -1.704 -15.594  25.359  1.00  0.00     0.094 A 
ATOM     10  C   UNL     1       0.382 -13.974  26.322  1.00  0.00     0.134 A 
ATOM     11  C   UNL     1      -0.480 -15.560  24.690  1.00  0.00     0.123 A 
ATOM     12  C   UNL     1       0.552 -14.757  25.173  1.00  0.00     0.093 A 
BRANCH   3  13
ATOM     13  C   UNL     1      -4.722 -14.361  28.802  1.00  0.00     0.025 A 
ATOM     14  C   UNL     1      -4.921 -14.751  30.134  1.00  0.00     0.016 A 
ATOM     15  C   UNL     1      -6.213 -14.845  30.658  1.00  0.00     0.051 A 
ATOM     16  C   UNL     1      -7.324 -14.565  29.852  1.00  0.00     0.157 A 
ATOM     17  C   UNL     1      -5.841 -14.105  27.989  1.00  0.00     0.062 A 
ATOM     18  C   UNL     1      -7.136 -14.197  28.510  1.00  0.00     0.158 A 
BRANCH  16  19
ATOM     19  O   UNL     1      -8.612 -14.655  30.379  1.00  0.00    -0.504 OA
ATOM     20  H   UNL     1      -9.377 -14.102  30.011  1.00  0.00     0.293 HD
ENDBRANCH  16  19
BRANCH  18  21
ATOM     21  O   UNL     1      -8.221 -13.921  27.679  1.00  0.00    -0.504 OA
ATOM     22  H   UNL     1      -8.105 -13.502  26.764  1.00  0.00     0.293 HD
ENDBRANCH  18  21
ENDBRANCH   3  13
BRANCH  10  23
ATOM     23  O   UNL     1       1.446 -13.135  26.669  1.00  0.00    -0.507 OA
ATOM     24  H   UNL     1       2.176 -12.842  26.038  1.00  0.00     0.293 HD
ENDBRANCH  10  23
BRANCH  11  25
ATOM     25  O   UNL     1      -0.281 -16.314  23.535  1.00  0.00    -0.508 OA
ATOM     26  H   UNL     1       0.070 -15.896  22.682  1.00  0.00     0.293 HD
ENDBRANCH  11  25
ENDBRANCH   1   2
BRANCH   1  27
ATOM     27  C   UNL     1      -2.521 -11.507  30.341  1.00  0.00     0.339 C 
ATOM     28  C   UNL     1      -3.679 -10.827  29.591  1.00  0.00     0.214 C 
ATOM     29  O   UNL     1      -2.505 -11.181  31.726  1.00  0.00    -0.332 OA
ATOM     30  C   UNL     1      -5.018 -11.191  30.248  1.00  0.00     0.180 C 
ATOM     31  C   UNL     1      -3.711 -11.502  32.411  1.00  0.00     0.179 C 
ATOM     32  C   UNL     1      -4.961 -10.868  31.749  1.00  0.00     0.177 C 
BRANCH  28  33
ATOM     33  O   UNL     1      -3.481  -9.435  29.611  1.00  0.00    -0.384 OA
ATOM     34  H   UNL     1      -3.733  -9.092  28.713  1.00  0.00     0.211 HD
ENDBRANCH  28  33
BRANCH  30  35
ATOM     35  O   UNL     1      -6.051 -10.464  29.632  1.00  0.00    -0.387 OA
ATOM     36  H   UNL     1      -5.731  -9.529  29.534  1.00  0.00     0.211 HD
ENDBRANCH  30  35
BRANCH  31  37
ATOM     37  C   UNL     1      -3.833 -13.017  32.694  1.00  0.00     0.191 C 
BRANCH  37  38
ATOM     38  O   UNL     1      -5.005 -13.278  33.419  1.00  0.00    -0.394 OA
ATOM     39  H   UNL     1      -4.718 -13.467  34.349  1.00  0.00     0.210 HD
ENDBRANCH  37  38
ENDBRANCH  31  37
BRANCH  32  40
ATOM     40  O   UNL     1      -6.128 -11.317  32.390  1.00  0.00    -0.387 OA
ATOM     41  H   UNL     1      -6.867 -10.720  32.102  1.00  0.00     0.211 HD
ENDBRANCH  32  40
ENDBRANCH   1  27
TORSDOF 12
ENDMDL
MODEL 8
REMARK VINA RESULT:    -6.729      6.755     10.739
REMARK INTER + INTRA:         -11.610
REMARK INTER:                  -9.937
REMARK INTRA:                  -1.673
REMARK UNBOUND:                -1.734
REMARK SMILES O=c1c(O[C@@H]2O[C@H](CO)[C@H](O)[C@@H](O)[C@H]2O)c(-c2ccc(O)c(O)c2)oc2cc(O)cc(O)c12
REMARK SMILES IDX 4 1 3 2 16 3 25 4 2 5 26 6 1 7 33 8 27 9 31 10 28 11 30 12
REMARK SMILES IDX 17 13 18 14 19 15 20 16 24 17 22 18 21 19 23 21 32 23 29 25
REMARK SMILES IDX 5 27 14 28 6 29 12 30 7 31 10 32 15 33 13 35 8 37 9 38 11 40
REMARK H PARENT 21 20 23 22 32 24 29 26 15 34 13 36 9 39 11 41
REMARK Flexibility Score: inf
ROOT
ATOM      1  O   UNL     1      -3.933 -13.015  31.042  1.00  0.00    -0.454 OA
ENDROOT
BRANCH   1   2
ATOM      2  C   UNL     1      -2.643 -12.513  31.256  1.00  0.00     0.214 A 
ATOM      3  C   UNL     1      -1.509 -13.117  30.680  1.00  0.00     0.180 A 
ATOM      4  O   UNL     1      -0.299 -12.671  30.996  1.00  0.00    -0.452 OA
ATOM      5  C   UNL     1      -2.474 -11.390  32.074  1.00  0.00     0.239 A 
ATOM      6  C   UNL     1      -0.087 -11.629  31.791  1.00  0.00     0.146 A 
ATOM      7  O   UNL     1      -3.495 -10.870  32.595  1.00  0.00    -0.285 OA
ATOM      8  C   UNL     1      -1.173 -10.896  32.336  1.00  0.00     0.111 A 
ATOM      9  C   UNL     1       1.231 -11.267  32.080  1.00  0.00     0.094 A 
ATOM     10  C   UNL     1      -0.888  -9.751  33.138  1.00  0.00     0.134 A 
ATOM     11  C   UNL     1       1.497 -10.179  32.914  1.00  0.00     0.123 A 
ATOM     12  C   UNL     1       0.442  -9.433  33.437  1.00  0.00     0.093 A 
BRANCH   3  13
ATOM     13  C   UNL     1      -1.610 -14.242  29.723  1.00  0.00     0.025 A 
ATOM     14  C   UNL     1      -1.481 -13.997  28.348  1.00  0.00     0.016 A 
ATOM     15  C   UNL     1      -1.577 -15.046  27.431  1.00  0.00     0.051 A 
ATOM     16  C   UNL     1      -1.818 -16.353  27.875  1.00  0.00     0.157 A 
ATOM     17  C   UNL     1      -1.877 -15.552  30.163  1.00  0.00     0.062 A 
ATOM     18  C   UNL     1      -1.972 -16.605  29.248  1.00  0.00     0.158 A 
BRANCH  16  19
ATOM     19  O   UNL     1      -1.908 -17.399  26.957  1.00  0.00    -0.504 OA
ATOM     20  H   UNL     1      -1.118 -17.672  26.384  1.00  0.00     0.293 HD
ENDBRANCH  16  19
BRANCH  18  21
ATOM     21  O   UNL     1      -2.222 -17.893  29.721  1.00  0.00    -0.504 OA
ATOM     22  H   UNL     1      -1.855 -18.221  30.606  1.00  0.00     0.293 HD
ENDBRANCH  18  21
ENDBRANCH   3  13
BRANCH  10  23
ATOM     23  O   UNL     1      -1.865  -8.885  33.639  1.00  0.00    -0.507 OA
ATOM     24  H   UNL     1      -2.744  -8.688  33.188  1.00  0.00     0.293 HD
ENDBRANCH  10  23
BRANCH  11  25
ATOM     25  O   UNL     1       2.809  -9.825  33.221  1.00  0.00    -0.508 OA
ATOM     26  H   UNL     1       3.590 -10.150  32.663  1.00  0.00     0.293 HD
ENDBRANCH  11  25
ENDBRANCH   1   2
BRANCH   1  27
ATOM     27  C   UNL     1      -4.873 -12.393  30.160  1.00  0.00     0.339 C 
ATOM     28  C   UNL     1      -5.101 -13.245  28.900  1.00  0.00     0.214 C 
ATOM     29  O   UNL     1      -6.085 -12.094  30.841  1.00  0.00    -0.332 OA
ATOM     30  C   UNL     1      -5.850 -14.535  29.264  1.00  0.00     0.180 C 
ATOM     31  C   UNL     1      -6.833 -13.244  31.226  1.00  0.00     0.179 C 
ATOM     32  C   UNL     1      -7.134 -14.187  30.033  1.00  0.00     0.177 C 
BRANCH  28  33
ATOM     33  O   UNL     1      -5.839 -12.493  27.968  1.00  0.00    -0.384 OA
ATOM     34  H   UNL     1      -6.620 -13.046  27.702  1.00  0.00     0.211 HD
ENDBRANCH  28  33
BRANCH  30  35
ATOM     35  O   UNL     1      -6.162 -15.240  28.089  1.00  0.00    -0.387 OA
ATOM     36  H   UNL     1      -7.048 -15.666  28.233  1.00  0.00     0.211 HD
ENDBRANCH  30  35
BRANCH  31  37
ATOM     37  C   UNL     1      -6.226 -13.944  32.463  1.00  0.00     0.191 C 
BRANCH  37  38
ATOM     38  O   UNL     1      -5.693 -12.990  33.342  1.00  0.00    -0.394 OA
ATOM     39  H   UNL     1      -6.234 -12.168  33.218  1.00  0.00     0.210 HD
ENDBRANCH  37  38
ENDBRANCH  31  37
BRANCH  32  40
ATOM     40  O   UNL     1      -7.763 -15.358  30.490  1.00  0.00    -0.387 OA
ATOM     41  H   UNL     1      -7.275 -15.652  31.303  1.00  0.00     0.211 HD
ENDBRANCH  32  40
ENDBRANCH   1  27
TORSDOF 12
ENDMDL
MODEL 9
REMARK VINA RESULT:    -6.673      1.433      4.901
REMARK INTER + INTRA:         -11.527
REMARK INTER:                  -9.821
REMARK INTRA:                  -1.706
REMARK UNBOUND:                -1.734
REMARK SMILES O=c1c(O[C@@H]2O[C@H](CO)[C@H](O)[C@@H](O)[C@H]2O)c(-c2ccc(O)c(O)c2)oc2cc(O)cc(O)c12
REMARK SMILES IDX 4 1 3 2 16 3 25 4 2 5 26 6 1 7 33 8 27 9 31 10 28 11 30 12
REMARK SMILES IDX 17 13 18 14 19 15 20 16 24 17 22 18 21 19 23 21 32 23 29 25
REMARK SMILES IDX 5 27 14 28 6 29 12 30 7 31 10 32 15 33 13 35 8 37 9 38 11 40
REMARK H PARENT 21 20 23 22 32 24 29 26 15 34 13 36 9 39 11 41
REMARK Flexibility Score: inf
ROOT
ATOM      1  O   UNL     1       0.770 -21.868  26.542  1.00  0.00    -0.454 OA
ENDROOT
BRANCH   1   2
ATOM      2  C   UNL     1       0.065 -21.909  27.752  1.00  0.00     0.214 A 
ATOM      3  C   UNL     1      -0.456 -20.743  28.345  1.00  0.00     0.180 A 
ATOM      4  O   UNL     1      -1.024 -20.816  29.543  1.00  0.00    -0.452 OA
ATOM      5  C   UNL     1      -0.114 -23.139  28.397  1.00  0.00     0.239 A 
ATOM      6  C   UNL     1      -1.190 -21.954  30.206  1.00  0.00     0.146 A 
ATOM      7  O   UNL     1       0.372 -24.170  27.863  1.00  0.00    -0.285 OA
ATOM      8  C   UNL     1      -0.786 -23.192  29.642  1.00  0.00     0.111 A 
ATOM      9  C   UNL     1      -1.772 -21.908  31.475  1.00  0.00     0.094 A 
ATOM     10  C   UNL     1      -1.039 -24.390  30.374  1.00  0.00     0.134 A 
ATOM     11  C   UNL     1      -1.962 -23.082  32.208  1.00  0.00     0.123 A 
ATOM     12  C   UNL     1      -1.594 -24.308  31.657  1.00  0.00     0.093 A 
BRANCH   3  13
ATOM     13  C   UNL     1      -0.399 -19.422  27.679  1.00  0.00     0.025 A 
ATOM     14  C   UNL     1      -1.528 -18.937  27.002  1.00  0.00     0.016 A 
ATOM     15  C   UNL     1      -1.492 -17.694  26.366  1.00  0.00     0.051 A 
ATOM     16  C   UNL     1      -0.320 -16.925  26.384  1.00  0.00     0.157 A 
ATOM     17  C   UNL     1       0.783 -18.658  27.674  1.00  0.00     0.062 A 
ATOM     18  C   UNL     1       0.823 -17.412  27.039  1.00  0.00     0.158 A 
BRANCH  16  19
ATOM     19  O   UNL     1      -0.288 -15.682  25.753  1.00  0.00    -0.504 OA
ATOM     20  H   UNL     1      -1.022 -14.997  25.890  1.00  0.00     0.293 HD
ENDBRANCH  16  19
BRANCH  18  21
ATOM     21  O   UNL     1       2.007 -16.676  27.067  1.00  0.00    -0.504 OA
ATOM     22  H   UNL     1       2.141 -15.898  27.702  1.00  0.00     0.293 HD
ENDBRANCH  18  21
ENDBRANCH   3  13
BRANCH  10  23
ATOM     23  O   UNL     1      -0.791 -25.674  29.882  1.00  0.00    -0.507 OA
ATOM     24  H   UNL     1      -1.009 -26.529  30.369  1.00  0.00     0.293 HD
ENDBRANCH  10  23
BRANCH  11  25
ATOM     25  O   UNL     1      -2.525 -23.040  33.481  1.00  0.00    -0.508 OA
ATOM     26  H   UNL     1      -2.598 -23.870  34.056  1.00  0.00     0.293 HD
ENDBRANCH  11  25
ENDBRANCH   1   2
BRANCH   1  27
ATOM     27  C   UNL     1       0.124 -21.876  25.266  1.00  0.00     0.339 C 
ATOM     28  C   UNL     1       0.465 -20.610  24.462  1.00  0.00     0.214 C 
ATOM     29  O   UNL     1       0.426 -23.069  24.553  1.00  0.00    -0.332 OA
ATOM     30  C   UNL     1       1.941 -20.631  24.043  1.00  0.00     0.180 C 
ATOM     31  C   UNL     1       1.785 -23.172  24.141  1.00  0.00     0.179 C 
ATOM     32  C   UNL     1       2.251 -21.947  23.312  1.00  0.00     0.177 C 
BRANCH  28  33
ATOM     33  O   UNL     1      -0.368 -20.550  23.330  1.00  0.00    -0.384 OA
ATOM     34  H   UNL     1      -0.810 -21.436  23.246  1.00  0.00     0.211 HD
ENDBRANCH  28  33
BRANCH  30  35
ATOM     35  O   UNL     1       2.204 -19.535  23.204  1.00  0.00    -0.387 OA
ATOM     36  H   UNL     1       1.544 -19.571  22.463  1.00  0.00     0.211 HD
ENDBRANCH  30  35
BRANCH  31  37
ATOM     37  C   UNL     1       2.721 -23.548  25.312  1.00  0.00     0.191 C 
BRANCH  37  38
ATOM     38  O   UNL     1       2.275 -24.730  25.922  1.00  0.00    -0.394 OA
ATOM     39  H   UNL     1       2.939 -24.943  26.628  1.00  0.00     0.210 HD
ENDBRANCH  37  38
ENDBRANCH  31  37
BRANCH  32  40
ATOM     40  O   UNL     1       3.626 -22.043  23.039  1.00  0.00    -0.387 OA
ATOM     41  H   UNL     1       4.082 -21.359  23.595  1.00  0.00     0.211 HD
ENDBRANCH  32  40
ENDBRANCH   1  27
TORSDOF 12
ENDMDL
