MODEL 1
REMARK VINA RESULT:    -7.463      0.000      0.000
REMARK INTER + INTRA:         -11.242
REMARK INTER:                  -9.863
REMARK INTRA:                  -1.379
REMARK UNBOUND:                -1.379
REMARK SMILES CC[C@H](C=C[C@H](C)[C@H]1CC[C@@H]2[C@@H]3CC=C4C[C@@H](O)CC[C@@]4(C)[C@@H]3CC[C@]21C)C(C)C
REMARK SMILES IDX 6 1 7 2 5 3 4 4 3 5 2 6 1 7 28 8 29 9 30 10 8 11 9 12 26 13
REMARK SMILES IDX 10 14 11 15 25 16 27 17 12 18 24 19 23 20 13 21 21 22 14 23
REMARK SMILES IDX 15 24 20 25 22 26 16 27 19 28 17 29 18 30
REMARK H PARENT 18 31
REMARK Flexibility Score: inf
ROOT
ATOM      1  C   UNL     1     184.462 188.032 188.264  1.00  0.00     0.012 C 
ATOM      2  C   UNL     1     183.090 187.467 187.837  1.00  0.00     0.012 C 
ENDROOT
BRANCH   1   3
ATOM      3  C   UNL     1     184.810 189.277 187.468  1.00  0.00    -0.028 C 
ATOM      4  C   UNL     1     185.596 190.267 187.931  1.00  0.00    -0.027 C 
BRANCH   4   5
ATOM      5  C   UNL     1     185.925 191.516 187.131  1.00  0.00     0.014 C 
BRANCH   5   6
ATOM      6  C   UNL     1     185.705 192.801 187.970  1.00  0.00     0.004 C 
ATOM      7  C   UNL     1     185.642 192.535 189.474  1.00  0.00     0.004 C 
ENDBRANCH   5   6
BRANCH   5   8
ATOM      8  C   UNL     1     187.313 191.427 186.419  1.00  0.00    -0.011 C 
ATOM      9  C   UNL     1     188.398 190.706 187.236  1.00  0.00     0.008 C 
ATOM     10  C   UNL     1     187.187 190.780 185.031  1.00  0.00     0.008 C 
ENDBRANCH   5   8
ENDBRANCH   4   5
ENDBRANCH   1   3
BRANCH   1  11
ATOM     11  C   UNL     1     184.694 188.257 189.803  1.00  0.00     0.002 C 
ATOM     12  C   UNL     1     183.405 188.231 190.681  1.00  0.00     0.005 C 
ATOM     13  C   UNL     1     185.683 187.285 190.544  1.00  0.00    -0.026 C 
ATOM     14  C   UNL     1     183.525 187.050 191.659  1.00  0.00     0.005 C 
ATOM     15  C   UNL     1     184.696 186.253 191.118  1.00  0.00    -0.001 C 
ATOM     16  C   UNL     1     186.739 186.516 189.703  1.00  0.00     0.007 C 
ATOM     17  C   UNL     1     186.433 188.144 191.618  1.00  0.00     0.012 C 
ATOM     18  C   UNL     1     185.286 185.086 191.946  1.00  0.00     0.000 C 
ATOM     19  C   UNL     1     187.404 185.363 190.509  1.00  0.00     0.005 C 
ATOM     20  C   UNL     1     186.367 184.353 191.101  1.00  0.00     0.003 C 
ATOM     21  C   UNL     1     185.829 185.453 193.332  1.00  0.00     0.031 C 
ATOM     22  C   UNL     1     186.961 183.083 191.867  1.00  0.00    -0.008 C 
ATOM     23  C   UNL     1     186.300 184.228 194.042  1.00  0.00    -0.027 C 
ATOM     24  C   UNL     1     186.877 183.189 193.404  1.00  0.00    -0.065 C 
ATOM     25  C   UNL     1     186.110 181.837 191.459  1.00  0.00     0.014 C 
ATOM     26  C   UNL     1     188.438 182.828 191.459  1.00  0.00     0.016 C 
ATOM     27  C   UNL     1     187.220 181.954 194.214  1.00  0.00     0.063 C 
ATOM     28  C   UNL     1     186.423 180.557 192.261  1.00  0.00     0.033 C 
ATOM     29  C   UNL     1     186.330 180.781 193.778  1.00  0.00     0.118 C 
BRANCH  29  30
ATOM     30  O   UNL     1     184.993 181.028 194.134  1.00  0.00    -0.393 OA
ATOM     31  H   UNL     1     184.903 180.793 195.095  1.00  0.00     0.210 HD
ENDBRANCH  29  30
ENDBRANCH   1  11
TORSDOF 6
ENDMDL
MODEL 2
REMARK VINA RESULT:    -7.409      5.312     10.802
REMARK INTER + INTRA:         -11.171
REMARK INTER:                 -10.339
REMARK INTRA:                  -0.832
REMARK UNBOUND:                -1.379
REMARK SMILES CC[C@H](C=C[C@H](C)[C@H]1CC[C@@H]2[C@@H]3CC=C4C[C@@H](O)CC[C@@]4(C)[C@@H]3CC[C@]21C)C(C)C
REMARK SMILES IDX 6 1 7 2 5 3 4 4 3 5 2 6 1 7 28 8 29 9 30 10 8 11 9 12 26 13
REMARK SMILES IDX 10 14 11 15 25 16 27 17 12 18 24 19 23 20 13 21 21 22 14 23
REMARK SMILES IDX 15 24 20 25 22 26 16 27 19 28 17 29 18 30
REMARK H PARENT 18 31
REMARK Flexibility Score: inf
ROOT
ATOM      1  C   UNL     1     186.389 190.592 190.837  1.00  0.00     0.012 C 
ATOM      2  C   UNL     1     185.309 191.165 191.780  1.00  0.00     0.012 C 
ENDROOT
BRANCH   1   3
ATOM      3  C   UNL     1     185.964 189.247 190.276  1.00  0.00    -0.028 C 
ATOM      4  C   UNL     1     185.010 188.474 190.827  1.00  0.00    -0.027 C 
BRANCH   4   5
ATOM      5  C   UNL     1     184.603 187.122 190.266  1.00  0.00     0.014 C 
BRANCH   5   6
ATOM      6  C   UNL     1     184.789 185.994 191.312  1.00  0.00     0.004 C 
ATOM      7  C   UNL     1     185.482 186.466 192.590  1.00  0.00     0.004 C 
ENDBRANCH   5   6
BRANCH   5   8
ATOM      8  C   UNL     1     183.200 187.153 189.578  1.00  0.00    -0.011 C 
ATOM      9  C   UNL     1     183.246 187.377 188.057  1.00  0.00     0.008 C 
ATOM     10  C   UNL     1     182.396 185.883 189.896  1.00  0.00     0.008 C 
ENDBRANCH   5   8
ENDBRANCH   4   5
ENDBRANCH   1   3
BRANCH   1  11
ATOM     11  C   UNL     1     186.921 191.541 189.701  1.00  0.00     0.002 C 
ATOM     12  C   UNL     1     185.833 192.077 188.719  1.00  0.00     0.005 C 
ATOM     13  C   UNL     1     187.715 192.827 190.134  1.00  0.00    -0.026 C 
ATOM     14  C   UNL     1     185.785 193.608 188.860  1.00  0.00     0.005 C 
ATOM     15  C   UNL     1     186.591 193.879 190.115  1.00  0.00    -0.001 C 
ATOM     16  C   UNL     1     188.370 192.858 191.542  1.00  0.00     0.007 C 
ATOM     17  C   UNL     1     188.834 193.044 189.060  1.00  0.00     0.012 C 
ATOM     18  C   UNL     1     186.968 195.331 190.494  1.00  0.00     0.000 C 
ATOM     19  C   UNL     1     188.818 194.290 191.950  1.00  0.00     0.005 C 
ATOM     20  C   UNL     1     187.656 195.336 191.889  1.00  0.00     0.003 C 
ATOM     21  C   UNL     1     187.807 196.097 189.465  1.00  0.00     0.031 C 
ATOM     22  C   UNL     1     187.999 196.817 192.379  1.00  0.00    -0.008 C 
ATOM     23  C   UNL     1     188.036 197.498 189.927  1.00  0.00    -0.027 C 
ATOM     24  C   UNL     1     188.197 197.823 191.226  1.00  0.00    -0.065 C 
ATOM     25  C   UNL     1     186.786 197.335 193.219  1.00  0.00     0.014 C 
ATOM     26  C   UNL     1     189.264 196.826 193.280  1.00  0.00     0.016 C 
ATOM     27  C   UNL     1     188.319 199.291 191.586  1.00  0.00     0.063 C 
ATOM     28  C   UNL     1     186.865 198.826 193.604  1.00  0.00     0.033 C 
ATOM     29  C   UNL     1     187.084 199.735 192.385  1.00  0.00     0.118 C 
BRANCH  29  30
ATOM     30  O   UNL     1     185.941 199.706 191.568  1.00  0.00    -0.393 OA
ATOM     31  H   UNL     1     186.249 199.483 190.651  1.00  0.00     0.210 HD
ENDBRANCH  29  30
ENDBRANCH   1  11
TORSDOF 6
ENDMDL
MODEL 3
REMARK VINA RESULT:    -7.175      3.862      8.711
REMARK INTER + INTRA:         -10.861
REMARK INTER:                  -9.692
REMARK INTRA:                  -1.169
REMARK UNBOUND:                -1.379
REMARK SMILES CC[C@H](C=C[C@H](C)[C@H]1CC[C@@H]2[C@@H]3CC=C4C[C@@H](O)CC[C@@]4(C)[C@@H]3CC[C@]21C)C(C)C
REMARK SMILES IDX 6 1 7 2 5 3 4 4 3 5 2 6 1 7 28 8 29 9 30 10 8 11 9 12 26 13
REMARK SMILES IDX 10 14 11 15 25 16 27 17 12 18 24 19 23 20 13 21 21 22 14 23
REMARK SMILES IDX 15 24 20 25 22 26 16 27 19 28 17 29 18 30
REMARK H PARENT 18 31
REMARK Flexibility Score: inf
ROOT
ATOM      1  C   UNL     1     185.783 190.661 190.844  1.00  0.00     0.012 C 
ATOM      2  C   UNL     1     185.744 191.881 191.791  1.00  0.00     0.012 C 
ENDROOT
BRANCH   1   3
ATOM      3  C   UNL     1     185.174 189.438 191.506  1.00  0.00    -0.028 C 
ATOM      4  C   UNL     1     184.332 188.592 190.883  1.00  0.00    -0.027 C 
BRANCH   4   5
ATOM      5  C   UNL     1     183.715 187.379 191.560  1.00  0.00     0.014 C 
BRANCH   5   6
ATOM      6  C   UNL     1     182.242 187.173 191.124  1.00  0.00     0.004 C 
ATOM      7  C   UNL     1     182.085 186.151 189.998  1.00  0.00     0.004 C 
ENDBRANCH   5   6
BRANCH   5   8
ATOM      8  C   UNL     1     184.615 186.107 191.451  1.00  0.00    -0.011 C 
ATOM      9  C   UNL     1     185.672 186.172 190.335  1.00  0.00     0.008 C 
ATOM     10  C   UNL     1     185.292 185.787 192.794  1.00  0.00     0.008 C 
ENDBRANCH   5   8
ENDBRANCH   4   5
ENDBRANCH   1   3
BRANCH   1  11
ATOM     11  C   UNL     1     185.215 190.866 189.392  1.00  0.00     0.002 C 
ATOM     12  C   UNL     1     185.068 192.351 188.939  1.00  0.00     0.005 C 
ATOM     13  C   UNL     1     185.978 190.175 188.204  1.00  0.00    -0.026 C 
ATOM     14  C   UNL     1     185.997 192.570 187.732  1.00  0.00     0.005 C 
ATOM     15  C   UNL     1     186.872 191.332 187.725  1.00  0.00    -0.001 C 
ATOM     16  C   UNL     1     186.896 188.962 188.515  1.00  0.00     0.007 C 
ATOM     17  C   UNL     1     184.886 189.722 187.176  1.00  0.00     0.012 C 
ATOM     18  C   UNL     1     187.813 191.057 186.527  1.00  0.00     0.000 C 
ATOM     19  C   UNL     1     187.825 188.608 187.319  1.00  0.00     0.005 C 
ATOM     20  C   UNL     1     188.697 189.817 186.843  1.00  0.00     0.003 C 
ATOM     21  C   UNL     1     187.135 190.914 185.160  1.00  0.00     0.031 C 
ATOM     22  C   UNL     1     189.751 189.525 185.679  1.00  0.00    -0.008 C 
ATOM     23  C   UNL     1     188.161 190.722 184.094  1.00  0.00    -0.027 C 
ATOM     24  C   UNL     1     189.305 190.037 184.293  1.00  0.00    -0.065 C 
ATOM     25  C   UNL     1     191.073 190.283 186.030  1.00  0.00     0.014 C 
ATOM     26  C   UNL     1     190.064 188.007 185.578  1.00  0.00     0.016 C 
ATOM     27  C   UNL     1     190.320 189.997 183.168  1.00  0.00     0.063 C 
ATOM     28  C   UNL     1     192.134 190.271 184.911  1.00  0.00     0.033 C 
ATOM     29  C   UNL     1     191.577 190.781 183.573  1.00  0.00     0.118 C 
BRANCH  29  30
ATOM     30  O   UNL     1     191.283 192.151 183.679  1.00  0.00    -0.393 OA
ATOM     31  H   UNL     1     191.602 192.579 182.843  1.00  0.00     0.210 HD
ENDBRANCH  29  30
ENDBRANCH   1  11
TORSDOF 6
ENDMDL
MODEL 4
REMARK VINA RESULT:    -7.049      5.301     10.823
REMARK INTER + INTRA:         -10.694
REMARK INTER:                  -9.878
REMARK INTRA:                  -0.817
REMARK UNBOUND:                -1.379
REMARK SMILES CC[C@H](C=C[C@H](C)[C@H]1CC[C@@H]2[C@@H]3CC=C4C[C@@H](O)CC[C@@]4(C)[C@@H]3CC[C@]21C)C(C)C
REMARK SMILES IDX 6 1 7 2 5 3 4 4 3 5 2 6 1 7 28 8 29 9 30 10 8 11 9 12 26 13
REMARK SMILES IDX 10 14 11 15 25 16 27 17 12 18 24 19 23 20 13 21 21 22 14 23
REMARK SMILES IDX 15 24 20 25 22 26 16 27 19 28 17 29 18 30
REMARK H PARENT 18 31
REMARK Flexibility Score: inf
ROOT
ATOM      1  C   UNL     1     186.237 190.608 191.018  1.00  0.00     0.012 C 
ATOM      2  C   UNL     1     185.247 191.267 192.002  1.00  0.00     0.012 C 
ENDROOT
BRANCH   1   3
ATOM      3  C   UNL     1     185.684 189.299 190.484  1.00  0.00    -0.028 C 
ATOM      4  C   UNL     1     185.177 188.326 191.265  1.00  0.00    -0.027 C 
BRANCH   4   5
ATOM      5  C   UNL     1     184.640 187.013 190.721  1.00  0.00     0.014 C 
BRANCH   5   6
ATOM      6  C   UNL     1     184.574 187.025 189.172  1.00  0.00     0.004 C 
ATOM      7  C   UNL     1     183.148 187.121 188.631  1.00  0.00     0.004 C 
ENDBRANCH   5   6
BRANCH   5   8
ATOM      8  C   UNL     1     185.357 185.768 191.337  1.00  0.00    -0.011 C 
ATOM      9  C   UNL     1     186.764 185.506 190.775  1.00  0.00     0.008 C 
ATOM     10  C   UNL     1     185.415 185.862 192.870  1.00  0.00     0.008 C 
ENDBRANCH   5   8
ENDBRANCH   4   5
ENDBRANCH   1   3
BRANCH   1  11
ATOM     11  C   UNL     1     186.792 191.509 189.854  1.00  0.00     0.002 C 
ATOM     12  C   UNL     1     185.718 192.042 188.856  1.00  0.00     0.005 C 
ATOM     13  C   UNL     1     187.619 192.786 190.248  1.00  0.00    -0.026 C 
ATOM     14  C   UNL     1     185.710 193.578 188.950  1.00  0.00     0.005 C 
ATOM     15  C   UNL     1     186.522 193.865 190.197  1.00  0.00    -0.001 C 
ATOM     16  C   UNL     1     188.275 192.842 191.655  1.00  0.00     0.007 C 
ATOM     17  C   UNL     1     188.743 192.942 189.169  1.00  0.00     0.012 C 
ATOM     18  C   UNL     1     186.936 195.318 190.533  1.00  0.00     0.000 C 
ATOM     19  C   UNL     1     188.760 194.274 192.020  1.00  0.00     0.005 C 
ATOM     20  C   UNL     1     187.625 195.347 191.927  1.00  0.00     0.003 C 
ATOM     21  C   UNL     1     187.795 196.031 189.482  1.00  0.00     0.031 C 
ATOM     22  C   UNL     1     188.006 196.833 192.373  1.00  0.00    -0.008 C 
ATOM     23  C   UNL     1     188.060 197.439 189.902  1.00  0.00    -0.027 C 
ATOM     24  C   UNL     1     188.229 197.799 191.190  1.00  0.00    -0.065 C 
ATOM     25  C   UNL     1     186.807 197.407 193.196  1.00  0.00     0.014 C 
ATOM     26  C   UNL     1     189.271 196.837 193.274  1.00  0.00     0.016 C 
ATOM     27  C   UNL     1     188.389 199.273 191.506  1.00  0.00     0.063 C 
ATOM     28  C   UNL     1     186.924 198.907 193.537  1.00  0.00     0.033 C 
ATOM     29  C   UNL     1     187.166 199.772 192.291  1.00  0.00     0.118 C 
BRANCH  29  30
ATOM     30  O   UNL     1     186.022 199.748 191.475  1.00  0.00    -0.393 OA
ATOM     31  H   UNL     1     185.945 198.825 191.115  1.00  0.00     0.210 HD
ENDBRANCH  29  30
ENDBRANCH   1  11
TORSDOF 6
ENDMDL
MODEL 5
REMARK VINA RESULT:    -6.965      3.093      9.093
REMARK INTER + INTRA:         -10.584
REMARK INTER:                  -9.576
REMARK INTRA:                  -1.008
REMARK UNBOUND:                -1.379
REMARK SMILES CC[C@H](C=C[C@H](C)[C@H]1CC[C@@H]2[C@@H]3CC=C4C[C@@H](O)CC[C@@]4(C)[C@@H]3CC[C@]21C)C(C)C
REMARK SMILES IDX 6 1 7 2 5 3 4 4 3 5 2 6 1 7 28 8 29 9 30 10 8 11 9 12 26 13
REMARK SMILES IDX 10 14 11 15 25 16 27 17 12 18 24 19 23 20 13 21 21 22 14 23
REMARK SMILES IDX 15 24 20 25 22 26 16 27 19 28 17 29 18 30
REMARK H PARENT 18 31
REMARK Flexibility Score: inf
ROOT
ATOM      1  C   UNL     1     185.646 185.814 191.657  1.00  0.00     0.012 C 
ATOM      2  C   UNL     1     185.747 186.213 193.145  1.00  0.00     0.012 C 
ENDROOT
BRANCH   1   3
ATOM      3  C   UNL     1     185.360 184.330 191.510  1.00  0.00    -0.028 C 
ATOM      4  C   UNL     1     185.772 183.397 192.390  1.00  0.00    -0.027 C 
BRANCH   4   5
ATOM      5  C   UNL     1     185.493 181.913 192.225  1.00  0.00     0.014 C 
BRANCH   5   6
ATOM      6  C   UNL     1     186.109 181.362 190.913  1.00  0.00     0.004 C 
ATOM      7  C   UNL     1     187.628 181.521 190.848  1.00  0.00     0.004 C 
ENDBRANCH   5   6
BRANCH   5   8
ATOM      8  C   UNL     1     185.839 181.089 193.507  1.00  0.00    -0.011 C 
ATOM      9  C   UNL     1     186.280 181.943 194.708  1.00  0.00     0.008 C 
ATOM     10  C   UNL     1     184.670 180.178 193.915  1.00  0.00     0.008 C 
ENDBRANCH   5   8
ENDBRANCH   4   5
ENDBRANCH   1   3
BRANCH   1  11
ATOM     11  C   UNL     1     184.687 186.671 190.751  1.00  0.00     0.002 C 
ATOM     12  C   UNL     1     183.442 187.266 191.477  1.00  0.00     0.005 C 
ATOM     13  C   UNL     1     185.307 187.895 189.985  1.00  0.00    -0.026 C 
ATOM     14  C   UNL     1     183.549 188.799 191.415  1.00  0.00     0.005 C 
ATOM     15  C   UNL     1     184.973 189.041 190.956  1.00  0.00    -0.001 C 
ATOM     16  C   UNL     1     186.840 187.917 189.733  1.00  0.00     0.007 C 
ATOM     17  C   UNL     1     184.575 187.973 188.602  1.00  0.00     0.012 C 
ATOM     18  C   UNL     1     185.425 190.467 190.559  1.00  0.00     0.000 C 
ATOM     19  C   UNL     1     187.339 189.317 189.277  1.00  0.00     0.005 C 
ATOM     20  C   UNL     1     186.954 190.460 190.275  1.00  0.00     0.003 C 
ATOM     21  C   UNL     1     184.656 191.118 189.404  1.00  0.00     0.031 C 
ATOM     22  C   UNL     1     187.505 191.921 189.937  1.00  0.00    -0.008 C 
ATOM     23  C   UNL     1     185.149 192.508 189.175  1.00  0.00    -0.027 C 
ATOM     24  C   UNL     1     186.439 192.864 189.340  1.00  0.00    -0.065 C 
ATOM     25  C   UNL     1     187.978 192.574 191.276  1.00  0.00     0.014 C 
ATOM     26  C   UNL     1     188.716 191.850 188.967  1.00  0.00     0.016 C 
ATOM     27  C   UNL     1     186.804 194.327 189.181  1.00  0.00     0.063 C 
ATOM     28  C   UNL     1     188.356 194.066 191.162  1.00  0.00     0.033 C 
ATOM     29  C   UNL     1     187.233 194.907 190.537  1.00  0.00     0.118 C 
BRANCH  29  30
ATOM     30  O   UNL     1     186.136 194.951 191.415  1.00  0.00    -0.393 OA
ATOM     31  H   UNL     1     186.046 195.893 191.715  1.00  0.00     0.210 HD
ENDBRANCH  29  30
ENDBRANCH   1  11
TORSDOF 6
ENDMDL
MODEL 6
REMARK VINA RESULT:    -6.937      5.035      7.591
REMARK INTER + INTRA:         -10.547
REMARK INTER:                  -8.923
REMARK INTRA:                  -1.623
REMARK UNBOUND:                -1.379
REMARK SMILES CC[C@H](C=C[C@H](C)[C@H]1CC[C@@H]2[C@@H]3CC=C4C[C@@H](O)CC[C@@]4(C)[C@@H]3CC[C@]21C)C(C)C
REMARK SMILES IDX 6 1 7 2 5 3 4 4 3 5 2 6 1 7 28 8 29 9 30 10 8 11 9 12 26 13
REMARK SMILES IDX 10 14 11 15 25 16 27 17 12 18 24 19 23 20 13 21 21 22 14 23
REMARK SMILES IDX 15 24 20 25 22 26 16 27 19 28 17 29 18 30
REMARK H PARENT 18 31
REMARK Flexibility Score: inf
ROOT
ATOM      1  C   UNL     1     184.933 190.473 191.311  1.00  0.00     0.012 C 
ATOM      2  C   UNL     1     185.048 189.247 192.244  1.00  0.00     0.012 C 
ENDROOT
BRANCH   1   3
ATOM      3  C   UNL     1     186.258 191.208 191.213  1.00  0.00    -0.028 C 
ATOM      4  C   UNL     1     186.366 192.547 191.127  1.00  0.00    -0.027 C 
BRANCH   4   5
ATOM      5  C   UNL     1     187.697 193.271 191.014  1.00  0.00     0.014 C 
BRANCH   5   6
ATOM      6  C   UNL     1     188.844 192.297 190.640  1.00  0.00     0.004 C 
ATOM      7  C   UNL     1     189.166 192.291 189.146  1.00  0.00     0.004 C 
ENDBRANCH   5   6
BRANCH   5   8
ATOM      8  C   UNL     1     187.611 194.554 190.125  1.00  0.00    -0.011 C 
ATOM      9  C   UNL     1     186.310 194.676 189.314  1.00  0.00     0.008 C 
ATOM     10  C   UNL     1     187.828 195.825 190.961  1.00  0.00     0.008 C 
ENDBRANCH   5   8
ENDBRANCH   4   5
ENDBRANCH   1   3
BRANCH   1  11
ATOM     11  C   UNL     1     184.310 190.230 189.888  1.00  0.00     0.002 C 
ATOM     12  C   UNL     1     183.892 191.519 189.116  1.00  0.00     0.005 C 
ATOM     13  C   UNL     1     185.161 189.417 188.845  1.00  0.00    -0.026 C 
ATOM     14  C   UNL     1     184.744 191.601 187.838  1.00  0.00     0.005 C 
ATOM     15  C   UNL     1     185.826 190.563 188.062  1.00  0.00    -0.001 C 
ATOM     16  C   UNL     1     186.287 188.485 189.370  1.00  0.00     0.007 C 
ATOM     17  C   UNL     1     184.149 188.557 188.016  1.00  0.00     0.012 C 
ATOM     18  C   UNL     1     186.778 190.176 186.904  1.00  0.00     0.000 C 
ATOM     19  C   UNL     1     187.242 188.021 188.234  1.00  0.00     0.005 C 
ATOM     20  C   UNL     1     187.875 189.213 187.442  1.00  0.00     0.003 C 
ATOM     21  C   UNL     1     186.111 189.602 185.650  1.00  0.00     0.031 C 
ATOM     22  C   UNL     1     188.943 188.837 186.315  1.00  0.00    -0.008 C 
ATOM     23  C   UNL     1     187.134 189.340 184.596  1.00  0.00    -0.027 C 
ATOM     24  C   UNL     1     188.386 188.926 184.878  1.00  0.00    -0.065 C 
ATOM     25  C   UNL     1     190.114 189.869 186.403  1.00  0.00     0.014 C 
ATOM     26  C   UNL     1     189.519 187.414 186.546  1.00  0.00     0.016 C 
ATOM     27  C   UNL     1     189.371 188.793 183.733  1.00  0.00     0.063 C 
ATOM     28  C   UNL     1     191.139 189.773 185.254  1.00  0.00     0.033 C 
ATOM     29  C   UNL     1     190.475 189.851 183.871  1.00  0.00     0.118 C 
BRANCH  29  30
ATOM     30  O   UNL     1     189.943 191.137 183.679  1.00  0.00    -0.393 OA
ATOM     31  H   UNL     1     189.627 191.453 184.566  1.00  0.00     0.210 HD
ENDBRANCH  29  30
ENDBRANCH   1  11
TORSDOF 6
ENDMDL
MODEL 7
REMARK VINA RESULT:    -6.924      2.218      4.044
REMARK INTER + INTRA:         -10.530
REMARK INTER:                  -9.281
REMARK INTRA:                  -1.249
REMARK UNBOUND:                -1.379
REMARK SMILES CC[C@H](C=C[C@H](C)[C@H]1CC[C@@H]2[C@@H]3CC=C4C[C@@H](O)CC[C@@]4(C)[C@@H]3CC[C@]21C)C(C)C
REMARK SMILES IDX 6 1 7 2 5 3 4 4 3 5 2 6 1 7 28 8 29 9 30 10 8 11 9 12 26 13
REMARK SMILES IDX 10 14 11 15 25 16 27 17 12 18 24 19 23 20 13 21 21 22 14 23
REMARK SMILES IDX 15 24 20 25 22 26 16 27 19 28 17 29 18 30
REMARK H PARENT 18 31
REMARK Flexibility Score: inf
ROOT
ATOM      1  C   UNL     1     186.128 191.570 188.414  1.00  0.00     0.012 C 
ATOM      2  C   UNL     1     186.445 191.547 186.903  1.00  0.00     0.012 C 
ENDROOT
BRANCH   1   3
ATOM      3  C   UNL     1     185.988 192.995 188.920  1.00  0.00    -0.028 C 
ATOM      4  C   UNL     1     186.659 193.481 189.981  1.00  0.00    -0.027 C 
BRANCH   4   5
ATOM      5  C   UNL     1     186.499 194.905 190.488  1.00  0.00     0.014 C 
BRANCH   5   6
ATOM      6  C   UNL     1     186.839 195.011 191.997  1.00  0.00     0.004 C 
ATOM      7  C   UNL     1     186.846 193.659 192.710  1.00  0.00     0.004 C 
ENDBRANCH   5   6
BRANCH   5   8
ATOM      8  C   UNL     1     187.220 195.952 189.579  1.00  0.00    -0.011 C 
ATOM      9  C   UNL     1     187.140 197.398 190.094  1.00  0.00     0.008 C 
ATOM     10  C   UNL     1     188.686 195.563 189.336  1.00  0.00     0.008 C 
ENDBRANCH   5   8
ENDBRANCH   4   5
ENDBRANCH   1   3
BRANCH   1  11
ATOM     11  C   UNL     1     184.934 190.671 188.907  1.00  0.00     0.002 C 
ATOM     12  C   UNL     1     184.266 189.792 187.806  1.00  0.00     0.005 C 
ATOM     13  C   UNL     1     185.212 189.667 190.084  1.00  0.00    -0.026 C 
ATOM     14  C   UNL     1     184.472 188.317 188.191  1.00  0.00     0.005 C 
ATOM     15  C   UNL     1     185.505 188.377 189.298  1.00  0.00    -0.001 C 
ATOM     16  C   UNL     1     186.420 189.937 191.022  1.00  0.00     0.007 C 
ATOM     17  C   UNL     1     183.909 189.625 190.951  1.00  0.00     0.012 C 
ATOM     18  C   UNL     1     185.838 187.105 190.116  1.00  0.00     0.000 C 
ATOM     19  C   UNL     1     186.762 188.706 191.908  1.00  0.00     0.005 C 
ATOM     20  C   UNL     1     187.024 187.407 191.075  1.00  0.00     0.003 C 
ATOM     21  C   UNL     1     184.667 186.469 190.874  1.00  0.00     0.031 C 
ATOM     22  C   UNL     1     187.474 186.111 191.892  1.00  0.00    -0.008 C 
ATOM     23  C   UNL     1     185.114 185.220 191.557  1.00  0.00    -0.027 C 
ATOM     24  C   UNL     1     186.347 185.074 192.083  1.00  0.00    -0.065 C 
ATOM     25  C   UNL     1     188.601 185.398 191.076  1.00  0.00     0.014 C 
ATOM     26  C   UNL     1     188.043 186.500 193.284  1.00  0.00     0.016 C 
ATOM     27  C   UNL     1     186.723 183.724 192.660  1.00  0.00     0.063 C 
ATOM     28  C   UNL     1     189.014 184.017 191.625  1.00  0.00     0.033 C 
ATOM     29  C   UNL     1     187.813 183.073 191.795  1.00  0.00     0.118 C 
BRANCH  29  30
ATOM     30  O   UNL     1     187.296 182.741 190.531  1.00  0.00    -0.393 OA
ATOM     31  H   UNL     1     187.465 181.772 190.397  1.00  0.00     0.210 HD
ENDBRANCH  29  30
ENDBRANCH   1  11
TORSDOF 6
ENDMDL
MODEL 8
REMARK VINA RESULT:    -6.758      5.454     10.118
REMARK INTER + INTRA:         -10.311
REMARK INTER:                  -8.789
REMARK INTRA:                  -1.522
REMARK UNBOUND:                -1.379
REMARK SMILES CC[C@H](C=C[C@H](C)[C@H]1CC[C@@H]2[C@@H]3CC=C4C[C@@H](O)CC[C@@]4(C)[C@@H]3CC[C@]21C)C(C)C
REMARK SMILES IDX 6 1 7 2 5 3 4 4 3 5 2 6 1 7 28 8 29 9 30 10 8 11 9 12 26 13
REMARK SMILES IDX 10 14 11 15 25 16 27 17 12 18 24 19 23 20 13 21 21 22 14 23
REMARK SMILES IDX 15 24 20 25 22 26 16 27 19 28 17 29 18 30
REMARK H PARENT 18 31
REMARK Flexibility Score: inf
ROOT
ATOM      1  C   UNL     1     187.862 198.700 192.208  1.00  0.00     0.012 C 
ATOM      2  C   UNL     1     187.220 199.920 191.513  1.00  0.00     0.012 C 
ENDROOT
BRANCH   1   3
ATOM      3  C   UNL     1     186.802 197.797 192.813  1.00  0.00    -0.028 C 
ATOM      4  C   UNL     1     186.872 197.290 194.058  1.00  0.00    -0.027 C 
BRANCH   4   5
ATOM      5  C   UNL     1     185.812 196.375 194.648  1.00  0.00     0.014 C 
BRANCH   5   6
ATOM      6  C   UNL     1     186.180 194.881 194.454  1.00  0.00     0.004 C 
ATOM      7  C   UNL     1     187.601 194.547 194.910  1.00  0.00     0.004 C 
ENDBRANCH   5   6
BRANCH   5   8
ATOM      8  C   UNL     1     185.421 196.769 196.109  1.00  0.00    -0.011 C 
ATOM      9  C   UNL     1     185.212 198.278 196.322  1.00  0.00     0.008 C 
ATOM     10  C   UNL     1     184.179 195.997 196.580  1.00  0.00     0.008 C 
ENDBRANCH   5   8
ENDBRANCH   4   5
ENDBRANCH   1   3
BRANCH   1  11
ATOM     11  C   UNL     1     188.907 197.871 191.374  1.00  0.00     0.002 C 
ATOM     12  C   UNL     1     190.110 197.306 192.189  1.00  0.00     0.005 C 
ATOM     13  C   UNL     1     188.378 196.634 190.561  1.00  0.00    -0.026 C 
ATOM     14  C   UNL     1     190.048 195.770 192.116  1.00  0.00     0.005 C 
ATOM     15  C   UNL     1     188.669 195.494 191.552  1.00  0.00    -0.001 C 
ATOM     16  C   UNL     1     186.869 196.574 190.196  1.00  0.00     0.007 C 
ATOM     17  C   UNL     1     189.212 196.582 189.236  1.00  0.00     0.012 C 
ATOM     18  C   UNL     1     188.284 194.058 191.119  1.00  0.00     0.000 C 
ATOM     19  C   UNL     1     186.441 195.164 189.701  1.00  0.00     0.005 C 
ATOM     20  C   UNL     1     186.781 194.027 190.722  1.00  0.00     0.003 C 
ATOM     21  C   UNL     1     189.154 193.432 190.023  1.00  0.00     0.031 C 
ATOM     22  C   UNL     1     186.295 192.554 190.342  1.00  0.00    -0.008 C 
ATOM     23  C   UNL     1     188.715 192.031 189.755  1.00  0.00    -0.027 C 
ATOM     24  C   UNL     1     187.426 191.641 189.823  1.00  0.00    -0.065 C 
ATOM     25  C   UNL     1     185.741 191.883 191.641  1.00  0.00     0.014 C 
ATOM     26  C   UNL     1     185.158 192.598 189.284  1.00  0.00     0.016 C 
ATOM     27  C   UNL     1     187.112 190.170 189.634  1.00  0.00     0.063 C 
ATOM     28  C   UNL     1     185.411 190.383 191.495  1.00  0.00     0.033 C 
ATOM     29  C   UNL     1     186.599 189.574 190.953  1.00  0.00     0.118 C 
BRANCH  29  30
ATOM     30  O   UNL     1     187.628 189.554 191.910  1.00  0.00    -0.393 OA
ATOM     31  H   UNL     1     188.472 189.364 191.421  1.00  0.00     0.210 HD
ENDBRANCH  29  30
ENDBRANCH   1  11
TORSDOF 6
ENDMDL
MODEL 9
REMARK VINA RESULT:    -6.728      4.519     10.029
REMARK INTER + INTRA:         -10.271
REMARK INTER:                  -9.188
REMARK INTRA:                  -1.082
REMARK UNBOUND:                -1.379
REMARK SMILES CC[C@H](C=C[C@H](C)[C@H]1CC[C@@H]2[C@@H]3CC=C4C[C@@H](O)CC[C@@]4(C)[C@@H]3CC[C@]21C)C(C)C
REMARK SMILES IDX 6 1 7 2 5 3 4 4 3 5 2 6 1 7 28 8 29 9 30 10 8 11 9 12 26 13
REMARK SMILES IDX 10 14 11 15 25 16 27 17 12 18 24 19 23 20 13 21 21 22 14 23
REMARK SMILES IDX 15 24 20 25 22 26 16 27 19 28 17 29 18 30
REMARK H PARENT 18 31
REMARK Flexibility Score: inf
ROOT
ATOM      1  C   UNL     1     185.004 189.360 191.156  1.00  0.00     0.012 C 
ATOM      2  C   UNL     1     183.468 189.208 191.126  1.00  0.00     0.012 C 
ENDROOT
BRANCH   1   3
ATOM      3  C   UNL     1     185.679 188.025 191.414  1.00  0.00    -0.028 C 
ATOM      4  C   UNL     1     185.468 186.923 190.669  1.00  0.00    -0.027 C 
BRANCH   4   5
ATOM      5  C   UNL     1     186.137 185.588 190.945  1.00  0.00     0.014 C 
BRANCH   5   6
ATOM      6  C   UNL     1     187.632 185.768 191.315  1.00  0.00     0.004 C 
ATOM      7  C   UNL     1     188.577 184.988 190.400  1.00  0.00     0.004 C 
ENDBRANCH   5   6
BRANCH   5   8
ATOM      8  C   UNL     1     185.319 184.698 191.936  1.00  0.00    -0.011 C 
ATOM      9  C   UNL     1     185.352 183.195 191.611  1.00  0.00     0.008 C 
ATOM     10  C   UNL     1     185.765 184.929 193.389  1.00  0.00     0.008 C 
ENDBRANCH   5   8
ENDBRANCH   4   5
ENDBRANCH   1   3
BRANCH   1  11
ATOM     11  C   UNL     1     185.670 190.111 189.946  1.00  0.00     0.002 C 
ATOM     12  C   UNL     1     184.674 190.732 188.918  1.00  0.00     0.005 C 
ATOM     13  C   UNL     1     186.667 191.283 190.271  1.00  0.00    -0.026 C 
ATOM     14  C   UNL     1     184.876 192.257 188.928  1.00  0.00     0.005 C 
ATOM     15  C   UNL     1     185.728 192.498 190.158  1.00  0.00    -0.001 C 
ATOM     16  C   UNL     1     187.333 191.326 191.673  1.00  0.00     0.007 C 
ATOM     17  C   UNL     1     187.795 191.224 189.186  1.00  0.00     0.012 C 
ATOM     18  C   UNL     1     186.339 193.897 190.414  1.00  0.00     0.000 C 
ATOM     19  C   UNL     1     188.011 192.695 191.960  1.00  0.00     0.005 C 
ATOM     20  C   UNL     1     187.033 193.907 191.806  1.00  0.00     0.003 C 
ATOM     21  C   UNL     1     187.281 194.426 189.327  1.00  0.00     0.031 C 
ATOM     22  C   UNL     1     187.616 195.349 192.170  1.00  0.00    -0.008 C 
ATOM     23  C   UNL     1     187.739 195.805 189.669  1.00  0.00    -0.027 C 
ATOM     24  C   UNL     1     187.964 196.209 190.937  1.00  0.00    -0.065 C 
ATOM     25  C   UNL     1     186.512 196.126 192.958  1.00  0.00     0.014 C 
ATOM     26  C   UNL     1     188.875 195.229 193.072  1.00  0.00     0.016 C 
ATOM     27  C   UNL     1     188.325 197.662 191.171  1.00  0.00     0.063 C 
ATOM     28  C   UNL     1     186.836 197.612 193.216  1.00  0.00     0.033 C 
ATOM     29  C   UNL     1     187.187 198.366 191.924  1.00  0.00     0.118 C 
BRANCH  29  30
ATOM     30  O   UNL     1     186.046 198.455 191.109  1.00  0.00    -0.393 OA
ATOM     31  H   UNL     1     185.719 197.527 190.971  1.00  0.00     0.210 HD
ENDBRANCH  29  30
ENDBRANCH   1  11
TORSDOF 6
ENDMDL
