MODEL 1
REMARK VINA RESULT:    -3.896      0.000      0.000
REMARK INTER + INTRA:          -8.493
REMARK INTER:                  -6.629
REMARK INTRA:                  -1.864
REMARK UNBOUND:                -1.864
REMARK SMILES CCCCCCCCCCCCCC(=O)[O-]
REMARK SMILES IDX 8 1 9 2 10 3 11 4 12 5 13 6 14 7 15 8 16 9 7 10 6 11 5 12
REMARK SMILES IDX 4 13 3 14 2 15 1 16
REMARK H PARENT
REMARK Flexibility Score: inf
ROOT
ATOM      1  C   UNL     1       4.088  -6.433  -8.001  1.00  0.00     0.000 C 
ENDROOT
BRANCH   1   2
ATOM      2  C   UNL     1       2.990  -6.435  -6.924  1.00  0.00     0.000 C 
BRANCH   2   3
ATOM      3  C   UNL     1       3.522  -6.046  -5.535  1.00  0.00     0.000 C 
BRANCH   3   4
ATOM      4  C   UNL     1       5.059  -6.095  -5.455  1.00  0.00     0.000 C 
BRANCH   4   5
ATOM      5  C   UNL     1       5.562  -7.056  -4.366  1.00  0.00     0.006 C 
BRANCH   5   6
ATOM      6  C   UNL     1       4.706  -8.326  -4.256  1.00  0.00     0.053 C 
BRANCH   6   7
ATOM      7  C   UNL     1       5.097  -9.311  -5.311  1.00  0.00     0.041 C 
ATOM      8  O   UNL     1       6.195  -9.923  -5.233  1.00  0.00    -0.550 OA
ATOM      9  O   UNL     1       4.224  -9.593  -6.355  1.00  0.00    -0.550 OA
ENDBRANCH   6   7
ENDBRANCH   5   6
ENDBRANCH   4   5
ENDBRANCH   3   4
ENDBRANCH   2   3
ENDBRANCH   1   2
BRANCH   1  10
ATOM     10  C   UNL     1       3.539  -6.128  -9.405  1.00  0.00     0.000 C 
BRANCH  10  11
ATOM     11  C   UNL     1       4.141  -4.847 -10.009  1.00  0.00    -0.000 C 
BRANCH  11  12
ATOM     12  C   UNL     1       4.961  -4.041  -8.988  1.00  0.00    -0.000 C 
BRANCH  12  13
ATOM     13  C   UNL     1       4.326  -2.680  -8.655  1.00  0.00    -0.000 C 
BRANCH  13  14
ATOM     14  C   UNL     1       3.206  -2.803  -7.598  1.00  0.00    -0.000 C 
BRANCH  14  15
ATOM     15  C   UNL     1       1.816  -2.411  -8.126  1.00  0.00    -0.003 C 
ATOM     16  C   UNL     1       0.909  -3.615  -8.376  1.00  0.00     0.004 C 
ENDBRANCH  14  15
ENDBRANCH  13  14
ENDBRANCH  12  13
ENDBRANCH  11  12
ENDBRANCH  10  11
ENDBRANCH   1  10
TORSDOF 12
ENDMDL
MODEL 2
REMARK VINA RESULT:    -3.792      2.772      3.996
REMARK INTER + INTRA:          -8.317
REMARK INTER:                  -7.577
REMARK INTRA:                  -0.739
REMARK UNBOUND:                -1.864
REMARK SMILES CCCCCCCCCCCCCC(=O)[O-]
REMARK SMILES IDX 8 1 9 2 10 3 11 4 12 5 13 6 14 7 15 8 16 9 7 10 6 11 5 12
REMARK SMILES IDX 4 13 3 14 2 15 1 16
REMARK H PARENT
REMARK Flexibility Score: inf
ROOT
ATOM      1  C   UNL     1       3.383  -3.543  -8.464  1.00  0.00     0.000 C 
ENDROOT
BRANCH   1   2
ATOM      2  C   UNL     1       2.694  -3.988  -7.163  1.00  0.00     0.000 C 
BRANCH   2   3
ATOM      3  C   UNL     1       3.364  -5.219  -6.529  1.00  0.00     0.000 C 
BRANCH   3   4
ATOM      4  C   UNL     1       4.511  -5.777  -7.391  1.00  0.00     0.000 C 
BRANCH   4   5
ATOM      5  C   UNL     1       5.578  -6.501  -6.555  1.00  0.00     0.006 C 
BRANCH   5   6
ATOM      6  C   UNL     1       5.300  -6.425  -5.047  1.00  0.00     0.053 C 
BRANCH   6   7
ATOM      7  C   UNL     1       5.526  -7.759  -4.408  1.00  0.00     0.041 C 
ATOM      8  O   UNL     1       6.688  -8.238  -4.332  1.00  0.00    -0.550 OA
ATOM      9  O   UNL     1       4.458  -8.451  -3.849  1.00  0.00    -0.550 OA
ENDBRANCH   6   7
ENDBRANCH   5   6
ENDBRANCH   4   5
ENDBRANCH   3   4
ENDBRANCH   2   3
ENDBRANCH   1   2
BRANCH   1  10
ATOM     10  C   UNL     1       4.167  -2.230  -8.298  1.00  0.00     0.000 C 
BRANCH  10  11
ATOM     11  C   UNL     1       5.262  -2.057  -9.366  1.00  0.00    -0.000 C 
BRANCH  11  12
ATOM     12  C   UNL     1       6.254  -0.936  -9.017  1.00  0.00    -0.000 C 
BRANCH  12  13
ATOM     13  C   UNL     1       5.944  -0.263  -7.669  1.00  0.00    -0.000 C 
BRANCH  13  14
ATOM     14  C   UNL     1       7.061   0.710  -7.234  1.00  0.00    -0.000 C 
BRANCH  14  15
ATOM     15  C   UNL     1       8.433   0.035  -7.066  1.00  0.00    -0.003 C 
ATOM     16  C   UNL     1       8.908  -0.003  -5.614  1.00  0.00     0.004 C 
ENDBRANCH  14  15
ENDBRANCH  13  14
ENDBRANCH  12  13
ENDBRANCH  11  12
ENDBRANCH  10  11
ENDBRANCH   1  10
TORSDOF 12
ENDMDL
MODEL 3
REMARK VINA RESULT:    -3.741      1.719      2.819
REMARK INTER + INTRA:          -8.230
REMARK INTER:                  -6.440
REMARK INTRA:                  -1.791
REMARK UNBOUND:                -1.864
REMARK SMILES CCCCCCCCCCCCCC(=O)[O-]
REMARK SMILES IDX 8 1 9 2 10 3 11 4 12 5 13 6 14 7 15 8 16 9 7 10 6 11 5 12
REMARK SMILES IDX 4 13 3 14 2 15 1 16
REMARK H PARENT
REMARK Flexibility Score: inf
ROOT
ATOM      1  C   UNL     1       6.126  -4.431  -9.712  1.00  0.00     0.000 C 
ENDROOT
BRANCH   1   2
ATOM      2  C   UNL     1       5.680  -5.887  -9.495  1.00  0.00     0.000 C 
BRANCH   2   3
ATOM      3  C   UNL     1       5.447  -6.221  -8.012  1.00  0.00     0.000 C 
BRANCH   3   4
ATOM      4  C   UNL     1       4.156  -7.028  -7.783  1.00  0.00     0.000 C 
BRANCH   4   5
ATOM      5  C   UNL     1       3.884  -7.295  -6.294  1.00  0.00     0.006 C 
BRANCH   5   6
ATOM      6  C   UNL     1       4.497  -6.226  -5.379  1.00  0.00     0.053 C 
BRANCH   6   7
ATOM      7  C   UNL     1       5.441  -6.854  -4.403  1.00  0.00     0.041 C 
ATOM      8  O   UNL     1       5.006  -7.619  -3.503  1.00  0.00    -0.550 OA
ATOM      9  O   UNL     1       6.808  -6.634  -4.519  1.00  0.00    -0.550 OA
ENDBRANCH   6   7
ENDBRANCH   5   6
ENDBRANCH   4   5
ENDBRANCH   3   4
ENDBRANCH   2   3
ENDBRANCH   1   2
BRANCH   1  10
ATOM     10  C   UNL     1       4.947  -3.489 -10.003  1.00  0.00     0.000 C 
BRANCH  10  11
ATOM     11  C   UNL     1       4.891  -2.296  -9.032  1.00  0.00    -0.000 C 
BRANCH  11  12
ATOM     12  C   UNL     1       3.567  -2.229  -8.254  1.00  0.00    -0.000 C 
BRANCH  12  13
ATOM     13  C   UNL     1       3.324  -3.475  -7.384  1.00  0.00    -0.000 C 
BRANCH  13  14
ATOM     14  C   UNL     1       1.844  -3.915  -7.399  1.00  0.00    -0.000 C 
BRANCH  14  15
ATOM     15  C   UNL     1       1.224  -3.940  -8.806  1.00  0.00    -0.003 C 
ATOM     16  C   UNL     1       1.621  -5.175  -9.614  1.00  0.00     0.004 C 
ENDBRANCH  14  15
ENDBRANCH  13  14
ENDBRANCH  12  13
ENDBRANCH  11  12
ENDBRANCH  10  11
ENDBRANCH   1  10
TORSDOF 12
ENDMDL
MODEL 4
REMARK VINA RESULT:    -3.682     10.111     12.712
REMARK INTER + INTRA:          -8.130
REMARK INTER:                  -7.266
REMARK INTRA:                  -0.864
REMARK UNBOUND:                -1.864
REMARK SMILES CCCCCCCCCCCCCC(=O)[O-]
REMARK SMILES IDX 8 1 9 2 10 3 11 4 12 5 13 6 14 7 15 8 16 9 7 10 6 11 5 12
REMARK SMILES IDX 4 13 3 14 2 15 1 16
REMARK H PARENT
REMARK Flexibility Score: inf
ROOT
ATOM      1  C   UNL     1       4.943   5.581  -9.782  1.00  0.00     0.000 C 
ENDROOT
BRANCH   1   2
ATOM      2  C   UNL     1       6.006   6.689  -9.685  1.00  0.00     0.000 C 
BRANCH   2   3
ATOM      3  C   UNL     1       5.746   7.660  -8.522  1.00  0.00     0.000 C 
BRANCH   3   4
ATOM      4  C   UNL     1       7.042   8.277  -7.966  1.00  0.00     0.000 C 
BRANCH   4   5
ATOM      5  C   UNL     1       7.275   7.925  -6.488  1.00  0.00     0.006 C 
BRANCH   5   6
ATOM      6  C   UNL     1       6.017   7.366  -5.807  1.00  0.00     0.053 C 
BRANCH   6   7
ATOM      7  C   UNL     1       5.972   7.784  -4.372  1.00  0.00     0.041 C 
ATOM      8  O   UNL     1       5.249   7.160  -3.551  1.00  0.00    -0.550 OA
ATOM      9  O   UNL     1       6.770   8.832  -3.928  1.00  0.00    -0.550 OA
ENDBRANCH   6   7
ENDBRANCH   5   6
ENDBRANCH   4   5
ENDBRANCH   3   4
ENDBRANCH   2   3
ENDBRANCH   1   2
BRANCH   1  10
ATOM     10  C   UNL     1       5.534   4.175  -9.585  1.00  0.00     0.000 C 
BRANCH  10  11
ATOM     11  C   UNL     1       6.397   4.070  -8.315  1.00  0.00    -0.000 C 
BRANCH  11  12
ATOM     12  C   UNL     1       7.313   2.836  -8.324  1.00  0.00    -0.000 C 
BRANCH  12  13
ATOM     13  C   UNL     1       6.712   1.652  -9.102  1.00  0.00    -0.000 C 
BRANCH  13  14
ATOM     14  C   UNL     1       6.501   0.413  -8.205  1.00  0.00    -0.000 C 
BRANCH  14  15
ATOM     15  C   UNL     1       6.870   0.652  -6.731  1.00  0.00    -0.003 C 
ATOM     16  C   UNL     1       8.264   0.143  -6.373  1.00  0.00     0.004 C 
ENDBRANCH  14  15
ENDBRANCH  13  14
ENDBRANCH  12  13
ENDBRANCH  11  12
ENDBRANCH  10  11
ENDBRANCH   1  10
TORSDOF 12
ENDMDL
MODEL 5
REMARK VINA RESULT:    -3.679      2.418      3.520
REMARK INTER + INTRA:          -8.124
REMARK INTER:                  -7.359
REMARK INTRA:                  -0.765
REMARK UNBOUND:                -1.864
REMARK SMILES CCCCCCCCCCCCCC(=O)[O-]
REMARK SMILES IDX 8 1 9 2 10 3 11 4 12 5 13 6 14 7 15 8 16 9 7 10 6 11 5 12
REMARK SMILES IDX 4 13 3 14 2 15 1 16
REMARK H PARENT
REMARK Flexibility Score: inf
ROOT
ATOM      1  C   UNL     1       2.601  -3.888  -7.149  1.00  0.00     0.000 C 
ENDROOT
BRANCH   1   2
ATOM      2  C   UNL     1       3.588  -5.022  -6.822  1.00  0.00     0.000 C 
BRANCH   2   3
ATOM      3  C   UNL     1       2.962  -6.118  -5.944  1.00  0.00     0.000 C 
BRANCH   3   4
ATOM      4  C   UNL     1       3.931  -6.636  -4.865  1.00  0.00     0.000 C 
BRANCH   4   5
ATOM      5  C   UNL     1       5.402  -6.362  -5.214  1.00  0.00     0.006 C 
BRANCH   5   6
ATOM      6  C   UNL     1       6.082  -7.558  -5.896  1.00  0.00     0.053 C 
BRANCH   6   7
ATOM      7  C   UNL     1       7.564  -7.362  -5.936  1.00  0.00     0.041 C 
ATOM      8  O   UNL     1       8.180  -7.397  -7.034  1.00  0.00    -0.550 OA
ATOM      9  O   UNL     1       8.260  -7.089  -4.765  1.00  0.00    -0.550 OA
ENDBRANCH   6   7
ENDBRANCH   5   6
ENDBRANCH   4   5
ENDBRANCH   3   4
ENDBRANCH   2   3
ENDBRANCH   1   2
BRANCH   1  10
ATOM     10  C   UNL     1       3.235  -2.782  -8.009  1.00  0.00     0.000 C 
BRANCH  10  11
ATOM     11  C   UNL     1       4.508  -3.253  -8.733  1.00  0.00    -0.000 C 
BRANCH  11  12
ATOM     12  C   UNL     1       5.033  -2.216  -9.739  1.00  0.00    -0.000 C 
BRANCH  12  13
ATOM     13  C   UNL     1       6.480  -1.781  -9.447  1.00  0.00    -0.000 C 
BRANCH  13  14
ATOM     14  C   UNL     1       6.567  -0.301  -9.018  1.00  0.00    -0.000 C 
BRANCH  14  15
ATOM     15  C   UNL     1       6.016  -0.035  -7.607  1.00  0.00    -0.003 C 
ATOM     16  C   UNL     1       7.055   0.562  -6.661  1.00  0.00     0.004 C 
ENDBRANCH  14  15
ENDBRANCH  13  14
ENDBRANCH  12  13
ENDBRANCH  11  12
ENDBRANCH  10  11
ENDBRANCH   1  10
TORSDOF 12
ENDMDL
MODEL 6
REMARK VINA RESULT:    -3.638      1.902      3.216
REMARK INTER + INTRA:          -8.055
REMARK INTER:                  -6.756
REMARK INTRA:                  -1.299
REMARK UNBOUND:                -1.864
REMARK SMILES CCCCCCCCCCCCCC(=O)[O-]
REMARK SMILES IDX 8 1 9 2 10 3 11 4 12 5 13 6 14 7 15 8 16 9 7 10 6 11 5 12
REMARK SMILES IDX 4 13 3 14 2 15 1 16
REMARK H PARENT
REMARK Flexibility Score: inf
ROOT
ATOM      1  C   UNL     1       4.898  -6.045  -5.269  1.00  0.00     0.000 C 
ENDROOT
BRANCH   1   2
ATOM      2  C   UNL     1       4.028  -7.017  -4.454  1.00  0.00     0.000 C 
BRANCH   2   3
ATOM      3  C   UNL     1       4.807  -8.257  -3.984  1.00  0.00     0.000 C 
BRANCH   3   4
ATOM      4  C   UNL     1       4.994  -9.297  -5.105  1.00  0.00     0.000 C 
BRANCH   4   5
ATOM      5  C   UNL     1       6.452  -9.390  -5.584  1.00  0.00     0.006 C 
BRANCH   5   6
ATOM      6  C   UNL     1       7.433  -8.687  -4.635  1.00  0.00     0.053 C 
BRANCH   6   7
ATOM      7  C   UNL     1       8.279  -7.712  -5.390  1.00  0.00     0.041 C 
ATOM      8  O   UNL     1       9.376  -7.319  -4.912  1.00  0.00    -0.550 OA
ATOM      9  O   UNL     1       7.880  -7.272  -6.646  1.00  0.00    -0.550 OA
ENDBRANCH   6   7
ENDBRANCH   5   6
ENDBRANCH   4   5
ENDBRANCH   3   4
ENDBRANCH   2   3
ENDBRANCH   1   2
BRANCH   1  10
ATOM     10  C   UNL     1       4.349  -5.808  -6.686  1.00  0.00     0.000 C 
BRANCH  10  11
ATOM     11  C   UNL     1       2.831  -5.561  -6.699  1.00  0.00    -0.000 C 
BRANCH  11  12
ATOM     12  C   UNL     1       2.399  -4.595  -7.814  1.00  0.00    -0.000 C 
BRANCH  12  13
ATOM     13  C   UNL     1       2.533  -3.116  -7.407  1.00  0.00    -0.000 C 
BRANCH  13  14
ATOM     14  C   UNL     1       3.732  -2.430  -8.096  1.00  0.00    -0.000 C 
BRANCH  14  15
ATOM     15  C   UNL     1       4.139  -3.091  -9.423  1.00  0.00    -0.003 C 
ATOM     16  C   UNL     1       5.635  -3.391  -9.509  1.00  0.00     0.004 C 
ENDBRANCH  14  15
ENDBRANCH  13  14
ENDBRANCH  12  13
ENDBRANCH  11  12
ENDBRANCH  10  11
ENDBRANCH   1  10
TORSDOF 12
ENDMDL
MODEL 7
REMARK VINA RESULT:    -3.638      7.774     10.310
REMARK INTER + INTRA:          -8.054
REMARK INTER:                  -7.405
REMARK INTRA:                  -0.648
REMARK UNBOUND:                -1.864
REMARK SMILES CCCCCCCCCCCCCC(=O)[O-]
REMARK SMILES IDX 8 1 9 2 10 3 11 4 12 5 13 6 14 7 15 8 16 9 7 10 6 11 5 12
REMARK SMILES IDX 4 13 3 14 2 15 1 16
REMARK H PARENT
REMARK Flexibility Score: inf
ROOT
ATOM      1  C   UNL     1       6.324   0.509  -7.467  1.00  0.00     0.000 C 
ENDROOT
BRANCH   1   2
ATOM      2  C   UNL     1       6.412   2.001  -7.829  1.00  0.00     0.000 C 
BRANCH   2   3
ATOM      3  C   UNL     1       6.714   2.233  -9.319  1.00  0.00     0.000 C 
BRANCH   3   4
ATOM      4  C   UNL     1       6.589   3.714  -9.723  1.00  0.00     0.000 C 
BRANCH   4   5
ATOM      5  C   UNL     1       6.084   4.599  -8.572  1.00  0.00     0.006 C 
BRANCH   5   6
ATOM      6  C   UNL     1       5.475   5.920  -9.064  1.00  0.00     0.053 C 
BRANCH   6   7
ATOM      7  C   UNL     1       5.779   7.023  -8.102  1.00  0.00     0.041 C 
ATOM      8  O   UNL     1       5.833   8.216  -8.500  1.00  0.00    -0.550 OA
ATOM      9  O   UNL     1       5.952   6.740  -6.752  1.00  0.00    -0.550 OA
ENDBRANCH   6   7
ENDBRANCH   5   6
ENDBRANCH   4   5
ENDBRANCH   3   4
ENDBRANCH   2   3
ENDBRANCH   1   2
BRANCH   1  10
ATOM     10  C   UNL     1       6.994  -0.394  -8.517  1.00  0.00     0.000 C 
BRANCH  10  11
ATOM     11  C   UNL     1       6.048  -1.487  -9.045  1.00  0.00    -0.000 C 
BRANCH  11  12
ATOM     12  C   UNL     1       4.739  -1.574  -8.244  1.00  0.00    -0.000 C 
BRANCH  12  13
ATOM     13  C   UNL     1       3.967  -2.879  -8.503  1.00  0.00    -0.000 C 
BRANCH  13  14
ATOM     14  C   UNL     1       2.776  -3.052  -7.535  1.00  0.00    -0.000 C 
BRANCH  14  15
ATOM     15  C   UNL     1       2.543  -4.509  -7.101  1.00  0.00    -0.003 C 
ATOM     16  C   UNL     1       3.827  -5.220  -6.678  1.00  0.00     0.004 C 
ENDBRANCH  14  15
ENDBRANCH  13  14
ENDBRANCH  12  13
ENDBRANCH  11  12
ENDBRANCH  10  11
ENDBRANCH   1  10
TORSDOF 12
ENDMDL
MODEL 8
REMARK VINA RESULT:    -3.619      4.196      6.713
REMARK INTER + INTRA:          -8.023
REMARK INTER:                  -6.958
REMARK INTRA:                  -1.065
REMARK UNBOUND:                -1.864
REMARK SMILES CCCCCCCCCCCCCC(=O)[O-]
REMARK SMILES IDX 8 1 9 2 10 3 11 4 12 5 13 6 14 7 15 8 16 9 7 10 6 11 5 12
REMARK SMILES IDX 4 13 3 14 2 15 1 16
REMARK H PARENT
REMARK Flexibility Score: inf
ROOT
ATOM      1  C   UNL     1       3.291  -3.485  -7.151  1.00  0.00     0.000 C 
ENDROOT
BRANCH   1   2
ATOM      2  C   UNL     1       3.052  -2.548  -8.347  1.00  0.00     0.000 C 
BRANCH   2   3
ATOM      3  C   UNL     1       3.938  -2.891  -9.556  1.00  0.00     0.000 C 
BRANCH   3   4
ATOM      4  C   UNL     1       5.375  -2.357  -9.406  1.00  0.00     0.000 C 
BRANCH   4   5
ATOM      5  C   UNL     1       5.445  -1.094  -8.533  1.00  0.00     0.006 C 
BRANCH   5   6
ATOM      6  C   UNL     1       6.863  -0.510  -8.450  1.00  0.00     0.053 C 
BRANCH   6   7
ATOM      7  C   UNL     1       6.972   0.429  -7.291  1.00  0.00     0.041 C 
ATOM      8  O   UNL     1       7.877   0.271  -6.429  1.00  0.00    -0.550 OA
ATOM      9  O   UNL     1       6.106   1.511  -7.189  1.00  0.00    -0.550 OA
ENDBRANCH   6   7
ENDBRANCH   5   6
ENDBRANCH   4   5
ENDBRANCH   3   4
ENDBRANCH   2   3
ENDBRANCH   1   2
BRANCH   1  10
ATOM     10  C   UNL     1       2.451  -4.771  -7.230  1.00  0.00     0.000 C 
BRANCH  10  11
ATOM     11  C   UNL     1       3.291  -6.002  -7.614  1.00  0.00    -0.000 C 
BRANCH  11  12
ATOM     12  C   UNL     1       4.802  -5.735  -7.530  1.00  0.00    -0.000 C 
BRANCH  12  13
ATOM     13  C   UNL     1       5.508  -6.624  -6.491  1.00  0.00    -0.000 C 
BRANCH  13  14
ATOM     14  C   UNL     1       5.178  -6.201  -5.043  1.00  0.00    -0.000 C 
BRANCH  14  15
ATOM     15  C   UNL     1       4.478  -7.299  -4.225  1.00  0.00    -0.003 C 
ATOM     16  C   UNL     1       4.708  -8.702  -4.786  1.00  0.00     0.004 C 
ENDBRANCH  14  15
ENDBRANCH  13  14
ENDBRANCH  12  13
ENDBRANCH  11  12
ENDBRANCH  10  11
ENDBRANCH   1  10
TORSDOF 12
ENDMDL
MODEL 9
REMARK VINA RESULT:    -3.393      3.042      6.283
REMARK INTER + INTRA:          -7.638
REMARK INTER:                  -5.797
REMARK INTRA:                  -1.841
REMARK UNBOUND:                -1.864
REMARK SMILES CCCCCCCCCCCCCC(=O)[O-]
REMARK SMILES IDX 8 1 9 2 10 3 11 4 12 5 13 6 14 7 15 8 16 9 7 10 6 11 5 12
REMARK SMILES IDX 4 13 3 14 2 15 1 16
REMARK H PARENT
REMARK Flexibility Score: inf
ROOT
ATOM      1  C   UNL     1       3.847  -6.375  -4.999  1.00  0.00     0.000 C 
ENDROOT
BRANCH   1   2
ATOM      2  C   UNL     1       3.348  -5.946  -6.390  1.00  0.00     0.000 C 
BRANCH   2   3
ATOM      3  C   UNL     1       4.497  -5.698  -7.381  1.00  0.00     0.000 C 
BRANCH   3   4
ATOM      4  C   UNL     1       4.003  -5.528  -8.829  1.00  0.00     0.000 C 
BRANCH   4   5
ATOM      5  C   UNL     1       2.470  -5.459  -8.924  1.00  0.00     0.006 C 
BRANCH   5   6
ATOM      6  C   UNL     1       1.975  -4.163  -9.582  1.00  0.00     0.053 C 
BRANCH   6   7
ATOM      7  C   UNL     1       1.384  -3.250  -8.555  1.00  0.00     0.041 C 
ATOM      8  O   UNL     1       0.171  -2.919  -8.623  1.00  0.00    -0.550 OA
ATOM      9  O   UNL     1       2.161  -2.804  -7.493  1.00  0.00    -0.550 OA
ENDBRANCH   6   7
ENDBRANCH   5   6
ENDBRANCH   4   5
ENDBRANCH   3   4
ENDBRANCH   2   3
ENDBRANCH   1   2
BRANCH   1  10
ATOM     10  C   UNL     1       5.380  -6.349  -4.887  1.00  0.00     0.000 C 
BRANCH  10  11
ATOM     11  C   UNL     1       5.969  -7.721  -4.516  1.00  0.00    -0.000 C 
BRANCH  11  12
ATOM     12  C   UNL     1       4.924  -8.847  -4.572  1.00  0.00    -0.000 C 
BRANCH  12  13
ATOM     13  C   UNL     1       5.267  -9.926  -5.615  1.00  0.00    -0.000 C 
BRANCH  13  14
ATOM     14  C   UNL     1       5.021  -9.439  -7.059  1.00  0.00    -0.000 C 
BRANCH  14  15
ATOM     15  C   UNL     1       3.546  -9.513  -7.490  1.00  0.00    -0.003 C 
ATOM     16  C   UNL     1       3.332  -9.148  -8.958  1.00  0.00     0.004 C 
ENDBRANCH  14  15
ENDBRANCH  13  14
ENDBRANCH  12  13
ENDBRANCH  11  12
ENDBRANCH  10  11
ENDBRANCH   1  10
TORSDOF 12
ENDMDL
