MODEL 1
REMARK VINA RESULT:    -5.246      0.000      0.000
REMARK INTER + INTRA:          -8.187
REMARK INTER:                  -7.700
REMARK INTRA:                  -0.488
REMARK UNBOUND:                -0.488
REMARK SMILES O=C([O-])CCCCCCCC(=O)[O-]
REMARK SMILES IDX 7 1 6 2 5 3 4 4 2 5 1 6 3 7 8 8 9 9 10 10 11 11 12 12 13 13
REMARK H PARENT
REMARK Flexibility Score: inf
ROOT
ATOM      1  C   UNL     1      28.123  -9.017  20.625  1.00  0.00     0.000 C 
ENDROOT
BRANCH   1   2
ATOM      2  C   UNL     1      26.686  -9.098  20.088  1.00  0.00     0.000 C 
BRANCH   2   3
ATOM      3  C   UNL     1      26.489  -8.139  18.904  1.00  0.00     0.006 C 
BRANCH   3   4
ATOM      4  C   UNL     1      27.680  -7.188  18.722  1.00  0.00     0.053 C 
BRANCH   4   5
ATOM      5  C   UNL     1      27.264  -5.752  18.803  1.00  0.00     0.041 C 
ATOM      6  O   UNL     1      26.420  -5.385  19.663  1.00  0.00    -0.550 OA
ATOM      7  O   UNL     1      27.832  -4.814  17.952  1.00  0.00    -0.550 OA
ENDBRANCH   4   5
ENDBRANCH   3   4
ENDBRANCH   2   3
ENDBRANCH   1   2
BRANCH   1   8
ATOM      8  C   UNL     1      28.655 -10.377  21.103  1.00  0.00     0.000 C 
BRANCH   8   9
ATOM      9  C   UNL     1      27.606 -11.495  20.991  1.00  0.00     0.006 C 
BRANCH   9  10
ATOM     10  C   UNL     1      28.132 -12.654  20.138  1.00  0.00     0.053 C 
BRANCH  10  11
ATOM     11  C   UNL     1      27.121 -13.046  19.108  1.00  0.00     0.041 C 
ATOM     12  O   UNL     1      25.917 -12.704  19.240  1.00  0.00    -0.550 OA
ATOM     13  O   UNL     1      27.517 -13.749  17.977  1.00  0.00    -0.550 OA
ENDBRANCH  10  11
ENDBRANCH   9  10
ENDBRANCH   8   9
ENDBRANCH   1   8
TORSDOF 8
ENDMDL
MODEL 2
REMARK VINA RESULT:    -5.010      0.949      6.444
REMARK INTER + INTRA:          -7.840
REMARK INTER:                  -7.421
REMARK INTRA:                  -0.419
REMARK UNBOUND:                -0.488
REMARK SMILES O=C([O-])CCCCCCCC(=O)[O-]
REMARK SMILES IDX 7 1 6 2 5 3 4 4 2 5 1 6 3 7 8 8 9 9 10 10 11 11 12 12 13 13
REMARK H PARENT
REMARK Flexibility Score: inf
ROOT
ATOM      1  C   UNL     1      27.604  -8.761  20.139  1.00  0.00     0.000 C 
ENDROOT
BRANCH   1   2
ATOM      2  C   UNL     1      27.732 -10.099  20.884  1.00  0.00     0.000 C 
BRANCH   2   3
ATOM      3  C   UNL     1      26.756 -11.139  20.313  1.00  0.00     0.006 C 
BRANCH   3   4
ATOM      4  C   UNL     1      27.472 -12.418  19.856  1.00  0.00     0.053 C 
BRANCH   4   5
ATOM      5  C   UNL     1      26.761 -13.076  18.714  1.00  0.00     0.041 C 
ATOM      6  O   UNL     1      26.279 -12.380  17.783  1.00  0.00    -0.550 OA
ATOM      7  O   UNL     1      26.661 -14.461  18.663  1.00  0.00    -0.550 OA
ENDBRANCH   4   5
ENDBRANCH   3   4
ENDBRANCH   2   3
ENDBRANCH   1   2
BRANCH   1   8
ATOM      8  C   UNL     1      26.345  -8.689  19.260  1.00  0.00     0.000 C 
BRANCH   8   9
ATOM      9  C   UNL     1      26.080  -7.275  18.721  1.00  0.00     0.006 C 
BRANCH   9  10
ATOM     10  C   UNL     1      27.396  -6.539  18.448  1.00  0.00     0.053 C 
BRANCH  10  11
ATOM     11  C   UNL     1      27.356  -5.162  19.032  1.00  0.00     0.041 C 
ATOM     12  O   UNL     1      27.031  -4.995  20.237  1.00  0.00    -0.550 OA
ATOM     13  O   UNL     1      27.724  -4.068  18.259  1.00  0.00    -0.550 OA
ENDBRANCH  10  11
ENDBRANCH   9  10
ENDBRANCH   8   9
ENDBRANCH   1   8
TORSDOF 8
ENDMDL
MODEL 3
REMARK VINA RESULT:    -4.964      1.292      5.705
REMARK INTER + INTRA:          -7.773
REMARK INTER:                  -7.234
REMARK INTRA:                  -0.538
REMARK UNBOUND:                -0.488
REMARK SMILES O=C([O-])CCCCCCCC(=O)[O-]
REMARK SMILES IDX 7 1 6 2 5 3 4 4 2 5 1 6 3 7 8 8 9 9 10 10 11 11 12 12 13 13
REMARK H PARENT
REMARK Flexibility Score: inf
ROOT
ATOM      1  C   UNL     1      29.064  -9.673  21.998  1.00  0.00     0.000 C 
ENDROOT
BRANCH   1   2
ATOM      2  C   UNL     1      27.979 -10.761  21.942  1.00  0.00     0.000 C 
BRANCH   2   3
ATOM      3  C   UNL     1      28.065 -11.552  20.628  1.00  0.00     0.006 C 
BRANCH   3   4
ATOM      4  C   UNL     1      26.736 -11.550  19.861  1.00  0.00     0.053 C 
BRANCH   4   5
ATOM      5  C   UNL     1      26.653 -12.684  18.887  1.00  0.00     0.041 C 
ATOM      6  O   UNL     1      26.258 -12.480  17.709  1.00  0.00    -0.550 OA
ATOM      7  O   UNL     1      27.043 -13.961  19.271  1.00  0.00    -0.550 OA
ENDBRANCH   4   5
ENDBRANCH   3   4
ENDBRANCH   2   3
ENDBRANCH   1   2
BRANCH   1   8
ATOM      8  C   UNL     1      29.156  -8.859  20.698  1.00  0.00     0.000 C 
BRANCH   8   9
ATOM      9  C   UNL     1      28.091  -7.754  20.616  1.00  0.00     0.006 C 
BRANCH   9  10
ATOM     10  C   UNL     1      27.245  -7.904  19.347  1.00  0.00     0.053 C 
BRANCH  10  11
ATOM     11  C   UNL     1      26.221  -6.817  19.270  1.00  0.00     0.041 C 
ATOM     12  O   UNL     1      25.101  -7.038  18.738  1.00  0.00    -0.550 OA
ATOM     13  O   UNL     1      26.484  -5.573  19.828  1.00  0.00    -0.550 OA
ENDBRANCH  10  11
ENDBRANCH   9  10
ENDBRANCH   8   9
ENDBRANCH   1   8
TORSDOF 8
ENDMDL
MODEL 4
REMARK VINA RESULT:    -4.940      3.758      4.541
REMARK INTER + INTRA:          -7.738
REMARK INTER:                  -7.439
REMARK INTRA:                  -0.300
REMARK UNBOUND:                -0.488
REMARK SMILES O=C([O-])CCCCCCCC(=O)[O-]
REMARK SMILES IDX 7 1 6 2 5 3 4 4 2 5 1 6 3 7 8 8 9 9 10 10 11 11 12 12 13 13
REMARK H PARENT
REMARK Flexibility Score: inf
ROOT
ATOM      1  C   UNL     1      28.679  -9.008  21.913  1.00  0.00     0.000 C 
ENDROOT
BRANCH   1   2
ATOM      2  C   UNL     1      30.122  -8.623  22.277  1.00  0.00     0.000 C 
BRANCH   2   3
ATOM      3  C   UNL     1      31.081  -8.935  21.118  1.00  0.00     0.006 C 
BRANCH   3   4
ATOM      4  C   UNL     1      32.551  -8.902  21.557  1.00  0.00     0.053 C 
BRANCH   4   5
ATOM      5  C   UNL     1      33.479  -9.183  20.415  1.00  0.00     0.041 C 
ATOM      6  O   UNL     1      34.724  -9.212  20.603  1.00  0.00    -0.550 OA
ATOM      7  O   UNL     1      32.967  -9.446  19.151  1.00  0.00    -0.550 OA
ENDBRANCH   4   5
ENDBRANCH   3   4
ENDBRANCH   2   3
ENDBRANCH   1   2
BRANCH   1   8
ATOM      8  C   UNL     1      28.460 -10.530  21.890  1.00  0.00     0.000 C 
BRANCH   8   9
ATOM      9  C   UNL     1      27.632 -10.989  20.680  1.00  0.00     0.006 C 
BRANCH   9  10
ATOM     10  C   UNL     1      28.067 -12.384  20.218  1.00  0.00     0.053 C 
BRANCH  10  11
ATOM     11  C   UNL     1      27.098 -12.928  19.216  1.00  0.00     0.041 C 
ATOM     12  O   UNL     1      25.867 -12.691  19.331  1.00  0.00    -0.550 OA
ATOM     13  O   UNL     1      27.560 -13.657  18.127  1.00  0.00    -0.550 OA
ENDBRANCH  10  11
ENDBRANCH   9  10
ENDBRANCH   8   9
ENDBRANCH   1   8
TORSDOF 8
ENDMDL
MODEL 5
REMARK VINA RESULT:    -4.821     10.362     12.387
REMARK INTER + INTRA:          -7.563
REMARK INTER:                  -7.032
REMARK INTRA:                  -0.531
REMARK UNBOUND:                -0.488
REMARK SMILES O=C([O-])CCCCCCCC(=O)[O-]
REMARK SMILES IDX 7 1 6 2 5 3 4 4 2 5 1 6 3 7 8 8 9 9 10 10 11 11 12 12 13 13
REMARK H PARENT
REMARK Flexibility Score: inf
ROOT
ATOM      1  C   UNL     1      35.636  -9.628  21.433  1.00  0.00     0.000 C 
ENDROOT
BRANCH   1   2
ATOM      2  C   UNL     1      36.519 -10.678  20.741  1.00  0.00     0.000 C 
BRANCH   2   3
ATOM      3  C   UNL     1      37.949 -10.647  21.300  1.00  0.00     0.006 C 
BRANCH   3   4
ATOM      4  C   UNL     1      38.359 -11.990  21.919  1.00  0.00     0.053 C 
BRANCH   4   5
ATOM      5  C   UNL     1      39.344 -12.722  21.060  1.00  0.00     0.041 C 
ATOM      6  O   UNL     1      40.150 -12.081  20.336  1.00  0.00    -0.550 OA
ATOM      7  O   UNL     1      39.393 -14.110  21.085  1.00  0.00    -0.550 OA
ENDBRANCH   4   5
ENDBRANCH   3   4
ENDBRANCH   2   3
ENDBRANCH   1   2
BRANCH   1   8
ATOM      8  C   UNL     1      36.457  -8.538  22.142  1.00  0.00     0.000 C 
BRANCH   8   9
ATOM      9  C   UNL     1      36.015  -8.317  23.597  1.00  0.00     0.006 C 
BRANCH   9  10
ATOM     10  C   UNL     1      37.071  -8.843  24.574  1.00  0.00     0.053 C 
BRANCH  10  11
ATOM     11  C   UNL     1      37.885  -7.713  25.122  1.00  0.00     0.041 C 
ATOM     12  O   UNL     1      38.916  -7.949  25.805  1.00  0.00    -0.550 OA
ATOM     13  O   UNL     1      37.531  -6.400  24.839  1.00  0.00    -0.550 OA
ENDBRANCH  10  11
ENDBRANCH   9  10
ENDBRANCH   8   9
ENDBRANCH   1   8
TORSDOF 8
ENDMDL
MODEL 6
REMARK VINA RESULT:    -4.812     10.440     11.472
REMARK INTER + INTRA:          -7.551
REMARK INTER:                  -7.061
REMARK INTRA:                  -0.489
REMARK UNBOUND:                -0.488
REMARK SMILES O=C([O-])CCCCCCCC(=O)[O-]
REMARK SMILES IDX 7 1 6 2 5 3 4 4 2 5 1 6 3 7 8 8 9 9 10 10 11 11 12 12 13 13
REMARK H PARENT
REMARK Flexibility Score: inf
ROOT
ATOM      1  C   UNL     1      35.462  -9.267  21.193  1.00  0.00     0.000 C 
ENDROOT
BRANCH   1   2
ATOM      2  C   UNL     1      35.582  -8.046  22.119  1.00  0.00     0.000 C 
BRANCH   2   3
ATOM      3  C   UNL     1      36.924  -8.053  22.865  1.00  0.00     0.006 C 
BRANCH   3   4
ATOM      4  C   UNL     1      36.746  -8.246  24.378  1.00  0.00     0.053 C 
BRANCH   4   5
ATOM      5  C   UNL     1      37.961  -8.852  25.008  1.00  0.00     0.041 C 
ATOM      6  O   UNL     1      38.366  -9.987  24.641  1.00  0.00    -0.550 OA
ATOM      7  O   UNL     1      38.665  -8.151  25.979  1.00  0.00    -0.550 OA
ENDBRANCH   4   5
ENDBRANCH   3   4
ENDBRANCH   2   3
ENDBRANCH   1   2
BRANCH   1   8
ATOM      8  C   UNL     1      36.285 -10.467  21.686  1.00  0.00     0.000 C 
BRANCH   8   9
ATOM      9  C   UNL     1      37.261 -10.992  20.621  1.00  0.00     0.006 C 
BRANCH   9  10
ATOM     10  C   UNL     1      38.714 -10.770  21.055  1.00  0.00     0.053 C 
BRANCH  10  11
ATOM     11  C   UNL     1      39.558 -11.946  20.676  1.00  0.00     0.041 C 
ATOM     12  O   UNL     1      39.224 -13.107  21.034  1.00  0.00    -0.550 OA
ATOM     13  O   UNL     1      40.687 -11.767  19.889  1.00  0.00    -0.550 OA
ENDBRANCH  10  11
ENDBRANCH   9  10
ENDBRANCH   8   9
ENDBRANCH   1   8
TORSDOF 8
ENDMDL
MODEL 7
REMARK VINA RESULT:    -4.757      2.883      3.539
REMARK INTER + INTRA:          -7.470
REMARK INTER:                  -6.784
REMARK INTRA:                  -0.685
REMARK UNBOUND:                -0.488
REMARK SMILES O=C([O-])CCCCCCCC(=O)[O-]
REMARK SMILES IDX 7 1 6 2 5 3 4 4 2 5 1 6 3 7 8 8 9 9 10 10 11 11 12 12 13 13
REMARK H PARENT
REMARK Flexibility Score: inf
ROOT
ATOM      1  C   UNL     1      26.330 -10.226  20.404  1.00  0.00     0.000 C 
ENDROOT
BRANCH   1   2
ATOM      2  C   UNL     1      26.356  -9.435  19.087  1.00  0.00     0.000 C 
BRANCH   2   3
ATOM      3  C   UNL     1      26.259  -7.925  19.352  1.00  0.00     0.006 C 
BRANCH   3   4
ATOM      4  C   UNL     1      27.451  -7.156  18.767  1.00  0.00     0.053 C 
BRANCH   4   5
ATOM      5  C   UNL     1      27.206  -5.678  18.750  1.00  0.00     0.041 C 
ATOM      6  O   UNL     1      26.304  -5.178  19.472  1.00  0.00    -0.550 OA
ATOM      7  O   UNL     1      27.997  -4.851  17.963  1.00  0.00    -0.550 OA
ENDBRANCH   4   5
ENDBRANCH   3   4
ENDBRANCH   2   3
ENDBRANCH   1   2
BRANCH   1   8
ATOM      8  C   UNL     1      27.639 -10.986  20.666  1.00  0.00     0.000 C 
BRANCH   8   9
ATOM      9  C   UNL     1      28.344 -10.525  21.951  1.00  0.00     0.006 C 
BRANCH   9  10
ATOM     10  C   UNL     1      29.484  -9.553  21.630  1.00  0.00     0.053 C 
BRANCH  10  11
ATOM     11  C   UNL     1      29.093  -8.153  21.988  1.00  0.00     0.041 C 
ATOM     12  O   UNL     1      27.951  -7.916  22.462  1.00  0.00    -0.550 OA
ATOM     13  O   UNL     1      30.007  -7.118  21.842  1.00  0.00    -0.550 OA
ENDBRANCH  10  11
ENDBRANCH   9  10
ENDBRANCH   8   9
ENDBRANCH   1   8
TORSDOF 8
ENDMDL
MODEL 8
REMARK VINA RESULT:    -4.729      2.598      5.721
REMARK INTER + INTRA:          -7.429
REMARK INTER:                  -7.042
REMARK INTRA:                  -0.387
REMARK UNBOUND:                -0.488
REMARK SMILES O=C([O-])CCCCCCCC(=O)[O-]
REMARK SMILES IDX 7 1 6 2 5 3 4 4 2 5 1 6 3 7 8 8 9 9 10 10 11 11 12 12 13 13
REMARK H PARENT
REMARK Flexibility Score: inf
ROOT
ATOM      1  C   UNL     1      26.437  -9.350  19.347  1.00  0.00     0.000 C 
ENDROOT
BRANCH   1   2
ATOM      2  C   UNL     1      26.320 -10.583  20.256  1.00  0.00     0.000 C 
BRANCH   2   3
ATOM      3  C   UNL     1      27.709 -11.121  20.632  1.00  0.00     0.006 C 
BRANCH   3   4
ATOM      4  C   UNL     1      28.175 -10.616  22.005  1.00  0.00     0.053 C 
BRANCH   4   5
ATOM      5  C   UNL     1      28.937  -9.332  21.897  1.00  0.00     0.041 C 
ATOM      6  O   UNL     1      28.505  -8.291  22.459  1.00  0.00    -0.550 OA
ATOM      7  O   UNL     1      30.140  -9.293  21.205  1.00  0.00    -0.550 OA
ENDBRANCH   4   5
ENDBRANCH   3   4
ENDBRANCH   2   3
ENDBRANCH   1   2
BRANCH   1   8
ATOM      8  C   UNL     1      25.505  -8.206  19.776  1.00  0.00     0.000 C 
BRANCH   8   9
ATOM      9  C   UNL     1      25.556  -7.009  18.814  1.00  0.00     0.006 C 
BRANCH   9  10
ATOM     10  C   UNL     1      27.005  -6.622  18.500  1.00  0.00     0.053 C 
BRANCH  10  11
ATOM     11  C   UNL     1      27.242  -5.180  18.818  1.00  0.00     0.041 C 
ATOM     12  O   UNL     1      26.664  -4.645  19.801  1.00  0.00    -0.550 OA
ATOM     13  O   UNL     1      28.138  -4.438  18.059  1.00  0.00    -0.550 OA
ENDBRANCH  10  11
ENDBRANCH   9  10
ENDBRANCH   8   9
ENDBRANCH   1   8
TORSDOF 8
ENDMDL
MODEL 9
REMARK VINA RESULT:    -4.714     10.804     11.895
REMARK INTER + INTRA:          -7.406
REMARK INTER:                  -6.816
REMARK INTRA:                  -0.590
REMARK UNBOUND:                -0.488
REMARK SMILES O=C([O-])CCCCCCCC(=O)[O-]
REMARK SMILES IDX 7 1 6 2 5 3 4 4 2 5 1 6 3 7 8 8 9 9 10 10 11 11 12 12 13 13
REMARK H PARENT
REMARK Flexibility Score: inf
ROOT
ATOM      1  C   UNL     1      35.909  -9.228  21.917  1.00  0.00     0.000 C 
ENDROOT
BRANCH   1   2
ATOM      2  C   UNL     1      37.014  -8.335  22.503  1.00  0.00     0.000 C 
BRANCH   2   3
ATOM      3  C   UNL     1      36.717  -7.985  23.968  1.00  0.00     0.006 C 
BRANCH   3   4
ATOM      4  C   UNL     1      37.354  -8.984  24.945  1.00  0.00     0.053 C 
BRANCH   4   5
ATOM      5  C   UNL     1      38.839  -9.058  24.775  1.00  0.00     0.041 C 
ATOM      6  O   UNL     1      39.558  -8.059  25.045  1.00  0.00    -0.550 OA
ATOM      7  O   UNL     1      39.433 -10.239  24.350  1.00  0.00    -0.550 OA
ENDBRANCH   4   5
ENDBRANCH   3   4
ENDBRANCH   2   3
ENDBRANCH   1   2
BRANCH   1   8
ATOM      8  C   UNL     1      36.461 -10.331  21.000  1.00  0.00     0.000 C 
BRANCH   8   9
ATOM      9  C   UNL     1      37.547 -11.178  21.681  1.00  0.00     0.006 C 
BRANCH   9  10
ATOM     10  C   UNL     1      38.714 -11.441  20.724  1.00  0.00     0.053 C 
BRANCH  10  11
ATOM     11  C   UNL     1      39.582 -12.542  21.248  1.00  0.00     0.041 C 
ATOM     12  O   UNL     1      40.568 -12.276  21.984  1.00  0.00    -0.550 OA
ATOM     13  O   UNL     1      39.272 -13.866  20.963  1.00  0.00    -0.550 OA
ENDBRANCH  10  11
ENDBRANCH   9  10
ENDBRANCH   8   9
ENDBRANCH   1   8
TORSDOF 8
ENDMDL
