MODEL 1
REMARK VINA RESULT:    -5.537      0.000      0.000
REMARK INTER + INTRA:          -6.223
REMARK INTER:                  -6.023
REMARK INTRA:                  -0.200
REMARK UNBOUND:                -0.200
REMARK SMILES C=C(C)[C@H]1CC[C@H](C)C[C@@H]1O
REMARK SMILES IDX 8 1 7 2 6 3 5 4 4 5 10 6 9 7 11 8 2 10 1 11 3 12
REMARK H PARENT 11 9
REMARK Flexibility Score: inf
ROOT
ATOM      1  C   UNL     1      14.834  15.119  29.818  1.00  0.00     0.008 C 
ATOM      2  C   UNL     1      13.949  15.605  28.666  1.00  0.00    -0.012 C 
ATOM      3  C   UNL     1      14.004  17.139  28.553  1.00  0.00     0.004 C 
ATOM      4  C   UNL     1      13.135  17.636  27.393  1.00  0.00     0.011 C 
ATOM      5  C   UNL     1      13.559  16.980  26.064  1.00  0.00     0.043 C 
ATOM      6  C   UNL     1      13.513  15.436  26.168  1.00  0.00     0.121 C 
ATOM      7  C   UNL     1      14.382  14.951  27.339  1.00  0.00     0.035 C 
ENDROOT
BRANCH   6   8
ATOM      8  O   UNL     1      13.997  14.857  24.982  1.00  0.00    -0.392 OA
ATOM      9  H   UNL     1      14.818  15.354  24.730  1.00  0.00     0.210 HD
ENDBRANCH   6   8
BRANCH   5  10
ATOM     10  C   UNL     1      12.699  17.495  24.914  1.00  0.00    -0.075 C 
ATOM     11  C   UNL     1      11.363  17.387  24.971  1.00  0.00     0.008 C 
ATOM     12  C   UNL     1      13.320  18.125  23.692  1.00  0.00     0.039 C 
ENDBRANCH   5  10
TORSDOF 2
ENDMDL
MODEL 2
REMARK VINA RESULT:    -5.457      0.155      1.053
REMARK INTER + INTRA:          -6.135
REMARK INTER:                  -5.948
REMARK INTRA:                  -0.187
REMARK UNBOUND:                -0.200
REMARK SMILES C=C(C)[C@H]1CC[C@H](C)C[C@@H]1O
REMARK SMILES IDX 8 1 7 2 6 3 5 4 4 5 10 6 9 7 11 8 2 10 1 11 3 12
REMARK H PARENT 11 9
REMARK Flexibility Score: inf
ROOT
ATOM      1  C   UNL     1      14.828  15.006  29.907  1.00  0.00     0.008 C 
ATOM      2  C   UNL     1      13.972  15.544  28.755  1.00  0.00    -0.012 C 
ATOM      3  C   UNL     1      14.111  17.073  28.648  1.00  0.00     0.004 C 
ATOM      4  C   UNL     1      13.272  17.621  27.489  1.00  0.00     0.011 C 
ATOM      5  C   UNL     1      13.661  16.948  26.158  1.00  0.00     0.043 C 
ATOM      6  C   UNL     1      13.531  15.409  26.256  1.00  0.00     0.121 C 
ATOM      7  C   UNL     1      14.371  14.872  27.426  1.00  0.00     0.035 C 
ENDROOT
BRANCH   6   8
ATOM      8  O   UNL     1      13.984  14.808  25.069  1.00  0.00    -0.392 OA
ATOM      9  H   UNL     1      14.124  13.846  25.265  1.00  0.00     0.210 HD
ENDBRANCH   6   8
BRANCH   5  10
ATOM     10  C   UNL     1      12.833  17.513  25.009  1.00  0.00    -0.075 C 
ATOM     11  C   UNL     1      13.438  18.125  23.979  1.00  0.00     0.008 C 
ATOM     12  C   UNL     1      11.328  17.406  25.000  1.00  0.00     0.039 C 
ENDBRANCH   5  10
TORSDOF 2
ENDMDL
MODEL 3
REMARK VINA RESULT:    -5.363      1.534      2.132
REMARK INTER + INTRA:          -6.033
REMARK INTER:                  -5.919
REMARK INTRA:                  -0.114
REMARK UNBOUND:                -0.200
REMARK SMILES C=C(C)[C@H]1CC[C@H](C)C[C@@H]1O
REMARK SMILES IDX 8 1 7 2 6 3 5 4 4 5 10 6 9 7 11 8 2 10 1 11 3 12
REMARK H PARENT 11 9
REMARK Flexibility Score: inf
ROOT
ATOM      1  C   UNL     1      15.124  14.902  29.690  1.00  0.00     0.008 C 
ATOM      2  C   UNL     1      14.789  15.751  28.460  1.00  0.00    -0.012 C 
ATOM      3  C   UNL     1      14.615  14.857  27.218  1.00  0.00     0.004 C 
ATOM      4  C   UNL     1      14.264  15.695  25.984  1.00  0.00     0.011 C 
ATOM      5  C   UNL     1      12.994  16.535  26.228  1.00  0.00     0.043 C 
ATOM      6  C   UNL     1      13.156  17.433  27.478  1.00  0.00     0.121 C 
ATOM      7  C   UNL     1      13.516  16.583  28.708  1.00  0.00     0.035 C 
ENDROOT
BRANCH   6   8
ATOM      8  O   UNL     1      11.956  18.115  27.743  1.00  0.00    -0.392 OA
ATOM      9  H   UNL     1      11.318  17.450  28.110  1.00  0.00     0.210 HD
ENDBRANCH   6   8
BRANCH   5  10
ATOM     10  C   UNL     1      12.643  17.350  24.988  1.00  0.00    -0.075 C 
ATOM     11  C   UNL     1      11.378  17.387  24.542  1.00  0.00     0.008 C 
ATOM     12  C   UNL     1      13.697  18.125  24.236  1.00  0.00     0.039 C 
ENDBRANCH   5  10
TORSDOF 2
ENDMDL
MODEL 4
REMARK VINA RESULT:    -5.036      1.522      4.406
REMARK INTER + INTRA:          -5.677
REMARK INTER:                  -5.806
REMARK INTRA:                   0.129
REMARK UNBOUND:                -0.200
REMARK SMILES C=C(C)[C@H]1CC[C@H](C)C[C@@H]1O
REMARK SMILES IDX 8 1 7 2 6 3 5 4 4 5 10 6 9 7 11 8 2 10 1 11 3 12
REMARK H PARENT 11 9
REMARK Flexibility Score: inf
ROOT
ATOM      1  C   UNL     1      12.120  17.414  23.180  1.00  0.00     0.008 C 
ATOM      2  C   UNL     1      12.904  16.700  24.286  1.00  0.00    -0.012 C 
ATOM      3  C   UNL     1      13.894  17.668  24.958  1.00  0.00     0.004 C 
ATOM      4  C   UNL     1      14.673  16.967  26.077  1.00  0.00     0.011 C 
ATOM      5  C   UNL     1      13.716  16.362  27.122  1.00  0.00     0.043 C 
ATOM      6  C   UNL     1      12.711  15.391  26.456  1.00  0.00     0.121 C 
ATOM      7  C   UNL     1      11.941  16.102  25.331  1.00  0.00     0.035 C 
ENDROOT
BRANCH   6   8
ATOM      8  O   UNL     1      11.785  14.926  27.406  1.00  0.00    -0.392 OA
ATOM      9  H   UNL     1      10.934  14.758  26.924  1.00  0.00     0.210 HD
ENDBRANCH   6   8
BRANCH   5  10
ATOM     10  C   UNL     1      14.501  15.684  28.240  1.00  0.00    -0.075 C 
ATOM     11  C   UNL     1      15.792  15.366  28.059  1.00  0.00     0.008 C 
ATOM     12  C   UNL     1      13.854  15.350  29.561  1.00  0.00     0.039 C 
ENDBRANCH   5  10
TORSDOF 2
ENDMDL
MODEL 5
REMARK VINA RESULT:    -5.002      1.740      4.624
REMARK INTER + INTRA:          -5.640
REMARK INTER:                  -5.560
REMARK INTRA:                  -0.080
REMARK UNBOUND:                -0.200
REMARK SMILES C=C(C)[C@H]1CC[C@H](C)C[C@@H]1O
REMARK SMILES IDX 8 1 7 2 6 3 5 4 4 5 10 6 9 7 11 8 2 10 1 11 3 12
REMARK H PARENT 11 9
REMARK Flexibility Score: inf
ROOT
ATOM      1  C   UNL     1      12.039  18.097  22.043  1.00  0.00     0.008 C 
ATOM      2  C   UNL     1      12.649  17.428  23.280  1.00  0.00    -0.012 C 
ATOM      3  C   UNL     1      13.972  18.113  23.667  1.00  0.00     0.004 C 
ATOM      4  C   UNL     1      14.583  17.461  24.912  1.00  0.00     0.011 C 
ATOM      5  C   UNL     1      13.593  17.490  26.094  1.00  0.00     0.043 C 
ATOM      6  C   UNL     1      12.256  16.809  25.713  1.00  0.00     0.121 C 
ATOM      7  C   UNL     1      11.657  17.466  24.459  1.00  0.00     0.035 C 
ENDROOT
BRANCH   6   8
ATOM      8  O   UNL     1      11.333  16.932  26.766  1.00  0.00    -0.392 OA
ATOM      9  H   UNL     1      11.718  16.456  27.547  1.00  0.00     0.210 HD
ENDBRANCH   6   8
BRANCH   5  10
ATOM     10  C   UNL     1      14.217  16.856  27.332  1.00  0.00    -0.075 C 
ATOM     11  C   UNL     1      14.046  17.421  28.537  1.00  0.00     0.008 C 
ATOM     12  C   UNL     1      15.040  15.595  27.237  1.00  0.00     0.039 C 
ENDBRANCH   5  10
TORSDOF 2
ENDMDL
MODEL 6
REMARK VINA RESULT:    -4.852      1.850      4.644
REMARK INTER + INTRA:          -5.477
REMARK INTER:                  -5.299
REMARK INTRA:                  -0.179
REMARK UNBOUND:                -0.200
REMARK SMILES C=C(C)[C@H]1CC[C@H](C)C[C@@H]1O
REMARK SMILES IDX 8 1 7 2 6 3 5 4 4 5 10 6 9 7 11 8 2 10 1 11 3 12
REMARK H PARENT 11 9
REMARK Flexibility Score: inf
ROOT
ATOM      1  C   UNL     1      11.381  17.397  24.535  1.00  0.00     0.008 C 
ATOM      2  C   UNL     1      12.133  16.691  25.669  1.00  0.00    -0.012 C 
ATOM      3  C   UNL     1      13.226  15.768  25.099  1.00  0.00     0.004 C 
ATOM      4  C   UNL     1      13.995  15.069  26.225  1.00  0.00     0.011 C 
ATOM      5  C   UNL     1      14.608  16.095  27.197  1.00  0.00     0.043 C 
ATOM      6  C   UNL     1      13.518  17.033  27.772  1.00  0.00     0.121 C 
ATOM      7  C   UNL     1      12.749  17.723  26.634  1.00  0.00     0.035 C 
ENDROOT
BRANCH   6   8
ATOM      8  O   UNL     1      14.107  18.023  28.577  1.00  0.00    -0.392 OA
ATOM      9  H   UNL     1      14.450  18.727  27.967  1.00  0.00     0.210 HD
ENDBRANCH   6   8
BRANCH   5  10
ATOM     10  C   UNL     1      15.386  15.390  28.303  1.00  0.00    -0.075 C 
ATOM     11  C   UNL     1      16.728  15.379  28.281  1.00  0.00     0.008 C 
ATOM     12  C   UNL     1      14.677  14.688  29.435  1.00  0.00     0.039 C 
ENDBRANCH   5  10
TORSDOF 2
ENDMDL
MODEL 7
REMARK VINA RESULT:    -4.788      1.272      4.383
REMARK INTER + INTRA:          -5.408
REMARK INTER:                  -5.242
REMARK INTRA:                  -0.166
REMARK UNBOUND:                -0.200
REMARK SMILES C=C(C)[C@H]1CC[C@H](C)C[C@@H]1O
REMARK SMILES IDX 8 1 7 2 6 3 5 4 4 5 10 6 9 7 11 8 2 10 1 11 3 12
REMARK H PARENT 11 9
REMARK Flexibility Score: inf
ROOT
ATOM      1  C   UNL     1      12.059  17.816  22.420  1.00  0.00     0.008 C 
ATOM      2  C   UNL     1      12.484  17.844  23.891  1.00  0.00    -0.012 C 
ATOM      3  C   UNL     1      11.336  17.358  24.794  1.00  0.00     0.004 C 
ATOM      4  C   UNL     1      11.756  17.368  26.268  1.00  0.00     0.011 C 
ATOM      5  C   UNL     1      13.018  16.510  26.490  1.00  0.00     0.043 C 
ATOM      6  C   UNL     1      14.178  16.987  25.582  1.00  0.00     0.121 C 
ATOM      7  C   UNL     1      13.742  16.980  24.107  1.00  0.00     0.035 C 
ENDROOT
BRANCH   6   8
ATOM      8  O   UNL     1      15.285  16.134  25.724  1.00  0.00    -0.392 OA
ATOM      9  H   UNL     1      15.883  16.544  26.401  1.00  0.00     0.210 HD
ENDBRANCH   6   8
BRANCH   5  10
ATOM     10  C   UNL     1      13.416  16.512  27.962  1.00  0.00    -0.075 C 
ATOM     11  C   UNL     1      13.948  17.613  28.515  1.00  0.00     0.008 C 
ATOM     12  C   UNL     1      13.231  15.289  28.825  1.00  0.00     0.039 C 
ENDBRANCH   5  10
TORSDOF 2
ENDMDL
MODEL 8
REMARK VINA RESULT:    -4.203      1.698      4.567
REMARK INTER + INTRA:          -4.771
REMARK INTER:                  -4.620
REMARK INTRA:                  -0.151
REMARK UNBOUND:                -0.200
REMARK SMILES C=C(C)[C@H]1CC[C@H](C)C[C@@H]1O
REMARK SMILES IDX 8 1 7 2 6 3 5 4 4 5 10 6 9 7 11 8 2 10 1 11 3 12
REMARK H PARENT 11 9
REMARK Flexibility Score: inf
ROOT
ATOM      1  C   UNL     1      12.370  17.456  23.834  1.00  0.00     0.008 C 
ATOM      2  C   UNL     1      12.380  17.067  25.316  1.00  0.00    -0.012 C 
ATOM      3  C   UNL     1      12.569  15.547  25.474  1.00  0.00     0.004 C 
ATOM      4  C   UNL     1      12.596  15.149  26.953  1.00  0.00     0.011 C 
ATOM      5  C   UNL     1      13.699  15.912  27.712  1.00  0.00     0.043 C 
ATOM      6  C   UNL     1      13.523  17.442  27.555  1.00  0.00     0.121 C 
ATOM      7  C   UNL     1      13.490  17.828  26.067  1.00  0.00     0.035 C 
ENDROOT
BRANCH   6   8
ATOM      8  O   UNL     1      14.592  18.118  28.168  1.00  0.00    -0.392 OA
ATOM      9  H   UNL     1      14.271  18.425  29.055  1.00  0.00     0.210 HD
ENDBRANCH   6   8
BRANCH   5  10
ATOM     10  C   UNL     1      13.730  15.495  29.178  1.00  0.00    -0.075 C 
ATOM     11  C   UNL     1      12.779  15.926  30.021  1.00  0.00     0.008 C 
ATOM     12  C   UNL     1      14.819  14.601  29.717  1.00  0.00     0.039 C 
ENDBRANCH   5  10
TORSDOF 2
ENDMDL
MODEL 9
REMARK VINA RESULT:    -3.892      2.283      5.334
REMARK INTER + INTRA:          -4.433
REMARK INTER:                  -4.540
REMARK INTRA:                   0.108
REMARK UNBOUND:                -0.200
REMARK SMILES C=C(C)[C@H]1CC[C@H](C)C[C@@H]1O
REMARK SMILES IDX 8 1 7 2 6 3 5 4 4 5 10 6 9 7 11 8 2 10 1 11 3 12
REMARK H PARENT 11 9
REMARK Flexibility Score: inf
ROOT
ATOM      1  C   UNL     1      14.094  17.327  25.955  1.00  0.00     0.008 C 
ATOM      2  C   UNL     1      14.137  16.183  26.972  1.00  0.00    -0.012 C 
ATOM      3  C   UNL     1      15.591  15.861  27.361  1.00  0.00     0.004 C 
ATOM      4  C   UNL     1      15.645  14.727  28.391  1.00  0.00     0.011 C 
ATOM      5  C   UNL     1      14.815  15.076  29.642  1.00  0.00     0.043 C 
ATOM      6  C   UNL     1      13.351  15.407  29.262  1.00  0.00     0.121 C 
ATOM      7  C   UNL     1      13.311  16.540  28.223  1.00  0.00     0.035 C 
ENDROOT
BRANCH   6   8
ATOM      8  O   UNL     1      12.637  15.819  30.399  1.00  0.00    -0.392 OA
ATOM      9  H   UNL     1      12.683  15.076  31.056  1.00  0.00     0.210 HD
ENDBRANCH   6   8
BRANCH   5  10
ATOM     10  C   UNL     1      14.890  13.949  30.668  1.00  0.00    -0.075 C 
ATOM     11  C   UNL     1      15.268  12.718  30.289  1.00  0.00     0.008 C 
ATOM     12  C   UNL     1      14.541  14.184  32.116  1.00  0.00     0.039 C 
ENDBRANCH   5  10
TORSDOF 2
ENDMDL
