MODEL 1
REMARK VINA RESULT:    -3.376      0.000      0.000
REMARK INTER + INTRA:          -5.215
REMARK INTER:                  -4.560
REMARK INTRA:                  -0.655
REMARK UNBOUND:                -0.655
REMARK SMILES CCCCCCCC(=O)[O-]
REMARK SMILES IDX 5 1 6 2 7 3 8 4 9 5 10 6 4 7 3 8 2 9 1 10
REMARK H PARENT
REMARK Flexibility Score: inf
ROOT
ATOM      1  C   UNL     1     207.034 205.409 155.955  1.00  0.00     0.000 C 
ENDROOT
BRANCH   1   2
ATOM      2  C   UNL     1     207.432 204.176 156.779  1.00  0.00     0.006 C 
BRANCH   2   3
ATOM      3  C   UNL     1     206.249 203.215 156.932  1.00  0.00     0.053 C 
BRANCH   3   4
ATOM      4  C   UNL     1     205.963 202.962 158.379  1.00  0.00     0.041 C 
ATOM      5  O   UNL     1     205.912 201.783 158.818  1.00  0.00    -0.550 OA
ATOM      6  O   UNL     1     205.705 204.027 159.233  1.00  0.00    -0.550 OA
ENDBRANCH   3   4
ENDBRANCH   2   3
ENDBRANCH   1   2
BRANCH   1   7
ATOM      7  C   UNL     1     206.863 206.676 156.814  1.00  0.00     0.000 C 
BRANCH   7   8
ATOM      8  C   UNL     1     205.424 206.953 157.284  1.00  0.00    -0.000 C 
BRANCH   8   9
ATOM      9  C   UNL     1     204.363 206.413 156.314  1.00  0.00    -0.003 C 
ATOM     10  C   UNL     1     203.323 205.572 157.049  1.00  0.00     0.004 C 
ENDBRANCH   8   9
ENDBRANCH   7   8
ENDBRANCH   1   7
TORSDOF 6
ENDMDL
MODEL 2
REMARK VINA RESULT:    -3.310      2.827      4.245
REMARK INTER + INTRA:          -5.125
REMARK INTER:                  -4.609
REMARK INTRA:                  -0.517
REMARK UNBOUND:                -0.655
REMARK SMILES CCCCCCCC(=O)[O-]
REMARK SMILES IDX 5 1 6 2 7 3 8 4 9 5 10 6 4 7 3 8 2 9 1 10
REMARK H PARENT
REMARK Flexibility Score: inf
ROOT
ATOM      1  C   UNL     1     206.345 204.039 159.360  1.00  0.00     0.000 C 
ENDROOT
BRANCH   1   2
ATOM      2  C   UNL     1     206.747 205.497 159.627  1.00  0.00     0.006 C 
BRANCH   2   3
ATOM      3  C   UNL     1     208.119 205.808 159.021  1.00  0.00     0.053 C 
BRANCH   3   4
ATOM      4  C   UNL     1     208.015 206.931 158.038  1.00  0.00     0.041 C 
ATOM      5  O   UNL     1     209.043 207.576 157.703  1.00  0.00    -0.550 OA
ATOM      6  O   UNL     1     206.776 207.297 157.528  1.00  0.00    -0.550 OA
ENDBRANCH   3   4
ENDBRANCH   2   3
ENDBRANCH   1   2
BRANCH   1   7
ATOM      7  C   UNL     1     205.159 203.912 158.388  1.00  0.00     0.000 C 
BRANCH   7   8
ATOM      8  C   UNL     1     205.517 204.068 156.900  1.00  0.00    -0.000 C 
BRANCH   8   9
ATOM      9  C   UNL     1     206.807 203.329 156.514  1.00  0.00    -0.003 C 
ATOM     10  C   UNL     1     206.549 201.838 156.317  1.00  0.00     0.004 C 
ENDBRANCH   8   9
ENDBRANCH   7   8
ENDBRANCH   1   7
TORSDOF 6
ENDMDL
MODEL 3
REMARK VINA RESULT:    -3.307      1.942      3.362
REMARK INTER + INTRA:          -5.123
REMARK INTER:                  -4.804
REMARK INTRA:                  -0.319
REMARK UNBOUND:                -0.655
REMARK SMILES CCCCCCCC(=O)[O-]
REMARK SMILES IDX 5 1 6 2 7 3 8 4 9 5 10 6 4 7 3 8 2 9 1 10
REMARK H PARENT
REMARK Flexibility Score: inf
ROOT
ATOM      1  C   UNL     1     207.902 204.972 156.523  1.00  0.00     0.000 C 
ENDROOT
BRANCH   1   2
ATOM      2  C   UNL     1     206.707 204.154 156.015  1.00  0.00     0.006 C 
BRANCH   2   3
ATOM      3  C   UNL     1     206.412 202.976 156.948  1.00  0.00     0.053 C 
BRANCH   3   4
ATOM      4  C   UNL     1     205.697 203.446 158.175  1.00  0.00     0.041 C 
ATOM      5  O   UNL     1     204.735 204.252 158.078  1.00  0.00    -0.550 OA
ATOM      6  O   UNL     1     206.123 203.030 159.430  1.00  0.00    -0.550 OA
ENDBRANCH   3   4
ENDBRANCH   2   3
ENDBRANCH   1   2
BRANCH   1   7
ATOM      7  C   UNL     1     207.570 206.463 156.719  1.00  0.00     0.000 C 
BRANCH   7   8
ATOM      8  C   UNL     1     208.757 207.424 156.525  1.00  0.00    -0.000 C 
BRANCH   8   9
ATOM      9  C   UNL     1     209.292 207.431 155.086  1.00  0.00    -0.003 C 
ATOM     10  C   UNL     1     210.769 207.051 155.046  1.00  0.00     0.004 C 
ENDBRANCH   8   9
ENDBRANCH   7   8
ENDBRANCH   1   7
TORSDOF 6
ENDMDL
MODEL 4
REMARK VINA RESULT:    -3.295      2.360      4.130
REMARK INTER + INTRA:          -5.106
REMARK INTER:                  -4.536
REMARK INTRA:                  -0.570
REMARK UNBOUND:                -0.655
REMARK SMILES CCCCCCCC(=O)[O-]
REMARK SMILES IDX 5 1 6 2 7 3 8 4 9 5 10 6 4 7 3 8 2 9 1 10
REMARK H PARENT
REMARK Flexibility Score: inf
ROOT
ATOM      1  C   UNL     1     204.367 206.474 157.272  1.00  0.00     0.000 C 
ENDROOT
BRANCH   1   2
ATOM      2  C   UNL     1     205.759 206.895 156.782  1.00  0.00     0.006 C 
BRANCH   2   3
ATOM      3  C   UNL     1     206.569 207.534 157.914  1.00  0.00     0.053 C 
BRANCH   3   4
ATOM      4  C   UNL     1     208.025 207.233 157.752  1.00  0.00     0.041 C 
ATOM      5  O   UNL     1     208.400 206.075 157.429  1.00  0.00    -0.550 OA
ATOM      6  O   UNL     1     208.972 208.218 158.006  1.00  0.00    -0.550 OA
ENDBRANCH   3   4
ENDBRANCH   2   3
ENDBRANCH   1   2
BRANCH   1   7
ATOM      7  C   UNL     1     204.141 204.953 157.208  1.00  0.00     0.000 C 
BRANCH   7   8
ATOM      8  C   UNL     1     205.425 204.109 157.103  1.00  0.00    -0.000 C 
BRANCH   8   9
ATOM      9  C   UNL     1     205.691 203.266 158.358  1.00  0.00    -0.003 C 
ATOM     10  C   UNL     1     206.340 204.103 159.456  1.00  0.00     0.004 C 
ENDBRANCH   8   9
ENDBRANCH   7   8
ENDBRANCH   1   7
TORSDOF 6
ENDMDL
MODEL 5
REMARK VINA RESULT:    -3.260      2.711      4.022
REMARK INTER + INTRA:          -5.058
REMARK INTER:                  -4.410
REMARK INTRA:                  -0.648
REMARK UNBOUND:                -0.655
REMARK SMILES CCCCCCCC(=O)[O-]
REMARK SMILES IDX 5 1 6 2 7 3 8 4 9 5 10 6 4 7 3 8 2 9 1 10
REMARK H PARENT
REMARK Flexibility Score: inf
ROOT
ATOM      1  C   UNL     1     208.189 205.620 159.344  1.00  0.00     0.000 C 
ENDROOT
BRANCH   1   2
ATOM      2  C   UNL     1     208.240 206.680 158.234  1.00  0.00     0.006 C 
BRANCH   2   3
ATOM      3  C   UNL     1     208.256 206.024 156.850  1.00  0.00     0.053 C 
BRANCH   3   4
ATOM      4  C   UNL     1     206.971 206.287 156.131  1.00  0.00     0.041 C 
ATOM      5  O   UNL     1     206.136 207.102 156.604  1.00  0.00    -0.550 OA
ATOM      6  O   UNL     1     206.673 205.596 154.963  1.00  0.00    -0.550 OA
ENDBRANCH   3   4
ENDBRANCH   2   3
ENDBRANCH   1   2
BRANCH   1   7
ATOM      7  C   UNL     1     206.754 205.271 159.777  1.00  0.00     0.000 C 
BRANCH   7   8
ATOM      8  C   UNL     1     206.339 203.809 159.537  1.00  0.00    -0.000 C 
BRANCH   8   9
ATOM      9  C   UNL     1     205.515 203.624 158.254  1.00  0.00    -0.003 C 
ATOM     10  C   UNL     1     206.268 202.776 157.234  1.00  0.00     0.004 C 
ENDBRANCH   8   9
ENDBRANCH   7   8
ENDBRANCH   1   7
TORSDOF 6
ENDMDL
MODEL 6
REMARK VINA RESULT:    -3.253      2.190      3.718
REMARK INTER + INTRA:          -5.049
REMARK INTER:                  -4.395
REMARK INTRA:                  -0.654
REMARK UNBOUND:                -0.655
REMARK SMILES CCCCCCCC(=O)[O-]
REMARK SMILES IDX 5 1 6 2 7 3 8 4 9 5 10 6 4 7 3 8 2 9 1 10
REMARK H PARENT
REMARK Flexibility Score: inf
ROOT
ATOM      1  C   UNL     1     207.357 205.581 156.034  1.00  0.00     0.000 C 
ENDROOT
BRANCH   1   2
ATOM      2  C   UNL     1     207.223 206.888 156.828  1.00  0.00     0.006 C 
BRANCH   2   3
ATOM      3  C   UNL     1     205.839 207.512 156.630  1.00  0.00     0.053 C 
BRANCH   3   4
ATOM      4  C   UNL     1     204.953 207.204 157.795  1.00  0.00     0.041 C 
ATOM      5  O   UNL     1     203.988 206.406 157.664  1.00  0.00    -0.550 OA
ATOM      6  O   UNL     1     205.163 207.836 159.014  1.00  0.00    -0.550 OA
ENDBRANCH   3   4
ENDBRANCH   2   3
ENDBRANCH   1   2
BRANCH   1   7
ATOM      7  C   UNL     1     207.406 204.333 156.934  1.00  0.00     0.000 C 
BRANCH   7   8
ATOM      8  C   UNL     1     206.055 203.622 157.134  1.00  0.00    -0.000 C 
BRANCH   8   9
ATOM      9  C   UNL     1     205.725 203.373 158.613  1.00  0.00    -0.003 C 
ATOM     10  C   UNL     1     206.489 204.334 159.518  1.00  0.00     0.004 C 
ENDBRANCH   8   9
ENDBRANCH   7   8
ENDBRANCH   1   7
TORSDOF 6
ENDMDL
MODEL 7
REMARK VINA RESULT:    -3.237      2.308      3.727
REMARK INTER + INTRA:          -5.027
REMARK INTER:                  -4.623
REMARK INTRA:                  -0.404
REMARK UNBOUND:                -0.655
REMARK SMILES CCCCCCCC(=O)[O-]
REMARK SMILES IDX 5 1 6 2 7 3 8 4 9 5 10 6 4 7 3 8 2 9 1 10
REMARK H PARENT
REMARK Flexibility Score: inf
ROOT
ATOM      1  C   UNL     1     207.903 205.434 157.060  1.00  0.00     0.000 C 
ENDROOT
BRANCH   1   2
ATOM      2  C   UNL     1     206.742 204.798 156.281  1.00  0.00     0.006 C 
BRANCH   2   3
ATOM      3  C   UNL     1     205.488 205.674 156.354  1.00  0.00     0.053 C 
BRANCH   3   4
ATOM      4  C   UNL     1     204.442 205.021 157.202  1.00  0.00     0.041 C 
ATOM      5  O   UNL     1     204.771 204.182 158.081  1.00  0.00    -0.550 OA
ATOM      6  O   UNL     1     203.098 205.304 156.988  1.00  0.00    -0.550 OA
ENDBRANCH   3   4
ENDBRANCH   2   3
ENDBRANCH   1   2
BRANCH   1   7
ATOM      7  C   UNL     1     207.740 206.953 157.247  1.00  0.00     0.000 C 
BRANCH   7   8
ATOM      8  C   UNL     1     208.865 207.808 156.636  1.00  0.00    -0.000 C 
BRANCH   8   9
ATOM      9  C   UNL     1     209.194 207.417 155.188  1.00  0.00    -0.003 C 
ATOM     10  C   UNL     1     210.668 207.050 155.039  1.00  0.00     0.004 C 
ENDBRANCH   8   9
ENDBRANCH   7   8
ENDBRANCH   1   7
TORSDOF 6
ENDMDL
MODEL 8
REMARK VINA RESULT:    -3.236      2.399      3.274
REMARK INTER + INTRA:          -5.025
REMARK INTER:                  -4.368
REMARK INTRA:                  -0.657
REMARK UNBOUND:                -0.655
REMARK SMILES CCCCCCCC(=O)[O-]
REMARK SMILES IDX 5 1 6 2 7 3 8 4 9 5 10 6 4 7 3 8 2 9 1 10
REMARK H PARENT
REMARK Flexibility Score: inf
ROOT
ATOM      1  C   UNL     1     206.366 204.119 159.396  1.00  0.00     0.000 C 
ENDROOT
BRANCH   1   2
ATOM      2  C   UNL     1     205.536 203.808 158.141  1.00  0.00     0.006 C 
BRANCH   2   3
ATOM      3  C   UNL     1     206.359 203.013 157.124  1.00  0.00     0.053 C 
BRANCH   3   4
ATOM      4  C   UNL     1     207.160 203.935 156.260  1.00  0.00     0.041 C 
ATOM      5  O   UNL     1     208.414 203.971 156.364  1.00  0.00    -0.550 OA
ATOM      6  O   UNL     1     206.517 204.791 155.375  1.00  0.00    -0.550 OA
ENDBRANCH   3   4
ENDBRANCH   2   3
ENDBRANCH   1   2
BRANCH   1   7
ATOM      7  C   UNL     1     206.844 205.582 159.452  1.00  0.00     0.000 C 
BRANCH   7   8
ATOM      8  C   UNL     1     205.974 206.581 158.669  1.00  0.00    -0.000 C 
BRANCH   8   9
ATOM      9  C   UNL     1     206.793 207.476 157.726  1.00  0.00    -0.003 C 
ATOM     10  C   UNL     1     208.287 207.199 157.864  1.00  0.00     0.004 C 
ENDBRANCH   8   9
ENDBRANCH   7   8
ENDBRANCH   1   7
TORSDOF 6
ENDMDL
MODEL 9
REMARK VINA RESULT:    -3.220      1.225      2.126
REMARK INTER + INTRA:          -5.005
REMARK INTER:                  -4.411
REMARK INTRA:                  -0.594
REMARK UNBOUND:                -0.655
REMARK SMILES CCCCCCCC(=O)[O-]
REMARK SMILES IDX 5 1 6 2 7 3 8 4 9 5 10 6 4 7 3 8 2 9 1 10
REMARK H PARENT
REMARK Flexibility Score: inf
ROOT
ATOM      1  C   UNL     1     207.112 204.419 156.345  1.00  0.00     0.000 C 
ENDROOT
BRANCH   1   2
ATOM      2  C   UNL     1     205.673 203.914 156.519  1.00  0.00     0.006 C 
BRANCH   2   3
ATOM      3  C   UNL     1     205.148 204.225 157.924  1.00  0.00     0.053 C 
BRANCH   3   4
ATOM      4  C   UNL     1     205.920 203.462 158.953  1.00  0.00     0.041 C 
ATOM      5  O   UNL     1     206.574 204.075 159.837  1.00  0.00    -0.550 OA
ATOM      6  O   UNL     1     205.957 202.074 158.907  1.00  0.00    -0.550 OA
ENDBRANCH   3   4
ENDBRANCH   2   3
ENDBRANCH   1   2
BRANCH   1   7
ATOM      7  C   UNL     1     207.189 205.933 156.077  1.00  0.00     0.000 C 
BRANCH   7   8
ATOM      8  C   UNL     1     207.767 206.770 157.232  1.00  0.00    -0.000 C 
BRANCH   8   9
ATOM      9  C   UNL     1     206.735 207.719 157.858  1.00  0.00    -0.003 C 
ATOM     10  C   UNL     1     205.494 207.841 156.978  1.00  0.00     0.004 C 
ENDBRANCH   8   9
ENDBRANCH   7   8
ENDBRANCH   1   7
TORSDOF 6
ENDMDL
