MODEL 1
REMARK VINA RESULT:    -3.592      0.000      0.000
REMARK INTER + INTRA:          -6.561
REMARK INTER:                  -5.483
REMARK INTRA:                  -1.078
REMARK UNBOUND:                -1.078
REMARK SMILES CCCCCCCCCCC(=O)[O-]
REMARK SMILES IDX 7 1 8 2 9 3 10 4 11 5 12 6 13 7 6 8 5 9 4 10 3 11 2 12 1 13
REMARK H PARENT
REMARK Flexibility Score: inf
ROOT
ATOM      1  C   UNL     1      35.353  24.986 223.616  1.00  0.00     0.000 C 
ENDROOT
BRANCH   1   2
ATOM      2  C   UNL     1      35.488  23.977 222.467  1.00  0.00     0.000 C 
BRANCH   2   3
ATOM      3  C   UNL     1      35.962  24.670 221.180  1.00  0.00     0.006 C 
BRANCH   3   4
ATOM      4  C   UNL     1      36.547  23.676 220.168  1.00  0.00     0.053 C 
BRANCH   4   5
ATOM      5  C   UNL     1      35.861  23.767 218.839  1.00  0.00     0.041 C 
ATOM      6  O   UNL     1      34.698  24.243 218.758  1.00  0.00    -0.550 OA
ATOM      7  O   UNL     1      36.519  23.357 217.686  1.00  0.00    -0.550 OA
ENDBRANCH   4   5
ENDBRANCH   3   4
ENDBRANCH   2   3
ENDBRANCH   1   2
BRANCH   1   8
ATOM      8  C   UNL     1      36.536  24.933 224.600  1.00  0.00     0.000 C 
BRANCH   8   9
ATOM      9  C   UNL     1      37.376  23.642 224.538  1.00  0.00    -0.000 C 
BRANCH   9  10
ATOM     10  C   UNL     1      38.883  23.854 224.298  1.00  0.00    -0.000 C 
BRANCH  10  11
ATOM     11  C   UNL     1      39.234  24.723 223.073  1.00  0.00    -0.000 C 
BRANCH  11  12
ATOM     12  C   UNL     1      40.149  24.042 222.041  1.00  0.00    -0.003 C 
ATOM     13  C   UNL     1      39.796  22.575 221.807  1.00  0.00     0.004 C 
ENDBRANCH  11  12
ENDBRANCH  10  11
ENDBRANCH   9  10
ENDBRANCH   8   9
ENDBRANCH   1   8
TORSDOF 9
ENDMDL
MODEL 2
REMARK VINA RESULT:    -3.518      2.856      4.785
REMARK INTER + INTRA:          -6.447
REMARK INTER:                  -5.722
REMARK INTRA:                  -0.725
REMARK UNBOUND:                -1.078
REMARK SMILES CCCCCCCCCCC(=O)[O-]
REMARK SMILES IDX 7 1 8 2 9 3 10 4 11 5 12 6 13 7 6 8 5 9 4 10 3 11 2 12 1 13
REMARK H PARENT
REMARK Flexibility Score: inf
ROOT
ATOM      1  C   UNL     1      37.477  25.245 224.265  1.00  0.00     0.000 C 
ENDROOT
BRANCH   1   2
ATOM      2  C   UNL     1      38.546  25.525 223.199  1.00  0.00     0.000 C 
BRANCH   2   3
ATOM      3  C   UNL     1      39.772  24.620 223.399  1.00  0.00     0.006 C 
BRANCH   3   4
ATOM      4  C   UNL     1      40.308  24.067 222.072  1.00  0.00     0.053 C 
BRANCH   4   5
ATOM      5  C   UNL     1      41.011  22.758 222.259  1.00  0.00     0.041 C 
ATOM      6  O   UNL     1      40.714  21.769 221.538  1.00  0.00    -0.550 OA
ATOM      7  O   UNL     1      42.020  22.639 223.207  1.00  0.00    -0.550 OA
ENDBRANCH   4   5
ENDBRANCH   3   4
ENDBRANCH   2   3
ENDBRANCH   1   2
BRANCH   1   8
ATOM      8  C   UNL     1      36.215  24.581 223.687  1.00  0.00     0.000 C 
BRANCH   8   9
ATOM      9  C   UNL     1      36.040  24.734 222.163  1.00  0.00    -0.000 C 
BRANCH   9  10
ATOM     10  C   UNL     1      36.127  23.422 221.360  1.00  0.00    -0.000 C 
BRANCH  10  11
ATOM     11  C   UNL     1      37.258  23.371 220.312  1.00  0.00    -0.000 C 
BRANCH  11  12
ATOM     12  C   UNL     1      36.784  23.411 218.849  1.00  0.00    -0.003 C 
ATOM     13  C   UNL     1      35.432  24.100 218.679  1.00  0.00     0.004 C 
ENDBRANCH  11  12
ENDBRANCH  10  11
ENDBRANCH   9  10
ENDBRANCH   8   9
ENDBRANCH   1   8
TORSDOF 9
ENDMDL
MODEL 3
REMARK VINA RESULT:    -3.492      1.322      1.984
REMARK INTER + INTRA:          -6.407
REMARK INTER:                  -5.354
REMARK INTRA:                  -1.053
REMARK UNBOUND:                -1.078
REMARK SMILES CCCCCCCCCCC(=O)[O-]
REMARK SMILES IDX 7 1 8 2 9 3 10 4 11 5 12 6 13 7 6 8 5 9 4 10 3 11 2 12 1 13
REMARK H PARENT
REMARK Flexibility Score: inf
ROOT
ATOM      1  C   UNL     1      36.392  24.830 223.560  1.00  0.00     0.000 C 
ENDROOT
BRANCH   1   2
ATOM      2  C   UNL     1      35.297  24.429 222.561  1.00  0.00     0.000 C 
BRANCH   2   3
ATOM      3  C   UNL     1      35.859  23.503 221.472  1.00  0.00     0.006 C 
BRANCH   3   4
ATOM      4  C   UNL     1      35.706  24.100 220.067  1.00  0.00     0.053 C 
BRANCH   4   5
ATOM      5  C   UNL     1      36.709  23.533 219.109  1.00  0.00     0.041 C 
ATOM      6  O   UNL     1      37.812  23.097 219.531  1.00  0.00    -0.550 OA
ATOM      7  O   UNL     1      36.412  23.456 217.754  1.00  0.00    -0.550 OA
ENDBRANCH   4   5
ENDBRANCH   3   4
ENDBRANCH   2   3
ENDBRANCH   1   2
BRANCH   1   8
ATOM      8  C   UNL     1      37.525  25.644 222.911  1.00  0.00     0.000 C 
BRANCH   8   9
ATOM      9  C   UNL     1      38.949  25.170 223.261  1.00  0.00    -0.000 C 
BRANCH   9  10
ATOM     10  C   UNL     1      39.610  24.254 222.213  1.00  0.00    -0.000 C 
BRANCH  10  11
ATOM     11  C   UNL     1      40.086  22.888 222.747  1.00  0.00    -0.000 C 
BRANCH  11  12
ATOM     12  C   UNL     1      39.436  22.451 224.071  1.00  0.00    -0.003 C 
ATOM     13  C   UNL     1      38.180  21.607 223.869  1.00  0.00     0.004 C 
ENDBRANCH  11  12
ENDBRANCH  10  11
ENDBRANCH   9  10
ENDBRANCH   8   9
ENDBRANCH   1   8
TORSDOF 9
ENDMDL
MODEL 4
REMARK VINA RESULT:    -3.436      3.330      5.078
REMARK INTER + INTRA:          -6.321
REMARK INTER:                  -5.103
REMARK INTRA:                  -1.219
REMARK UNBOUND:                -1.078
REMARK SMILES CCCCCCCCCCC(=O)[O-]
REMARK SMILES IDX 7 1 8 2 9 3 10 4 11 5 12 6 13 7 6 8 5 9 4 10 3 11 2 12 1 13
REMARK H PARENT
REMARK Flexibility Score: inf
ROOT
ATOM      1  C   UNL     1      39.361  24.638 223.514  1.00  0.00     0.000 C 
ENDROOT
BRANCH   1   2
ATOM      2  C   UNL     1      39.834  24.257 222.104  1.00  0.00     0.000 C 
BRANCH   2   3
ATOM      3  C   UNL     1      39.694  22.746 221.866  1.00  0.00     0.006 C 
BRANCH   3   4
ATOM      4  C   UNL     1      39.169  22.010 223.106  1.00  0.00     0.053 C 
BRANCH   4   5
ATOM      5  C   UNL     1      40.098  20.918 223.539  1.00  0.00     0.041 C 
ATOM      6  O   UNL     1      40.534  20.086 222.701  1.00  0.00    -0.550 OA
ATOM      7  O   UNL     1      40.510  20.840 224.864  1.00  0.00    -0.550 OA
ENDBRANCH   4   5
ENDBRANCH   3   4
ENDBRANCH   2   3
ENDBRANCH   1   2
BRANCH   1   8
ATOM      8  C   UNL     1      38.389  25.831 223.517  1.00  0.00     0.000 C 
BRANCH   8   9
ATOM      9  C   UNL     1      37.244  25.739 222.488  1.00  0.00    -0.000 C 
BRANCH   9  10
ATOM     10  C   UNL     1      36.095  24.787 222.871  1.00  0.00    -0.000 C 
BRANCH  10  11
ATOM     11  C   UNL     1      35.880  23.602 221.907  1.00  0.00    -0.000 C 
BRANCH  11  12
ATOM     12  C   UNL     1      35.770  23.991 220.423  1.00  0.00    -0.003 C 
ATOM     13  C   UNL     1      36.865  23.369 219.560  1.00  0.00     0.004 C 
ENDBRANCH  11  12
ENDBRANCH  10  11
ENDBRANCH   9  10
ENDBRANCH   8   9
ENDBRANCH   1   8
TORSDOF 9
ENDMDL
MODEL 5
REMARK VINA RESULT:    -3.405      3.383      5.343
REMARK INTER + INTRA:          -6.275
REMARK INTER:                  -5.509
REMARK INTRA:                  -0.766
REMARK UNBOUND:                -1.078
REMARK SMILES CCCCCCCCCCC(=O)[O-]
REMARK SMILES IDX 7 1 8 2 9 3 10 4 11 5 12 6 13 7 6 8 5 9 4 10 3 11 2 12 1 13
REMARK H PARENT
REMARK Flexibility Score: inf
ROOT
ATOM      1  C   UNL     1      37.918  22.821 222.796  1.00  0.00     0.000 C 
ENDROOT
BRANCH   1   2
ATOM      2  C   UNL     1      38.840  23.271 221.653  1.00  0.00     0.000 C 
BRANCH   2   3
ATOM      3  C   UNL     1      39.841  24.331 222.140  1.00  0.00     0.006 C 
BRANCH   3   4
ATOM      4  C   UNL     1      40.174  24.174 223.629  1.00  0.00     0.053 C 
BRANCH   4   5
ATOM      5  C   UNL     1      39.859  25.416 224.403  1.00  0.00     0.041 C 
ATOM      6  O   UNL     1      40.416  25.631 225.512  1.00  0.00    -0.550 OA
ATOM      7  O   UNL     1      38.975  26.354 223.885  1.00  0.00    -0.550 OA
ENDBRANCH   4   5
ENDBRANCH   3   4
ENDBRANCH   2   3
ENDBRANCH   1   2
BRANCH   1   8
ATOM      8  C   UNL     1      36.471  22.571 222.334  1.00  0.00     0.000 C 
BRANCH   8   9
ATOM      9  C   UNL     1      35.669  23.843 221.994  1.00  0.00    -0.000 C 
BRANCH   9  10
ATOM     10  C   UNL     1      34.951  23.817 220.630  1.00  0.00    -0.000 C 
BRANCH  10  11
ATOM     11  C   UNL     1      35.662  24.594 219.503  1.00  0.00    -0.000 C 
BRANCH  11  12
ATOM     12  C   UNL     1      36.082  23.738 218.296  1.00  0.00    -0.003 C 
ATOM     13  C   UNL     1      37.310  22.874 218.576  1.00  0.00     0.004 C 
ENDBRANCH  11  12
ENDBRANCH  10  11
ENDBRANCH   9  10
ENDBRANCH   8   9
ENDBRANCH   1   8
TORSDOF 9
ENDMDL
MODEL 6
REMARK VINA RESULT:    -3.397      3.934      5.912
REMARK INTER + INTRA:          -6.263
REMARK INTER:                  -5.352
REMARK INTRA:                  -0.911
REMARK UNBOUND:                -1.078
REMARK SMILES CCCCCCCCCCC(=O)[O-]
REMARK SMILES IDX 7 1 8 2 9 3 10 4 11 5 12 6 13 7 6 8 5 9 4 10 3 11 2 12 1 13
REMARK H PARENT
REMARK Flexibility Score: inf
ROOT
ATOM      1  C   UNL     1      39.420  24.204 222.110  1.00  0.00     0.000 C 
ENDROOT
BRANCH   1   2
ATOM      2  C   UNL     1      39.698  22.855 221.431  1.00  0.00     0.000 C 
BRANCH   2   3
ATOM      3  C   UNL     1      41.006  22.238 221.949  1.00  0.00     0.006 C 
BRANCH   3   4
ATOM      4  C   UNL     1      41.052  22.179 223.482  1.00  0.00     0.053 C 
BRANCH   4   5
ATOM      5  C   UNL     1      42.366  22.661 224.017  1.00  0.00     0.041 C 
ATOM      6  O   UNL     1      43.339  21.869 224.117  1.00  0.00    -0.550 OA
ATOM      7  O   UNL     1      42.525  23.995 224.375  1.00  0.00    -0.550 OA
ENDBRANCH   4   5
ENDBRANCH   3   4
ENDBRANCH   2   3
ENDBRANCH   1   2
BRANCH   1   8
ATOM      8  C   UNL     1      37.971  24.334 222.612  1.00  0.00     0.000 C 
BRANCH   8   9
ATOM      9  C   UNL     1      37.134  23.042 222.522  1.00  0.00    -0.000 C 
BRANCH   9  10
ATOM     10  C   UNL     1      35.808  23.174 221.749  1.00  0.00    -0.000 C 
BRANCH  10  11
ATOM     11  C   UNL     1      35.731  24.375 220.784  1.00  0.00    -0.000 C 
BRANCH  11  12
ATOM     12  C   UNL     1      35.741  24.004 219.291  1.00  0.00    -0.003 C 
ATOM     13  C   UNL     1      37.001  23.249 218.873  1.00  0.00     0.004 C 
ENDBRANCH  11  12
ENDBRANCH  10  11
ENDBRANCH   9  10
ENDBRANCH   8   9
ENDBRANCH   1   8
TORSDOF 9
ENDMDL
MODEL 7
REMARK VINA RESULT:    -3.262      1.732      2.640
REMARK INTER + INTRA:          -6.057
REMARK INTER:                  -5.345
REMARK INTRA:                  -0.712
REMARK UNBOUND:                -1.078
REMARK SMILES CCCCCCCCCCC(=O)[O-]
REMARK SMILES IDX 7 1 8 2 9 3 10 4 11 5 12 6 13 7 6 8 5 9 4 10 3 11 2 12 1 13
REMARK H PARENT
REMARK Flexibility Score: inf
ROOT
ATOM      1  C   UNL     1      38.589  23.117 222.026  1.00  0.00     0.000 C 
ENDROOT
BRANCH   1   2
ATOM      2  C   UNL     1      37.177  23.189 222.625  1.00  0.00     0.000 C 
BRANCH   2   3
ATOM      3  C   UNL     1      36.108  23.010 221.536  1.00  0.00     0.006 C 
BRANCH   3   4
ATOM      4  C   UNL     1      35.872  24.298 220.738  1.00  0.00     0.053 C 
BRANCH   4   5
ATOM      5  C   UNL     1      35.769  24.031 219.267  1.00  0.00     0.041 C 
ATOM      6  O   UNL     1      34.674  24.194 218.668  1.00  0.00    -0.550 OA
ATOM      7  O   UNL     1      36.892  23.633 218.552  1.00  0.00    -0.550 OA
ENDBRANCH   4   5
ENDBRANCH   3   4
ENDBRANCH   2   3
ENDBRANCH   1   2
BRANCH   1   8
ATOM      8  C   UNL     1      39.435  24.364 222.338  1.00  0.00     0.000 C 
BRANCH   8   9
ATOM      9  C   UNL     1      40.540  24.152 223.392  1.00  0.00    -0.000 C 
BRANCH   9  10
ATOM     10  C   UNL     1      40.866  22.680 223.711  1.00  0.00    -0.000 C 
BRANCH  10  11
ATOM     11  C   UNL     1      42.226  22.182 223.181  1.00  0.00    -0.000 C 
BRANCH  11  12
ATOM     12  C   UNL     1      42.145  21.320 221.909  1.00  0.00    -0.003 C 
ATOM     13  C   UNL     1      41.111  20.200 222.012  1.00  0.00     0.004 C 
ENDBRANCH  11  12
ENDBRANCH  10  11
ENDBRANCH   9  10
ENDBRANCH   8   9
ENDBRANCH   1   8
TORSDOF 9
ENDMDL
MODEL 8
REMARK VINA RESULT:    -3.188      1.692      2.901
REMARK INTER + INTRA:          -5.943
REMARK INTER:                  -5.019
REMARK INTRA:                  -0.924
REMARK UNBOUND:                -1.078
REMARK SMILES CCCCCCCCCCC(=O)[O-]
REMARK SMILES IDX 7 1 8 2 9 3 10 4 11 5 12 6 13 7 6 8 5 9 4 10 3 11 2 12 1 13
REMARK H PARENT
REMARK Flexibility Score: inf
ROOT
ATOM      1  C   UNL     1      37.418  22.386 223.242  1.00  0.00     0.000 C 
ENDROOT
BRANCH   1   2
ATOM      2  C   UNL     1      36.767  23.730 223.600  1.00  0.00     0.000 C 
BRANCH   2   3
ATOM      3  C   UNL     1      36.042  24.330 222.386  1.00  0.00     0.006 C 
BRANCH   3   4
ATOM      4  C   UNL     1      35.771  23.284 221.297  1.00  0.00     0.053 C 
BRANCH   4   5
ATOM      5  C   UNL     1      36.371  23.680 219.983  1.00  0.00     0.041 C 
ATOM      6  O   UNL     1      37.516  23.267 219.659  1.00  0.00    -0.550 OA
ATOM      7  O   UNL     1      35.653  24.478 219.101  1.00  0.00    -0.550 OA
ENDBRANCH   4   5
ENDBRANCH   3   4
ENDBRANCH   2   3
ENDBRANCH   1   2
BRANCH   1   8
ATOM      8  C   UNL     1      38.955  22.424 223.329  1.00  0.00     0.000 C 
BRANCH   8   9
ATOM      9  C   UNL     1      39.628  23.505 222.460  1.00  0.00    -0.000 C 
BRANCH   9  10
ATOM     10  C   UNL     1      40.649  24.393 223.197  1.00  0.00    -0.000 C 
BRANCH  10  11
ATOM     11  C   UNL     1      40.122  25.065 224.482  1.00  0.00    -0.000 C 
BRANCH  11  12
ATOM     12  C   UNL     1      39.286  26.335 224.249  1.00  0.00    -0.003 C 
ATOM     13  C   UNL     1      39.864  27.566 224.944  1.00  0.00     0.004 C 
ENDBRANCH  11  12
ENDBRANCH  10  11
ENDBRANCH   9  10
ENDBRANCH   8   9
ENDBRANCH   1   8
TORSDOF 9
ENDMDL
MODEL 9
REMARK VINA RESULT:    -3.174      1.944      2.953
REMARK INTER + INTRA:          -5.923
REMARK INTER:                  -5.146
REMARK INTRA:                  -0.776
REMARK UNBOUND:                -1.078
REMARK SMILES CCCCCCCCCCC(=O)[O-]
REMARK SMILES IDX 7 1 8 2 9 3 10 4 11 5 12 6 13 7 6 8 5 9 4 10 3 11 2 12 1 13
REMARK H PARENT
REMARK Flexibility Score: inf
ROOT
ATOM      1  C   UNL     1      38.238  25.806 223.613  1.00  0.00     0.000 C 
ENDROOT
BRANCH   1   2
ATOM      2  C   UNL     1      37.149  25.355 222.628  1.00  0.00     0.000 C 
BRANCH   2   3
ATOM      3  C   UNL     1      36.334  24.188 223.206  1.00  0.00     0.006 C 
BRANCH   3   4
ATOM      4  C   UNL     1      36.249  23.003 222.236  1.00  0.00     0.053 C 
BRANCH   4   5
ATOM      5  C   UNL     1      36.149  23.456 220.812  1.00  0.00     0.041 C 
ATOM      6  O   UNL     1      37.122  23.304 220.028  1.00  0.00    -0.550 OA
ATOM      7  O   UNL     1      34.968  24.017 220.341  1.00  0.00    -0.550 OA
ENDBRANCH   4   5
ENDBRANCH   3   4
ENDBRANCH   2   3
ENDBRANCH   1   2
BRANCH   1   8
ATOM      8  C   UNL     1      39.529  24.976 223.499  1.00  0.00     0.000 C 
BRANCH   8   9
ATOM      9  C   UNL     1      39.767  24.333 222.118  1.00  0.00    -0.000 C 
BRANCH   9  10
ATOM     10  C   UNL     1      40.555  23.008 222.141  1.00  0.00    -0.000 C 
BRANCH  10  11
ATOM     11  C   UNL     1      40.916  22.488 223.547  1.00  0.00    -0.000 C 
BRANCH  11  12
ATOM     12  C   UNL     1      42.419  22.508 223.876  1.00  0.00    -0.003 C 
ATOM     13  C   UNL     1      42.845  23.762 224.638  1.00  0.00     0.004 C 
ENDBRANCH  11  12
ENDBRANCH  10  11
ENDBRANCH   9  10
ENDBRANCH   8   9
ENDBRANCH   1   8
TORSDOF 9
ENDMDL
