MODEL 1
REMARK VINA RESULT:    -3.836      0.000      0.000
REMARK INTER + INTRA:          -6.084
REMARK INTER:                  -5.406
REMARK INTRA:                  -0.679
REMARK UNBOUND:                -0.679
REMARK SMILES CCCCCCCCC(=O)[O-]
REMARK SMILES IDX 6 1 7 2 8 3 9 4 10 5 11 6 5 7 4 8 3 9 2 10 1 11
REMARK H PARENT
REMARK Flexibility Score: inf
ROOT
ATOM      1  C   UNL     1      11.946  42.901  18.993  1.00  0.00     0.000 C 
ENDROOT
BRANCH   1   2
ATOM      2  C   UNL     1      12.042  41.369  19.097  1.00  0.00     0.006 C 
BRANCH   2   3
ATOM      3  C   UNL     1      13.333  40.868  19.769  1.00  0.00     0.053 C 
BRANCH   3   4
ATOM      4  C   UNL     1      13.200  40.738  21.256  1.00  0.00     0.041 C 
ATOM      5  O   UNL     1      14.224  40.724  21.987  1.00  0.00    -0.550 OA
ATOM      6  O   UNL     1      11.943  40.598  21.831  1.00  0.00    -0.550 OA
ENDBRANCH   3   4
ENDBRANCH   2   3
ENDBRANCH   1   2
BRANCH   1   7
ATOM      7  C   UNL     1      12.865  43.490  17.908  1.00  0.00     0.000 C 
BRANCH   7   8
ATOM      8  C   UNL     1      13.409  44.879  18.281  1.00  0.00    -0.000 C 
BRANCH   8   9
ATOM      9  C   UNL     1      14.946  44.916  18.333  1.00  0.00    -0.000 C 
BRANCH   9  10
ATOM     10  C   UNL     1      15.540  43.679  19.026  1.00  0.00    -0.003 C 
ATOM     11  C   UNL     1      15.506  43.781  20.550  1.00  0.00     0.004 C 
ENDBRANCH   9  10
ENDBRANCH   8   9
ENDBRANCH   7   8
ENDBRANCH   1   7
TORSDOF 7
ENDMDL
MODEL 2
REMARK VINA RESULT:    -3.223      1.978      4.037
REMARK INTER + INTRA:          -5.221
REMARK INTER:                  -4.638
REMARK INTRA:                  -0.582
REMARK UNBOUND:                -0.679
REMARK SMILES CCCCCCCCC(=O)[O-]
REMARK SMILES IDX 6 1 7 2 8 3 9 4 10 5 11 6 5 7 4 8 3 9 2 10 1 11
REMARK H PARENT
REMARK Flexibility Score: inf
ROOT
ATOM      1  C   UNL     1      12.668  43.879  18.709  1.00  0.00     0.000 C 
ENDROOT
BRANCH   1   2
ATOM      2  C   UNL     1      13.623  44.752  17.875  1.00  0.00     0.006 C 
BRANCH   2   3
ATOM      3  C   UNL     1      14.908  45.157  18.618  1.00  0.00     0.053 C 
BRANCH   3   4
ATOM      4  C   UNL     1      15.576  43.998  19.294  1.00  0.00     0.041 C 
ATOM      5  O   UNL     1      16.175  43.124  18.613  1.00  0.00    -0.550 OA
ATOM      6  O   UNL     1      15.508  43.865  20.675  1.00  0.00    -0.550 OA
ENDBRANCH   3   4
ENDBRANCH   2   3
ENDBRANCH   1   2
BRANCH   1   7
ATOM      7  C   UNL     1      12.028  42.740  17.896  1.00  0.00     0.000 C 
BRANCH   7   8
ATOM      8  C   UNL     1      12.002  41.406  18.661  1.00  0.00    -0.000 C 
BRANCH   8   9
ATOM      9  C   UNL     1      13.380  41.023  19.226  1.00  0.00    -0.000 C 
BRANCH   9  10
ATOM     10  C   UNL     1      13.377  40.908  20.758  1.00  0.00    -0.003 C 
ATOM     11  C   UNL     1      12.194  40.098  21.289  1.00  0.00     0.004 C 
ENDBRANCH   9  10
ENDBRANCH   8   9
ENDBRANCH   7   8
ENDBRANCH   1   7
TORSDOF 7
ENDMDL
MODEL 3
REMARK VINA RESULT:    -2.487      1.310      1.893
REMARK INTER + INTRA:          -4.183
REMARK INTER:                  -3.741
REMARK INTRA:                  -0.442
REMARK UNBOUND:                -0.679
REMARK SMILES CCCCCCCCC(=O)[O-]
REMARK SMILES IDX 6 1 7 2 8 3 9 4 10 5 11 6 5 7 4 8 3 9 2 10 1 11
REMARK H PARENT
REMARK Flexibility Score: inf
ROOT
ATOM      1  C   UNL     1      12.094  40.810  19.010  1.00  0.00     0.000 C 
ENDROOT
BRANCH   1   2
ATOM      2  C   UNL     1      11.909  41.318  20.451  1.00  0.00     0.006 C 
BRANCH   2   3
ATOM      3  C   UNL     1      12.728  40.543  21.497  1.00  0.00     0.053 C 
BRANCH   3   4
ATOM      4  C   UNL     1      14.020  41.220  21.840  1.00  0.00     0.041 C 
ATOM      5  O   UNL     1      14.353  42.286  21.259  1.00  0.00    -0.550 OA
ATOM      6  O   UNL     1      14.872  40.655  22.780  1.00  0.00    -0.550 OA
ENDBRANCH   3   4
ENDBRANCH   2   3
ENDBRANCH   1   2
BRANCH   1   7
ATOM      7  C   UNL     1      12.186  41.946  17.977  1.00  0.00     0.000 C 
BRANCH   7   8
ATOM      8  C   UNL     1      12.308  43.333  18.630  1.00  0.00    -0.000 C 
BRANCH   8   9
ATOM      9  C   UNL     1      13.280  44.256  17.875  1.00  0.00    -0.000 C 
BRANCH   9  10
ATOM     10  C   UNL     1      14.448  44.727  18.756  1.00  0.00    -0.003 C 
ATOM     11  C   UNL     1      15.676  43.823  18.646  1.00  0.00     0.004 C 
ENDBRANCH   9  10
ENDBRANCH   8   9
ENDBRANCH   7   8
ENDBRANCH   1   7
TORSDOF 7
ENDMDL
MODEL 4
REMARK VINA RESULT:    -1.417      2.865      4.661
REMARK INTER + INTRA:          -2.675
REMARK INTER:                  -3.057
REMARK INTRA:                   0.382
REMARK UNBOUND:                -0.679
REMARK SMILES CCCCCCCCC(=O)[O-]
REMARK SMILES IDX 6 1 7 2 8 3 9 4 10 5 11 6 5 7 4 8 3 9 2 10 1 11
REMARK H PARENT
REMARK Flexibility Score: inf
ROOT
ATOM      1  C   UNL     1      13.272  42.751  20.461  1.00  0.00     0.000 C 
ENDROOT
BRANCH   1   2
ATOM      2  C   UNL     1      14.748  43.093  20.189  1.00  0.00     0.006 C 
BRANCH   2   3
ATOM      3  C   UNL     1      15.032  43.518  18.737  1.00  0.00     0.053 C 
BRANCH   3   4
ATOM      4  C   UNL     1      14.868  44.991  18.522  1.00  0.00     0.041 C 
ATOM      5  O   UNL     1      15.735  45.797  18.951  1.00  0.00    -0.550 OA
ATOM      6  O   UNL     1      13.739  45.477  17.875  1.00  0.00    -0.550 OA
ENDBRANCH   3   4
ENDBRANCH   2   3
ENDBRANCH   1   2
BRANCH   1   7
ATOM      7  C   UNL     1      12.471  42.473  19.177  1.00  0.00     0.000 C 
BRANCH   7   8
ATOM      8  C   UNL     1      12.264  40.970  18.921  1.00  0.00    -0.000 C 
BRANCH   8   9
ATOM      9  C   UNL     1      12.740  40.101  20.097  1.00  0.00    -0.000 C 
BRANCH   9  10
ATOM     10  C   UNL     1      11.876  40.288  21.354  1.00  0.00    -0.003 C 
ATOM     11  C   UNL     1      12.708  40.475  22.622  1.00  0.00     0.004 C 
ENDBRANCH   9  10
ENDBRANCH   8   9
ENDBRANCH   7   8
ENDBRANCH   1   7
TORSDOF 7
ENDMDL
MODEL 5
REMARK VINA RESULT:    -1.035     10.903     12.227
REMARK INTER + INTRA:          -2.138
REMARK INTER:                  -1.931
REMARK INTRA:                  -0.206
REMARK UNBOUND:                -0.679
REMARK SMILES CCCCCCCCC(=O)[O-]
REMARK SMILES IDX 6 1 7 2 8 3 9 4 10 5 11 6 5 7 4 8 3 9 2 10 1 11
REMARK H PARENT
REMARK Flexibility Score: inf
ROOT
ATOM      1  C   UNL     1      22.448  36.935  21.255  1.00  0.00     0.000 C 
ENDROOT
BRANCH   1   2
ATOM      2  C   UNL     1      22.500  38.268  22.024  1.00  0.00     0.006 C 
BRANCH   2   3
ATOM      3  C   UNL     1      22.574  38.104  23.552  1.00  0.00     0.053 C 
BRANCH   3   4
ATOM      4  C   UNL     1      23.579  39.018  24.185  1.00  0.00     0.041 C 
ATOM      5  O   UNL     1      24.027  38.771  25.335  1.00  0.00    -0.550 OA
ATOM      6  O   UNL     1      23.997  40.161  23.516  1.00  0.00    -0.550 OA
ENDBRANCH   3   4
ENDBRANCH   2   3
ENDBRANCH   1   2
BRANCH   1   7
ATOM      7  C   UNL     1      23.475  36.859  20.112  1.00  0.00     0.000 C 
BRANCH   7   8
ATOM      8  C   UNL     1      23.491  35.486  19.419  1.00  0.00    -0.000 C 
BRANCH   8   9
ATOM      9  C   UNL     1      24.052  35.554  17.989  1.00  0.00    -0.000 C 
BRANCH   9  10
ATOM     10  C   UNL     1      25.422  36.248  17.927  1.00  0.00    -0.003 C 
ATOM     11  C   UNL     1      26.586  35.259  17.875  1.00  0.00     0.004 C 
ENDBRANCH   9  10
ENDBRANCH   8   9
ENDBRANCH   7   8
ENDBRANCH   1   7
TORSDOF 7
ENDMDL
