MODEL 1
REMARK VINA RESULT:    -3.865      0.000      0.000
REMARK INTER + INTRA:          -3.978
REMARK INTER:                  -3.978
REMARK INTRA:                   0.000
REMARK UNBOUND:                 0.000
REMARK SMILES Oc1ccc2[nH]ccc2c1
REMARK SMILES IDX 3 1 4 2 5 3 9 4 8 5 7 6 6 7 10 8 2 9 1 11
REMARK H PARENT 6 10 1 12
REMARK Flexibility Score: inf
ROOT
ATOM      1  C   UNL     1     114.965 119.204 121.559  1.00  0.00     0.048 A 
ATOM      2  C   UNL     1     115.578 118.049 121.039  1.00  0.00     0.030 A 
ATOM      3  C   UNL     1     116.917 118.138 120.660  1.00  0.00     0.046 A 
ATOM      4  C   UNL     1     117.624 119.304 120.786  1.00  0.00     0.003 A 
ATOM      5  C   UNL     1     118.901 119.062 120.329  1.00  0.00     0.028 A 
ATOM      6  C   UNL     1     118.902 117.726 119.941  1.00  0.00     0.083 A 
ATOM      7  N   UNL     1     117.687 117.166 120.146  1.00  0.00    -0.361 N 
ATOM      8  C   UNL     1     117.047 120.464 121.297  1.00  0.00     0.056 A 
ATOM      9  C   UNL     1     115.693 120.410 121.690  1.00  0.00     0.116 A 
ATOM     10  H   UNL     1     117.409 116.180 119.943  1.00  0.00     0.166 HD
ENDROOT
BRANCH   9  11
ATOM     11  O   UNL     1     115.063 121.538 122.208  1.00  0.00    -0.508 OA
ATOM     12  H   UNL     1     114.793 122.312 121.613  1.00  0.00     0.293 HD
ENDBRANCH   9  11
TORSDOF 1
ENDMDL
MODEL 2
REMARK VINA RESULT:    -3.862      7.034      8.166
REMARK INTER + INTRA:          -3.975
REMARK INTER:                  -3.975
REMARK INTRA:                   0.000
REMARK UNBOUND:                 0.000
REMARK SMILES Oc1ccc2[nH]ccc2c1
REMARK SMILES IDX 3 1 4 2 5 3 9 4 8 5 7 6 6 7 10 8 2 9 1 11
REMARK H PARENT 6 10 1 12
REMARK Flexibility Score: inf
ROOT
ATOM      1  C   UNL     1     124.087 114.982 121.548  1.00  0.00     0.048 A 
ATOM      2  C   UNL     1     125.249 115.589 121.038  1.00  0.00     0.030 A 
ATOM      3  C   UNL     1     125.180 116.937 120.688  1.00  0.00     0.046 A 
ATOM      4  C   UNL     1     124.025 117.659 120.832  1.00  0.00     0.003 A 
ATOM      5  C   UNL     1     124.285 118.941 120.402  1.00  0.00     0.028 A 
ATOM      6  C   UNL     1     125.621 118.930 120.010  1.00  0.00     0.083 A 
ATOM      7  N   UNL     1     126.162 117.703 120.188  1.00  0.00    -0.361 N 
ATOM      8  C   UNL     1     122.857 117.088 121.333  1.00  0.00     0.056 A 
ATOM      9  C   UNL     1     122.892 115.726 121.697  1.00  0.00     0.116 A 
ATOM     10  H   UNL     1     127.144 117.414 119.977  1.00  0.00     0.166 HD
ENDROOT
BRANCH   9  11
ATOM     11  O   UNL     1     121.756 115.101 122.204  1.00  0.00    -0.508 OA
ATOM     12  H   UNL     1     121.003 115.633 122.624  1.00  0.00     0.293 HD
ENDBRANCH   9  11
TORSDOF 1
ENDMDL
MODEL 3
REMARK VINA RESULT:    -3.843     10.144     11.637
REMARK INTER + INTRA:          -3.955
REMARK INTER:                  -3.955
REMARK INTRA:                   0.000
REMARK UNBOUND:                 0.000
REMARK SMILES Oc1ccc2[nH]ccc2c1
REMARK SMILES IDX 3 1 4 2 5 3 9 4 8 5 7 6 6 7 10 8 2 9 1 11
REMARK H PARENT 6 10 1 12
REMARK Flexibility Score: inf
ROOT
ATOM      1  C   UNL     1     128.416 124.095 121.549  1.00  0.00     0.048 A 
ATOM      2  C   UNL     1     127.839 125.269 121.031  1.00  0.00     0.030 A 
ATOM      3  C   UNL     1     126.497 125.224 120.656  1.00  0.00     0.046 A 
ATOM      4  C   UNL     1     125.752 124.082 120.785  1.00  0.00     0.003 A 
ATOM      5  C   UNL     1     124.482 124.366 120.333  1.00  0.00     0.028 A 
ATOM      6  C   UNL     1     124.524 125.702 119.944  1.00  0.00     0.083 A 
ATOM      7  N   UNL     1     125.757 126.221 120.144  1.00  0.00    -0.361 N 
ATOM      8  C   UNL     1     126.292 122.904 121.294  1.00  0.00     0.056 A 
ATOM      9  C   UNL     1     127.648 122.914 121.683  1.00  0.00     0.116 A 
ATOM     10  H   UNL     1     126.067 127.197 119.940  1.00  0.00     0.166 HD
ENDROOT
BRANCH   9  11
ATOM     11  O   UNL     1     128.243 121.766 122.199  1.00  0.00    -0.508 OA
ATOM     12  H   UNL     1     128.992 121.819 122.879  1.00  0.00     0.293 HD
ENDBRANCH   9  11
TORSDOF 1
ENDMDL
MODEL 4
REMARK VINA RESULT:    -3.827      7.071      8.210
REMARK INTER + INTRA:          -3.939
REMARK INTER:                  -3.939
REMARK INTRA:                   0.000
REMARK UNBOUND:                 0.000
REMARK SMILES Oc1ccc2[nH]ccc2c1
REMARK SMILES IDX 3 1 4 2 5 3 9 4 8 5 7 6 6 7 10 8 2 9 1 11
REMARK H PARENT 6 10 1 12
REMARK Flexibility Score: inf
ROOT
ATOM      1  C   UNL     1     119.248 128.373 121.579  1.00  0.00     0.048 A 
ATOM      2  C   UNL     1     118.079 127.780 121.071  1.00  0.00     0.030 A 
ATOM      3  C   UNL     1     118.142 126.441 120.686  1.00  0.00     0.046 A 
ATOM      4  C   UNL     1     119.299 125.716 120.795  1.00  0.00     0.003 A 
ATOM      5  C   UNL     1     119.032 124.444 120.337  1.00  0.00     0.028 A 
ATOM      6  C   UNL     1     117.691 124.465 119.965  1.00  0.00     0.083 A 
ATOM      7  N   UNL     1     117.152 125.687 120.181  1.00  0.00    -0.361 N 
ATOM      8  C   UNL     1     120.474 126.273 121.294  1.00  0.00     0.056 A 
ATOM      9  C   UNL     1     120.445 127.626 121.692  1.00  0.00     0.116 A 
ATOM     10  H   UNL     1     116.168 125.982 119.992  1.00  0.00     0.166 HD
ENDROOT
BRANCH   9  11
ATOM     11  O   UNL     1     121.589 128.238 122.198  1.00  0.00    -0.508 OA
ATOM     12  H   UNL     1     122.022 127.920 123.057  1.00  0.00     0.293 HD
ENDBRANCH   9  11
TORSDOF 1
ENDMDL
MODEL 5
REMARK VINA RESULT:    -3.469      7.256      8.709
REMARK INTER + INTRA:          -3.571
REMARK INTER:                  -3.571
REMARK INTRA:                   0.000
REMARK UNBOUND:                 0.000
REMARK SMILES Oc1ccc2[nH]ccc2c1
REMARK SMILES IDX 3 1 4 2 5 3 9 4 8 5 7 6 6 7 10 8 2 9 1 11
REMARK H PARENT 6 10 1 12
REMARK Flexibility Score: inf
ROOT
ATOM      1  C   UNL     1     123.118 116.997 121.295  1.00  0.00     0.048 A 
ATOM      2  C   UNL     1     124.280 117.435 120.633  1.00  0.00     0.030 A 
ATOM      3  C   UNL     1     125.263 116.488 120.349  1.00  0.00     0.046 A 
ATOM      4  C   UNL     1     125.115 115.171 120.695  1.00  0.00     0.003 A 
ATOM      5  C   UNL     1     126.248 114.507 120.279  1.00  0.00     0.028 A 
ATOM      6  C   UNL     1     127.045 115.481 119.686  1.00  0.00     0.083 A 
ATOM      7  N   UNL     1     126.438 116.689 119.731  1.00  0.00    -0.361 N 
ATOM      8  C   UNL     1     123.978 114.705 121.350  1.00  0.00     0.056 A 
ATOM      9  C   UNL     1     122.963 115.637 121.654  1.00  0.00     0.116 A 
ATOM     10  H   UNL     1     126.810 117.592 119.360  1.00  0.00     0.166 HD
ENDROOT
BRANCH   9  11
ATOM     11  O   UNL     1     121.803 115.230 122.308  1.00  0.00    -0.508 OA
ATOM     12  H   UNL     1     121.068 114.733 121.819  1.00  0.00     0.293 HD
ENDBRANCH   9  11
TORSDOF 1
ENDMDL
MODEL 6
REMARK VINA RESULT:    -3.469      0.940      2.433
REMARK INTER + INTRA:          -3.571
REMARK INTER:                  -3.571
REMARK INTRA:                   0.000
REMARK UNBOUND:                 0.000
REMARK SMILES Oc1ccc2[nH]ccc2c1
REMARK SMILES IDX 3 1 4 2 5 3 9 4 8 5 7 6 6 7 10 8 2 9 1 11
REMARK H PARENT 6 10 1 12
REMARK Flexibility Score: inf
ROOT
ATOM      1  C   UNL     1     116.998 120.299 121.361  1.00  0.00     0.048 A 
ATOM      2  C   UNL     1     117.494 119.169 120.686  1.00  0.00     0.030 A 
ATOM      3  C   UNL     1     116.592 118.155 120.364  1.00  0.00     0.046 A 
ATOM      4  C   UNL     1     115.264 118.245 120.688  1.00  0.00     0.003 A 
ATOM      5  C   UNL     1     114.653 117.095 120.237  1.00  0.00     0.028 A 
ATOM      6  C   UNL     1     115.669 116.350 119.647  1.00  0.00     0.083 A 
ATOM      7  N   UNL     1     116.851 117.002 119.727  1.00  0.00    -0.361 N 
ATOM      8  C   UNL     1     114.742 119.349 121.356  1.00  0.00     0.056 A 
ATOM      9  C   UNL     1     115.627 120.394 121.697  1.00  0.00     0.116 A 
ATOM     10  H   UNL     1     117.775 116.673 119.367  1.00  0.00     0.166 HD
ENDROOT
BRANCH   9  11
ATOM     11  O   UNL     1     115.162 121.523 122.365  1.00  0.00    -0.508 OA
ATOM     12  H   UNL     1     115.133 122.430 121.914  1.00  0.00     0.293 HD
ENDBRANCH   9  11
TORSDOF 1
ENDMDL
MODEL 7
REMARK VINA RESULT:    -3.455      7.798      9.068
REMARK INTER + INTRA:          -3.556
REMARK INTER:                  -3.556
REMARK INTRA:                   0.000
REMARK UNBOUND:                 0.000
REMARK SMILES Oc1ccc2[nH]ccc2c1
REMARK SMILES IDX 3 1 4 2 5 3 9 4 8 5 7 6 6 7 10 8 2 9 1 11
REMARK H PARENT 6 10 1 12
REMARK Flexibility Score: inf
ROOT
ATOM      1  C   UNL     1     120.365 126.311 121.360  1.00  0.00     0.048 A 
ATOM      2  C   UNL     1     119.237 125.804 120.689  1.00  0.00     0.030 A 
ATOM      3  C   UNL     1     118.213 126.695 120.372  1.00  0.00     0.046 A 
ATOM      4  C   UNL     1     118.290 128.024 120.696  1.00  0.00     0.003 A 
ATOM      5  C   UNL     1     117.133 128.623 120.250  1.00  0.00     0.028 A 
ATOM      6  C   UNL     1     116.395 127.600 119.662  1.00  0.00     0.083 A 
ATOM      7  N   UNL     1     117.060 126.424 119.739  1.00  0.00    -0.361 N 
ATOM      8  C   UNL     1     119.392 128.558 121.360  1.00  0.00     0.056 A 
ATOM      9  C   UNL     1     120.447 127.683 121.697  1.00  0.00     0.116 A 
ATOM     10  H   UNL     1     116.739 125.498 119.380  1.00  0.00     0.166 HD
ENDROOT
BRANCH   9  11
ATOM     11  O   UNL     1     121.574 128.159 122.361  1.00  0.00    -0.508 OA
ATOM     12  H   UNL     1     121.907 129.106 122.224  1.00  0.00     0.293 HD
ENDBRANCH   9  11
TORSDOF 1
ENDMDL
MODEL 8
REMARK VINA RESULT:    -3.373      9.558     10.774
REMARK INTER + INTRA:          -3.471
REMARK INTER:                  -3.471
REMARK INTRA:                   0.000
REMARK UNBOUND:                 0.000
REMARK SMILES Oc1ccc2[nH]ccc2c1
REMARK SMILES IDX 3 1 4 2 5 3 9 4 8 5 7 6 6 7 10 8 2 9 1 11
REMARK H PARENT 6 10 1 12
REMARK Flexibility Score: inf
ROOT
ATOM      1  C   UNL     1     117.186 127.436 120.546  1.00  0.00     0.048 A 
ATOM      2  C   UNL     1     118.127 128.266 121.182  1.00  0.00     0.030 A 
ATOM      3  C   UNL     1     118.110 129.626 120.874  1.00  0.00     0.046 A 
ATOM      4  C   UNL     1     117.211 130.150 119.983  1.00  0.00     0.003 A 
ATOM      5  C   UNL     1     117.455 131.503 119.901  1.00  0.00     0.028 A 
ATOM      6  C   UNL     1     118.517 131.736 120.770  1.00  0.00     0.083 A 
ATOM      7  N   UNL     1     118.912 130.585 121.362  1.00  0.00    -0.361 N 
ATOM      8  C   UNL     1     116.267 129.356 119.336  1.00  0.00     0.056 A 
ATOM      9  C   UNL     1     116.257 127.976 119.625  1.00  0.00     0.116 A 
ATOM     10  H   UNL     1     119.685 130.470 122.056  1.00  0.00     0.166 HD
ENDROOT
BRANCH   9  11
ATOM     11  O   UNL     1     115.336 127.132 119.008  1.00  0.00    -0.508 OA
ATOM     12  H   UNL     1     115.377 126.941 118.015  1.00  0.00     0.293 HD
ENDBRANCH   9  11
TORSDOF 1
ENDMDL
MODEL 9
REMARK VINA RESULT:    -3.366     13.171     14.439
REMARK INTER + INTRA:          -3.465
REMARK INTER:                  -3.465
REMARK INTRA:                   0.000
REMARK UNBOUND:                 0.000
REMARK SMILES Oc1ccc2[nH]ccc2c1
REMARK SMILES IDX 3 1 4 2 5 3 9 4 8 5 7 6 6 7 10 8 2 9 1 11
REMARK H PARENT 6 10 1 12
REMARK Flexibility Score: inf
ROOT
ATOM      1  C   UNL     1     127.482 126.111 120.498  1.00  0.00     0.048 A 
ATOM      2  C   UNL     1     128.300 125.171 121.150  1.00  0.00     0.030 A 
ATOM      3  C   UNL     1     129.670 125.213 120.896  1.00  0.00     0.046 A 
ATOM      4  C   UNL     1     130.216 126.135 120.044  1.00  0.00     0.003 A 
ATOM      5  C   UNL     1     131.575 125.912 120.012  1.00  0.00     0.028 A 
ATOM      6  C   UNL     1     131.788 124.838 120.871  1.00  0.00     0.083 A 
ATOM      7  N   UNL     1     130.621 124.415 121.409  1.00  0.00    -0.361 N 
ATOM      8  C   UNL     1     129.435 127.080 119.383  1.00  0.00     0.056 A 
ATOM      9  C   UNL     1     128.044 127.065 119.615  1.00  0.00     0.116 A 
ATOM     10  H   UNL     1     130.490 123.629 122.083  1.00  0.00     0.166 HD
ENDROOT
BRANCH   9  11
ATOM     11  O   UNL     1     127.212 127.985 118.983  1.00  0.00    -0.508 OA
ATOM     12  H   UNL     1     127.586 128.713 118.386  1.00  0.00     0.293 HD
ENDBRANCH   9  11
TORSDOF 1
ENDMDL
