MODEL 1
REMARK VINA RESULT:    -3.680      0.000      0.000
REMARK INTER + INTRA:          -5.076
REMARK INTER:                  -4.756
REMARK INTRA:                  -0.320
REMARK UNBOUND:                -0.320
REMARK SMILES CCCCCCC(=O)[O-]
REMARK SMILES IDX 5 1 6 2 7 3 8 4 9 5 4 6 3 7 2 8 1 9
REMARK H PARENT
REMARK Flexibility Score: inf
ROOT
ATOM      1  C   UNL     1       9.360   5.975   3.830  1.00  0.00     0.006 C 
ENDROOT
BRANCH   1   2
ATOM      2  C   UNL     1       8.643   6.596   5.032  1.00  0.00     0.053 C 
BRANCH   2   3
ATOM      3  C   UNL     1       7.277   7.067   4.641  1.00  0.00     0.041 C 
ATOM      4  O   UNL     1       6.877   8.208   4.993  1.00  0.00    -0.550 OA
ATOM      5  O   UNL     1       6.465   6.266   3.848  1.00  0.00    -0.550 OA
ENDBRANCH   2   3
ENDBRANCH   1   2
BRANCH   1   6
ATOM      6  C   UNL     1       9.841   7.058   2.857  1.00  0.00     0.000 C 
BRANCH   6   7
ATOM      7  C   UNL     1       9.743   6.576   1.405  1.00  0.00    -0.000 C 
BRANCH   7   8
ATOM      8  C   UNL     1       8.774   5.395   1.281  1.00  0.00    -0.003 C 
ATOM      9  C   UNL     1       9.444   4.199   0.610  1.00  0.00     0.004 C 
ENDBRANCH   7   8
ENDBRANCH   6   7
ENDBRANCH   1   6
TORSDOF 5
ENDMDL
MODEL 2
REMARK VINA RESULT:    -3.375      2.307      4.020
REMARK INTER + INTRA:          -4.681
REMARK INTER:                  -4.423
REMARK INTRA:                  -0.259
REMARK UNBOUND:                -0.320
REMARK SMILES CCCCCCC(=O)[O-]
REMARK SMILES IDX 5 1 6 2 7 3 8 4 9 5 4 6 3 7 2 8 1 9
REMARK H PARENT
REMARK Flexibility Score: inf
ROOT
ATOM      1  C   UNL     1       7.589   6.228   3.991  1.00  0.00     0.006 C 
ENDROOT
BRANCH   1   2
ATOM      2  C   UNL     1       8.867   5.573   3.460  1.00  0.00     0.053 C 
BRANCH   2   3
ATOM      3  C   UNL     1       9.111   5.976   2.040  1.00  0.00     0.041 C 
ATOM      4  O   UNL     1       9.779   7.013   1.782  1.00  0.00    -0.550 OA
ATOM      5  O   UNL     1       8.643   5.182   1.000  1.00  0.00    -0.550 OA
ENDBRANCH   2   3
ENDBRANCH   1   2
BRANCH   1   6
ATOM      6  C   UNL     1       7.898   7.167   5.164  1.00  0.00     0.000 C 
BRANCH   6   7
ATOM      7  C   UNL     1       9.381   7.098   5.547  1.00  0.00    -0.000 C 
BRANCH   7   8
ATOM      8  C   UNL     1      10.125   8.360   5.094  1.00  0.00    -0.003 C 
ATOM      9  C   UNL     1       9.175   9.355   4.434  1.00  0.00     0.004 C 
ENDBRANCH   7   8
ENDBRANCH   6   7
ENDBRANCH   1   6
TORSDOF 5
ENDMDL
MODEL 3
REMARK VINA RESULT:    -3.030      2.882      4.586
REMARK INTER + INTRA:          -4.235
REMARK INTER:                  -4.043
REMARK INTRA:                  -0.192
REMARK UNBOUND:                -0.320
REMARK SMILES CCCCCCC(=O)[O-]
REMARK SMILES IDX 5 1 6 2 7 3 8 4 9 5 4 6 3 7 2 8 1 9
REMARK H PARENT
REMARK Flexibility Score: inf
ROOT
ATOM      1  C   UNL     1       8.455   5.868   2.776  1.00  0.00     0.006 C 
ENDROOT
BRANCH   1   2
ATOM      2  C   UNL     1       9.628   5.675   1.811  1.00  0.00     0.053 C 
BRANCH   2   3
ATOM      3  C   UNL     1       9.663   4.268   1.304  1.00  0.00     0.041 C 
ATOM      4  O   UNL     1      10.074   3.337   2.047  1.00  0.00    -0.550 OA
ATOM      5  O   UNL     1       9.196   3.976   0.029  1.00  0.00    -0.550 OA
ENDBRANCH   2   3
ENDBRANCH   1   2
BRANCH   1   6
ATOM      6  C   UNL     1       8.948   6.307   4.161  1.00  0.00     0.000 C 
BRANCH   6   7
ATOM      7  C   UNL     1       7.803   6.899   4.990  1.00  0.00    -0.000 C 
BRANCH   7   8
ATOM      8  C   UNL     1       7.736   8.421   4.828  1.00  0.00    -0.003 C 
ATOM      9  C   UNL     1       9.101   8.998   4.463  1.00  0.00     0.004 C 
ENDBRANCH   7   8
ENDBRANCH   6   7
ENDBRANCH   1   6
TORSDOF 5
ENDMDL
MODEL 4
REMARK VINA RESULT:    -3.021     22.205     23.009
REMARK INTER + INTRA:          -4.224
REMARK INTER:                  -4.135
REMARK INTRA:                  -0.088
REMARK UNBOUND:                -0.320
REMARK SMILES CCCCCCC(=O)[O-]
REMARK SMILES IDX 5 1 6 2 7 3 8 4 9 5 4 6 3 7 2 8 1 9
REMARK H PARENT
REMARK Flexibility Score: inf
ROOT
ATOM      1  C   UNL     1      -6.357  -5.734  -8.225  1.00  0.00     0.006 C 
ENDROOT
BRANCH   1   2
ATOM      2  C   UNL     1      -5.950  -6.798  -9.248  1.00  0.00     0.053 C 
BRANCH   2   3
ATOM      3  C   UNL     1      -4.486  -6.706  -9.545  1.00  0.00     0.041 C 
ATOM      4  O   UNL     1      -3.810  -7.753  -9.729  1.00  0.00    -0.550 OA
ATOM      5  O   UNL     1      -3.878  -5.463  -9.669  1.00  0.00    -0.550 OA
ENDBRANCH   2   3
ENDBRANCH   1   2
BRANCH   1   6
ATOM      6  C   UNL     1      -7.705  -6.079  -7.580  1.00  0.00     0.000 C 
BRANCH   6   7
ATOM      7  C   UNL     1      -8.143  -4.984  -6.601  1.00  0.00    -0.000 C 
BRANCH   7   8
ATOM      8  C   UNL     1      -9.646  -4.707  -6.722  1.00  0.00    -0.003 C 
ATOM      9  C   UNL     1      -9.930  -3.207  -6.743  1.00  0.00     0.004 C 
ENDBRANCH   7   8
ENDBRANCH   6   7
ENDBRANCH   1   6
TORSDOF 5
ENDMDL
MODEL 5
REMARK VINA RESULT:    -3.005     21.996     22.987
REMARK INTER + INTRA:          -4.203
REMARK INTER:                  -4.115
REMARK INTRA:                  -0.088
REMARK UNBOUND:                -0.320
REMARK SMILES CCCCCCC(=O)[O-]
REMARK SMILES IDX 5 1 6 2 7 3 8 4 9 5 4 6 3 7 2 8 1 9
REMARK H PARENT
REMARK Flexibility Score: inf
ROOT
ATOM      1  C   UNL     1      -6.364  -6.262  -8.165  1.00  0.00     0.006 C 
ENDROOT
BRANCH   1   2
ATOM      2  C   UNL     1      -5.841  -5.746  -9.509  1.00  0.00     0.053 C 
BRANCH   2   3
ATOM      3  C   UNL     1      -4.404  -6.121  -9.690  1.00  0.00     0.041 C 
ATOM      4  O   UNL     1      -3.519  -5.226  -9.745  1.00  0.00    -0.550 OA
ATOM      5  O   UNL     1      -4.035  -7.459  -9.751  1.00  0.00    -0.550 OA
ENDBRANCH   2   3
ENDBRANCH   1   2
BRANCH   1   6
ATOM      6  C   UNL     1      -7.882  -6.075  -8.057  1.00  0.00     0.000 C 
BRANCH   6   7
ATOM      7  C   UNL     1      -8.247  -5.223  -6.836  1.00  0.00    -0.000 C 
BRANCH   7   8
ATOM      8  C   UNL     1      -9.732  -4.843  -6.854  1.00  0.00    -0.003 C 
ATOM      9  C   UNL     1      -9.915  -3.329  -6.805  1.00  0.00     0.004 C 
ENDBRANCH   7   8
ENDBRANCH   6   7
ENDBRANCH   1   6
TORSDOF 5
ENDMDL
MODEL 6
REMARK VINA RESULT:    -2.932     21.864     23.074
REMARK INTER + INTRA:          -4.108
REMARK INTER:                  -3.863
REMARK INTRA:                  -0.245
REMARK UNBOUND:                -0.320
REMARK SMILES CCCCCCC(=O)[O-]
REMARK SMILES IDX 5 1 6 2 7 3 8 4 9 5 4 6 3 7 2 8 1 9
REMARK H PARENT
REMARK Flexibility Score: inf
ROOT
ATOM      1  C   UNL     1      -6.399  -7.484  -8.615  1.00  0.00     0.006 C 
ENDROOT
BRANCH   1   2
ATOM      2  C   UNL     1      -5.862  -6.155  -9.153  1.00  0.00     0.053 C 
BRANCH   2   3
ATOM      3  C   UNL     1      -4.420  -6.287  -9.530  1.00  0.00     0.041 C 
ATOM      4  O   UNL     1      -3.726  -5.258  -9.745  1.00  0.00    -0.550 OA
ATOM      5  O   UNL     1      -3.830  -7.543  -9.596  1.00  0.00    -0.550 OA
ENDBRANCH   2   3
ENDBRANCH   1   2
BRANCH   1   6
ATOM      6  C   UNL     1      -7.625  -7.259  -7.720  1.00  0.00     0.000 C 
BRANCH   6   7
ATOM      7  C   UNL     1      -8.515  -6.141  -8.276  1.00  0.00    -0.000 C 
BRANCH   7   8
ATOM      8  C   UNL     1      -8.909  -5.153  -7.172  1.00  0.00    -0.003 C 
ATOM      9  C   UNL     1      -7.706  -4.776  -6.313  1.00  0.00     0.004 C 
ENDBRANCH   7   8
ENDBRANCH   6   7
ENDBRANCH   1   6
TORSDOF 5
ENDMDL
MODEL 7
REMARK VINA RESULT:    -2.737      2.586      3.278
REMARK INTER + INTRA:          -3.857
REMARK INTER:                  -3.742
REMARK INTRA:                  -0.114
REMARK UNBOUND:                -0.320
REMARK SMILES CCCCCCC(=O)[O-]
REMARK SMILES IDX 5 1 6 2 7 3 8 4 9 5 4 6 3 7 2 8 1 9
REMARK H PARENT
REMARK Flexibility Score: inf
ROOT
ATOM      1  C   UNL     1       9.809   5.752   4.520  1.00  0.00     0.006 C 
ENDROOT
BRANCH   1   2
ATOM      2  C   UNL     1       8.849   6.588   3.669  1.00  0.00     0.053 C 
BRANCH   2   3
ATOM      3  C   UNL     1       7.505   6.668   4.322  1.00  0.00     0.041 C 
ATOM      4  O   UNL     1       7.342   7.374   5.353  1.00  0.00    -0.550 OA
ATOM      5  O   UNL     1       6.419   6.003   3.764  1.00  0.00    -0.550 OA
ENDBRANCH   2   3
ENDBRANCH   1   2
BRANCH   1   6
ATOM      6  C   UNL     1       9.969   4.341   3.941  1.00  0.00     0.000 C 
BRANCH   6   7
ATOM      7  C   UNL     1      10.125   3.302   5.058  1.00  0.00    -0.000 C 
BRANCH   7   8
ATOM      8  C   UNL     1       9.738   1.903   4.566  1.00  0.00    -0.003 C 
ATOM      9  C   UNL     1       9.188   1.050   5.706  1.00  0.00     0.004 C 
ENDBRANCH   7   8
ENDBRANCH   6   7
ENDBRANCH   1   6
TORSDOF 5
ENDMDL
MODEL 8
REMARK VINA RESULT:    -2.632     21.575     22.592
REMARK INTER + INTRA:          -3.721
REMARK INTER:                  -3.567
REMARK INTRA:                  -0.154
REMARK UNBOUND:                -0.320
REMARK SMILES CCCCCCC(=O)[O-]
REMARK SMILES IDX 5 1 6 2 7 3 8 4 9 5 4 6 3 7 2 8 1 9
REMARK H PARENT
REMARK Flexibility Score: inf
ROOT
ATOM      1  C   UNL     1      -6.141  -6.243  -8.633  1.00  0.00     0.006 C 
ENDROOT
BRANCH   1   2
ATOM      2  C   UNL     1      -7.312  -6.688  -7.752  1.00  0.00     0.053 C 
BRANCH   2   3
ATOM      3  C   UNL     1      -7.957  -5.505  -7.103  1.00  0.00     0.041 C 
ATOM      4  O   UNL     1      -9.196  -5.312  -7.228  1.00  0.00    -0.550 OA
ATOM      5  O   UNL     1      -7.202  -4.642  -6.319  1.00  0.00    -0.550 OA
ENDBRANCH   2   3
ENDBRANCH   1   2
BRANCH   1   6
ATOM      6  C   UNL     1      -5.435  -7.452  -9.261  1.00  0.00     0.000 C 
BRANCH   6   7
ATOM      7  C   UNL     1      -4.105  -7.739  -8.556  1.00  0.00    -0.000 C 
BRANCH   7   8
ATOM      8  C   UNL     1      -4.211  -8.983  -7.666  1.00  0.00    -0.003 C 
ATOM      9  C   UNL     1      -3.060  -9.046  -6.666  1.00  0.00     0.004 C 
ENDBRANCH   7   8
ENDBRANCH   6   7
ENDBRANCH   1   6
TORSDOF 5
ENDMDL
