MODEL 1
REMARK VINA RESULT:    -6.088      0.000      0.000
REMARK INTER + INTRA:          -6.088
REMARK INTER:                  -6.088
REMARK INTRA:                   0.000
REMARK UNBOUND:                 0.000
REMARK SMILES C=C1CCCC(C)(C)[C@@]12CC=C(C)CC2
REMARK SMILES IDX 13 1 12 2 11 3 10 4 9 5 15 6 14 7 2 8 1 9 3 10 4 11 5 12
REMARK SMILES IDX 6 13 7 14 8 15
REMARK H PARENT
REMARK Flexibility Score: inf
ROOT
ATOM      1  C   UNL     1     141.629 147.191 158.012  1.00  0.00     0.039 C 
ATOM      2  C   UNL     1     141.900 147.139 159.490  1.00  0.00    -0.077 C 
ATOM      3  C   UNL     1     142.915 146.377 159.944  1.00  0.00    -0.027 C 
ATOM      4  C   UNL     1     143.282 146.275 161.408  1.00  0.00     0.039 C 
ATOM      5  C   UNL     1     142.118 146.656 162.388  1.00  0.00    -0.000 C 
ATOM      6  C   UNL     1     141.532 147.998 161.845  1.00  0.00     0.017 C 
ATOM      7  C   UNL     1     140.952 147.845 160.433  1.00  0.00     0.031 C 
ATOM      8  C   UNL     1     140.986 145.592 162.417  1.00  0.00    -0.070 C 
ATOM      9  C   UNL     1     140.954 144.490 161.637  1.00  0.00     0.008 C 
ATOM     10  C   UNL     1     139.851 145.804 163.395  1.00  0.00     0.031 C 
ATOM     11  C   UNL     1     140.403 145.934 164.810  1.00  0.00     0.005 C 
ATOM     12  C   UNL     1     141.476 147.026 164.890  1.00  0.00     0.008 C 
ATOM     13  C   UNL     1     142.659 146.820 163.888  1.00  0.00    -0.026 C 
ATOM     14  C   UNL     1     143.602 148.042 164.070  1.00  0.00     0.012 C 
ATOM     15  C   UNL     1     143.461 145.562 164.324  1.00  0.00     0.012 C 
ENDROOT
TORSDOF 0
ENDMDL
MODEL 2
REMARK VINA RESULT:    -6.085      4.290      5.646
REMARK INTER + INTRA:          -6.085
REMARK INTER:                  -6.085
REMARK INTRA:                   0.000
REMARK UNBOUND:                 0.000
REMARK SMILES C=C1CCCC(C)(C)[C@@]12CC=C(C)CC2
REMARK SMILES IDX 13 1 12 2 11 3 10 4 9 5 15 6 14 7 2 8 1 9 3 10 4 11 5 12
REMARK SMILES IDX 6 13 7 14 8 15
REMARK H PARENT
REMARK Flexibility Score: inf
ROOT
ATOM      1  C   UNL     1     147.192 149.124 158.003  1.00  0.00     0.039 C 
ATOM      2  C   UNL     1     147.128 148.849 159.480  1.00  0.00    -0.077 C 
ATOM      3  C   UNL     1     146.355 147.838 159.925  1.00  0.00    -0.027 C 
ATOM      4  C   UNL     1     146.240 147.467 161.387  1.00  0.00     0.039 C 
ATOM      5  C   UNL     1     146.624 148.624 162.374  1.00  0.00    -0.000 C 
ATOM      6  C   UNL     1     147.974 149.202 161.842  1.00  0.00     0.017 C 
ATOM      7  C   UNL     1     147.835 149.788 160.431  1.00  0.00     0.031 C 
ATOM      8  C   UNL     1     145.569 149.765 162.399  1.00  0.00    -0.070 C 
ATOM      9  C   UNL     1     144.473 149.808 161.613  1.00  0.00     0.008 C 
ATOM     10  C   UNL     1     145.784 150.895 163.383  1.00  0.00     0.031 C 
ATOM     11  C   UNL     1     145.899 150.337 164.797  1.00  0.00     0.005 C 
ATOM     12  C   UNL     1     146.982 149.255 164.881  1.00  0.00     0.008 C 
ATOM     13  C   UNL     1     146.773 148.077 163.873  1.00  0.00    -0.026 C 
ATOM     14  C   UNL     1     147.987 147.124 164.060  1.00  0.00     0.012 C 
ATOM     15  C   UNL     1     145.506 147.283 164.298  1.00  0.00     0.012 C 
ENDROOT
TORSDOF 0
ENDMDL
MODEL 3
REMARK VINA RESULT:    -6.077      4.340      5.675
REMARK INTER + INTRA:          -6.077
REMARK INTER:                  -6.077
REMARK INTRA:                   0.000
REMARK UNBOUND:                 0.000
REMARK SMILES C=C1CCCC(C)(C)[C@@]12CC=C(C)CC2
REMARK SMILES IDX 13 1 12 2 11 3 10 4 9 5 15 6 14 7 2 8 1 9 3 10 4 11 5 12
REMARK SMILES IDX 6 13 7 14 8 15
REMARK H PARENT
REMARK Flexibility Score: inf
ROOT
ATOM      1  C   UNL     1     143.569 141.626 157.990  1.00  0.00     0.039 C 
ATOM      2  C   UNL     1     143.630 141.902 159.466  1.00  0.00    -0.077 C 
ATOM      3  C   UNL     1     144.405 142.910 159.913  1.00  0.00    -0.027 C 
ATOM      4  C   UNL     1     144.518 143.281 161.375  1.00  0.00     0.039 C 
ATOM      5  C   UNL     1     144.130 142.124 162.361  1.00  0.00    -0.000 C 
ATOM      6  C   UNL     1     142.779 141.550 161.827  1.00  0.00     0.017 C 
ATOM      7  C   UNL     1     142.919 140.964 160.416  1.00  0.00     0.031 C 
ATOM      8  C   UNL     1     145.181 140.981 162.389  1.00  0.00    -0.070 C 
ATOM      9  C   UNL     1     146.279 140.935 161.604  1.00  0.00     0.008 C 
ATOM     10  C   UNL     1     144.962 139.851 163.371  1.00  0.00     0.031 C 
ATOM     11  C   UNL     1     144.845 140.409 164.785  1.00  0.00     0.005 C 
ATOM     12  C   UNL     1     143.765 141.494 164.868  1.00  0.00     0.008 C 
ATOM     13  C   UNL     1     143.978 142.671 163.861  1.00  0.00    -0.026 C 
ATOM     14  C   UNL     1     142.767 143.628 164.045  1.00  0.00     0.012 C 
ATOM     15  C   UNL     1     145.246 143.462 164.288  1.00  0.00     0.012 C 
ENDROOT
TORSDOF 0
ENDMDL
MODEL 4
REMARK VINA RESULT:    -6.074      6.195      8.068
REMARK INTER + INTRA:          -6.074
REMARK INTER:                  -6.074
REMARK INTRA:                   0.000
REMARK UNBOUND:                 0.000
REMARK SMILES C=C1CCCC(C)(C)[C@@]12CC=C(C)CC2
REMARK SMILES IDX 13 1 12 2 11 3 10 4 9 5 15 6 14 7 2 8 1 9 3 10 4 11 5 12
REMARK SMILES IDX 6 13 7 14 8 15
REMARK H PARENT
REMARK Flexibility Score: inf
ROOT
ATOM      1  C   UNL     1     149.125 143.574 158.004  1.00  0.00     0.039 C 
ATOM      2  C   UNL     1     148.877 143.646 159.485  1.00  0.00    -0.077 C 
ATOM      3  C   UNL     1     147.883 144.432 159.946  1.00  0.00    -0.027 C 
ATOM      4  C   UNL     1     147.539 144.555 161.414  1.00  0.00     0.039 C 
ATOM      5  C   UNL     1     148.711 144.164 162.380  1.00  0.00    -0.000 C 
ATOM      6  C   UNL     1     149.265 142.806 161.844  1.00  0.00     0.017 C 
ATOM      7  C   UNL     1     149.826 142.933 160.421  1.00  0.00     0.031 C 
ATOM      8  C   UNL     1     149.862 145.207 162.381  1.00  0.00    -0.070 C 
ATOM      9  C   UNL     1     149.902 146.300 161.590  1.00  0.00     0.008 C 
ATOM     10  C   UNL     1     151.008 144.984 163.345  1.00  0.00     0.031 C 
ATOM     11  C   UNL     1     150.475 144.879 164.769  1.00  0.00     0.005 C 
ATOM     12  C   UNL     1     149.383 143.808 164.877  1.00  0.00     0.008 C 
ATOM     13  C   UNL     1     148.190 144.025 163.890  1.00  0.00    -0.026 C 
ATOM     14  C   UNL     1     147.228 142.822 164.100  1.00  0.00     0.012 C 
ATOM     15  C   UNL     1     147.416 145.302 164.324  1.00  0.00     0.012 C 
ENDROOT
TORSDOF 0
ENDMDL
MODEL 5
REMARK VINA RESULT:    -5.905      4.536      5.983
REMARK INTER + INTRA:          -5.905
REMARK INTER:                  -5.905
REMARK INTRA:                   0.000
REMARK UNBOUND:                 0.000
REMARK SMILES C=C1CCCC(C)(C)[C@@]12CC=C(C)CC2
REMARK SMILES IDX 13 1 12 2 11 3 10 4 9 5 15 6 14 7 2 8 1 9 3 10 4 11 5 12
REMARK SMILES IDX 6 13 7 14 8 15
REMARK H PARENT
REMARK Flexibility Score: inf
ROOT
ATOM      1  C   UNL     1     147.553 142.091 159.595  1.00  0.00     0.039 C 
ATOM      2  C   UNL     1     146.721 141.887 160.831  1.00  0.00    -0.077 C 
ATOM      3  C   UNL     1     145.823 140.882 160.858  1.00  0.00    -0.027 C 
ATOM      4  C   UNL     1     144.956 140.581 162.060  1.00  0.00     0.039 C 
ATOM      5  C   UNL     1     144.770 141.795 163.037  1.00  0.00    -0.000 C 
ATOM      6  C   UNL     1     146.202 142.377 163.263  1.00  0.00     0.017 C 
ATOM      7  C   UNL     1     146.829 142.889 161.959  1.00  0.00     0.031 C 
ATOM      8  C   UNL     1     143.866 142.910 162.443  1.00  0.00    -0.070 C 
ATOM      9  C   UNL     1     143.347 142.888 161.197  1.00  0.00     0.008 C 
ATOM     10  C   UNL     1     143.539 144.092 163.329  1.00  0.00     0.031 C 
ATOM     11  C   UNL     1     142.891 143.607 164.622  1.00  0.00     0.005 C 
ATOM     12  C   UNL     1     143.762 142.556 165.320  1.00  0.00     0.008 C 
ATOM     13  C   UNL     1     144.107 141.326 164.419  1.00  0.00    -0.026 C 
ATOM     14  C   UNL     1     145.035 140.412 165.266  1.00  0.00     0.012 C 
ATOM     15  C   UNL     1     142.801 140.524 164.158  1.00  0.00     0.012 C 
ENDROOT
TORSDOF 0
ENDMDL
MODEL 6
REMARK VINA RESULT:    -5.899      4.691      6.731
REMARK INTER + INTRA:          -5.899
REMARK INTER:                  -5.899
REMARK INTRA:                   0.000
REMARK UNBOUND:                 0.000
REMARK SMILES C=C1CCCC(C)(C)[C@@]12CC=C(C)CC2
REMARK SMILES IDX 13 1 12 2 11 3 10 4 9 5 15 6 14 7 2 8 1 9 3 10 4 11 5 12
REMARK SMILES IDX 6 13 7 14 8 15
REMARK H PARENT
REMARK Flexibility Score: inf
ROOT
ATOM      1  C   UNL     1     146.583 149.935 163.461  1.00  0.00     0.039 C 
ATOM      2  C   UNL     1     147.227 148.581 163.559  1.00  0.00    -0.077 C 
ATOM      3  C   UNL     1     147.640 147.968 162.431  1.00  0.00    -0.027 C 
ATOM      4  C   UNL     1     148.317 146.616 162.425  1.00  0.00     0.039 C 
ATOM      5  C   UNL     1     148.029 145.749 163.701  1.00  0.00    -0.000 C 
ATOM      6  C   UNL     1     148.252 146.703 164.917  1.00  0.00     0.017 C 
ATOM      7  C   UNL     1     147.282 147.892 164.903  1.00  0.00     0.031 C 
ATOM      8  C   UNL     1     146.572 145.215 163.746  1.00  0.00    -0.070 C 
ATOM      9  C   UNL     1     145.621 145.511 162.834  1.00  0.00     0.008 C 
ATOM     10  C   UNL     1     146.201 144.289 164.885  1.00  0.00     0.031 C 
ATOM     11  C   UNL     1     147.138 143.086 164.902  1.00  0.00     0.005 C 
ATOM     12  C   UNL     1     148.606 143.526 164.940  1.00  0.00     0.008 C 
ATOM     13  C   UNL     1     149.007 144.480 163.768  1.00  0.00    -0.026 C 
ATOM     14  C   UNL     1     150.494 144.863 164.008  1.00  0.00     0.012 C 
ATOM     15  C   UNL     1     148.957 143.677 162.438  1.00  0.00     0.012 C 
ENDROOT
TORSDOF 0
ENDMDL
MODEL 7
REMARK VINA RESULT:    -5.894      1.563      3.330
REMARK INTER + INTRA:          -5.894
REMARK INTER:                  -5.894
REMARK INTRA:                   0.000
REMARK UNBOUND:                 0.000
REMARK SMILES C=C1CCCC(C)(C)[C@@]12CC=C(C)CC2
REMARK SMILES IDX 13 1 12 2 11 3 10 4 9 5 15 6 14 7 2 8 1 9 3 10 4 11 5 12
REMARK SMILES IDX 6 13 7 14 8 15
REMARK H PARENT
REMARK Flexibility Score: inf
ROOT
ATOM      1  C   UNL     1     142.064 143.292 159.549  1.00  0.00     0.039 C 
ATOM      2  C   UNL     1     141.867 144.116 160.791  1.00  0.00    -0.077 C 
ATOM      3  C   UNL     1     140.852 145.003 160.835  1.00  0.00    -0.027 C 
ATOM      4  C   UNL     1     140.557 145.862 162.044  1.00  0.00     0.039 C 
ATOM      5  C   UNL     1     141.782 146.057 163.005  1.00  0.00    -0.000 C 
ATOM      6  C   UNL     1     142.383 144.631 163.218  1.00  0.00     0.017 C 
ATOM      7  C   UNL     1     142.884 144.015 161.905  1.00  0.00     0.031 C 
ATOM      8  C   UNL     1     142.879 146.976 162.401  1.00  0.00    -0.070 C 
ATOM      9  C   UNL     1     142.835 147.500 161.157  1.00  0.00     0.008 C 
ATOM     10  C   UNL     1     144.069 147.313 163.273  1.00  0.00     0.031 C 
ATOM     11  C   UNL     1     143.594 147.950 164.574  1.00  0.00     0.005 C 
ATOM     12  C   UNL     1     142.562 147.065 165.283  1.00  0.00     0.008 C 
ATOM     13  C   UNL     1     141.323 146.710 164.396  1.00  0.00    -0.026 C 
ATOM     14  C   UNL     1     140.431 145.768 165.252  1.00  0.00     0.012 C 
ATOM     15  C   UNL     1     140.504 148.007 164.151  1.00  0.00     0.012 C 
ENDROOT
TORSDOF 0
ENDMDL
MODEL 8
REMARK VINA RESULT:    -5.889      2.566      4.817
REMARK INTER + INTRA:          -5.889
REMARK INTER:                  -5.889
REMARK INTRA:                   0.000
REMARK UNBOUND:                 0.000
REMARK SMILES C=C1CCCC(C)(C)[C@@]12CC=C(C)CC2
REMARK SMILES IDX 13 1 12 2 11 3 10 4 9 5 15 6 14 7 2 8 1 9 3 10 4 11 5 12
REMARK SMILES IDX 6 13 7 14 8 15
REMARK H PARENT
REMARK Flexibility Score: inf
ROOT
ATOM      1  C   UNL     1     140.834 146.540 163.367  1.00  0.00     0.039 C 
ATOM      2  C   UNL     1     142.184 147.186 163.510  1.00  0.00    -0.077 C 
ATOM      3  C   UNL     1     142.800 147.668 162.412  1.00  0.00    -0.027 C 
ATOM      4  C   UNL     1     144.147 148.354 162.453  1.00  0.00     0.039 C 
ATOM      5  C   UNL     1     145.009 147.998 163.715  1.00  0.00    -0.000 C 
ATOM      6  C   UNL     1     144.047 148.143 164.937  1.00  0.00     0.017 C 
ATOM      7  C   UNL     1     142.865 147.167 164.860  1.00  0.00     0.031 C 
ATOM      8  C   UNL     1     145.553 146.543 163.679  1.00  0.00    -0.070 C 
ATOM      9  C   UNL     1     145.268 145.645 162.712  1.00  0.00     0.008 C 
ATOM     10  C   UNL     1     146.475 146.113 164.799  1.00  0.00     0.031 C 
ATOM     11  C   UNL     1     147.671 147.055 164.878  1.00  0.00     0.005 C 
ATOM     12  C   UNL     1     147.221 148.516 164.998  1.00  0.00     0.008 C 
ATOM     13  C   UNL     1     146.271 148.978 163.846  1.00  0.00    -0.026 C 
ATOM     14  C   UNL     1     145.876 150.446 164.170  1.00  0.00     0.012 C 
ATOM     15  C   UNL     1     147.081 149.011 162.520  1.00  0.00     0.012 C 
ENDROOT
TORSDOF 0
ENDMDL
MODEL 9
REMARK VINA RESULT:    -5.888      6.062      7.217
REMARK INTER + INTRA:          -5.888
REMARK INTER:                  -5.888
REMARK INTRA:                   0.000
REMARK UNBOUND:                 0.000
REMARK SMILES C=C1CCCC(C)(C)[C@@]12CC=C(C)CC2
REMARK SMILES IDX 13 1 12 2 11 3 10 4 9 5 15 6 14 7 2 8 1 9 3 10 4 11 5 12
REMARK SMILES IDX 6 13 7 14 8 15
REMARK H PARENT
REMARK Flexibility Score: inf
ROOT
ATOM      1  C   UNL     1     148.665 147.512 159.558  1.00  0.00     0.039 C 
ATOM      2  C   UNL     1     148.863 146.689 160.801  1.00  0.00    -0.077 C 
ATOM      3  C   UNL     1     149.889 145.816 160.853  1.00  0.00    -0.027 C 
ATOM      4  C   UNL     1     150.185 144.960 162.064  1.00  0.00     0.039 C 
ATOM      5  C   UNL     1     148.955 144.747 163.014  1.00  0.00    -0.000 C 
ATOM      6  C   UNL     1     148.333 146.164 163.223  1.00  0.00     0.017 C 
ATOM      7  C   UNL     1     147.835 146.775 161.906  1.00  0.00     0.031 C 
ATOM      8  C   UNL     1     147.876 143.814 162.399  1.00  0.00    -0.070 C 
ATOM      9  C   UNL     1     147.938 143.292 161.155  1.00  0.00     0.008 C 
ATOM     10  C   UNL     1     146.683 143.460 163.260  1.00  0.00     0.031 C 
ATOM     11  C   UNL     1     147.155 142.828 164.565  1.00  0.00     0.005 C 
ATOM     12  C   UNL     1     148.168 143.726 165.284  1.00  0.00     0.008 C 
ATOM     13  C   UNL     1     149.410 144.099 164.408  1.00  0.00    -0.026 C 
ATOM     14  C   UNL     1     150.282 145.052 165.273  1.00  0.00     0.012 C 
ATOM     15  C   UNL     1     150.249 142.813 164.169  1.00  0.00     0.012 C 
ENDROOT
TORSDOF 0
ENDMDL
