MODEL 1
REMARK VINA RESULT:    -5.235      0.000      0.000
REMARK INTER + INTRA:          -5.638
REMARK INTER:                  -5.541
REMARK INTRA:                  -0.097
REMARK UNBOUND:                -0.097
REMARK SMILES C=C(C)[C@@H]1CC=C(C)C(=O)C1
REMARK SMILES IDX 8 1 7 2 6 3 5 4 4 5 11 6 9 7 10 8 2 9 1 10 3 11
REMARK H PARENT
REMARK Flexibility Score: inf
ROOT
ATOM      1  C   UNL     1      16.512 -31.680  21.201  1.00  0.00     0.048 C 
ATOM      2  C   UNL     1      15.369 -30.800  21.625  1.00  0.00    -0.012 C 
ATOM      3  C   UNL     1      15.616 -29.639  22.255  1.00  0.00    -0.019 C 
ATOM      4  C   UNL     1      14.510 -28.712  22.686  1.00  0.00     0.036 C 
ATOM      5  C   UNL     1      13.243 -29.499  23.069  1.00  0.00     0.025 C 
ATOM      6  C   UNL     1      12.816 -30.419  21.910  1.00  0.00     0.089 C 
ATOM      7  C   UNL     1      13.971 -31.269  21.457  1.00  0.00     0.158 C 
ATOM      8  O   UNL     1      13.737 -32.375  20.897  1.00  0.00    -0.295 OA
ENDROOT
BRANCH   5   9
ATOM      9  C   UNL     1      12.112 -28.573  23.496  1.00  0.00    -0.077 C 
ATOM     10  C   UNL     1      10.891 -28.656  22.939  1.00  0.00     0.008 C 
ATOM     11  C   UNL     1      12.349 -27.534  24.561  1.00  0.00     0.039 C 
ENDBRANCH   5   9
TORSDOF 1
ENDMDL
MODEL 2
REMARK VINA RESULT:    -5.208      1.725      2.364
REMARK INTER + INTRA:          -5.609
REMARK INTER:                  -5.514
REMARK INTRA:                  -0.095
REMARK UNBOUND:                -0.097
REMARK SMILES C=C(C)[C@@H]1CC=C(C)C(=O)C1
REMARK SMILES IDX 8 1 7 2 6 3 5 4 4 5 11 6 9 7 10 8 2 9 1 10 3 11
REMARK H PARENT
REMARK Flexibility Score: inf
ROOT
ATOM      1  C   UNL     1      15.028 -33.565  21.027  1.00  0.00     0.048 C 
ATOM      2  C   UNL     1      14.185 -32.481  21.638  1.00  0.00    -0.012 C 
ATOM      3  C   UNL     1      13.403 -31.720  20.854  1.00  0.00    -0.019 C 
ATOM      4  C   UNL     1      12.525 -30.632  21.416  1.00  0.00     0.036 C 
ATOM      5  C   UNL     1      13.168 -29.986  22.659  1.00  0.00     0.025 C 
ATOM      6  C   UNL     1      13.504 -31.065  23.706  1.00  0.00     0.089 C 
ATOM      7  C   UNL     1      14.311 -32.171  23.085  1.00  0.00     0.158 C 
ATOM      8  O   UNL     1      15.072 -32.861  23.816  1.00  0.00    -0.295 OA
ENDROOT
BRANCH   5   9
ATOM      9  C   UNL     1      12.286 -28.892  23.244  1.00  0.00    -0.077 C 
ATOM     10  C   UNL     1      12.737 -28.070  24.207  1.00  0.00     0.008 C 
ATOM     11  C   UNL     1      10.875 -28.713  22.746  1.00  0.00     0.039 C 
ENDBRANCH   5   9
TORSDOF 1
ENDMDL
MODEL 3
REMARK VINA RESULT:    -5.115      1.512      2.059
REMARK INTER + INTRA:          -5.511
REMARK INTER:                  -5.414
REMARK INTRA:                  -0.096
REMARK UNBOUND:                -0.097
REMARK SMILES C=C(C)[C@@H]1CC=C(C)C(=O)C1
REMARK SMILES IDX 8 1 7 2 6 3 5 4 4 5 11 6 9 7 10 8 2 9 1 10 3 11
REMARK H PARENT
REMARK Flexibility Score: inf
ROOT
ATOM      1  C   UNL     1      15.407 -34.162  21.527  1.00  0.00     0.048 C 
ATOM      2  C   UNL     1      14.731 -32.851  21.814  1.00  0.00    -0.012 C 
ATOM      3  C   UNL     1      14.887 -32.265  23.013  1.00  0.00    -0.019 C 
ATOM      4  C   UNL     1      14.246 -30.943  23.347  1.00  0.00     0.036 C 
ATOM      5  C   UNL     1      12.897 -30.781  22.622  1.00  0.00     0.025 C 
ATOM      6  C   UNL     1      13.081 -30.975  21.105  1.00  0.00     0.089 C 
ATOM      7  C   UNL     1      13.796 -32.267  20.820  1.00  0.00     0.158 C 
ATOM      8  O   UNL     1      13.620 -32.833  19.707  1.00  0.00    -0.295 OA
ENDROOT
BRANCH   5   9
ATOM      9  C   UNL     1      12.243 -29.444  22.941  1.00  0.00    -0.077 C 
ATOM     10  C   UNL     1      12.862 -28.528  23.707  1.00  0.00     0.008 C 
ATOM     11  C   UNL     1      10.875 -29.123  22.398  1.00  0.00     0.039 C 
ENDBRANCH   5   9
TORSDOF 1
ENDMDL
MODEL 4
REMARK VINA RESULT:    -5.054      2.500      5.464
REMARK INTER + INTRA:          -5.446
REMARK INTER:                  -5.349
REMARK INTRA:                  -0.097
REMARK UNBOUND:                -0.097
REMARK SMILES C=C(C)[C@@H]1CC=C(C)C(=O)C1
REMARK SMILES IDX 8 1 7 2 6 3 5 4 4 5 11 6 9 7 10 8 2 9 1 10 3 11
REMARK H PARENT
REMARK Flexibility Score: inf
ROOT
ATOM      1  C   UNL     1      13.118 -30.331  23.286  1.00  0.00     0.048 C 
ATOM      2  C   UNL     1      13.753 -31.571  22.722  1.00  0.00    -0.012 C 
ATOM      3  C   UNL     1      14.462 -32.385  23.523  1.00  0.00    -0.019 C 
ATOM      4  C   UNL     1      15.105 -33.648  23.013  1.00  0.00     0.036 C 
ATOM      5  C   UNL     1      15.552 -33.491  21.547  1.00  0.00     0.025 C 
ATOM      6  C   UNL     1      14.365 -33.045  20.673  1.00  0.00     0.089 C 
ATOM      7  C   UNL     1      13.702 -31.830  21.261  1.00  0.00     0.158 C 
ATOM      8  O   UNL     1      13.068 -31.049  20.501  1.00  0.00    -0.295 OA
ENDROOT
BRANCH   5   9
ATOM      9  C   UNL     1      16.194 -34.765  21.015  1.00  0.00    -0.077 C 
ATOM     10  C   UNL     1      15.860 -35.267  19.813  1.00  0.00     0.008 C 
ATOM     11  C   UNL     1      17.224 -35.492  21.839  1.00  0.00     0.039 C 
ENDBRANCH   5   9
TORSDOF 1
ENDMDL
MODEL 5
REMARK VINA RESULT:    -5.016      7.038      8.750
REMARK INTER + INTRA:          -5.406
REMARK INTER:                  -5.311
REMARK INTRA:                  -0.095
REMARK UNBOUND:                -0.097
REMARK SMILES C=C(C)[C@@H]1CC=C(C)C(=O)C1
REMARK SMILES IDX 8 1 7 2 6 3 5 4 4 5 11 6 9 7 10 8 2 9 1 10 3 11
REMARK H PARENT
REMARK Flexibility Score: inf
ROOT
ATOM      1  C   UNL     1      23.024 -24.236  20.084  1.00  0.00     0.048 C 
ATOM      2  C   UNL     1      22.128 -25.441  20.156  1.00  0.00    -0.012 C 
ATOM      3  C   UNL     1      20.793 -25.283  20.161  1.00  0.00    -0.019 C 
ATOM      4  C   UNL     1      19.849 -26.455  20.213  1.00  0.00     0.036 C 
ATOM      5  C   UNL     1      20.453 -27.618  21.024  1.00  0.00     0.025 C 
ATOM      6  C   UNL     1      21.832 -28.003  20.457  1.00  0.00     0.089 C 
ATOM      7  C   UNL     1      22.715 -26.791  20.345  1.00  0.00     0.158 C 
ATOM      8  O   UNL     1      23.967 -26.938  20.377  1.00  0.00    -0.295 OA
ENDROOT
BRANCH   5   9
ATOM      9  C   UNL     1      19.513 -28.815  21.076  1.00  0.00    -0.077 C 
ATOM     10  C   UNL     1      18.180 -28.663  20.990  1.00  0.00     0.008 C 
ATOM     11  C   UNL     1      20.071 -30.206  21.228  1.00  0.00     0.039 C 
ENDBRANCH   5   9
TORSDOF 1
ENDMDL
MODEL 6
REMARK VINA RESULT:    -5.015      2.972      4.504
REMARK INTER + INTRA:          -5.405
REMARK INTER:                  -5.308
REMARK INTRA:                  -0.098
REMARK UNBOUND:                -0.097
REMARK SMILES C=C(C)[C@@H]1CC=C(C)C(=O)C1
REMARK SMILES IDX 8 1 7 2 6 3 5 4 4 5 11 6 9 7 10 8 2 9 1 10 3 11
REMARK H PARENT
REMARK Flexibility Score: inf
ROOT
ATOM      1  C   UNL     1      17.105 -35.784  19.427  1.00  0.00     0.048 C 
ATOM      2  C   UNL     1      16.132 -34.891  20.145  1.00  0.00    -0.012 C 
ATOM      3  C   UNL     1      15.259 -34.150  19.442  1.00  0.00    -0.019 C 
ATOM      4  C   UNL     1      14.251 -33.253  20.111  1.00  0.00     0.036 C 
ATOM      5  C   UNL     1      14.807 -32.678  21.427  1.00  0.00     0.025 C 
ATOM      6  C   UNL     1      15.278 -33.817  22.350  1.00  0.00     0.089 C 
ATOM      7  C   UNL     1      16.219 -34.735  21.619  1.00  0.00     0.158 C 
ATOM      8  O   UNL     1      17.062 -35.403  22.278  1.00  0.00    -0.295 OA
ENDROOT
BRANCH   5   9
ATOM      9  C   UNL     1      13.794 -31.777  22.121  1.00  0.00    -0.077 C 
ATOM     10  C   UNL     1      13.765 -31.656  23.460  1.00  0.00     0.008 C 
ATOM     11  C   UNL     1      12.794 -30.999  21.306  1.00  0.00     0.039 C 
ENDBRANCH   5   9
TORSDOF 1
ENDMDL
MODEL 7
REMARK VINA RESULT:    -4.983      1.479      1.994
REMARK INTER + INTRA:          -5.371
REMARK INTER:                  -5.282
REMARK INTRA:                  -0.089
REMARK UNBOUND:                -0.097
REMARK SMILES C=C(C)[C@@H]1CC=C(C)C(=O)C1
REMARK SMILES IDX 8 1 7 2 6 3 5 4 4 5 11 6 9 7 10 8 2 9 1 10 3 11
REMARK H PARENT
REMARK Flexibility Score: inf
ROOT
ATOM      1  C   UNL     1      16.313 -32.145  21.673  1.00  0.00     0.048 C 
ATOM      2  C   UNL     1      15.364 -31.154  22.287  1.00  0.00    -0.012 C 
ATOM      3  C   UNL     1      14.265 -31.588  22.927  1.00  0.00    -0.019 C 
ATOM      4  C   UNL     1      13.290 -30.640  23.575  1.00  0.00     0.036 C 
ATOM      5  C   UNL     1      13.210 -29.310  22.800  1.00  0.00     0.025 C 
ATOM      6  C   UNL     1      14.614 -28.694  22.653  1.00  0.00     0.089 C 
ATOM      7  C   UNL     1      15.575 -29.699  22.079  1.00  0.00     0.158 C 
ATOM      8  O   UNL     1      16.587 -29.290  21.448  1.00  0.00    -0.295 OA
ENDROOT
BRANCH   5   9
ATOM      9  C   UNL     1      12.236 -28.338  23.450  1.00  0.00    -0.077 C 
ATOM     10  C   UNL     1      10.936 -28.316  23.109  1.00  0.00     0.008 C 
ATOM     11  C   UNL     1      12.722 -27.370  24.498  1.00  0.00     0.039 C 
ENDBRANCH   5   9
TORSDOF 1
ENDMDL
MODEL 8
REMARK VINA RESULT:    -4.952      7.280      9.097
REMARK INTER + INTRA:          -5.339
REMARK INTER:                  -5.250
REMARK INTRA:                  -0.089
REMARK UNBOUND:                -0.097
REMARK SMILES C=C(C)[C@@H]1CC=C(C)C(=O)C1
REMARK SMILES IDX 8 1 7 2 6 3 5 4 4 5 11 6 9 7 10 8 2 9 1 10 3 11
REMARK H PARENT
REMARK Flexibility Score: inf
ROOT
ATOM      1  C   UNL     1      19.130 -29.321  21.230  1.00  0.00     0.048 C 
ATOM      2  C   UNL     1      19.977 -28.084  21.113  1.00  0.00    -0.012 C 
ATOM      3  C   UNL     1      19.549 -27.047  20.373  1.00  0.00    -0.019 C 
ATOM      4  C   UNL     1      20.349 -25.778  20.237  1.00  0.00     0.036 C 
ATOM      5  C   UNL     1      21.861 -26.066  20.289  1.00  0.00     0.025 C 
ATOM      6  C   UNL     1      22.211 -26.842  21.573  1.00  0.00     0.089 C 
ATOM      7  C   UNL     1      21.335 -28.057  21.712  1.00  0.00     0.158 C 
ATOM      8  O   UNL     1      21.754 -29.043  22.377  1.00  0.00    -0.295 OA
ENDROOT
BRANCH   5   9
ATOM      9  C   UNL     1      22.682 -24.790  20.164  1.00  0.00    -0.077 C 
ATOM     10  C   UNL     1      23.257 -24.439  19.000  1.00  0.00     0.008 C 
ATOM     11  C   UNL     1      22.867 -23.891  21.359  1.00  0.00     0.039 C 
ENDBRANCH   5   9
TORSDOF 1
ENDMDL
MODEL 9
REMARK VINA RESULT:    -4.848      7.707      9.406
REMARK INTER + INTRA:          -5.228
REMARK INTER:                  -5.134
REMARK INTRA:                  -0.094
REMARK UNBOUND:                -0.097
REMARK SMILES C=C(C)[C@@H]1CC=C(C)C(=O)C1
REMARK SMILES IDX 8 1 7 2 6 3 5 4 4 5 11 6 9 7 10 8 2 9 1 10 3 11
REMARK H PARENT
REMARK Flexibility Score: inf
ROOT
ATOM      1  C   UNL     1      23.633 -23.565  20.148  1.00  0.00     0.048 C 
ATOM      2  C   UNL     1      22.821 -24.791  20.462  1.00  0.00    -0.012 C 
ATOM      3  C   UNL     1      23.057 -25.938  19.803  1.00  0.00    -0.019 C 
ATOM      4  C   UNL     1      22.286 -27.199  20.091  1.00  0.00     0.036 C 
ATOM      5  C   UNL     1      20.839 -26.881  20.513  1.00  0.00     0.025 C 
ATOM      6  C   UNL     1      20.833 -25.907  21.706  1.00  0.00     0.089 C 
ATOM      7  C   UNL     1      21.681 -24.701  21.409  1.00  0.00     0.158 C 
ATOM      8  O   UNL     1      21.434 -23.616  22.002  1.00  0.00    -0.295 OA
ENDROOT
BRANCH   5   9
ATOM      9  C   UNL     1      20.050 -28.147  20.818  1.00  0.00    -0.077 C 
ATOM     10  C   UNL     1      18.706 -28.153  20.811  1.00  0.00     0.008 C 
ATOM     11  C   UNL     1      20.775 -29.428  21.139  1.00  0.00     0.039 C 
ENDBRANCH   5   9
TORSDOF 1
ENDMDL
