MODEL 1
REMARK VINA RESULT:    78.025      0.000      0.000
REMARK INTER + INTRA:         101.954
REMARK INTER:                 103.112
REMARK INTRA:                  -1.158
REMARK UNBOUND:                -1.158
REMARK SMILES CC[C@@H](C=C[C@H](C)[C@@H]1CC[C@@H]2C3=CC[C@@H]4C[C@H](O)CC[C@]4(C)[C@@H]3CC[C@@]21C)C(C)C
REMARK SMILES IDX 6 1 7 2 5 3 4 4 3 5 2 6 1 7 28 8 29 9 30 10 8 11 9 12 26 13
REMARK SMILES IDX 10 14 11 15 25 16 27 17 12 18 24 19 23 20 13 21 21 22 14 23
REMARK SMILES IDX 15 24 20 25 22 26 16 27 19 28 17 29 18 30
REMARK H PARENT 18 31
REMARK Flexibility Score: inf
ROOT
ATOM      1  C   UNL     1      87.338  -4.472  68.209  1.00  0.00     0.012 C 
ATOM      2  C   UNL     1      88.559  -4.257  69.109  1.00  0.00     0.012 C 
ENDROOT
BRANCH   1   3
ATOM      3  C   UNL     1      87.516  -5.784  67.476  1.00  0.00    -0.028 C 
ATOM      4  C   UNL     1      88.607  -6.549  67.643  1.00  0.00    -0.027 C 
BRANCH   4   5
ATOM      5  C   UNL     1      88.769  -7.876  66.930  1.00  0.00     0.014 C 
BRANCH   5   6
ATOM      6  C   UNL     1      88.460  -9.025  67.922  1.00  0.00     0.004 C 
ATOM      7  C   UNL     1      89.491  -9.124  69.050  1.00  0.00     0.004 C 
ENDBRANCH   5   6
BRANCH   5   8
ATOM      8  C   UNL     1      90.206  -7.984  66.329  1.00  0.00    -0.011 C 
ATOM      9  C   UNL     1      91.071  -6.775  66.732  1.00  0.00     0.008 C 
ATOM     10  C   UNL     1      90.187  -8.094  64.794  1.00  0.00     0.008 C 
ENDBRANCH   5   8
ENDBRANCH   4   5
ENDBRANCH   1   3
BRANCH   1  11
ATOM     11  C   UNL     1      85.988  -4.501  69.000  1.00  0.00     0.002 C 
ATOM     12  C   UNL     1      85.114  -5.694  68.581  1.00  0.00     0.005 C 
ATOM     13  C   UNL     1      85.025  -3.270  68.937  1.00  0.00    -0.023 C 
ATOM     14  C   UNL     1      83.669  -5.321  68.906  1.00  0.00     0.009 C 
ATOM     15  C   UNL     1      83.707  -3.897  69.460  1.00  0.00     0.021 C 
ATOM     16  C   UNL     1      84.880  -2.688  67.478  1.00  0.00     0.008 C 
ATOM     17  C   UNL     1      85.467  -2.153  69.926  1.00  0.00     0.012 C 
ATOM     18  C   UNL     1      82.440  -3.118  69.137  1.00  0.00    -0.067 C 
ATOM     19  C   UNL     1      83.440  -2.466  66.984  1.00  0.00     0.009 C 
ATOM     20  C   UNL     1      82.493  -2.009  68.107  1.00  0.00     0.021 C 
ATOM     21  C   UNL     1      81.340  -3.361  69.869  1.00  0.00    -0.027 C 
ATOM     22  C   UNL     1      81.091  -1.486  67.594  1.00  0.00    -0.023 C 
ATOM     23  C   UNL     1      80.009  -2.748  69.576  1.00  0.00     0.031 C 
ATOM     24  C   UNL     1      80.091  -1.418  68.793  1.00  0.00     0.002 C 
ATOM     25  C   UNL     1      80.485  -2.400  66.486  1.00  0.00     0.010 C 
ATOM     26  C   UNL     1      81.314  -0.052  67.025  1.00  0.00     0.012 C 
ATOM     27  C   UNL     1      78.668  -0.973  68.358  1.00  0.00     0.036 C 
ATOM     28  C   UNL     1      79.094  -1.937  66.016  1.00  0.00     0.032 C 
ATOM     29  C   UNL     1      78.087  -1.769  67.164  1.00  0.00     0.114 C 
BRANCH  29  30
ATOM     30  O   UNL     1      77.623  -3.032  67.567  1.00  0.00    -0.393 OA
ATOM     31  H   UNL     1      78.394  -3.655  67.507  1.00  0.00     0.210 HD
ENDBRANCH  29  30
ENDBRANCH   1  11
TORSDOF 6
ENDMDL
