MODEL 1
REMARK VINA RESULT:    -2.790      0.000      0.000
REMARK INTER + INTRA:          -3.150
REMARK INTER:                  -3.443
REMARK INTRA:                   0.293
REMARK UNBOUND:                 0.293
REMARK SMILES O=c1c(O)c(-c2cc(O)c(O)c(O)c2)oc2cc(O)cc(O)c12
REMARK SMILES IDX 5 1 3 2 2 3 1 4 23 5 21 6 20 7 18 8 17 9 16 10 15 11 6 12
REMARK SMILES IDX 7 13 8 14 14 15 10 16 12 17 9 18 11 20 13 22 4 24 22 26
REMARK SMILES IDX 19 28
REMARK H PARENT 9 19 11 21 13 23 4 25 22 27 19 29
REMARK Flexibility Score: inf
ROOT
ATOM      1  C   UNL     1     -11.724 -16.047  31.208  1.00  0.00     0.180 A 
ATOM      2  C   UNL     1     -10.776 -17.032  30.882  1.00  0.00     0.208 A 
ATOM      3  C   UNL     1     -10.688 -17.479  29.554  1.00  0.00     0.238 A 
ATOM      4  O   UNL     1      -9.875 -18.400  29.279  1.00  0.00    -0.285 OA
ATOM      5  C   UNL     1     -11.538 -16.925  28.566  1.00  0.00     0.111 A 
ATOM      6  C   UNL     1     -11.508 -17.274  27.183  1.00  0.00     0.134 A 
ATOM      7  C   UNL     1     -12.482 -16.758  26.320  1.00  0.00     0.093 A 
ATOM      8  C   UNL     1     -13.443 -15.856  26.774  1.00  0.00     0.123 A 
ATOM      9  C   UNL     1     -13.445 -15.462  28.113  1.00  0.00     0.094 A 
ATOM     10  C   UNL     1     -12.508 -15.987  29.006  1.00  0.00     0.146 A 
ATOM     11  O   UNL     1     -12.551 -15.595  30.273  1.00  0.00    -0.452 OA
ENDROOT
BRANCH   1  12
ATOM     12  C   UNL     1     -11.859 -15.508  32.581  1.00  0.00     0.029 A 
ATOM     13  C   UNL     1     -10.796 -15.569  33.498  1.00  0.00     0.062 A 
ATOM     14  C   UNL     1     -10.935 -15.033  34.786  1.00  0.00     0.162 A 
ATOM     15  C   UNL     1     -13.051 -14.871  32.959  1.00  0.00     0.062 A 
ATOM     16  C   UNL     1     -12.140 -14.418  35.162  1.00  0.00     0.200 A 
ATOM     17  C   UNL     1     -13.196 -14.335  34.245  1.00  0.00     0.162 A 
BRANCH  14  18
ATOM     18  O   UNL     1      -9.876 -15.105  35.691  1.00  0.00    -0.504 OA
ATOM     19  H   UNL     1     -10.002 -14.895  36.674  1.00  0.00     0.293 HD
ENDBRANCH  14  18
BRANCH  16  20
ATOM     20  O   UNL     1     -12.303 -13.880  36.439  1.00  0.00    -0.502 OA
ATOM     21  H   UNL     1     -12.675 -14.424  37.210  1.00  0.00     0.293 HD
ENDBRANCH  16  20
BRANCH  17  22
ATOM     22  O   UNL     1     -14.387 -13.716  34.620  1.00  0.00    -0.504 OA
ATOM     23  H   UNL     1     -14.557 -12.735  34.435  1.00  0.00     0.293 HD
ENDBRANCH  17  22
ENDBRANCH   1  12
BRANCH   2  24
ATOM     24  O   UNL     1      -9.962 -17.582  31.877  1.00  0.00    -0.502 OA
ATOM     25  H   UNL     1     -10.179 -17.499  32.863  1.00  0.00     0.293 HD
ENDBRANCH   2  24
BRANCH   6  26
ATOM     26  O   UNL     1     -10.534 -18.095  26.606  1.00  0.00    -0.507 OA
ATOM     27  H   UNL     1      -9.940 -18.729  27.118  1.00  0.00     0.293 HD
ENDBRANCH   6  26
BRANCH   8  28
ATOM     28  O   UNL     1     -14.387 -15.351  25.883  1.00  0.00    -0.508 OA
ATOM     29  H   UNL     1     -15.376 -15.341  26.107  1.00  0.00     0.293 HD
ENDBRANCH   8  28
TORSDOF 7
ENDMDL
MODEL 2
REMARK VINA RESULT:    -2.604      1.741      2.061
REMARK INTER + INTRA:          -2.920
REMARK INTER:                  -2.604
REMARK INTRA:                  -0.316
REMARK UNBOUND:                 0.293
REMARK SMILES O=c1c(O)c(-c2cc(O)c(O)c(O)c2)oc2cc(O)cc(O)c12
REMARK SMILES IDX 5 1 3 2 2 3 1 4 23 5 21 6 20 7 18 8 17 9 16 10 15 11 6 12
REMARK SMILES IDX 7 13 8 14 14 15 10 16 12 17 9 18 11 20 13 22 4 24 22 26
REMARK SMILES IDX 19 28
REMARK H PARENT 9 19 11 21 13 23 4 25 22 27 19 29
REMARK Flexibility Score: inf
ROOT
ATOM      1  C   UNL     1     -12.398 -16.501  31.652  1.00  0.00     0.180 A 
ATOM      2  C   UNL     1     -13.117 -17.708  31.606  1.00  0.00     0.208 A 
ATOM      3  C   UNL     1     -13.152 -18.434  30.405  1.00  0.00     0.238 A 
ATOM      4  O   UNL     1     -13.841 -19.486  30.354  1.00  0.00    -0.285 OA
ATOM      5  C   UNL     1     -12.455 -17.953  29.270  1.00  0.00     0.111 A 
ATOM      6  C   UNL     1     -12.388 -18.627  28.014  1.00  0.00     0.134 A 
ATOM      7  C   UNL     1     -11.778 -17.995  26.923  1.00  0.00     0.093 A 
ATOM      8  C   UNL     1     -11.177 -16.745  27.058  1.00  0.00     0.123 A 
ATOM      9  C   UNL     1     -11.184 -16.103  28.298  1.00  0.00     0.094 A 
ATOM     10  C   UNL     1     -11.816 -16.692  29.396  1.00  0.00     0.146 A 
ATOM     11  O   UNL     1     -11.810 -16.043  30.553  1.00  0.00    -0.452 OA
ENDROOT
BRANCH   1  12
ATOM     12  C   UNL     1     -12.295 -15.692  32.889  1.00  0.00     0.029 A 
ATOM     13  C   UNL     1     -11.128 -15.700  33.672  1.00  0.00     0.062 A 
ATOM     14  C   UNL     1     -11.040 -14.911  34.827  1.00  0.00     0.162 A 
ATOM     15  C   UNL     1     -13.359 -14.856  33.258  1.00  0.00     0.062 A 
ATOM     16  C   UNL     1     -12.120 -14.095  35.201  1.00  0.00     0.200 A 
ATOM     17  C   UNL     1     -13.278 -14.066  34.412  1.00  0.00     0.162 A 
BRANCH  14  18
ATOM     18  O   UNL     1      -9.880 -14.931  35.601  1.00  0.00    -0.504 OA
ATOM     19  H   UNL     1      -9.001 -14.567  35.251  1.00  0.00     0.293 HD
ENDBRANCH  14  18
BRANCH  16  20
ATOM     20  O   UNL     1     -12.058 -13.303  36.348  1.00  0.00    -0.502 OA
ATOM     21  H   UNL     1     -12.891 -12.978  36.824  1.00  0.00     0.293 HD
ENDBRANCH  16  20
BRANCH  17  22
ATOM     22  O   UNL     1     -14.344 -13.249  34.782  1.00  0.00    -0.504 OA
ATOM     23  H   UNL     1     -14.357 -12.261  34.559  1.00  0.00     0.293 HD
ENDBRANCH  17  22
ENDBRANCH   1  12
BRANCH   2  24
ATOM     24  O   UNL     1     -13.817 -18.153  32.731  1.00  0.00    -0.502 OA
ATOM     25  H   UNL     1     -14.477 -17.567  33.228  1.00  0.00     0.293 HD
ENDBRANCH   2  24
BRANCH   6  26
ATOM     26  O   UNL     1     -12.876 -19.919  27.794  1.00  0.00    -0.507 OA
ATOM     27  H   UNL     1     -12.485 -20.577  27.138  1.00  0.00     0.293 HD
ENDBRANCH   6  26
BRANCH   8  28
ATOM     28  O   UNL     1     -10.566 -16.153  25.955  1.00  0.00    -0.508 OA
ATOM     29  H   UNL     1     -10.992 -16.180  25.035  1.00  0.00     0.293 HD
ENDBRANCH   8  28
TORSDOF 7
ENDMDL
MODEL 3
REMARK VINA RESULT:    -2.604      1.744      2.700
REMARK INTER + INTRA:          -2.920
REMARK INTER:                  -2.609
REMARK INTRA:                  -0.311
REMARK UNBOUND:                 0.293
REMARK SMILES O=c1c(O)c(-c2cc(O)c(O)c(O)c2)oc2cc(O)cc(O)c12
REMARK SMILES IDX 5 1 3 2 2 3 1 4 23 5 21 6 20 7 18 8 17 9 16 10 15 11 6 12
REMARK SMILES IDX 7 13 8 14 14 15 10 16 12 17 9 18 11 20 13 22 4 24 22 26
REMARK SMILES IDX 19 28
REMARK H PARENT 9 19 11 21 13 23 4 25 22 27 19 29
REMARK Flexibility Score: inf
ROOT
ATOM      1  C   UNL     1     -12.427 -16.445  31.618  1.00  0.00     0.180 A 
ATOM      2  C   UNL     1     -13.132 -17.662  31.610  1.00  0.00     0.208 A 
ATOM      3  C   UNL     1     -13.167 -18.420  30.429  1.00  0.00     0.238 A 
ATOM      4  O   UNL     1     -13.844 -19.481  30.412  1.00  0.00    -0.285 OA
ATOM      5  C   UNL     1     -12.486 -17.961  29.276  1.00  0.00     0.111 A 
ATOM      6  C   UNL     1     -12.421 -18.668  28.037  1.00  0.00     0.134 A 
ATOM      7  C   UNL     1     -11.828 -18.057  26.925  1.00  0.00     0.093 A 
ATOM      8  C   UNL     1     -11.241 -16.797  27.021  1.00  0.00     0.123 A 
ATOM      9  C   UNL     1     -11.246 -16.122  28.244  1.00  0.00     0.094 A 
ATOM     10  C   UNL     1     -11.862 -16.689  29.362  1.00  0.00     0.146 A 
ATOM     11  O   UNL     1     -11.854 -16.010  30.502  1.00  0.00    -0.452 OA
ENDROOT
BRANCH   1  12
ATOM     12  C   UNL     1     -12.324 -15.603  32.832  1.00  0.00     0.029 A 
ATOM     13  C   UNL     1     -13.395 -14.798  33.256  1.00  0.00     0.062 A 
ATOM     14  C   UNL     1     -13.287 -14.024  34.420  1.00  0.00     0.162 A 
ATOM     15  C   UNL     1     -11.157 -15.651  33.608  1.00  0.00     0.062 A 
ATOM     16  C   UNL     1     -12.106 -14.062  35.178  1.00  0.00     0.200 A 
ATOM     17  C   UNL     1     -11.042 -14.879  34.772  1.00  0.00     0.162 A 
BRANCH  14  18
ATOM     18  O   UNL     1     -14.354 -13.224  34.829  1.00  0.00    -0.504 OA
ATOM     19  H   UNL     1     -14.257 -12.221  34.930  1.00  0.00     0.293 HD
ENDBRANCH  14  18
BRANCH  16  20
ATOM     20  O   UNL     1     -11.973 -13.299  36.339  1.00  0.00    -0.502 OA
ATOM     21  H   UNL     1     -12.702 -13.254  37.041  1.00  0.00     0.293 HD
ENDBRANCH  16  20
BRANCH  17  22
ATOM     22  O   UNL     1      -9.875 -14.919  35.531  1.00  0.00    -0.504 OA
ATOM     23  H   UNL     1      -9.897 -15.082  36.531  1.00  0.00     0.293 HD
ENDBRANCH  17  22
ENDBRANCH   1  12
BRANCH   2  24
ATOM     24  O   UNL     1     -13.816 -18.086  32.753  1.00  0.00    -0.502 OA
ATOM     25  H   UNL     1     -13.999 -17.470  33.536  1.00  0.00     0.293 HD
ENDBRANCH   2  24
BRANCH   6  26
ATOM     26  O   UNL     1     -12.895 -19.970  27.856  1.00  0.00    -0.507 OA
ATOM     27  H   UNL     1     -13.769 -20.206  27.412  1.00  0.00     0.293 HD
ENDBRANCH   6  26
BRANCH   8  28
ATOM     28  O   UNL     1     -10.647 -16.227  25.898  1.00  0.00    -0.508 OA
ATOM     29  H   UNL     1     -10.954 -15.333  25.532  1.00  0.00     0.293 HD
ENDBRANCH   8  28
TORSDOF 7
ENDMDL
MODEL 4
REMARK VINA RESULT:    -2.279      1.958      2.318
REMARK INTER + INTRA:          -2.519
REMARK INTER:                  -2.317
REMARK INTRA:                  -0.202
REMARK UNBOUND:                 0.293
REMARK SMILES O=c1c(O)c(-c2cc(O)c(O)c(O)c2)oc2cc(O)cc(O)c12
REMARK SMILES IDX 5 1 3 2 2 3 1 4 23 5 21 6 20 7 18 8 17 9 16 10 15 11 6 12
REMARK SMILES IDX 7 13 8 14 14 15 10 16 12 17 9 18 11 20 13 22 4 24 22 26
REMARK SMILES IDX 19 28
REMARK H PARENT 9 19 11 21 13 23 4 25 22 27 19 29
REMARK Flexibility Score: inf
ROOT
ATOM      1  C   UNL     1     -11.889 -16.391  31.391  1.00  0.00     0.180 A 
ATOM      2  C   UNL     1     -11.016 -15.976  30.370  1.00  0.00     0.208 A 
ATOM      3  C   UNL     1     -11.015 -16.672  29.150  1.00  0.00     0.238 A 
ATOM      4  O   UNL     1     -10.194 -16.329  28.260  1.00  0.00    -0.285 OA
ATOM      5  C   UNL     1     -11.895 -17.764  28.961  1.00  0.00     0.111 A 
ATOM      6  C   UNL     1     -12.007 -18.516  27.753  1.00  0.00     0.134 A 
ATOM      7  C   UNL     1     -12.817 -19.658  27.723  1.00  0.00     0.093 A 
ATOM      8  C   UNL     1     -13.569 -20.037  28.833  1.00  0.00     0.123 A 
ATOM      9  C   UNL     1     -13.514 -19.275  30.001  1.00  0.00     0.094 A 
ATOM     10  C   UNL     1     -12.687 -18.151  30.074  1.00  0.00     0.146 A 
ATOM     11  O   UNL     1     -12.655 -17.460  31.207  1.00  0.00    -0.452 OA
ENDROOT
BRANCH   1  12
ATOM     12  C   UNL     1     -11.966 -15.693  32.694  1.00  0.00     0.029 A 
ATOM     13  C   UNL     1     -10.878 -15.684  33.584  1.00  0.00     0.062 A 
ATOM     14  C   UNL     1     -10.961 -14.998  34.804  1.00  0.00     0.162 A 
ATOM     15  C   UNL     1     -13.125 -14.975  33.026  1.00  0.00     0.062 A 
ATOM     16  C   UNL     1     -12.134 -14.302  35.137  1.00  0.00     0.200 A 
ATOM     17  C   UNL     1     -13.214 -14.289  34.244  1.00  0.00     0.162 A 
BRANCH  14  18
ATOM     18  O   UNL     1      -9.878 -15.001  35.683  1.00  0.00    -0.504 OA
ATOM     19  H   UNL     1      -9.439 -14.140  35.989  1.00  0.00     0.293 HD
ENDBRANCH  14  18
BRANCH  16  20
ATOM     20  O   UNL     1     -12.242 -13.614  36.346  1.00  0.00    -0.502 OA
ATOM     21  H   UNL     1     -11.544 -12.945  36.650  1.00  0.00     0.293 HD
ENDBRANCH  16  20
BRANCH  17  22
ATOM     22  O   UNL     1     -14.373 -13.590  34.575  1.00  0.00    -0.504 OA
ATOM     23  H   UNL     1     -14.529 -12.640  34.260  1.00  0.00     0.293 HD
ENDBRANCH  17  22
ENDBRANCH   1  12
BRANCH   2  24
ATOM     24  O   UNL     1     -10.140 -14.908  30.585  1.00  0.00    -0.502 OA
ATOM     25  H   UNL     1      -9.781 -14.677  31.503  1.00  0.00     0.293 HD
ENDBRANCH   2  24
BRANCH   6  26
ATOM     26  O   UNL     1     -11.368 -18.172  26.558  1.00  0.00    -0.507 OA
ATOM     27  H   UNL     1     -10.705 -18.755  26.072  1.00  0.00     0.293 HD
ENDBRANCH   6  26
BRANCH   8  28
ATOM     28  O   UNL     1     -14.377 -21.170  28.762  1.00  0.00    -0.508 OA
ATOM     29  H   UNL     1     -13.981 -22.098  28.664  1.00  0.00     0.293 HD
ENDBRANCH   8  28
TORSDOF 7
ENDMDL
MODEL 5
REMARK VINA RESULT:    -1.179      1.774      7.382
REMARK INTER + INTRA:          -1.161
REMARK INTER:                  -0.857
REMARK INTRA:                  -0.304
REMARK UNBOUND:                 0.293
REMARK SMILES O=c1c(O)c(-c2cc(O)c(O)c(O)c2)oc2cc(O)cc(O)c12
REMARK SMILES IDX 5 1 3 2 2 3 1 4 23 5 21 6 20 7 18 8 17 9 16 10 15 11 6 12
REMARK SMILES IDX 7 13 8 14 14 15 10 16 12 17 9 18 11 20 13 22 4 24 22 26
REMARK SMILES IDX 19 28
REMARK H PARENT 9 19 11 21 13 23 4 25 22 27 19 29
REMARK Flexibility Score: inf
ROOT
ATOM      1  C   UNL     1     -12.490 -15.950  30.978  1.00  0.00     0.180 A 
ATOM      2  C   UNL     1     -13.750 -15.372  31.211  1.00  0.00     0.208 A 
ATOM      3  C   UNL     1     -13.993 -14.744  32.443  1.00  0.00     0.238 A 
ATOM      4  O   UNL     1     -15.140 -14.275  32.667  1.00  0.00    -0.285 OA
ATOM      5  C   UNL     1     -12.971 -14.689  33.421  1.00  0.00     0.111 A 
ATOM      6  C   UNL     1     -13.093 -14.044  34.688  1.00  0.00     0.134 A 
ATOM      7  C   UNL     1     -12.062 -14.166  35.627  1.00  0.00     0.093 A 
ATOM      8  C   UNL     1     -10.887 -14.851  35.324  1.00  0.00     0.123 A 
ATOM      9  C   UNL     1     -10.732 -15.435  34.065  1.00  0.00     0.094 A 
ATOM     10  C   UNL     1     -11.758 -15.362  33.120  1.00  0.00     0.146 A 
ATOM     11  O   UNL     1     -11.574 -15.941  31.939  1.00  0.00    -0.452 OA
ENDROOT
BRANCH   1  12
ATOM     12  C   UNL     1     -12.150 -16.607  29.695  1.00  0.00     0.029 A 
ATOM     13  C   UNL     1     -12.637 -17.887  29.378  1.00  0.00     0.062 A 
ATOM     14  C   UNL     1     -12.324 -18.484  28.149  1.00  0.00     0.162 A 
ATOM     15  C   UNL     1     -11.374 -15.919  28.751  1.00  0.00     0.062 A 
ATOM     16  C   UNL     1     -11.527 -17.795  27.220  1.00  0.00     0.200 A 
ATOM     17  C   UNL     1     -11.056 -16.511  27.521  1.00  0.00     0.162 A 
BRANCH  14  18
ATOM     18  O   UNL     1     -12.807 -19.757  27.847  1.00  0.00    -0.504 OA
ATOM     19  H   UNL     1     -13.738 -19.897  27.472  1.00  0.00     0.293 HD
ENDBRANCH  14  18
BRANCH  16  20
ATOM     20  O   UNL     1     -11.199 -18.370  25.991  1.00  0.00    -0.502 OA
ATOM     21  H   UNL     1     -11.084 -17.816  25.151  1.00  0.00     0.293 HD
ENDBRANCH  16  20
BRANCH  17  22
ATOM     22  O   UNL     1     -10.273 -15.828  26.593  1.00  0.00    -0.504 OA
ATOM     23  H   UNL     1     -10.476 -15.861  25.601  1.00  0.00     0.293 HD
ENDBRANCH  17  22
ENDBRANCH   1  12
BRANCH   2  24
ATOM     24  O   UNL     1     -14.753 -15.456  30.241  1.00  0.00    -0.502 OA
ATOM     25  H   UNL     1     -15.659 -15.865  30.431  1.00  0.00     0.293 HD
ENDBRANCH   2  24
BRANCH   6  26
ATOM     26  O   UNL     1     -14.187 -13.257  35.060  1.00  0.00    -0.507 OA
ATOM     27  H   UNL     1     -14.130 -12.425  35.628  1.00  0.00     0.293 HD
ENDBRANCH   6  26
BRANCH   8  28
ATOM     28  O   UNL     1      -9.875 -14.938  36.277  1.00  0.00    -0.508 OA
ATOM     29  H   UNL     1     -10.007 -14.594  37.222  1.00  0.00     0.293 HD
ENDBRANCH   8  28
TORSDOF 7
ENDMDL
MODEL 6
REMARK VINA RESULT:    -1.146      1.253      2.849
REMARK INTER + INTRA:          -1.121
REMARK INTER:                  -1.642
REMARK INTRA:                   0.522
REMARK UNBOUND:                 0.293
REMARK SMILES O=c1c(O)c(-c2cc(O)c(O)c(O)c2)oc2cc(O)cc(O)c12
REMARK SMILES IDX 5 1 3 2 2 3 1 4 23 5 21 6 20 7 18 8 17 9 16 10 15 11 6 12
REMARK SMILES IDX 7 13 8 14 14 15 10 16 12 17 9 18 11 20 13 22 4 24 22 26
REMARK SMILES IDX 19 28
REMARK H PARENT 9 19 11 21 13 23 4 25 22 27 19 29
REMARK Flexibility Score: inf
ROOT
ATOM      1  C   UNL     1     -12.620 -15.353  30.804  1.00  0.00     0.180 A 
ATOM      2  C   UNL     1     -13.731 -14.808  30.138  1.00  0.00     0.208 A 
ATOM      3  C   UNL     1     -13.900 -15.070  28.768  1.00  0.00     0.238 A 
ATOM      4  O   UNL     1     -14.866 -14.537  28.165  1.00  0.00    -0.285 OA
ATOM      5  C   UNL     1     -12.963 -15.885  28.086  1.00  0.00     0.111 A 
ATOM      6  C   UNL     1     -13.056 -16.249  26.710  1.00  0.00     0.134 A 
ATOM      7  C   UNL     1     -12.005 -16.951  26.109  1.00  0.00     0.093 A 
ATOM      8  C   UNL     1     -10.895 -17.359  26.847  1.00  0.00     0.123 A 
ATOM      9  C   UNL     1     -10.822 -17.061  28.209  1.00  0.00     0.094 A 
ATOM     10  C   UNL     1     -11.838 -16.330  28.829  1.00  0.00     0.146 A 
ATOM     11  O   UNL     1     -11.725 -16.058  30.123  1.00  0.00    -0.452 OA
ENDROOT
BRANCH   1  12
ATOM     12  C   UNL     1     -12.389 -15.142  32.252  1.00  0.00     0.029 A 
ATOM     13  C   UNL     1     -11.235 -15.632  32.887  1.00  0.00     0.062 A 
ATOM     14  C   UNL     1     -11.022 -15.403  34.253  1.00  0.00     0.162 A 
ATOM     15  C   UNL     1     -13.309 -14.388  32.996  1.00  0.00     0.062 A 
ATOM     16  C   UNL     1     -11.961 -14.667  34.994  1.00  0.00     0.200 A 
ATOM     17  C   UNL     1     -13.103 -14.157  34.362  1.00  0.00     0.162 A 
BRANCH  14  18
ATOM     18  O   UNL     1      -9.876 -15.899  34.875  1.00  0.00    -0.504 OA
ATOM     19  H   UNL     1      -9.272 -16.572  34.418  1.00  0.00     0.293 HD
ENDBRANCH  14  18
BRANCH  16  20
ATOM     20  O   UNL     1     -11.773 -14.429  36.356  1.00  0.00    -0.502 OA
ATOM     21  H   UNL     1     -12.063 -15.092  37.065  1.00  0.00     0.293 HD
ENDBRANCH  16  20
BRANCH  17  22
ATOM     22  O   UNL     1     -14.028 -13.421  35.099  1.00  0.00    -0.504 OA
ATOM     23  H   UNL     1     -14.426 -13.778  35.959  1.00  0.00     0.293 HD
ENDBRANCH  17  22
ENDBRANCH   1  12
BRANCH   2  24
ATOM     24  O   UNL     1     -14.632 -13.989  30.825  1.00  0.00    -0.502 OA
ATOM     25  H   UNL     1     -14.556 -13.814  31.819  1.00  0.00     0.293 HD
ENDBRANCH   2  24
BRANCH   6  26
ATOM     26  O   UNL     1     -14.163 -15.970  25.902  1.00  0.00    -0.507 OA
ATOM     27  H   UNL     1     -14.113 -15.575  24.976  1.00  0.00     0.293 HD
ENDBRANCH   6  26
BRANCH   8  28
ATOM     28  O   UNL     1      -9.875 -18.071  26.220  1.00  0.00    -0.508 OA
ATOM     29  H   UNL     1     -10.023 -19.010  25.868  1.00  0.00     0.293 HD
ENDBRANCH   8  28
TORSDOF 7
ENDMDL
MODEL 7
REMARK VINA RESULT:    -0.566      1.947      2.893
REMARK INTER + INTRA:          -0.406
REMARK INTER:                  -0.192
REMARK INTRA:                  -0.214
REMARK UNBOUND:                 0.293
REMARK SMILES O=c1c(O)c(-c2cc(O)c(O)c(O)c2)oc2cc(O)cc(O)c12
REMARK SMILES IDX 5 1 3 2 2 3 1 4 23 5 21 6 20 7 18 8 17 9 16 10 15 11 6 12
REMARK SMILES IDX 7 13 8 14 14 15 10 16 12 17 9 18 11 20 13 22 4 24 22 26
REMARK SMILES IDX 19 28
REMARK H PARENT 9 19 11 21 13 23 4 25 22 27 19 29
REMARK Flexibility Score: inf
ROOT
ATOM      1  C   UNL     1     -11.904 -16.337  31.314  1.00  0.00     0.180 A 
ATOM      2  C   UNL     1     -11.031 -15.929  30.290  1.00  0.00     0.208 A 
ATOM      3  C   UNL     1     -11.026 -16.637  29.077  1.00  0.00     0.238 A 
ATOM      4  O   UNL     1     -10.205 -16.302  28.185  1.00  0.00    -0.285 OA
ATOM      5  C   UNL     1     -11.905 -17.733  28.898  1.00  0.00     0.111 A 
ATOM      6  C   UNL     1     -12.013 -18.497  27.697  1.00  0.00     0.134 A 
ATOM      7  C   UNL     1     -12.821 -19.640  27.677  1.00  0.00     0.093 A 
ATOM      8  C   UNL     1     -13.575 -20.010  28.789  1.00  0.00     0.123 A 
ATOM      9  C   UNL     1     -13.522 -19.236  29.950  1.00  0.00     0.094 A 
ATOM     10  C   UNL     1     -12.697 -18.111  30.013  1.00  0.00     0.146 A 
ATOM     11  O   UNL     1     -12.668 -17.409  31.139  1.00  0.00    -0.452 OA
ENDROOT
BRANCH   1  12
ATOM     12  C   UNL     1     -11.984 -15.626  32.610  1.00  0.00     0.029 A 
ATOM     13  C   UNL     1     -13.147 -14.937  32.995  1.00  0.00     0.062 A 
ATOM     14  C   UNL     1     -13.213 -14.288  34.236  1.00  0.00     0.162 A 
ATOM     15  C   UNL     1     -10.901 -15.686  33.499  1.00  0.00     0.062 A 
ATOM     16  C   UNL     1     -12.114 -14.336  35.109  1.00  0.00     0.200 A 
ATOM     17  C   UNL     1     -10.959 -15.039  34.741  1.00  0.00     0.162 A 
BRANCH  14  18
ATOM     18  O   UNL     1     -14.369 -13.601  34.606  1.00  0.00    -0.504 OA
ATOM     19  H   UNL     1     -14.977 -13.175  33.917  1.00  0.00     0.293 HD
ENDBRANCH  14  18
BRANCH  16  20
ATOM     20  O   UNL     1     -12.154 -13.695  36.349  1.00  0.00    -0.502 OA
ATOM     21  H   UNL     1     -12.016 -12.696  36.444  1.00  0.00     0.293 HD
ENDBRANCH  16  20
BRANCH  17  22
ATOM     22  O   UNL     1      -9.875 -15.090  35.613  1.00  0.00    -0.504 OA
ATOM     23  H   UNL     1      -9.992 -14.977  36.613  1.00  0.00     0.293 HD
ENDBRANCH  17  22
ENDBRANCH   1  12
BRANCH   2  24
ATOM     24  O   UNL     1     -10.157 -14.858  30.496  1.00  0.00    -0.502 OA
ATOM     25  H   UNL     1      -9.757 -14.329  29.731  1.00  0.00     0.293 HD
ENDBRANCH   2  24
BRANCH   6  26
ATOM     26  O   UNL     1     -11.374 -18.163  26.499  1.00  0.00    -0.507 OA
ATOM     27  H   UNL     1     -11.791 -17.620  25.758  1.00  0.00     0.293 HD
ENDBRANCH   6  26
BRANCH   8  28
ATOM     28  O   UNL     1     -14.381 -21.145  28.728  1.00  0.00    -0.508 OA
ATOM     29  H   UNL     1     -14.430 -21.802  29.498  1.00  0.00     0.293 HD
ENDBRANCH   8  28
TORSDOF 7
ENDMDL
MODEL 8
REMARK VINA RESULT:    -0.554      1.856      7.359
REMARK INTER + INTRA:          -0.391
REMARK INTER:                  -0.123
REMARK INTRA:                  -0.268
REMARK UNBOUND:                 0.293
REMARK SMILES O=c1c(O)c(-c2cc(O)c(O)c(O)c2)oc2cc(O)cc(O)c12
REMARK SMILES IDX 5 1 3 2 2 3 1 4 23 5 21 6 20 7 18 8 17 9 16 10 15 11 6 12
REMARK SMILES IDX 7 13 8 14 14 15 10 16 12 17 9 18 11 20 13 22 4 24 22 26
REMARK SMILES IDX 19 28
REMARK H PARENT 9 19 11 21 13 23 4 25 22 27 19 29
REMARK Flexibility Score: inf
ROOT
ATOM      1  C   UNL     1     -12.573 -15.783  31.350  1.00  0.00     0.180 A 
ATOM      2  C   UNL     1     -13.799 -15.138  31.588  1.00  0.00     0.208 A 
ATOM      3  C   UNL     1     -14.002 -14.495  32.820  1.00  0.00     0.238 A 
ATOM      4  O   UNL     1     -15.121 -13.966  33.048  1.00  0.00    -0.285 OA
ATOM      5  C   UNL     1     -12.972 -14.491  33.791  1.00  0.00     0.111 A 
ATOM      6  C   UNL     1     -13.054 -13.836  35.057  1.00  0.00     0.134 A 
ATOM      7  C   UNL     1     -12.025 -14.008  35.990  1.00  0.00     0.093 A 
ATOM      8  C   UNL     1     -10.889 -14.755  35.682  1.00  0.00     0.123 A 
ATOM      9  C   UNL     1     -10.772 -15.351  34.425  1.00  0.00     0.094 A 
ATOM     10  C   UNL     1     -11.798 -15.227  33.485  1.00  0.00     0.146 A 
ATOM     11  O   UNL     1     -11.652 -15.818  32.306  1.00  0.00    -0.452 OA
ENDROOT
BRANCH   1  12
ATOM     12  C   UNL     1     -12.275 -16.461  30.067  1.00  0.00     0.029 A 
ATOM     13  C   UNL     1     -11.347 -15.927  29.157  1.00  0.00     0.062 A 
ATOM     14  C   UNL     1     -11.062 -16.594  27.957  1.00  0.00     0.162 A 
ATOM     15  C   UNL     1     -12.887 -17.689  29.778  1.00  0.00     0.062 A 
ATOM     16  C   UNL     1     -11.697 -17.812  27.666  1.00  0.00     0.200 A 
ATOM     17  C   UNL     1     -12.606 -18.361  28.580  1.00  0.00     0.162 A 
BRANCH  14  18
ATOM     18  O   UNL     1     -10.144 -16.053  27.057  1.00  0.00    -0.504 OA
ATOM     19  H   UNL     1      -9.173 -16.343  27.049  1.00  0.00     0.293 HD
ENDBRANCH  14  18
BRANCH  16  20
ATOM     20  O   UNL     1     -11.431 -18.494  26.478  1.00  0.00    -0.502 OA
ATOM     21  H   UNL     1     -11.818 -18.198  25.589  1.00  0.00     0.293 HD
ENDBRANCH  16  20
BRANCH  17  22
ATOM     22  O   UNL     1     -13.228 -19.573  28.291  1.00  0.00    -0.504 OA
ATOM     23  H   UNL     1     -13.751 -20.083  28.993  1.00  0.00     0.293 HD
ENDBRANCH  17  22
ENDBRANCH   1  12
BRANCH   2  24
ATOM     24  O   UNL     1     -14.811 -15.173  30.624  1.00  0.00    -0.502 OA
ATOM     25  H   UNL     1     -15.431 -15.967  30.516  1.00  0.00     0.293 HD
ENDBRANCH   2  24
BRANCH   6  26
ATOM     26  O   UNL     1     -14.103 -12.992  35.432  1.00  0.00    -0.507 OA
ATOM     27  H   UNL     1     -15.081 -13.226  35.363  1.00  0.00     0.293 HD
ENDBRANCH   6  26
BRANCH   8  28
ATOM     28  O   UNL     1      -9.877 -14.892  36.630  1.00  0.00    -0.508 OA
ATOM     29  H   UNL     1      -9.431 -14.083  37.049  1.00  0.00     0.293 HD
ENDBRANCH   8  28
TORSDOF 7
ENDMDL
