MODEL 1
REMARK VINA RESULT:    -4.054      0.000      0.000
REMARK INTER + INTRA:          -4.741
REMARK INTER:                  -4.647
REMARK INTRA:                  -0.095
REMARK UNBOUND:                -0.095
REMARK SMILES COc1cc(C(=O)[O-])ccc1O
REMARK SMILES IDX 5 1 9 2 4 3 10 4 3 5 11 6 6 7 7 8 8 9 2 10 1 11 12 12
REMARK H PARENT 12 13
REMARK Flexibility Score: inf
ROOT
ATOM      1  C   UNL     1     -31.115 -21.336 -33.187  1.00  0.00     0.001 A 
ATOM      2  C   UNL     1     -31.772 -20.135 -33.495  1.00  0.00     0.014 A 
ATOM      3  C   UNL     1     -31.430 -22.496 -33.919  1.00  0.00     0.060 A 
ATOM      4  C   UNL     1     -32.725 -20.091 -34.514  1.00  0.00     0.051 A 
ATOM      5  C   UNL     1     -32.393 -22.457 -34.948  1.00  0.00     0.161 A 
ATOM      6  C   UNL     1     -33.037 -21.246 -35.240  1.00  0.00     0.157 A 
ENDROOT
BRANCH   1   7
ATOM      7  C   UNL     1     -30.105 -21.378 -32.105  1.00  0.00     0.072 C 
ATOM      8  O   UNL     1     -30.332 -22.007 -31.038  1.00  0.00    -0.545 OA
ATOM      9  O   UNL     1     -28.887 -20.722 -32.255  1.00  0.00    -0.545 OA
ENDBRANCH   1   7
BRANCH   5  10
ATOM     10  O   UNL     1     -32.733 -23.593 -35.699  1.00  0.00    -0.493 OA
ATOM     11  C   UNL     1     -31.985 -24.082 -36.808  1.00  0.00     0.278 C 
ENDBRANCH   5  10
BRANCH   6  12
ATOM     12  O   UNL     1     -33.989 -21.200 -36.257  1.00  0.00    -0.504 OA
ATOM     13  H   UNL     1     -34.800 -21.807 -36.253  1.00  0.00     0.293 HD
ENDBRANCH   6  12
TORSDOF 3
ENDMDL
MODEL 2
REMARK VINA RESULT:    -3.780      1.931      5.272
REMARK INTER + INTRA:          -4.427
REMARK INTER:                  -4.348
REMARK INTRA:                  -0.078
REMARK UNBOUND:                -0.095
REMARK SMILES COc1cc(C(=O)[O-])ccc1O
REMARK SMILES IDX 5 1 9 2 4 3 10 4 3 5 11 6 6 7 7 8 8 9 2 10 1 11 12 12
REMARK H PARENT 12 13
REMARK Flexibility Score: inf
ROOT
ATOM      1  C   UNL     1     -30.742 -21.373 -33.206  1.00  0.00     0.001 A 
ATOM      2  C   UNL     1     -29.379 -21.170 -33.469  1.00  0.00     0.014 A 
ATOM      3  C   UNL     1     -31.245 -21.068 -31.927  1.00  0.00     0.060 A 
ATOM      4  C   UNL     1     -28.532 -20.674 -32.476  1.00  0.00     0.051 A 
ATOM      5  C   UNL     1     -30.394 -20.567 -30.921  1.00  0.00     0.161 A 
ATOM      6  C   UNL     1     -29.035 -20.372 -31.205  1.00  0.00     0.157 A 
ENDROOT
BRANCH   1   7
ATOM      7  C   UNL     1     -31.635 -21.901 -34.262  1.00  0.00     0.072 C 
ATOM      8  O   UNL     1     -31.396 -23.009 -34.811  1.00  0.00    -0.545 OA
ATOM      9  O   UNL     1     -32.754 -21.178 -34.661  1.00  0.00    -0.545 OA
ENDBRANCH   1   7
BRANCH   5  10
ATOM     10  O   UNL     1     -30.859 -20.253 -29.634  1.00  0.00    -0.493 OA
ATOM     11  C   UNL     1     -32.200 -19.882 -29.329  1.00  0.00     0.278 C 
ENDBRANCH   5  10
BRANCH   6  12
ATOM     12  O   UNL     1     -28.188 -19.876 -30.215  1.00  0.00    -0.504 OA
ATOM     13  H   UNL     1     -28.394 -19.014 -29.723  1.00  0.00     0.293 HD
ENDBRANCH   6  12
TORSDOF 3
ENDMDL
MODEL 3
REMARK VINA RESULT:    -3.719      1.909      4.773
REMARK INTER + INTRA:          -4.357
REMARK INTER:                  -4.273
REMARK INTRA:                  -0.084
REMARK UNBOUND:                -0.095
REMARK SMILES COc1cc(C(=O)[O-])ccc1O
REMARK SMILES IDX 5 1 9 2 4 3 10 4 3 5 11 6 6 7 7 8 8 9 2 10 1 11 12 12
REMARK H PARENT 12 13
REMARK Flexibility Score: inf
ROOT
ATOM      1  C   UNL     1     -32.351 -23.813 -36.842  1.00  0.00     0.001 A 
ATOM      2  C   UNL     1     -33.202 -22.857 -37.416  1.00  0.00     0.014 A 
ATOM      3  C   UNL     1     -31.820 -23.575 -35.560  1.00  0.00     0.060 A 
ATOM      4  C   UNL     1     -33.518 -21.685 -36.726  1.00  0.00     0.051 A 
ATOM      5  C   UNL     1     -32.135 -22.393 -34.860  1.00  0.00     0.161 A 
ATOM      6  C   UNL     1     -32.988 -21.450 -35.451  1.00  0.00     0.157 A 
ENDROOT
BRANCH   1   7
ATOM      7  C   UNL     1     -32.018 -25.054 -37.577  1.00  0.00     0.072 C 
ATOM      8  O   UNL     1     -30.914 -25.172 -38.172  1.00  0.00    -0.545 OA
ATOM      9  O   UNL     1     -32.923 -26.109 -37.621  1.00  0.00    -0.545 OA
ENDBRANCH   1   7
BRANCH   5  10
ATOM     10  O   UNL     1     -31.624 -22.121 -33.581  1.00  0.00    -0.493 OA
ATOM     11  C   UNL     1     -30.368 -21.499 -33.329  1.00  0.00     0.278 C 
ENDBRANCH   5  10
BRANCH   6  12
ATOM     12  O   UNL     1     -33.305 -20.280 -34.764  1.00  0.00    -0.504 OA
ATOM     13  H   UNL     1     -34.203 -19.826 -34.875  1.00  0.00     0.293 HD
ENDBRANCH   6  12
TORSDOF 3
ENDMDL
MODEL 4
REMARK VINA RESULT:    -3.597      2.992      4.898
REMARK INTER + INTRA:          -4.218
REMARK INTER:                  -4.142
REMARK INTRA:                  -0.076
REMARK UNBOUND:                -0.095
REMARK SMILES COc1cc(C(=O)[O-])ccc1O
REMARK SMILES IDX 5 1 9 2 4 3 10 4 3 5 11 6 6 7 7 8 8 9 2 10 1 11 12 12
REMARK H PARENT 12 13
REMARK Flexibility Score: inf
ROOT
ATOM      1  C   UNL     1     -32.471 -23.884 -36.974  1.00  0.00     0.001 A 
ATOM      2  C   UNL     1     -32.167 -23.692 -35.618  1.00  0.00     0.014 A 
ATOM      3  C   UNL     1     -33.124 -22.857 -37.681  1.00  0.00     0.060 A 
ATOM      4  C   UNL     1     -32.508 -22.499 -34.978  1.00  0.00     0.051 A 
ATOM      5  C   UNL     1     -33.471 -21.651 -37.039  1.00  0.00     0.161 A 
ATOM      6  C   UNL     1     -33.158 -21.479 -35.683  1.00  0.00     0.157 A 
ENDROOT
BRANCH   1   7
ATOM      7  C   UNL     1     -32.108 -25.151 -37.648  1.00  0.00     0.072 C 
ATOM      8  O   UNL     1     -32.888 -26.140 -37.620  1.00  0.00    -0.545 OA
ATOM      9  O   UNL     1     -30.898 -25.266 -38.324  1.00  0.00    -0.545 OA
ENDBRANCH   1   7
BRANCH   5  10
ATOM     10  O   UNL     1     -34.123 -20.605 -37.712  1.00  0.00    -0.493 OA
ATOM     11  C   UNL     1     -34.122 -20.430 -39.125  1.00  0.00     0.278 C 
ENDBRANCH   5  10
BRANCH   6  12
ATOM     12  O   UNL     1     -33.498 -20.289 -35.043  1.00  0.00    -0.504 OA
ATOM     13  H   UNL     1     -33.562 -20.229 -34.034  1.00  0.00     0.293 HD
ENDBRANCH   6  12
TORSDOF 3
ENDMDL
MODEL 5
REMARK VINA RESULT:    -3.481      2.271      3.739
REMARK INTER + INTRA:          -4.085
REMARK INTER:                  -4.010
REMARK INTRA:                  -0.075
REMARK UNBOUND:                -0.095
REMARK SMILES COc1cc(C(=O)[O-])ccc1O
REMARK SMILES IDX 5 1 9 2 4 3 10 4 3 5 11 6 6 7 7 8 8 9 2 10 1 11 12 12
REMARK H PARENT 12 13
REMARK Flexibility Score: inf
ROOT
ATOM      1  C   UNL     1     -30.196 -20.994 -30.692  1.00  0.00     0.001 A 
ATOM      2  C   UNL     1     -29.093 -20.132 -30.798  1.00  0.00     0.014 A 
ATOM      3  C   UNL     1     -30.708 -21.596 -31.856  1.00  0.00     0.060 A 
ATOM      4  C   UNL     1     -28.513 -19.875 -32.042  1.00  0.00     0.051 A 
ATOM      5  C   UNL     1     -30.127 -21.339 -33.115  1.00  0.00     0.161 A 
ATOM      6  C   UNL     1     -29.025 -20.475 -33.199  1.00  0.00     0.157 A 
ENDROOT
BRANCH   1   7
ATOM      7  C   UNL     1     -30.807 -21.263 -29.371  1.00  0.00     0.072 C 
ATOM      8  O   UNL     1     -30.374 -22.193 -28.640  1.00  0.00    -0.545 OA
ATOM      9  O   UNL     1     -31.871 -20.490 -28.918  1.00  0.00    -0.545 OA
ENDBRANCH   1   7
BRANCH   5  10
ATOM     10  O   UNL     1     -30.611 -21.920 -34.297  1.00  0.00    -0.493 OA
ATOM     11  C   UNL     1     -31.849 -22.615 -34.406  1.00  0.00     0.278 C 
ENDBRANCH   5  10
BRANCH   6  12
ATOM     12  O   UNL     1     -28.445 -20.217 -34.439  1.00  0.00    -0.504 OA
ATOM     13  H   UNL     1     -29.006 -19.983 -35.249  1.00  0.00     0.293 HD
ENDBRANCH   6  12
TORSDOF 3
ENDMDL
MODEL 6
REMARK VINA RESULT:    -3.257      1.341      2.487
REMARK INTER + INTRA:          -3.827
REMARK INTER:                  -4.063
REMARK INTRA:                   0.235
REMARK UNBOUND:                -0.095
REMARK SMILES COc1cc(C(=O)[O-])ccc1O
REMARK SMILES IDX 5 1 9 2 4 3 10 4 3 5 11 6 6 7 7 8 8 9 2 10 1 11 12 12
REMARK H PARENT 12 13
REMARK Flexibility Score: inf
ROOT
ATOM      1  C   UNL     1     -31.496 -21.520 -33.866  1.00  0.00     0.001 A 
ATOM      2  C   UNL     1     -31.504 -22.866 -34.265  1.00  0.00     0.014 A 
ATOM      3  C   UNL     1     -32.369 -20.614 -34.496  1.00  0.00     0.060 A 
ATOM      4  C   UNL     1     -32.366 -23.299 -35.274  1.00  0.00     0.051 A 
ATOM      5  C   UNL     1     -33.241 -21.047 -35.516  1.00  0.00     0.161 A 
ATOM      6  C   UNL     1     -33.233 -22.396 -35.900  1.00  0.00     0.157 A 
ENDROOT
BRANCH   1   7
ATOM      7  C   UNL     1     -30.580 -21.065 -32.796  1.00  0.00     0.072 C 
ATOM      8  O   UNL     1     -31.011 -20.381 -31.830  1.00  0.00    -0.545 OA
ATOM      9  O   UNL     1     -29.228 -21.388 -32.843  1.00  0.00    -0.545 OA
ENDBRANCH   1   7
BRANCH   5  10
ATOM     10  O   UNL     1     -34.125 -20.173 -36.167  1.00  0.00    -0.493 OA
ATOM     11  C   UNL     1     -34.119 -19.914 -37.567  1.00  0.00     0.278 C 
ENDBRANCH   5  10
BRANCH   6  12
ATOM     12  O   UNL     1     -34.094 -22.831 -36.906  1.00  0.00    -0.504 OA
ATOM     13  H   UNL     1     -34.366 -23.803 -36.988  1.00  0.00     0.293 HD
ENDBRANCH   6  12
TORSDOF 3
ENDMDL
MODEL 7
REMARK VINA RESULT:    -2.798      1.656      4.432
REMARK INTER + INTRA:          -3.301
REMARK INTER:                  -3.421
REMARK INTRA:                   0.120
REMARK UNBOUND:                -0.095
REMARK SMILES COc1cc(C(=O)[O-])ccc1O
REMARK SMILES IDX 5 1 9 2 4 3 10 4 3 5 11 6 6 7 7 8 8 9 2 10 1 11 12 12
REMARK H PARENT 12 13
REMARK Flexibility Score: inf
ROOT
ATOM      1  C   UNL     1     -32.478 -22.782 -36.077  1.00  0.00     0.001 A 
ATOM      2  C   UNL     1     -33.260 -21.617 -36.126  1.00  0.00     0.014 A 
ATOM      3  C   UNL     1     -31.592 -22.965 -34.999  1.00  0.00     0.060 A 
ATOM      4  C   UNL     1     -33.160 -20.654 -35.121  1.00  0.00     0.051 A 
ATOM      5  C   UNL     1     -31.487 -21.995 -33.981  1.00  0.00     0.161 A 
ATOM      6  C   UNL     1     -32.277 -20.839 -34.050  1.00  0.00     0.157 A 
ENDROOT
BRANCH   1   7
ATOM      7  C   UNL     1     -32.588 -23.800 -37.145  1.00  0.00     0.072 C 
ATOM      8  O   UNL     1     -32.985 -24.967 -36.882  1.00  0.00    -0.545 OA
ATOM      9  O   UNL     1     -32.254 -23.481 -38.457  1.00  0.00    -0.545 OA
ENDBRANCH   1   7
BRANCH   5  10
ATOM     10  O   UNL     1     -30.614 -22.144 -32.892  1.00  0.00    -0.493 OA
ATOM     11  C   UNL     1     -29.457 -21.343 -32.670  1.00  0.00     0.278 C 
ENDBRANCH   5  10
BRANCH   6  12
ATOM     12  O   UNL     1     -32.179 -19.876 -33.047  1.00  0.00    -0.504 OA
ATOM     13  H   UNL     1     -32.851 -19.123 -32.967  1.00  0.00     0.293 HD
ENDBRANCH   6  12
TORSDOF 3
ENDMDL
MODEL 8
REMARK VINA RESULT:    -2.765      1.873      2.938
REMARK INTER + INTRA:          -3.264
REMARK INTER:                  -3.290
REMARK INTRA:                   0.027
REMARK UNBOUND:                -0.095
REMARK SMILES COc1cc(C(=O)[O-])ccc1O
REMARK SMILES IDX 5 1 9 2 4 3 10 4 3 5 11 6 6 7 7 8 8 9 2 10 1 11 12 12
REMARK H PARENT 12 13
REMARK Flexibility Score: inf
ROOT
ATOM      1  C   UNL     1     -30.824 -20.753 -31.617  1.00  0.00     0.001 A 
ATOM      2  C   UNL     1     -30.326 -22.008 -32.003  1.00  0.00     0.014 A 
ATOM      3  C   UNL     1     -31.637 -20.035 -32.513  1.00  0.00     0.060 A 
ATOM      4  C   UNL     1     -30.634 -22.535 -33.258  1.00  0.00     0.051 A 
ATOM      5  C   UNL     1     -31.950 -20.563 -33.782  1.00  0.00     0.161 A 
ATOM      6  C   UNL     1     -31.443 -21.819 -34.148  1.00  0.00     0.157 A 
ENDROOT
BRANCH   1   7
ATOM      7  C   UNL     1     -30.495 -20.198 -30.285  1.00  0.00     0.072 C 
ATOM      8  O   UNL     1     -31.398 -20.007 -29.427  1.00  0.00    -0.545 OA
ATOM      9  O   UNL     1     -29.180 -19.880 -29.961  1.00  0.00    -0.545 OA
ENDBRANCH   1   7
BRANCH   5  10
ATOM     10  O   UNL     1     -32.757 -19.875 -34.702  1.00  0.00    -0.493 OA
ATOM     11  C   UNL     1     -34.121 -20.184 -34.968  1.00  0.00     0.278 C 
ENDBRANCH   5  10
BRANCH   6  12
ATOM     12  O   UNL     1     -31.749 -22.347 -35.400  1.00  0.00    -0.504 OA
ATOM     13  H   UNL     1     -32.589 -22.891 -35.556  1.00  0.00     0.293 HD
ENDBRANCH   6  12
TORSDOF 3
ENDMDL
