MODEL 1
REMARK VINA RESULT:    -2.660      0.000      0.000
REMARK INTER + INTRA:          -2.660
REMARK INTER:                  -2.660
REMARK INTRA:                   0.000
REMARK UNBOUND:                 0.000
REMARK SMILES CC1=CC[C@]23C[C@H]1C(C)(C)[C@@H]2CC[C@@H]3C
REMARK SMILES IDX 15 1 14 2 13 3 12 4 11 5 5 6 4 7 3 8 2 9 7 10 6 11 8 12 9 13
REMARK SMILES IDX 10 14 1 15
REMARK H PARENT
REMARK Flexibility Score: inf
ROOT
ATOM      1  C   UNL     1     163.581 174.314 140.912  1.00  0.00     0.008 C 
ATOM      2  C   UNL     1     164.594 174.510 139.775  1.00  0.00    -0.007 C 
ATOM      3  C   UNL     1     164.856 176.011 139.444  1.00  0.00     0.004 C 
ATOM      4  C   UNL     1     166.339 176.121 138.998  1.00  0.00     0.005 C 
ATOM      5  C   UNL     1     166.740 174.664 138.877  1.00  0.00     0.002 C 
ATOM      6  C   UNL     1     166.014 173.958 140.016  1.00  0.00    -0.020 C 
ATOM      7  C   UNL     1     166.545 174.299 141.474  1.00  0.00     0.035 C 
ATOM      8  C   UNL     1     167.833 173.596 141.865  1.00  0.00    -0.027 C 
ATOM      9  C   UNL     1     168.480 172.796 140.998  1.00  0.00    -0.074 C 
ATOM     10  C   UNL     1     167.947 172.696 139.582  1.00  0.00     0.021 C 
ATOM     11  C   UNL     1     166.403 172.519 139.693  1.00  0.00     0.016 C 
ATOM     12  C   UNL     1     168.157 174.056 138.801  1.00  0.00    -0.025 C 
ATOM     13  C   UNL     1     169.234 175.014 139.372  1.00  0.00     0.012 C 
ATOM     14  C   UNL     1     168.546 173.743 137.336  1.00  0.00     0.012 C 
ATOM     15  C   UNL     1     169.719 172.059 141.420  1.00  0.00     0.039 C 
ENDROOT
TORSDOF 0
ENDMDL
MODEL 2
REMARK VINA RESULT:    -2.647     14.740     16.687
REMARK INTER + INTRA:          -2.647
REMARK INTER:                  -2.647
REMARK INTRA:                   0.000
REMARK UNBOUND:                 0.000
REMARK SMILES CC1=CC[C@]23C[C@H]1C(C)(C)[C@@H]2CC[C@@H]3C
REMARK SMILES IDX 15 1 14 2 13 3 12 4 11 5 5 6 4 7 3 8 2 9 7 10 6 11 8 12 9 13
REMARK SMILES IDX 10 14 1 15
REMARK H PARENT
REMARK Flexibility Score: inf
ROOT
ATOM      1  C   UNL     1     168.477 157.773 140.904  1.00  0.00     0.008 C 
ATOM      2  C   UNL     1     167.465 157.537 139.775  1.00  0.00    -0.007 C 
ATOM      3  C   UNL     1     167.234 156.025 139.469  1.00  0.00     0.004 C 
ATOM      4  C   UNL     1     165.753 155.876 139.029  1.00  0.00     0.005 C 
ATOM      5  C   UNL     1     165.320 157.322 138.886  1.00  0.00     0.002 C 
ATOM      6  C   UNL     1     166.034 158.062 140.011  1.00  0.00    -0.020 C 
ATOM      7  C   UNL     1     165.516 157.733 141.477  1.00  0.00     0.035 C 
ATOM      8  C   UNL     1     164.214 158.415 141.860  1.00  0.00    -0.027 C 
ATOM      9  C   UNL     1     163.547 159.187 140.982  1.00  0.00    -0.074 C 
ATOM     10  C   UNL     1     164.073 159.275 139.563  1.00  0.00     0.021 C 
ATOM     11  C   UNL     1     165.614 159.487 139.666  1.00  0.00     0.016 C 
ATOM     12  C   UNL     1     163.891 157.898 138.805  1.00  0.00    -0.025 C 
ATOM     13  C   UNL     1     162.836 156.927 139.395  1.00  0.00     0.012 C 
ATOM     14  C   UNL     1     163.490 158.180 137.336  1.00  0.00     0.012 C 
ATOM     15  C   UNL     1     162.294 159.904 141.397  1.00  0.00     0.039 C 
ENDROOT
TORSDOF 0
ENDMDL
MODEL 3
REMARK VINA RESULT:    -2.634     14.124     15.998
REMARK INTER + INTRA:          -2.634
REMARK INTER:                  -2.634
REMARK INTRA:                   0.000
REMARK UNBOUND:                 0.000
REMARK SMILES CC1=CC[C@]23C[C@H]1C(C)(C)[C@@H]2CC[C@@H]3C
REMARK SMILES IDX 15 1 14 2 13 3 12 4 11 5 5 6 4 7 3 8 2 9 7 10 6 11 8 12 9 13
REMARK SMILES IDX 10 14 1 15
REMARK H PARENT
REMARK Flexibility Score: inf
ROOT
ATOM      1  C   UNL     1     166.496 156.092 139.355  1.00  0.00     0.008 C 
ATOM      2  C   UNL     1     165.147 156.552 138.786  1.00  0.00    -0.007 C 
ATOM      3  C   UNL     1     163.928 155.875 139.485  1.00  0.00     0.004 C 
ATOM      4  C   UNL     1     162.776 156.916 139.488  1.00  0.00     0.005 C 
ATOM      5  C   UNL     1     163.333 158.004 138.591  1.00  0.00     0.002 C 
ATOM      6  C   UNL     1     164.823 158.055 138.909  1.00  0.00    -0.020 C 
ATOM      7  C   UNL     1     165.191 158.625 140.346  1.00  0.00     0.035 C 
ATOM      8  C   UNL     1     165.118 160.138 140.469  1.00  0.00    -0.027 C 
ATOM      9  C   UNL     1     164.713 160.901 139.438  1.00  0.00    -0.074 C 
ATOM     10  C   UNL     1     164.230 160.207 138.180  1.00  0.00     0.021 C 
ATOM     11  C   UNL     1     165.256 159.077 137.865  1.00  0.00     0.016 C 
ATOM     12  C   UNL     1     162.856 159.463 138.435  1.00  0.00    -0.025 C 
ATOM     13  C   UNL     1     162.036 159.944 139.661  1.00  0.00     0.012 C 
ATOM     14  C   UNL     1     161.956 159.621 137.186  1.00  0.00     0.012 C 
ATOM     15  C   UNL     1     164.705 162.399 139.556  1.00  0.00     0.039 C 
ENDROOT
TORSDOF 0
ENDMDL
MODEL 4
REMARK VINA RESULT:    -2.623      1.546      2.546
REMARK INTER + INTRA:          -2.623
REMARK INTER:                  -2.623
REMARK INTRA:                   0.000
REMARK UNBOUND:                 0.000
REMARK SMILES CC1=CC[C@]23C[C@H]1C(C)(C)[C@@H]2CC[C@@H]3C
REMARK SMILES IDX 15 1 14 2 13 3 12 4 11 5 5 6 4 7 3 8 2 9 7 10 6 11 8 12 9 13
REMARK SMILES IDX 10 14 1 15
REMARK H PARENT
REMARK Flexibility Score: inf
ROOT
ATOM      1  C   UNL     1     165.554 175.935 139.410  1.00  0.00     0.008 C 
ATOM      2  C   UNL     1     166.887 175.462 138.815  1.00  0.00    -0.007 C 
ATOM      3  C   UNL     1     168.126 176.118 139.499  1.00  0.00     0.004 C 
ATOM      4  C   UNL     1     169.265 175.062 139.475  1.00  0.00     0.005 C 
ATOM      5  C   UNL     1     168.679 173.988 138.579  1.00  0.00     0.002 C 
ATOM      6  C   UNL     1     167.194 173.954 138.922  1.00  0.00    -0.020 C 
ATOM      7  C   UNL     1     166.842 173.377 140.360  1.00  0.00     0.035 C 
ATOM      8  C   UNL     1     166.897 171.864 140.471  1.00  0.00    -0.027 C 
ATOM      9  C   UNL     1     167.275 171.103 139.428  1.00  0.00    -0.074 C 
ATOM     10  C   UNL     1     167.746 171.800 138.167  1.00  0.00     0.021 C 
ATOM     11  C   UNL     1     166.729 172.945 137.878  1.00  0.00     0.016 C 
ATOM     12  C   UNL     1     169.133 172.524 138.404  1.00  0.00    -0.025 C 
ATOM     13  C   UNL     1     169.968 172.023 139.612  1.00  0.00     0.012 C 
ATOM     14  C   UNL     1     170.010 172.364 137.139  1.00  0.00     0.012 C 
ATOM     15  C   UNL     1     167.265 169.604 139.535  1.00  0.00     0.039 C 
ENDROOT
TORSDOF 0
ENDMDL
MODEL 5
REMARK VINA RESULT:    -2.543     14.335     16.323
REMARK INTER + INTRA:          -2.543
REMARK INTER:                  -2.543
REMARK INTRA:                   0.000
REMARK UNBOUND:                 0.000
REMARK SMILES CC1=CC[C@]23C[C@H]1C(C)(C)[C@@H]2CC[C@@H]3C
REMARK SMILES IDX 15 1 14 2 13 3 12 4 11 5 5 6 4 7 3 8 2 9 7 10 6 11 8 12 9 13
REMARK SMILES IDX 10 14 1 15
REMARK H PARENT
REMARK Flexibility Score: inf
ROOT
ATOM      1  C   UNL     1     166.095 155.878 139.225  1.00  0.00     0.008 C 
ATOM      2  C   UNL     1     165.424 156.930 140.119  1.00  0.00    -0.007 C 
ATOM      3  C   UNL     1     166.416 158.020 140.628  1.00  0.00     0.004 C 
ATOM      4  C   UNL     1     165.613 159.344 140.739  1.00  0.00     0.005 C 
ATOM      5  C   UNL     1     164.190 158.867 140.522  1.00  0.00     0.002 C 
ATOM      6  C   UNL     1     164.298 157.765 139.475  1.00  0.00    -0.020 C 
ATOM      7  C   UNL     1     164.683 158.252 138.012  1.00  0.00     0.035 C 
ATOM      8  C   UNL     1     163.542 158.879 137.228  1.00  0.00    -0.027 C 
ATOM      9  C   UNL     1     162.327 159.045 137.781  1.00  0.00    -0.074 C 
ATOM     10  C   UNL     1     162.150 158.687 139.243  1.00  0.00     0.021 C 
ATOM     11  C   UNL     1     162.844 157.308 139.457  1.00  0.00     0.016 C 
ATOM     12  C   UNL     1     162.937 159.698 140.173  1.00  0.00    -0.025 C 
ATOM     13  C   UNL     1     163.301 161.066 139.540  1.00  0.00     0.012 C 
ATOM     14  C   UNL     1     162.092 159.983 141.438  1.00  0.00     0.012 C 
ATOM     15  C   UNL     1     161.193 159.609 136.972  1.00  0.00     0.039 C 
ENDROOT
TORSDOF 0
ENDMDL
MODEL 6
REMARK VINA RESULT:    -2.442      1.887      5.026
REMARK INTER + INTRA:          -2.442
REMARK INTER:                  -2.442
REMARK INTRA:                   0.000
REMARK UNBOUND:                 0.000
REMARK SMILES CC1=CC[C@]23C[C@H]1C(C)(C)[C@@H]2CC[C@@H]3C
REMARK SMILES IDX 15 1 14 2 13 3 12 4 11 5 5 6 4 7 3 8 2 9 7 10 6 11 8 12 9 13
REMARK SMILES IDX 10 14 1 15
REMARK H PARENT
REMARK Flexibility Score: inf
ROOT
ATOM      1  C   UNL     1     172.289 171.909 138.390  1.00  0.00     0.008 C 
ATOM      2  C   UNL     1     170.837 171.411 138.438  1.00  0.00    -0.007 C 
ATOM      3  C   UNL     1     170.525 170.562 139.708  1.00  0.00     0.004 C 
ATOM      4  C   UNL     1     169.044 170.838 140.081  1.00  0.00     0.005 C 
ATOM      5  C   UNL     1     168.557 171.622 138.878  1.00  0.00     0.002 C 
ATOM      6  C   UNL     1     169.739 172.494 138.470  1.00  0.00    -0.020 C 
ATOM      7  C   UNL     1     170.095 173.671 139.477  1.00  0.00     0.035 C 
ATOM      8  C   UNL     1     169.179 174.880 139.393  1.00  0.00    -0.027 C 
ATOM      9  C   UNL     1     168.124 174.898 138.560  1.00  0.00    -0.074 C 
ATOM     10  C   UNL     1     167.806 173.637 137.779  1.00  0.00     0.021 C 
ATOM     11  C   UNL     1     169.156 173.112 137.204  1.00  0.00     0.016 C 
ATOM     12  C   UNL     1     167.289 172.491 138.741  1.00  0.00    -0.025 C 
ATOM     13  C   UNL     1     166.743 172.949 140.119  1.00  0.00     0.012 C 
ATOM     14  C   UNL     1     166.157 171.709 138.031  1.00  0.00     0.012 C 
ATOM     15  C   UNL     1     167.265 176.125 138.444  1.00  0.00     0.039 C 
ENDROOT
TORSDOF 0
ENDMDL
MODEL 7
REMARK VINA RESULT:    -2.427     14.245     15.847
REMARK INTER + INTRA:          -2.427
REMARK INTER:                  -2.427
REMARK INTRA:                   0.000
REMARK UNBOUND:                 0.000
REMARK SMILES CC1=CC[C@]23C[C@H]1C(C)(C)[C@@H]2CC[C@@H]3C
REMARK SMILES IDX 15 1 14 2 13 3 12 4 11 5 5 6 4 7 3 8 2 9 7 10 6 11 8 12 9 13
REMARK SMILES IDX 10 14 1 15
REMARK H PARENT
REMARK Flexibility Score: inf
ROOT
ATOM      1  C   UNL     1     162.184 159.321 136.887  1.00  0.00     0.008 C 
ATOM      2  C   UNL     1     162.984 159.842 138.089  1.00  0.00    -0.007 C 
ATOM      3  C   UNL     1     162.106 160.053 139.360  1.00  0.00     0.004 C 
ATOM      4  C   UNL     1     163.005 159.741 140.586  1.00  0.00     0.005 C 
ATOM      5  C   UNL     1     164.374 159.612 139.947  1.00  0.00     0.002 C 
ATOM      6  C   UNL     1     164.121 158.936 138.604  1.00  0.00    -0.020 C 
ATOM      7  C   UNL     1     163.677 157.412 138.684  1.00  0.00     0.035 C 
ATOM      8  C   UNL     1     164.805 156.433 138.959  1.00  0.00    -0.027 C 
ATOM      9  C   UNL     1     166.063 156.862 139.172  1.00  0.00    -0.074 C 
ATOM     10  C   UNL     1     166.309 158.357 139.233  1.00  0.00     0.021 C 
ATOM     11  C   UNL     1     165.536 158.990 138.038  1.00  0.00     0.016 C 
ATOM     12  C   UNL     1     165.657 158.984 140.532  1.00  0.00    -0.025 C 
ATOM     13  C   UNL     1     165.349 157.998 141.688  1.00  0.00     0.012 C 
ATOM     14  C   UNL     1     166.600 160.076 141.094  1.00  0.00     0.012 C 
ATOM     15  C   UNL     1     167.178 155.877 139.381  1.00  0.00     0.039 C 
ENDROOT
TORSDOF 0
ENDMDL
MODEL 8
REMARK VINA RESULT:    -2.426      1.364      4.198
REMARK INTER + INTRA:          -2.426
REMARK INTER:                  -2.426
REMARK INTRA:                   0.000
REMARK UNBOUND:                 0.000
REMARK SMILES CC1=CC[C@]23C[C@H]1C(C)(C)[C@@H]2CC[C@@H]3C
REMARK SMILES IDX 15 1 14 2 13 3 12 4 11 5 5 6 4 7 3 8 2 9 7 10 6 11 8 12 9 13
REMARK SMILES IDX 10 14 1 15
REMARK H PARENT
REMARK Flexibility Score: inf
ROOT
ATOM      1  C   UNL     1     169.699 171.599 139.637  1.00  0.00     0.008 C 
ATOM      2  C   UNL     1     169.205 172.950 140.174  1.00  0.00    -0.007 C 
ATOM      3  C   UNL     1     169.893 174.168 139.486  1.00  0.00     0.004 C 
ATOM      4  C   UNL     1     168.841 175.309 139.432  1.00  0.00     0.005 C 
ATOM      5  C   UNL     1     167.727 174.750 140.295  1.00  0.00     0.002 C 
ATOM      6  C   UNL     1     167.704 173.256 139.992  1.00  0.00    -0.020 C 
ATOM      7  C   UNL     1     167.190 172.865 138.540  1.00  0.00     0.035 C 
ATOM      8  C   UNL     1     165.683 172.920 138.361  1.00  0.00    -0.027 C 
ATOM      9  C   UNL     1     164.878 173.328 139.358  1.00  0.00    -0.074 C 
ATOM     10  C   UNL     1     165.520 173.832 140.636  1.00  0.00     0.021 C 
ATOM     11  C   UNL     1     166.649 172.822 141.003  1.00  0.00     0.016 C 
ATOM     12  C   UNL     1     166.258 175.211 140.393  1.00  0.00    -0.025 C 
ATOM     13  C   UNL     1     165.813 176.013 139.141  1.00  0.00     0.012 C 
ATOM     14  C   UNL     1     166.045 176.123 141.625  1.00  0.00     0.012 C 
ATOM     15  C   UNL     1     163.385 173.317 139.186  1.00  0.00     0.039 C 
ENDROOT
TORSDOF 0
ENDMDL
