MODEL 1
REMARK VINA RESULT:    -2.819      0.000      0.000
REMARK INTER + INTRA:          -3.314
REMARK INTER:                  -3.396
REMARK INTRA:                   0.081
REMARK UNBOUND:                 0.081
REMARK SMILES Oc1cc(O)c2c(c1)O[C@@H](c1ccc(O)c(O)c1)[C@H](O)C2
REMARK SMILES IDX 21 1 19 2 10 3 9 4 7 5 8 6 2 7 3 8 4 9 6 10 20 11 11 13
REMARK SMILES IDX 18 14 12 15 16 16 13 17 14 18 17 19 15 21 5 23 1 25
REMARK H PARENT 20 12 17 20 15 22 5 24 1 26
REMARK Flexibility Score: inf
ROOT
ATOM      1  C   UNL     1       6.795  13.746 -17.171  1.00  0.00     0.079 C 
ATOM      2  C   UNL     1       7.386  12.794 -16.115  1.00  0.00     0.164 C 
ATOM      3  C   UNL     1       8.324  11.780 -16.791  1.00  0.00     0.232 C 
ATOM      4  O   UNL     1       9.345  12.471 -17.511  1.00  0.00    -0.482 OA
ATOM      5  C   UNL     1       9.089  13.645 -18.227  1.00  0.00     0.131 A 
ATOM      6  C   UNL     1      10.085  14.162 -19.060  1.00  0.00     0.093 A 
ATOM      7  C   UNL     1       9.854  15.323 -19.799  1.00  0.00     0.122 A 
ATOM      8  C   UNL     1       8.615  15.967 -19.712  1.00  0.00     0.092 A 
ATOM      9  C   UNL     1       7.605  15.463 -18.883  1.00  0.00     0.126 A 
ATOM     10  C   UNL     1       7.851  14.311 -18.099  1.00  0.00     0.039 A 
ENDROOT
BRANCH   2  11
ATOM     11  O   UNL     1       6.349  12.113 -15.455  1.00  0.00    -0.389 OA
ATOM     12  H   UNL     1       6.776  11.555 -14.753  1.00  0.00     0.211 HD
ENDBRANCH   2  11
BRANCH   3  13
ATOM     13  C   UNL     1       8.957  10.858 -15.773  1.00  0.00    -0.001 A 
ATOM     14  C   UNL     1      10.326  10.960 -15.472  1.00  0.00     0.057 A 
ATOM     15  C   UNL     1       8.171   9.921 -15.084  1.00  0.00     0.012 A 
ATOM     16  C   UNL     1      10.907  10.125 -14.511  1.00  0.00     0.157 A 
ATOM     17  C   UNL     1       8.748   9.086 -14.124  1.00  0.00     0.050 A 
ATOM     18  C   UNL     1      10.116   9.181 -13.833  1.00  0.00     0.157 A 
BRANCH  16  19
ATOM     19  O   UNL     1      12.270  10.249 -14.240  1.00  0.00    -0.504 OA
ATOM     20  H   UNL     1      12.963  10.288 -14.979  1.00  0.00     0.293 HD
ENDBRANCH  16  19
BRANCH  18  21
ATOM     21  O   UNL     1      10.689   8.346 -12.875  1.00  0.00    -0.504 OA
ATOM     22  H   UNL     1      10.465   8.436 -11.891  1.00  0.00     0.293 HD
ENDBRANCH  18  21
ENDBRANCH   3  13
BRANCH   9  23
ATOM     23  O   UNL     1       6.374  16.123 -18.873  1.00  0.00    -0.507 OA
ATOM     24  H   UNL     1       5.798  16.213 -18.045  1.00  0.00     0.293 HD
ENDBRANCH   9  23
BRANCH   7  25
ATOM     25  O   UNL     1      10.859  15.825 -20.622  1.00  0.00    -0.508 OA
ATOM     26  H   UNL     1      11.776  15.396 -20.662  1.00  0.00     0.293 HD
ENDBRANCH   7  25
TORSDOF 6
ENDMDL
