MODEL 1
REMARK VINA RESULT:    -2.332      0.000      0.000
REMARK INTER + INTRA:          -2.332
REMARK INTER:                  -2.332
REMARK INTRA:                   0.000
REMARK UNBOUND:                 0.000
REMARK SMILES CC(=O)[O-]
REMARK SMILES IDX 1 1 2 2 3 3 4 4
REMARK H PARENT
REMARK Flexibility Score: inf
ROOT
ATOM      1  C   UNL     1      36.691  23.560 218.363  1.00  0.00     0.063 C 
ATOM      2  C   UNL     1      35.593  24.113 219.207  1.00  0.00     0.038 C 
ATOM      3  O   UNL     1      34.417  24.162 218.760  1.00  0.00    -0.550 OA
ATOM      4  O   UNL     1      35.854  24.525 220.507  1.00  0.00    -0.550 OA
ENDROOT
TORSDOF 0
ENDMDL
MODEL 2
REMARK VINA RESULT:    -2.320      0.090      1.620
REMARK INTER + INTRA:          -2.320
REMARK INTER:                  -2.320
REMARK INTRA:                   0.000
REMARK UNBOUND:                 0.000
REMARK SMILES CC(=O)[O-]
REMARK SMILES IDX 1 1 2 2 3 3 4 4
REMARK H PARENT
REMARK Flexibility Score: inf
ROOT
ATOM      1  C   UNL     1      36.681  23.562 218.382  1.00  0.00     0.063 C 
ATOM      2  C   UNL     1      35.591  24.083 219.257  1.00  0.00     0.038 C 
ATOM      3  O   UNL     1      35.859  24.522 220.406  1.00  0.00    -0.550 OA
ATOM      4  O   UNL     1      34.286  24.137 218.786  1.00  0.00    -0.550 OA
ENDROOT
TORSDOF 0
ENDMDL
MODEL 3
REMARK VINA RESULT:    -2.119      1.474      1.763
REMARK INTER + INTRA:          -2.119
REMARK INTER:                  -2.119
REMARK INTRA:                   0.000
REMARK UNBOUND:                 0.000
REMARK SMILES CC(=O)[O-]
REMARK SMILES IDX 1 1 2 2 3 3 4 4
REMARK H PARENT
REMARK Flexibility Score: inf
ROOT
ATOM      1  C   UNL     1      35.993  24.061 220.660  1.00  0.00     0.063 C 
ATOM      2  C   UNL     1      35.792  23.991 219.184  1.00  0.00     0.038 C 
ATOM      3  O   UNL     1      34.650  24.184 218.692  1.00  0.00    -0.550 OA
ATOM      4  O   UNL     1      36.876  23.768 218.344  1.00  0.00    -0.550 OA
ENDROOT
TORSDOF 0
ENDMDL
MODEL 4
REMARK VINA RESULT:    -2.068      2.111      2.835
REMARK INTER + INTRA:          -2.068
REMARK INTER:                  -2.068
REMARK INTRA:                   0.000
REMARK UNBOUND:                 0.000
REMARK SMILES CC(=O)[O-]
REMARK SMILES IDX 1 1 2 2 3 3 4 4
REMARK H PARENT
REMARK Flexibility Score: inf
ROOT
ATOM      1  C   UNL     1      33.359  23.732 220.543  1.00  0.00     0.063 C 
ATOM      2  C   UNL     1      34.786  23.909 220.937  1.00  0.00     0.038 C 
ATOM      3  O   UNL     1      35.117  23.861 222.150  1.00  0.00    -0.550 OA
ATOM      4  O   UNL     1      35.762  24.072 219.962  1.00  0.00    -0.550 OA
ENDROOT
TORSDOF 0
ENDMDL
MODEL 5
REMARK VINA RESULT:    -2.064      1.230      1.962
REMARK INTER + INTRA:          -2.064
REMARK INTER:                  -2.064
REMARK INTRA:                   0.000
REMARK UNBOUND:                 0.000
REMARK SMILES CC(=O)[O-]
REMARK SMILES IDX 1 1 2 2 3 3 4 4
REMARK H PARENT
REMARK Flexibility Score: inf
ROOT
ATOM      1  C   UNL     1      36.551  23.528 218.370  1.00  0.00     0.063 C 
ATOM      2  C   UNL     1      36.524  23.661 219.856  1.00  0.00     0.038 C 
ATOM      3  O   UNL     1      37.540  23.360 220.535  1.00  0.00    -0.550 OA
ATOM      4  O   UNL     1      35.397  24.170 220.488  1.00  0.00    -0.550 OA
ENDROOT
TORSDOF 0
ENDMDL
MODEL 6
REMARK VINA RESULT:    -2.015      1.966      2.376
REMARK INTER + INTRA:          -2.015
REMARK INTER:                  -2.015
REMARK INTRA:                   0.000
REMARK UNBOUND:                 0.000
REMARK SMILES CC(=O)[O-]
REMARK SMILES IDX 1 1 2 2 3 3 4 4
REMARK H PARENT
REMARK Flexibility Score: inf
ROOT
ATOM      1  C   UNL     1      35.356  23.917 221.392  1.00  0.00     0.063 C 
ATOM      2  C   UNL     1      34.372  23.949 220.272  1.00  0.00     0.038 C 
ATOM      3  O   UNL     1      34.769  24.087 219.086  1.00  0.00    -0.550 OA
ATOM      4  O   UNL     1      33.018  23.773 220.530  1.00  0.00    -0.550 OA
ENDROOT
TORSDOF 0
ENDMDL
MODEL 7
REMARK VINA RESULT:    -1.992      2.733      2.983
REMARK INTER + INTRA:          -1.992
REMARK INTER:                  -1.992
REMARK INTRA:                   0.000
REMARK UNBOUND:                 0.000
REMARK SMILES CC(=O)[O-]
REMARK SMILES IDX 1 1 2 2 3 3 4 4
REMARK H PARENT
REMARK Flexibility Score: inf
ROOT
ATOM      1  C   UNL     1      35.718  24.074 220.421  1.00  0.00     0.063 C 
ATOM      2  C   UNL     1      35.637  23.580 221.826  1.00  0.00     0.038 C 
ATOM      3  O   UNL     1      36.094  22.446 222.125  1.00  0.00    -0.550 OA
ATOM      4  O   UNL     1      35.107  24.394 222.820  1.00  0.00    -0.550 OA
ENDROOT
TORSDOF 0
ENDMDL
MODEL 8
REMARK VINA RESULT:    -1.939      2.796      3.027
REMARK INTER + INTRA:          -1.939
REMARK INTER:                  -1.939
REMARK INTRA:                   0.000
REMARK UNBOUND:                 0.000
REMARK SMILES CC(=O)[O-]
REMARK SMILES IDX 1 1 2 2 3 3 4 4
REMARK H PARENT
REMARK Flexibility Score: inf
ROOT
ATOM      1  C   UNL     1      36.396  22.840 222.153  1.00  0.00     0.063 C 
ATOM      2  C   UNL     1      35.311  23.861 222.093  1.00  0.00     0.038 C 
ATOM      3  O   UNL     1      34.562  23.929 221.084  1.00  0.00    -0.550 OA
ATOM      4  O   UNL     1      35.088  24.704 223.175  1.00  0.00    -0.550 OA
ENDROOT
TORSDOF 0
ENDMDL
MODEL 9
REMARK VINA RESULT:    -1.938      2.865      3.388
REMARK INTER + INTRA:          -1.938
REMARK INTER:                  -1.938
REMARK INTRA:                   0.000
REMARK UNBOUND:                 0.000
REMARK SMILES CC(=O)[O-]
REMARK SMILES IDX 1 1 2 2 3 3 4 4
REMARK H PARENT
REMARK Flexibility Score: inf
ROOT
ATOM      1  C   UNL     1      35.586  24.726 223.141  1.00  0.00     0.063 C 
ATOM      2  C   UNL     1      35.444  23.710 222.059  1.00  0.00     0.038 C 
ATOM      3  O   UNL     1      34.751  23.966 221.040  1.00  0.00    -0.550 OA
ATOM      4  O   UNL     1      36.120  22.500 222.146  1.00  0.00    -0.550 OA
ENDROOT
TORSDOF 0
ENDMDL
