MODEL 1
REMARK VINA RESULT:    -4.486      0.000      0.000
REMARK INTER + INTRA:          -7.032
REMARK INTER:                  -6.453
REMARK INTRA:                  -0.579
REMARK UNBOUND:                -0.579
REMARK SMILES O=C(CO)[C@@H](O)[C@H](O)[C@H](O)CO
REMARK SMILES IDX 7 1 9 2 11 3 12 4 10 6 5 8 2 9 1 10 3 11 4 12 6 14 8 16
REMARK H PARENT 12 5 10 7 4 13 6 15 8 17
REMARK Flexibility Score: inf
ROOT
ATOM      1  C   UNL     1      19.956  24.128   8.781  1.00  0.00     0.181 C 
ENDROOT
BRANCH   1   2
ATOM      2  C   UNL     1      20.599  22.904   9.482  1.00  0.00     0.171 C 
BRANCH   2   3
ATOM      3  C   UNL     1      21.763  22.337   8.652  1.00  0.00     0.190 C 
BRANCH   3   4
ATOM      4  O   UNL     1      22.927  22.295   9.431  1.00  0.00    -0.394 OA
ATOM      5  H   UNL     1      22.825  23.005  10.117  1.00  0.00     0.210 HD
ENDBRANCH   3   4
ENDBRANCH   2   3
BRANCH   2   6
ATOM      6  O   UNL     1      21.084  23.280  10.746  1.00  0.00    -0.388 OA
ATOM      7  H   UNL     1      20.316  23.652  11.254  1.00  0.00     0.211 HD
ENDBRANCH   2   6
ENDBRANCH   1   2
BRANCH   1   8
ATOM      8  C   UNL     1      18.921  24.848   9.690  1.00  0.00     0.214 C 
BRANCH   8   9
ATOM      9  C   UNL     1      17.998  25.761   8.907  1.00  0.00     0.189 C 
ATOM     10  O   UNL     1      17.032  25.271   8.340  1.00  0.00    -0.294 OA
BRANCH   9  11
ATOM     11  C   UNL     1      18.196  27.256   8.812  1.00  0.00     0.234 C 
BRANCH  11  12
ATOM     12  O   UNL     1      19.252  27.703   9.620  1.00  0.00    -0.388 OA
ATOM     13  H   UNL     1      18.881  27.824  10.534  1.00  0.00     0.211 HD
ENDBRANCH  11  12
ENDBRANCH   9  11
ENDBRANCH   8   9
BRANCH   8  14
ATOM     14  O   UNL     1      18.141  23.907  10.385  1.00  0.00    -0.382 OA
ATOM     15  H   UNL     1      17.202  24.230  10.365  1.00  0.00     0.211 HD
ENDBRANCH   8  14
ENDBRANCH   1   8
BRANCH   1  16
ATOM     16  O   UNL     1      19.308  23.691   7.612  1.00  0.00    -0.387 OA
ATOM     17  H   UNL     1      19.564  24.315   6.883  1.00  0.00     0.211 HD
ENDBRANCH   1  16
TORSDOF 10
ENDMDL
MODEL 2
REMARK VINA RESULT:    -4.460      1.667      4.475
REMARK INTER + INTRA:          -6.994
REMARK INTER:                  -5.502
REMARK INTRA:                  -1.492
REMARK UNBOUND:                -0.579
REMARK SMILES O=C(CO)[C@@H](O)[C@H](O)[C@H](O)CO
REMARK SMILES IDX 7 1 9 2 11 3 12 4 10 6 5 8 2 9 1 10 3 11 4 12 6 14 8 16
REMARK H PARENT 12 5 10 7 4 13 6 15 8 17
REMARK Flexibility Score: inf
ROOT
ATOM      1  C   UNL     1      19.034  25.229  10.146  1.00  0.00     0.181 C 
ENDROOT
BRANCH   1   2
ATOM      2  C   UNL     1      18.878  26.375   9.114  1.00  0.00     0.171 C 
BRANCH   2   3
ATOM      3  C   UNL     1      17.421  26.502   8.641  1.00  0.00     0.190 C 
BRANCH   3   4
ATOM      4  O   UNL     1      17.088  25.409   7.828  1.00  0.00    -0.394 OA
ATOM      5  H   UNL     1      16.136  25.205   8.017  1.00  0.00     0.210 HD
ENDBRANCH   3   4
ENDBRANCH   2   3
BRANCH   2   6
ATOM      6  O   UNL     1      19.275  27.593   9.692  1.00  0.00    -0.388 OA
ATOM      7  H   UNL     1      18.449  28.118   9.862  1.00  0.00     0.211 HD
ENDBRANCH   2   6
ENDBRANCH   1   2
BRANCH   1   8
ATOM      8  C   UNL     1      19.783  24.004   9.553  1.00  0.00     0.214 C 
BRANCH   8   9
ATOM      9  C   UNL     1      19.138  22.687   9.940  1.00  0.00     0.189 C 
ATOM     10  O   UNL     1      19.298  22.269  11.077  1.00  0.00    -0.294 OA
BRANCH   9  11
ATOM     11  C   UNL     1      18.282  21.875   8.997  1.00  0.00     0.234 C 
BRANCH  11  12
ATOM     12  O   UNL     1      17.182  22.603   8.520  1.00  0.00    -0.388 OA
ATOM     13  H   UNL     1      16.657  21.985   7.946  1.00  0.00     0.211 HD
ENDBRANCH  11  12
ENDBRANCH   9  11
ENDBRANCH   8   9
BRANCH   8  14
ATOM     14  O   UNL     1      19.829  24.088   8.151  1.00  0.00    -0.382 OA
ATOM     15  H   UNL     1      19.852  25.051   7.913  1.00  0.00     0.211 HD
ENDBRANCH   8  14
ENDBRANCH   1   8
BRANCH   1  16
ATOM     16  O   UNL     1      17.754  24.820  10.565  1.00  0.00    -0.387 OA
ATOM     17  H   UNL     1      17.825  24.569  11.522  1.00  0.00     0.211 HD
ENDBRANCH   1  16
TORSDOF 10
ENDMDL
MODEL 3
REMARK VINA RESULT:    -4.437      0.414      4.604
REMARK INTER + INTRA:          -6.961
REMARK INTER:                  -6.364
REMARK INTRA:                  -0.597
REMARK UNBOUND:                -0.579
REMARK SMILES O=C(CO)[C@@H](O)[C@H](O)[C@H](O)CO
REMARK SMILES IDX 7 1 9 2 11 3 12 4 10 6 5 8 2 9 1 10 3 11 4 12 6 14 8 16
REMARK H PARENT 12 5 10 7 4 13 6 15 8 17
REMARK Flexibility Score: inf
ROOT
ATOM      1  C   UNL     1      18.569  24.720   9.665  1.00  0.00     0.181 C 
ENDROOT
BRANCH   1   2
ATOM      2  C   UNL     1      17.783  25.909   9.057  1.00  0.00     0.171 C 
BRANCH   2   3
ATOM      3  C   UNL     1      18.732  27.039   8.623  1.00  0.00     0.190 C 
BRANCH   3   4
ATOM      4  O   UNL     1      19.292  27.649   9.753  1.00  0.00    -0.394 OA
ATOM      5  H   UNL     1      18.621  27.556  10.478  1.00  0.00     0.210 HD
ENDBRANCH   3   4
ENDBRANCH   2   3
BRANCH   2   6
ATOM      6  O   UNL     1      17.053  25.474   7.937  1.00  0.00    -0.388 OA
ATOM      7  H   UNL     1      16.930  24.493   8.033  1.00  0.00     0.211 HD
ENDBRANCH   2   6
ENDBRANCH   1   2
BRANCH   1   8
ATOM      8  C   UNL     1      19.747  24.270   8.757  1.00  0.00     0.214 C 
BRANCH   8   9
ATOM      9  C   UNL     1      20.651  23.261   9.438  1.00  0.00     0.189 C 
ATOM     10  O   UNL     1      20.494  23.045  10.631  1.00  0.00    -0.294 OA
BRANCH   9  11
ATOM     11  C   UNL     1      21.724  22.486   8.710  1.00  0.00     0.234 C 
BRANCH  11  12
ATOM     12  O   UNL     1      22.870  22.299   9.498  1.00  0.00    -0.388 OA
ATOM     13  H   UNL     1      22.999  23.136  10.017  1.00  0.00     0.211 HD
ENDBRANCH  11  12
ENDBRANCH   9  11
ENDBRANCH   8   9
BRANCH   8  14
ATOM     14  O   UNL     1      19.260  23.705   7.565  1.00  0.00    -0.382 OA
ATOM     15  H   UNL     1      20.047  23.475   7.004  1.00  0.00     0.211 HD
ENDBRANCH   8  14
ENDBRANCH   1   8
BRANCH   1  16
ATOM     16  O   UNL     1      17.688  23.636   9.836  1.00  0.00    -0.387 OA
ATOM     17  H   UNL     1      17.344  23.393   8.938  1.00  0.00     0.211 HD
ENDBRANCH   1  16
TORSDOF 10
ENDMDL
MODEL 4
REMARK VINA RESULT:    -4.392      2.164      4.130
REMARK INTER + INTRA:          -6.897
REMARK INTER:                  -5.459
REMARK INTRA:                  -1.438
REMARK UNBOUND:                -0.579
REMARK SMILES O=C(CO)[C@@H](O)[C@H](O)[C@H](O)CO
REMARK SMILES IDX 7 1 9 2 11 3 12 4 10 6 5 8 2 9 1 10 3 11 4 12 6 14 8 16
REMARK H PARENT 12 5 10 7 4 13 6 15 8 17
REMARK Flexibility Score: inf
ROOT
ATOM      1  C   UNL     1      17.506  25.458   8.368  1.00  0.00     0.181 C 
ENDROOT
BRANCH   1   2
ATOM      2  C   UNL     1      17.670  26.881   8.961  1.00  0.00     0.171 C 
BRANCH   2   3
ATOM      3  C   UNL     1      19.133  27.159   9.343  1.00  0.00     0.190 C 
BRANCH   3   4
ATOM      4  O   UNL     1      19.452  26.482  10.528  1.00  0.00    -0.394 OA
ATOM      5  H   UNL     1      19.151  27.068  11.269  1.00  0.00     0.210 HD
ENDBRANCH   3   4
ENDBRANCH   2   3
BRANCH   2   6
ATOM      6  O   UNL     1      17.257  27.839   8.019  1.00  0.00    -0.388 OA
ATOM      7  H   UNL     1      16.792  27.350   7.290  1.00  0.00     0.211 HD
ENDBRANCH   2   6
ENDBRANCH   1   2
BRANCH   1   8
ATOM      8  C   UNL     1      16.875  24.468   9.385  1.00  0.00     0.214 C 
BRANCH   8   9
ATOM      9  C   UNL     1      17.545  23.108   9.362  1.00  0.00     0.189 C 
ATOM     10  O   UNL     1      17.290  22.345   8.442  1.00  0.00    -0.294 OA
BRANCH   9  11
ATOM     11  C   UNL     1      18.537  22.655  10.408  1.00  0.00     0.234 C 
BRANCH  11  12
ATOM     12  O   UNL     1      19.668  23.483  10.459  1.00  0.00    -0.388 OA
ATOM     13  H   UNL     1      20.438  22.935  10.155  1.00  0.00     0.211 HD
ENDBRANCH  11  12
ENDBRANCH   9  11
ENDBRANCH   8   9
BRANCH   8  14
ATOM     14  O   UNL     1      16.954  24.987  10.689  1.00  0.00    -0.382 OA
ATOM     15  H   UNL     1      17.315  25.908  10.619  1.00  0.00     0.211 HD
ENDBRANCH   8  14
ENDBRANCH   1   8
BRANCH   1  16
ATOM     16  O   UNL     1      18.774  24.977   7.992  1.00  0.00    -0.387 OA
ATOM     17  H   UNL     1      18.954  25.311   7.074  1.00  0.00     0.211 HD
ENDBRANCH   1  16
TORSDOF 10
ENDMDL
MODEL 5
REMARK VINA RESULT:    -4.274      1.604      4.784
REMARK INTER + INTRA:          -6.727
REMARK INTER:                  -5.761
REMARK INTRA:                  -0.966
REMARK UNBOUND:                -0.579
REMARK SMILES O=C(CO)[C@@H](O)[C@H](O)[C@H](O)CO
REMARK SMILES IDX 7 1 9 2 11 3 12 4 10 6 5 8 2 9 1 10 3 11 4 12 6 14 8 16
REMARK H PARENT 12 5 10 7 4 13 6 15 8 17
REMARK Flexibility Score: inf
ROOT
ATOM      1  C   UNL     1      19.235  25.002   8.728  1.00  0.00     0.181 C 
ENDROOT
BRANCH   1   2
ATOM      2  C   UNL     1      17.907  25.793   8.847  1.00  0.00     0.171 C 
BRANCH   2   3
ATOM      3  C   UNL     1      18.162  27.309   8.853  1.00  0.00     0.190 C 
BRANCH   3   4
ATOM      4  O   UNL     1      19.243  27.606   9.694  1.00  0.00    -0.394 OA
ATOM      5  H   UNL     1      19.622  26.733   9.975  1.00  0.00     0.210 HD
ENDBRANCH   3   4
ENDBRANCH   2   3
BRANCH   2   6
ATOM      6  O   UNL     1      17.067  25.478   7.765  1.00  0.00    -0.388 OA
ATOM      7  H   UNL     1      16.431  24.785   8.082  1.00  0.00     0.211 HD
ENDBRANCH   2   6
ENDBRANCH   1   2
BRANCH   1   8
ATOM      8  C   UNL     1      19.094  23.754   7.813  1.00  0.00     0.214 C 
BRANCH   8   9
ATOM      9  C   UNL     1      20.403  23.005   7.649  1.00  0.00     0.189 C 
ATOM     10  O   UNL     1      21.431  23.527   8.056  1.00  0.00    -0.294 OA
BRANCH   9  11
ATOM     11  C   UNL     1      20.499  21.631   7.030  1.00  0.00     0.234 C 
BRANCH  11  12
ATOM     12  O   UNL     1      20.037  20.627   7.894  1.00  0.00    -0.388 OA
ATOM     13  H   UNL     1      19.469  21.074   8.574  1.00  0.00     0.211 HD
ENDBRANCH  11  12
ENDBRANCH   9  11
ENDBRANCH   8   9
BRANCH   8  14
ATOM     14  O   UNL     1      18.132  22.871   8.332  1.00  0.00    -0.382 OA
ATOM     15  H   UNL     1      17.617  22.510   7.564  1.00  0.00     0.211 HD
ENDBRANCH   8  14
ENDBRANCH   1   8
BRANCH   1  16
ATOM     16  O   UNL     1      19.628  24.582  10.012  1.00  0.00    -0.387 OA
ATOM     17  H   UNL     1      19.621  25.383  10.598  1.00  0.00     0.211 HD
ENDBRANCH   1  16
TORSDOF 10
ENDMDL
MODEL 6
REMARK VINA RESULT:    -4.267      1.223      4.196
REMARK INTER + INTRA:          -6.716
REMARK INTER:                  -5.542
REMARK INTRA:                  -1.175
REMARK UNBOUND:                -0.579
REMARK SMILES O=C(CO)[C@@H](O)[C@H](O)[C@H](O)CO
REMARK SMILES IDX 7 1 9 2 11 3 12 4 10 6 5 8 2 9 1 10 3 11 4 12 6 14 8 16
REMARK H PARENT 12 5 10 7 4 13 6 15 8 17
REMARK Flexibility Score: inf
ROOT
ATOM      1  C   UNL     1      17.491  24.997   8.925  1.00  0.00     0.181 C 
ENDROOT
BRANCH   1   2
ATOM      2  C   UNL     1      18.665  26.004   9.024  1.00  0.00     0.171 C 
BRANCH   2   3
ATOM      3  C   UNL     1      18.231  27.410   8.578  1.00  0.00     0.190 C 
BRANCH   3   4
ATOM      4  O   UNL     1      16.880  27.611   8.892  1.00  0.00    -0.394 OA
ATOM      5  H   UNL     1      16.378  27.479   8.046  1.00  0.00     0.210 HD
ENDBRANCH   3   4
ENDBRANCH   2   3
BRANCH   2   6
ATOM      6  O   UNL     1      19.125  26.070  10.350  1.00  0.00    -0.388 OA
ATOM      7  H   UNL     1      18.450  26.582  10.868  1.00  0.00     0.211 HD
ENDBRANCH   2   6
ENDBRANCH   1   2
BRANCH   1   8
ATOM      8  C   UNL     1      17.928  23.549   9.282  1.00  0.00     0.214 C 
BRANCH   8   9
ATOM      9  C   UNL     1      19.241  23.162   8.629  1.00  0.00     0.189 C 
ATOM     10  O   UNL     1      19.352  23.288   7.418  1.00  0.00    -0.294 OA
BRANCH   9  11
ATOM     11  C   UNL     1      20.433  22.653   9.404  1.00  0.00     0.234 C 
BRANCH  11  12
ATOM     12  O   UNL     1      20.835  23.548  10.407  1.00  0.00    -0.388 OA
ATOM     13  H   UNL     1      20.759  23.064  11.270  1.00  0.00     0.211 HD
ENDBRANCH  11  12
ENDBRANCH   9  11
ENDBRANCH   8   9
BRANCH   8  14
ATOM     14  O   UNL     1      18.058  23.404  10.674  1.00  0.00    -0.382 OA
ATOM     15  H   UNL     1      18.385  24.270  11.032  1.00  0.00     0.211 HD
ENDBRANCH   8  14
ENDBRANCH   1   8
BRANCH   1  16
ATOM     16  O   UNL     1      16.993  25.010   7.609  1.00  0.00    -0.387 OA
ATOM     17  H   UNL     1      16.221  25.634   7.593  1.00  0.00     0.211 HD
ENDBRANCH   1  16
TORSDOF 10
ENDMDL
MODEL 7
REMARK VINA RESULT:    -4.247      1.474      2.505
REMARK INTER + INTRA:          -6.689
REMARK INTER:                  -5.610
REMARK INTRA:                  -1.078
REMARK UNBOUND:                -0.579
REMARK SMILES O=C(CO)[C@@H](O)[C@H](O)[C@H](O)CO
REMARK SMILES IDX 7 1 9 2 11 3 12 4 10 6 5 8 2 9 1 10 3 11 4 12 6 14 8 16
REMARK H PARENT 12 5 10 7 4 13 6 15 8 17
REMARK Flexibility Score: inf
ROOT
ATOM      1  C   UNL     1      20.556  22.474   9.417  1.00  0.00     0.181 C 
ENDROOT
BRANCH   1   2
ATOM      2  C   UNL     1      21.667  22.433   8.337  1.00  0.00     0.171 C 
BRANCH   2   3
ATOM      3  C   UNL     1      22.688  21.322   8.634  1.00  0.00     0.190 C 
BRANCH   3   4
ATOM      4  O   UNL     1      23.651  21.790   9.537  1.00  0.00    -0.394 OA
ATOM      5  H   UNL     1      23.570  22.779   9.540  1.00  0.00     0.210 HD
ENDBRANCH   3   4
ENDBRANCH   2   3
BRANCH   2   6
ATOM      6  O   UNL     1      21.095  22.199   7.075  1.00  0.00    -0.388 OA
ATOM      7  H   UNL     1      20.115  22.120   7.209  1.00  0.00     0.211 HD
ENDBRANCH   2   6
ENDBRANCH   1   2
BRANCH   1   8
ATOM      8  C   UNL     1      19.275  23.195   8.913  1.00  0.00     0.214 C 
BRANCH   8   9
ATOM      9  C   UNL     1      18.408  23.700  10.050  1.00  0.00     0.189 C 
ATOM     10  O   UNL     1      17.915  22.885  10.816  1.00  0.00    -0.294 OA
BRANCH   9  11
ATOM     11  C   UNL     1      18.142  25.165  10.302  1.00  0.00     0.234 C 
BRANCH  11  12
ATOM     12  O   UNL     1      19.328  25.903  10.438  1.00  0.00    -0.388 OA
ATOM     13  H   UNL     1      19.660  26.082   9.519  1.00  0.00     0.211 HD
ENDBRANCH  11  12
ENDBRANCH   9  11
ENDBRANCH   8   9
BRANCH   8  14
ATOM     14  O   UNL     1      19.615  24.282   8.089  1.00  0.00    -0.382 OA
ATOM     15  H   UNL     1      19.853  25.041   8.684  1.00  0.00     0.211 HD
ENDBRANCH   8  14
ENDBRANCH   1   8
BRANCH   1  16
ATOM     16  O   UNL     1      21.047  23.157  10.545  1.00  0.00    -0.387 OA
ATOM     17  H   UNL     1      22.029  23.242  10.432  1.00  0.00     0.211 HD
ENDBRANCH   1  16
TORSDOF 10
ENDMDL
MODEL 8
REMARK VINA RESULT:    -4.185      1.198      2.275
REMARK INTER + INTRA:          -6.599
REMARK INTER:                  -5.679
REMARK INTRA:                  -0.920
REMARK UNBOUND:                -0.579
REMARK SMILES O=C(CO)[C@@H](O)[C@H](O)[C@H](O)CO
REMARK SMILES IDX 7 1 9 2 11 3 12 4 10 6 5 8 2 9 1 10 3 11 4 12 6 14 8 16
REMARK H PARENT 12 5 10 7 4 13 6 15 8 17
REMARK Flexibility Score: inf
ROOT
ATOM      1  C   UNL     1      18.426  23.456   8.960  1.00  0.00     0.181 C 
ENDROOT
BRANCH   1   2
ATOM      2  C   UNL     1      19.867  23.568   8.399  1.00  0.00     0.171 C 
BRANCH   2   3
ATOM      3  C   UNL     1      20.849  22.710   9.215  1.00  0.00     0.190 C 
BRANCH   3   4
ATOM      4  O   UNL     1      21.191  23.376  10.399  1.00  0.00    -0.394 OA
ATOM      5  H   UNL     1      20.764  22.866  11.135  1.00  0.00     0.210 HD
ENDBRANCH   3   4
ENDBRANCH   2   3
BRANCH   2   6
ATOM      6  O   UNL     1      19.891  23.137   7.062  1.00  0.00    -0.388 OA
ATOM      7  H   UNL     1      19.190  22.440   6.967  1.00  0.00     0.211 HD
ENDBRANCH   2   6
ENDBRANCH   1   2
BRANCH   1   8
ATOM      8  C   UNL     1      17.666  24.809   8.899  1.00  0.00     0.214 C 
BRANCH   8   9
ATOM      9  C   UNL     1      18.505  25.969   9.400  1.00  0.00     0.189 C 
ATOM     10  O   UNL     1      19.140  25.828  10.434  1.00  0.00    -0.294 OA
BRANCH   9  11
ATOM     11  C   UNL     1      18.618  27.286   8.669  1.00  0.00     0.234 C 
BRANCH  11  12
ATOM     12  O   UNL     1      17.364  27.803   8.312  1.00  0.00    -0.388 OA
ATOM     13  H   UNL     1      16.696  27.096   8.509  1.00  0.00     0.211 HD
ENDBRANCH  11  12
ENDBRANCH   9  11
ENDBRANCH   8   9
BRANCH   8  14
ATOM     14  O   UNL     1      17.258  25.085   7.582  1.00  0.00    -0.382 OA
ATOM     15  H   UNL     1      16.666  24.342   7.294  1.00  0.00     0.211 HD
ENDBRANCH   8  14
ENDBRANCH   1   8
BRANCH   1  16
ATOM     16  O   UNL     1      18.495  23.033  10.301  1.00  0.00    -0.387 OA
ATOM     17  H   UNL     1      17.845  22.291  10.408  1.00  0.00     0.211 HD
ENDBRANCH   1  16
TORSDOF 10
ENDMDL
MODEL 9
REMARK VINA RESULT:    -4.181      1.759      4.520
REMARK INTER + INTRA:          -6.593
REMARK INTER:                  -5.104
REMARK INTRA:                  -1.489
REMARK UNBOUND:                -0.579
REMARK SMILES O=C(CO)[C@@H](O)[C@H](O)[C@H](O)CO
REMARK SMILES IDX 7 1 9 2 11 3 12 4 10 6 5 8 2 9 1 10 3 11 4 12 6 14 8 16
REMARK H PARENT 12 5 10 7 4 13 6 15 8 17
REMARK Flexibility Score: inf
ROOT
ATOM      1  C   UNL     1      18.759  25.171   8.650  1.00  0.00     0.181 C 
ENDROOT
BRANCH   1   2
ATOM      2  C   UNL     1      17.259  25.400   8.965  1.00  0.00     0.171 C 
BRANCH   2   3
ATOM      3  C   UNL     1      16.939  25.055  10.429  1.00  0.00     0.190 C 
BRANCH   3   4
ATOM      4  O   UNL     1      16.961  23.665  10.605  1.00  0.00    -0.394 OA
ATOM      5  H   UNL     1      17.791  23.344  10.166  1.00  0.00     0.210 HD
ENDBRANCH   3   4
ENDBRANCH   2   3
BRANCH   2   6
ATOM      6  O   UNL     1      16.925  26.745   8.733  1.00  0.00    -0.388 OA
ATOM      7  H   UNL     1      17.650  27.134   8.176  1.00  0.00     0.211 HD
ENDBRANCH   2   6
ENDBRANCH   1   2
BRANCH   1   8
ATOM      8  C   UNL     1      18.990  23.901   7.786  1.00  0.00     0.214 C 
BRANCH   8   9
ATOM      9  C   UNL     1      20.172  23.080   8.265  1.00  0.00     0.189 C 
ATOM     10  O   UNL     1      21.300  23.484   8.025  1.00  0.00    -0.294 OA
BRANCH   9  11
ATOM     11  C   UNL     1      20.027  21.797   9.049  1.00  0.00     0.234 C 
BRANCH  11  12
ATOM     12  O   UNL     1      19.329  21.986  10.251  1.00  0.00    -0.388 OA
ATOM     13  H   UNL     1      18.446  22.373  10.011  1.00  0.00     0.211 HD
ENDBRANCH  11  12
ENDBRANCH   9  11
ENDBRANCH   8   9
BRANCH   8  14
ATOM     14  O   UNL     1      17.844  23.086   7.794  1.00  0.00    -0.382 OA
ATOM     15  H   UNL     1      17.998  22.365   8.459  1.00  0.00     0.211 HD
ENDBRANCH   8  14
ENDBRANCH   1   8
BRANCH   1  16
ATOM     16  O   UNL     1      19.459  25.028   9.863  1.00  0.00    -0.387 OA
ATOM     17  H   UNL     1      20.238  24.439   9.685  1.00  0.00     0.211 HD
ENDBRANCH   1  16
TORSDOF 10
ENDMDL
