MODEL 1
REMARK VINA RESULT:    -4.506      0.000      0.000
REMARK INTER + INTRA:         -10.811
REMARK INTER:                  -8.458
REMARK INTRA:                  -2.353
REMARK UNBOUND:                -2.353
REMARK SMILES CCCCCCCCC=CCCCCCCCC(=O)[O-]
REMARK SMILES IDX 10 1 9 2 11 3 12 4 13 5 14 6 15 7 16 8 17 9 18 10 19 11
REMARK SMILES IDX 20 12 8 13 7 14 6 15 5 16 4 17 3 18 2 19 1 20
REMARK H PARENT
REMARK Flexibility Score: inf
ROOT
ATOM      1  C   UNL     1      24.247  45.525  35.628  1.00  0.00    -0.031 C 
ATOM      2  C   UNL     1      24.915  45.344  34.473  1.00  0.00    -0.031 C 
ENDROOT
BRANCH   1   3
ATOM      3  C   UNL     1      22.778  45.843  35.732  1.00  0.00     0.027 C 
BRANCH   3   4
ATOM      4  C   UNL     1      22.480  46.662  36.994  1.00  0.00     0.004 C 
BRANCH   4   5
ATOM      5  C   UNL     1      23.768  46.939  37.785  1.00  0.00     0.000 C 
BRANCH   5   6
ATOM      6  C   UNL     1      23.730  46.355  39.206  1.00  0.00     0.000 C 
BRANCH   6   7
ATOM      7  C   UNL     1      23.451  47.426  40.276  1.00  0.00     0.000 C 
BRANCH   7   8
ATOM      8  C   UNL     1      23.906  48.828  39.839  1.00  0.00     0.006 C 
BRANCH   8   9
ATOM      9  C   UNL     1      23.307  49.943  40.707  1.00  0.00     0.053 C 
BRANCH   9  10
ATOM     10  C   UNL     1      24.127  50.139  41.943  1.00  0.00     0.041 C 
ATOM     11  O   UNL     1      25.384  50.089  41.884  1.00  0.00    -0.550 OA
ATOM     12  O   UNL     1      23.505  50.424  43.152  1.00  0.00    -0.550 OA
ENDBRANCH   9  10
ENDBRANCH   8   9
ENDBRANCH   7   8
ENDBRANCH   6   7
ENDBRANCH   5   6
ENDBRANCH   4   5
ENDBRANCH   3   4
ENDBRANCH   1   3
BRANCH   2  13
ATOM     13  C   UNL     1      24.296  45.381  33.096  1.00  0.00     0.027 C 
BRANCH  13  14
ATOM     14  C   UNL     1      24.932  46.470  32.223  1.00  0.00     0.004 C 
BRANCH  14  15
ATOM     15  C   UNL     1      25.844  47.403  33.037  1.00  0.00     0.000 C 
BRANCH  15  16
ATOM     16  C   UNL     1      25.303  48.839  33.116  1.00  0.00     0.000 C 
BRANCH  16  17
ATOM     17  C   UNL     1      23.784  48.912  32.905  1.00  0.00    -0.000 C 
BRANCH  17  18
ATOM     18  C   UNL     1      23.059  49.198  34.226  1.00  0.00    -0.000 C 
BRANCH  18  19
ATOM     19  C   UNL     1      24.018  49.793  35.264  1.00  0.00    -0.003 C 
ATOM     20  C   UNL     1      23.256  50.345  36.465  1.00  0.00     0.004 C 
ENDBRANCH  18  19
ENDBRANCH  17  18
ENDBRANCH  16  17
ENDBRANCH  15  16
ENDBRANCH  14  15
ENDBRANCH  13  14
ENDBRANCH   2  13
TORSDOF 15
ENDMDL
MODEL 2
REMARK VINA RESULT:    -4.458      1.440      3.616
REMARK INTER + INTRA:         -10.720
REMARK INTER:                  -8.455
REMARK INTRA:                  -2.265
REMARK UNBOUND:                -2.353
REMARK SMILES CCCCCCCCC=CCCCCCCCC(=O)[O-]
REMARK SMILES IDX 10 1 9 2 11 3 12 4 13 5 14 6 15 7 16 8 17 9 18 10 19 11
REMARK SMILES IDX 20 12 8 13 7 14 6 15 5 16 4 17 3 18 2 19 1 20
REMARK H PARENT
REMARK Flexibility Score: inf
ROOT
ATOM      1  C   UNL     1      23.561  49.986  33.888  1.00  0.00    -0.031 C 
ATOM      2  C   UNL     1      24.072  48.893  33.288  1.00  0.00    -0.031 C 
ENDROOT
BRANCH   1   3
ATOM      3  C   UNL     1      24.231  50.749  35.001  1.00  0.00     0.027 C 
BRANCH   3   4
ATOM      4  C   UNL     1      23.555  50.466  36.348  1.00  0.00     0.004 C 
BRANCH   4   5
ATOM      5  C   UNL     1      22.224  49.726  36.148  1.00  0.00     0.000 C 
BRANCH   5   6
ATOM      6  C   UNL     1      22.091  48.486  37.046  1.00  0.00     0.000 C 
BRANCH   6   7
ATOM      7  C   UNL     1      23.314  48.288  37.961  1.00  0.00     0.000 C 
BRANCH   7   8
ATOM      8  C   UNL     1      23.032  47.315  39.118  1.00  0.00     0.006 C 
BRANCH   8   9
ATOM      9  C   UNL     1      23.432  47.888  40.484  1.00  0.00     0.053 C 
BRANCH   9  10
ATOM     10  C   UNL     1      22.244  48.492  41.164  1.00  0.00     0.041 C 
ATOM     11  O   UNL     1      22.379  49.093  42.262  1.00  0.00    -0.550 OA
ATOM     12  O   UNL     1      20.994  48.434  40.560  1.00  0.00    -0.550 OA
ENDBRANCH   9  10
ENDBRANCH   8   9
ENDBRANCH   7   8
ENDBRANCH   6   7
ENDBRANCH   5   6
ENDBRANCH   4   5
ENDBRANCH   3   4
ENDBRANCH   1   3
BRANCH   2  13
ATOM     13  C   UNL     1      25.420  48.284  33.595  1.00  0.00     0.027 C 
BRANCH  13  14
ATOM     14  C   UNL     1      25.873  47.333  32.480  1.00  0.00     0.004 C 
BRANCH  14  15
ATOM     15  C   UNL     1      24.728  46.432  31.988  1.00  0.00     0.000 C 
BRANCH  15  16
ATOM     16  C   UNL     1      24.394  45.304  32.979  1.00  0.00     0.000 C 
BRANCH  16  17
ATOM     17  C   UNL     1      22.965  45.404  33.530  1.00  0.00    -0.000 C 
BRANCH  17  18
ATOM     18  C   UNL     1      22.976  45.619  35.048  1.00  0.00    -0.000 C 
BRANCH  18  19
ATOM     19  C   UNL     1      24.364  45.336  35.635  1.00  0.00    -0.003 C 
ATOM     20  C   UNL     1      24.259  44.744  37.038  1.00  0.00     0.004 C 
ENDBRANCH  18  19
ENDBRANCH  17  18
ENDBRANCH  16  17
ENDBRANCH  15  16
ENDBRANCH  14  15
ENDBRANCH  13  14
ENDBRANCH   2  13
TORSDOF 15
ENDMDL
MODEL 3
REMARK VINA RESULT:    -4.450      1.555      3.757
REMARK INTER + INTRA:         -10.705
REMARK INTER:                  -8.017
REMARK INTRA:                  -2.688
REMARK UNBOUND:                -2.353
REMARK SMILES CCCCCCCCC=CCCCCCCCC(=O)[O-]
REMARK SMILES IDX 10 1 9 2 11 3 12 4 13 5 14 6 15 7 16 8 17 9 18 10 19 11
REMARK SMILES IDX 20 12 8 13 7 14 6 15 5 16 4 17 3 18 2 19 1 20
REMARK H PARENT
REMARK Flexibility Score: inf
ROOT
ATOM      1  C   UNL     1      25.415  48.551  33.457  1.00  0.00    -0.031 C 
ATOM      2  C   UNL     1      25.802  47.325  33.054  1.00  0.00    -0.031 C 
ENDROOT
BRANCH   1   3
ATOM      3  C   UNL     1      24.136  49.231  33.040  1.00  0.00     0.027 C 
BRANCH   3   4
ATOM      4  C   UNL     1      23.164  49.347  34.220  1.00  0.00     0.004 C 
BRANCH   4   5
ATOM      5  C   UNL     1      23.885  49.090  35.552  1.00  0.00     0.000 C 
BRANCH   5   6
ATOM      6  C   UNL     1      23.080  49.574  36.768  1.00  0.00     0.000 C 
BRANCH   6   7
ATOM      7  C   UNL     1      21.642  49.023  36.780  1.00  0.00     0.000 C 
BRANCH   7   8
ATOM      8  C   UNL     1      20.981  49.134  38.164  1.00  0.00     0.006 C 
BRANCH   8   9
ATOM      9  C   UNL     1      21.758  50.048  39.121  1.00  0.00     0.053 C 
BRANCH   9  10
ATOM     10  C   UNL     1      22.092  49.317  40.383  1.00  0.00     0.041 C 
ATOM     11  O   UNL     1      21.337  48.402  40.805  1.00  0.00    -0.550 OA
ATOM     12  O   UNL     1      23.264  49.613  41.068  1.00  0.00    -0.550 OA
ENDBRANCH   9  10
ENDBRANCH   8   9
ENDBRANCH   7   8
ENDBRANCH   6   7
ENDBRANCH   5   6
ENDBRANCH   4   5
ENDBRANCH   3   4
ENDBRANCH   1   3
BRANCH   2  13
ATOM     13  C   UNL     1      24.998  46.411  32.160  1.00  0.00     0.027 C 
BRANCH  13  14
ATOM     14  C   UNL     1      24.384  45.250  32.952  1.00  0.00     0.004 C 
BRANCH  14  15
ATOM     15  C   UNL     1      23.019  45.620  33.555  1.00  0.00     0.000 C 
BRANCH  15  16
ATOM     16  C   UNL     1      23.040  45.653  35.092  1.00  0.00     0.000 C 
BRANCH  16  17
ATOM     17  C   UNL     1      24.372  45.161  35.676  1.00  0.00    -0.000 C 
BRANCH  17  18
ATOM     18  C   UNL     1      24.266  44.962  37.193  1.00  0.00    -0.000 C 
BRANCH  18  19
ATOM     19  C   UNL     1      23.408  46.059  37.835  1.00  0.00    -0.003 C 
ATOM     20  C   UNL     1      23.848  46.333  39.270  1.00  0.00     0.004 C 
ENDBRANCH  18  19
ENDBRANCH  17  18
ENDBRANCH  16  17
ENDBRANCH  15  16
ENDBRANCH  14  15
ENDBRANCH  13  14
ENDBRANCH   2  13
TORSDOF 15
ENDMDL
MODEL 4
REMARK VINA RESULT:    -4.412      1.218      2.311
REMARK INTER + INTRA:         -10.635
REMARK INTER:                  -8.681
REMARK INTRA:                  -1.954
REMARK UNBOUND:                -2.353
REMARK SMILES CCCCCCCCC=CCCCCCCCC(=O)[O-]
REMARK SMILES IDX 10 1 9 2 11 3 12 4 13 5 14 6 15 7 16 8 17 9 18 10 19 11
REMARK SMILES IDX 20 12 8 13 7 14 6 15 5 16 4 17 3 18 2 19 1 20
REMARK H PARENT
REMARK Flexibility Score: inf
ROOT
ATOM      1  C   UNL     1      23.681  45.859  37.524  1.00  0.00    -0.031 C 
ATOM      2  C   UNL     1      24.265  44.975  36.692  1.00  0.00    -0.031 C 
ENDROOT
BRANCH   1   3
ATOM      3  C   UNL     1      23.463  47.318  37.215  1.00  0.00     0.027 C 
BRANCH   3   4
ATOM      4  C   UNL     1      22.027  47.572  36.740  1.00  0.00     0.004 C 
BRANCH   4   5
ATOM      5  C   UNL     1      21.061  47.648  37.932  1.00  0.00     0.000 C 
BRANCH   5   6
ATOM      6  C   UNL     1      21.354  48.837  38.860  1.00  0.00     0.000 C 
BRANCH   6   7
ATOM      7  C   UNL     1      21.470  48.417  40.337  1.00  0.00     0.000 C 
BRANCH   7   8
ATOM      8  C   UNL     1      22.915  48.086  40.743  1.00  0.00     0.006 C 
BRANCH   8   9
ATOM      9  C   UNL     1      23.907  49.193  40.363  1.00  0.00     0.053 C 
BRANCH   9  10
ATOM     10  C   UNL     1      24.362  49.926  41.585  1.00  0.00     0.041 C 
ATOM     11  O   UNL     1      23.546  50.196  42.505  1.00  0.00    -0.550 OA
ATOM     12  O   UNL     1      25.701  50.269  41.732  1.00  0.00    -0.550 OA
ENDBRANCH   9  10
ENDBRANCH   8   9
ENDBRANCH   7   8
ENDBRANCH   6   7
ENDBRANCH   5   6
ENDBRANCH   4   5
ENDBRANCH   3   4
ENDBRANCH   1   3
BRANCH   2  13
ATOM     13  C   UNL     1      24.752  45.287  35.297  1.00  0.00     0.027 C 
BRANCH  13  14
ATOM     14  C   UNL     1      23.603  45.255  34.281  1.00  0.00     0.004 C 
BRANCH  14  15
ATOM     15  C   UNL     1      24.114  45.275  32.830  1.00  0.00     0.000 C 
BRANCH  15  16
ATOM     16  C   UNL     1      24.287  46.701  32.284  1.00  0.00     0.000 C 
BRANCH  16  17
ATOM     17  C   UNL     1      25.735  47.202  32.383  1.00  0.00    -0.000 C 
BRANCH  17  18
ATOM     18  C   UNL     1      25.861  48.314  33.432  1.00  0.00    -0.000 C 
BRANCH  18  19
ATOM     19  C   UNL     1      24.482  48.753  33.938  1.00  0.00    -0.003 C 
ATOM     20  C   UNL     1      24.433  50.262  34.163  1.00  0.00     0.004 C 
ENDBRANCH  18  19
ENDBRANCH  17  18
ENDBRANCH  16  17
ENDBRANCH  15  16
ENDBRANCH  14  15
ENDBRANCH  13  14
ENDBRANCH   2  13
TORSDOF 15
ENDMDL
MODEL 5
REMARK VINA RESULT:    -4.340      3.300      7.411
REMARK INTER + INTRA:         -10.498
REMARK INTER:                  -8.824
REMARK INTRA:                  -1.674
REMARK UNBOUND:                -2.353
REMARK SMILES CCCCCCCCC=CCCCCCCCC(=O)[O-]
REMARK SMILES IDX 10 1 9 2 11 3 12 4 13 5 14 6 15 7 16 8 17 9 18 10 19 11
REMARK SMILES IDX 20 12 8 13 7 14 6 15 5 16 4 17 3 18 2 19 1 20
REMARK H PARENT
REMARK Flexibility Score: inf
ROOT
ATOM      1  C   UNL     1      23.718  46.495  38.844  1.00  0.00    -0.031 C 
ATOM      2  C   UNL     1      23.754  47.740  39.358  1.00  0.00    -0.031 C 
ENDROOT
BRANCH   1   3
ATOM      3  C   UNL     1      23.366  46.162  37.418  1.00  0.00     0.027 C 
BRANCH   3   4
ATOM      4  C   UNL     1      24.253  45.032  36.880  1.00  0.00     0.004 C 
BRANCH   4   5
ATOM      5  C   UNL     1      24.346  45.089  35.348  1.00  0.00     0.000 C 
BRANCH   5   6
ATOM      6  C   UNL     1      23.097  45.708  34.700  1.00  0.00     0.000 C 
BRANCH   6   7
ATOM      7  C   UNL     1      23.206  45.784  33.166  1.00  0.00     0.000 C 
BRANCH   7   8
ATOM      8  C   UNL     1      24.636  45.526  32.663  1.00  0.00     0.006 C 
BRANCH   8   9
ATOM      9  C   UNL     1      25.211  46.713  31.878  1.00  0.00     0.053 C 
BRANCH   9  10
ATOM     10  C   UNL     1      25.299  47.923  32.754  1.00  0.00     0.041 C 
ATOM     11  O   UNL     1      26.127  47.961  33.701  1.00  0.00    -0.550 OA
ATOM     12  O   UNL     1      24.499  49.029  32.494  1.00  0.00    -0.550 OA
ENDBRANCH   9  10
ENDBRANCH   8   9
ENDBRANCH   7   8
ENDBRANCH   6   7
ENDBRANCH   5   6
ENDBRANCH   4   5
ENDBRANCH   3   4
ENDBRANCH   1   3
BRANCH   2  13
ATOM     13  C   UNL     1      23.495  49.008  38.580  1.00  0.00     0.027 C 
BRANCH  13  14
ATOM     14  C   UNL     1      22.339  49.813  39.186  1.00  0.00     0.004 C 
BRANCH  14  15
ATOM     15  C   UNL     1      21.359  48.919  39.964  1.00  0.00     0.000 C 
BRANCH  15  16
ATOM     16  C   UNL     1      21.029  49.476  41.359  1.00  0.00     0.000 C 
BRANCH  16  17
ATOM     17  C   UNL     1      22.194  49.327  42.347  1.00  0.00    -0.000 C 
BRANCH  17  18
ATOM     18  C   UNL     1      22.696  50.698  42.815  1.00  0.00    -0.000 C 
BRANCH  18  19
ATOM     19  C   UNL     1      24.208  50.675  43.070  1.00  0.00    -0.003 C 
ATOM     20  C   UNL     1      24.973  50.285  41.808  1.00  0.00     0.004 C 
ENDBRANCH  18  19
ENDBRANCH  17  18
ENDBRANCH  16  17
ENDBRANCH  15  16
ENDBRANCH  14  15
ENDBRANCH  13  14
ENDBRANCH   2  13
TORSDOF 15
ENDMDL
MODEL 6
REMARK VINA RESULT:    -4.317      1.466      2.327
REMARK INTER + INTRA:         -10.455
REMARK INTER:                  -7.903
REMARK INTRA:                  -2.552
REMARK UNBOUND:                -2.353
REMARK SMILES CCCCCCCCC=CCCCCCCCC(=O)[O-]
REMARK SMILES IDX 10 1 9 2 11 3 12 4 13 5 14 6 15 7 16 8 17 9 18 10 19 11
REMARK SMILES IDX 20 12 8 13 7 14 6 15 5 16 4 17 3 18 2 19 1 20
REMARK H PARENT
REMARK Flexibility Score: inf
ROOT
ATOM      1  C   UNL     1      25.049  45.878  34.787  1.00  0.00    -0.031 C 
ATOM      2  C   UNL     1      24.582  45.875  33.524  1.00  0.00    -0.031 C 
ENDROOT
BRANCH   1   3
ATOM      3  C   UNL     1      24.532  45.002  35.898  1.00  0.00     0.027 C 
BRANCH   3   4
ATOM      4  C   UNL     1      23.541  45.766  36.786  1.00  0.00     0.004 C 
BRANCH   4   5
ATOM      5  C   UNL     1      23.857  47.269  36.792  1.00  0.00     0.000 C 
BRANCH   5   6
ATOM      6  C   UNL     1      22.914  48.072  37.701  1.00  0.00     0.000 C 
BRANCH   6   7
ATOM      7  C   UNL     1      22.514  47.294  38.968  1.00  0.00     0.000 C 
BRANCH   7   8
ATOM      8  C   UNL     1      23.538  47.450  40.104  1.00  0.00     0.006 C 
BRANCH   8   9
ATOM      9  C   UNL     1      23.734  48.911  40.528  1.00  0.00     0.053 C 
BRANCH   9  10
ATOM     10  C   UNL     1      22.848  49.240  41.688  1.00  0.00     0.041 C 
ATOM     11  O   UNL     1      23.017  50.308  42.333  1.00  0.00    -0.550 OA
ATOM     12  O   UNL     1      21.802  48.390  42.027  1.00  0.00    -0.550 OA
ENDBRANCH   9  10
ENDBRANCH   8   9
ENDBRANCH   7   8
ENDBRANCH   6   7
ENDBRANCH   5   6
ENDBRANCH   4   5
ENDBRANCH   3   4
ENDBRANCH   1   3
BRANCH   2  13
ATOM     13  C   UNL     1      23.499  44.962  33.000  1.00  0.00     0.027 C 
BRANCH  13  14
ATOM     14  C   UNL     1      22.106  45.439  33.430  1.00  0.00     0.004 C 
BRANCH  14  15
ATOM     15  C   UNL     1      21.853  46.906  33.045  1.00  0.00     0.000 C 
BRANCH  15  16
ATOM     16  C   UNL     1      21.218  47.717  34.186  1.00  0.00     0.000 C 
BRANCH  16  17
ATOM     17  C   UNL     1      21.868  49.097  34.364  1.00  0.00    -0.000 C 
BRANCH  17  18
ATOM     18  C   UNL     1      23.047  49.278  33.400  1.00  0.00    -0.000 C 
BRANCH  18  19
ATOM     19  C   UNL     1      24.293  49.776  34.141  1.00  0.00    -0.003 C 
ATOM     20  C   UNL     1      25.569  49.363  33.412  1.00  0.00     0.004 C 
ENDBRANCH  18  19
ENDBRANCH  17  18
ENDBRANCH  16  17
ENDBRANCH  15  16
ENDBRANCH  14  15
ENDBRANCH  13  14
ENDBRANCH   2  13
TORSDOF 15
ENDMDL
MODEL 7
REMARK VINA RESULT:    -4.286      1.315      1.985
REMARK INTER + INTRA:         -10.396
REMARK INTER:                  -8.172
REMARK INTRA:                  -2.224
REMARK UNBOUND:                -2.353
REMARK SMILES CCCCCCCCC=CCCCCCCCC(=O)[O-]
REMARK SMILES IDX 10 1 9 2 11 3 12 4 13 5 14 6 15 7 16 8 17 9 18 10 19 11
REMARK SMILES IDX 20 12 8 13 7 14 6 15 5 16 4 17 3 18 2 19 1 20
REMARK H PARENT
REMARK Flexibility Score: inf
ROOT
ATOM      1  C   UNL     1      24.275  45.587  35.776  1.00  0.00    -0.031 C 
ATOM      2  C   UNL     1      24.882  45.526  34.575  1.00  0.00    -0.031 C 
ENDROOT
BRANCH   1   3
ATOM      3  C   UNL     1      22.784  45.539  35.991  1.00  0.00     0.027 C 
BRANCH   3   4
ATOM      4  C   UNL     1      22.180  46.949  35.980  1.00  0.00     0.004 C 
BRANCH   4   5
ATOM      5  C   UNL     1      21.536  47.280  37.334  1.00  0.00     0.000 C 
BRANCH   5   6
ATOM      6  C   UNL     1      22.561  47.358  38.477  1.00  0.00     0.000 C 
BRANCH   6   7
ATOM      7  C   UNL     1      23.541  48.534  38.310  1.00  0.00     0.000 C 
BRANCH   7   8
ATOM      8  C   UNL     1      23.464  49.534  39.475  1.00  0.00     0.006 C 
BRANCH   8   9
ATOM      9  C   UNL     1      23.693  48.873  40.841  1.00  0.00     0.053 C 
BRANCH   9  10
ATOM     10  C   UNL     1      22.606  49.257  41.795  1.00  0.00     0.041 C 
ATOM     11  O   UNL     1      21.605  48.509  41.949  1.00  0.00    -0.550 OA
ATOM     12  O   UNL     1      22.722  50.417  42.551  1.00  0.00    -0.550 OA
ENDBRANCH   9  10
ENDBRANCH   8   9
ENDBRANCH   7   8
ENDBRANCH   6   7
ENDBRANCH   5   6
ENDBRANCH   4   5
ENDBRANCH   3   4
ENDBRANCH   1   3
BRANCH   2  13
ATOM     13  C   UNL     1      24.174  45.351  33.253  1.00  0.00     0.027 C 
BRANCH  13  14
ATOM     14  C   UNL     1      24.878  46.129  32.133  1.00  0.00     0.004 C 
BRANCH  14  15
ATOM     15  C   UNL     1      25.755  47.266  32.683  1.00  0.00     0.000 C 
BRANCH  15  16
ATOM     16  C   UNL     1      25.094  48.646  32.539  1.00  0.00     0.000 C 
BRANCH  16  17
ATOM     17  C   UNL     1      24.423  49.119  33.836  1.00  0.00    -0.000 C 
BRANCH  17  18
ATOM     18  C   UNL     1      22.928  49.381  33.617  1.00  0.00    -0.000 C 
BRANCH  18  19
ATOM     19  C   UNL     1      22.462  48.821  32.267  1.00  0.00    -0.003 C 
ATOM     20  C   UNL     1      21.341  47.802  32.451  1.00  0.00     0.004 C 
ENDBRANCH  18  19
ENDBRANCH  17  18
ENDBRANCH  16  17
ENDBRANCH  15  16
ENDBRANCH  14  15
ENDBRANCH  13  14
ENDBRANCH   2  13
TORSDOF 15
ENDMDL
MODEL 8
REMARK VINA RESULT:    -4.212      1.504      2.273
REMARK INTER + INTRA:         -10.258
REMARK INTER:                  -7.432
REMARK INTRA:                  -2.826
REMARK UNBOUND:                -2.353
REMARK SMILES CCCCCCCCC=CCCCCCCCC(=O)[O-]
REMARK SMILES IDX 10 1 9 2 11 3 12 4 13 5 14 6 15 7 16 8 17 9 18 10 19 11
REMARK SMILES IDX 20 12 8 13 7 14 6 15 5 16 4 17 3 18 2 19 1 20
REMARK H PARENT
REMARK Flexibility Score: inf
ROOT
ATOM      1  C   UNL     1      24.196  45.863  35.537  1.00  0.00    -0.031 C 
ATOM      2  C   UNL     1      24.977  45.697  34.453  1.00  0.00    -0.031 C 
ENDROOT
BRANCH   1   3
ATOM      3  C   UNL     1      22.692  45.776  35.536  1.00  0.00     0.027 C 
BRANCH   3   4
ATOM      4  C   UNL     1      22.063  47.112  35.119  1.00  0.00     0.004 C 
BRANCH   4   5
ATOM      5  C   UNL     1      21.223  47.702  36.262  1.00  0.00     0.000 C 
BRANCH   5   6
ATOM      6  C   UNL     1      21.494  49.197  36.488  1.00  0.00     0.000 C 
BRANCH   6   7
ATOM      7  C   UNL     1      22.142  49.479  37.857  1.00  0.00     0.000 C 
BRANCH   7   8
ATOM      8  C   UNL     1      23.567  48.911  37.962  1.00  0.00     0.006 C 
BRANCH   8   9
ATOM      9  C   UNL     1      23.679  47.778  38.992  1.00  0.00     0.053 C 
BRANCH   9  10
ATOM     10  C   UNL     1      23.664  48.335  40.380  1.00  0.00     0.041 C 
ATOM     11  O   UNL     1      22.720  48.055  41.165  1.00  0.00    -0.550 OA
ATOM     12  O   UNL     1      24.718  49.123  40.825  1.00  0.00    -0.550 OA
ENDBRANCH   9  10
ENDBRANCH   8   9
ENDBRANCH   7   8
ENDBRANCH   6   7
ENDBRANCH   5   6
ENDBRANCH   4   5
ENDBRANCH   3   4
ENDBRANCH   1   3
BRANCH   2  13
ATOM     13  C   UNL     1      24.481  45.347  33.070  1.00  0.00     0.027 C 
BRANCH  13  14
ATOM     14  C   UNL     1      24.907  46.399  32.038  1.00  0.00     0.004 C 
BRANCH  14  15
ATOM     15  C   UNL     1      23.862  47.517  31.888  1.00  0.00     0.000 C 
BRANCH  15  16
ATOM     16  C   UNL     1      24.478  48.922  31.994  1.00  0.00     0.000 C 
BRANCH  16  17
ATOM     17  C   UNL     1      25.389  49.078  33.220  1.00  0.00    -0.000 C 
BRANCH  17  18
ATOM     18  C   UNL     1      24.607  49.631  34.418  1.00  0.00    -0.000 C 
BRANCH  18  19
ATOM     19  C   UNL     1      23.617  50.716  33.976  1.00  0.00    -0.003 C 
ATOM     20  C   UNL     1      23.579  51.867  34.978  1.00  0.00     0.004 C 
ENDBRANCH  18  19
ENDBRANCH  17  18
ENDBRANCH  16  17
ENDBRANCH  15  16
ENDBRANCH  14  15
ENDBRANCH  13  14
ENDBRANCH   2  13
TORSDOF 15
ENDMDL
MODEL 9
REMARK VINA RESULT:    -4.178      3.183      6.233
REMARK INTER + INTRA:         -10.194
REMARK INTER:                  -7.517
REMARK INTRA:                  -2.677
REMARK UNBOUND:                -2.353
REMARK SMILES CCCCCCCCC=CCCCCCCCC(=O)[O-]
REMARK SMILES IDX 10 1 9 2 11 3 12 4 13 5 14 6 15 7 16 8 17 9 18 10 19 11
REMARK SMILES IDX 20 12 8 13 7 14 6 15 5 16 4 17 3 18 2 19 1 20
REMARK H PARENT
REMARK Flexibility Score: inf
ROOT
ATOM      1  C   UNL     1      23.881  45.799  37.573  1.00  0.00    -0.031 C 
ATOM      2  C   UNL     1      23.036  46.804  37.872  1.00  0.00    -0.031 C 
ENDROOT
BRANCH   1   3
ATOM      3  C   UNL     1      23.821  44.969  36.316  1.00  0.00     0.027 C 
BRANCH   3   4
ATOM      4  C   UNL     1      24.777  45.517  35.249  1.00  0.00     0.004 C 
BRANCH   4   5
ATOM      5  C   UNL     1      24.223  45.269  33.837  1.00  0.00     0.000 C 
BRANCH   5   6
ATOM      6  C   UNL     1      22.700  45.453  33.755  1.00  0.00     0.000 C 
BRANCH   6   7
ATOM      7  C   UNL     1      22.302  46.789  33.104  1.00  0.00     0.000 C 
BRANCH   7   8
ATOM      8  C   UNL     1      23.431  47.387  32.249  1.00  0.00     0.006 C 
BRANCH   8   9
ATOM      9  C   UNL     1      23.868  48.777  32.732  1.00  0.00     0.053 C 
BRANCH   9  10
ATOM     10  C   UNL     1      25.342  48.799  32.987  1.00  0.00     0.041 C 
ATOM     11  O   UNL     1      25.874  49.792  33.550  1.00  0.00    -0.550 OA
ATOM     12  O   UNL     1      26.123  47.702  32.647  1.00  0.00    -0.550 OA
ENDBRANCH   9  10
ENDBRANCH   8   9
ENDBRANCH   7   8
ENDBRANCH   6   7
ENDBRANCH   5   6
ENDBRANCH   4   5
ENDBRANCH   3   4
ENDBRANCH   1   3
BRANCH   2  13
ATOM     13  C   UNL     1      21.924  47.299  36.979  1.00  0.00     0.027 C 
BRANCH  13  14
ATOM     14  C   UNL     1      22.337  48.565  36.218  1.00  0.00     0.004 C 
BRANCH  14  15
ATOM     15  C   UNL     1      23.522  49.281  36.888  1.00  0.00     0.000 C 
BRANCH  15  16
ATOM     16  C   UNL     1      23.097  50.555  37.636  1.00  0.00     0.000 C 
BRANCH  16  17
ATOM     17  C   UNL     1      23.043  50.358  39.157  1.00  0.00    -0.000 C 
BRANCH  17  18
ATOM     18  C   UNL     1      21.592  50.272  39.648  1.00  0.00    -0.000 C 
BRANCH  18  19
ATOM     19  C   UNL     1      21.350  48.973  40.425  1.00  0.00    -0.003 C 
ATOM     20  C   UNL     1      22.634  48.476  41.083  1.00  0.00     0.004 C 
ENDBRANCH  18  19
ENDBRANCH  17  18
ENDBRANCH  16  17
ENDBRANCH  15  16
ENDBRANCH  14  15
ENDBRANCH  13  14
ENDBRANCH   2  13
TORSDOF 15
ENDMDL
