MODEL 1
REMARK VINA RESULT:    -6.033      0.000      0.000
REMARK INTER + INTRA:          -9.564
REMARK INTER:                  -9.208
REMARK INTRA:                  -0.356
REMARK UNBOUND:                -0.356
REMARK SMILES O=C([O-])CCCCCCCCC(=O)[O-]
REMARK SMILES IDX 7 1 6 2 5 3 4 4 2 5 1 6 3 7 8 8 9 9 10 10 11 11 12 12 13 13
REMARK SMILES IDX 14 14
REMARK H PARENT
REMARK Flexibility Score: inf
ROOT
ATOM      1  C   UNL     1      -5.283   6.476   2.912  1.00  0.00     0.000 C 
ENDROOT
BRANCH   1   2
ATOM      2  C   UNL     1      -5.728   6.417   4.384  1.00  0.00     0.000 C 
BRANCH   2   3
ATOM      3  C   UNL     1      -5.112   5.228   5.138  1.00  0.00     0.006 C 
BRANCH   3   4
ATOM      4  C   UNL     1      -3.671   4.933   4.701  1.00  0.00     0.053 C 
BRANCH   4   5
ATOM      5  C   UNL     1      -3.251   3.577   5.173  1.00  0.00     0.041 C 
ATOM      6  O   UNL     1      -3.303   2.589   4.393  1.00  0.00    -0.550 OA
ATOM      7  O   UNL     1      -2.753   3.412   6.460  1.00  0.00    -0.550 OA
ENDBRANCH   4   5
ENDBRANCH   3   4
ENDBRANCH   2   3
ENDBRANCH   1   2
BRANCH   1   8
ATOM      8  C   UNL     1      -6.468   6.524   1.929  1.00  0.00     0.000 C 
BRANCH   8   9
ATOM      9  C   UNL     1      -7.780   5.918   2.458  1.00  0.00     0.000 C 
BRANCH   9  10
ATOM     10  C   UNL     1      -8.915   5.943   1.419  1.00  0.00     0.006 C 
BRANCH  10  11
ATOM     11  C   UNL     1     -10.278   6.243   2.058  1.00  0.00     0.053 C 
BRANCH  11  12
ATOM     12  C   UNL     1     -10.461   5.504   3.348  1.00  0.00     0.041 C 
ATOM     13  O   UNL     1     -10.402   6.119   4.445  1.00  0.00    -0.550 OA
ATOM     14  O   UNL     1     -10.734   4.142   3.337  1.00  0.00    -0.550 OA
ENDBRANCH  11  12
ENDBRANCH  10  11
ENDBRANCH   9  10
ENDBRANCH   8   9
ENDBRANCH   1   8
TORSDOF 9
ENDMDL
MODEL 2
REMARK VINA RESULT:    -5.982      3.197      4.821
REMARK INTER + INTRA:          -9.486
REMARK INTER:                  -9.211
REMARK INTRA:                  -0.276
REMARK UNBOUND:                -0.356
REMARK SMILES O=C([O-])CCCCCCCCC(=O)[O-]
REMARK SMILES IDX 7 1 6 2 5 3 4 4 2 5 1 6 3 7 8 8 9 9 10 10 11 11 12 12 13 13
REMARK SMILES IDX 14 14
REMARK H PARENT
REMARK Flexibility Score: inf
ROOT
ATOM      1  C   UNL     1      -3.255   3.393   5.929  1.00  0.00     0.000 C 
ENDROOT
BRANCH   1   2
ATOM      2  C   UNL     1      -3.238   3.095   7.439  1.00  0.00     0.000 C 
BRANCH   2   3
ATOM      3  C   UNL     1      -2.490   1.794   7.773  1.00  0.00     0.006 C 
BRANCH   3   4
ATOM      4  C   UNL     1      -2.328   1.576   9.283  1.00  0.00     0.053 C 
BRANCH   4   5
ATOM      5  C   UNL     1      -0.886   1.662   9.670  1.00  0.00     0.041 C 
ATOM      6  O   UNL     1       0.010   1.665   8.784  1.00  0.00    -0.550 OA
ATOM      7  O   UNL     1      -0.531   1.788  11.008  1.00  0.00    -0.550 OA
ENDBRANCH   4   5
ENDBRANCH   3   4
ENDBRANCH   2   3
ENDBRANCH   1   2
BRANCH   1   8
ATOM      8  C   UNL     1      -4.295   4.460   5.541  1.00  0.00     0.000 C 
BRANCH   8   9
ATOM      9  C   UNL     1      -3.775   5.572   4.612  1.00  0.00     0.000 C 
BRANCH   9  10
ATOM     10  C   UNL     1      -4.887   6.517   4.125  1.00  0.00     0.006 C 
BRANCH  10  11
ATOM     11  C   UNL     1      -6.286   5.923   4.341  1.00  0.00     0.053 C 
BRANCH  11  12
ATOM     12  C   UNL     1      -7.087   5.916   3.075  1.00  0.00     0.041 C 
ATOM     13  O   UNL     1      -6.568   6.309   1.996  1.00  0.00    -0.550 OA
ATOM     14  O   UNL     1      -8.393   5.442   3.079  1.00  0.00    -0.550 OA
ENDBRANCH  11  12
ENDBRANCH  10  11
ENDBRANCH   9  10
ENDBRANCH   8   9
ENDBRANCH   1   8
TORSDOF 9
ENDMDL
MODEL 3
REMARK VINA RESULT:    -5.939      7.635      8.931
REMARK INTER + INTRA:          -9.420
REMARK INTER:                  -9.027
REMARK INTRA:                  -0.393
REMARK UNBOUND:                -0.356
REMARK SMILES O=C([O-])CCCCCCCCC(=O)[O-]
REMARK SMILES IDX 7 1 6 2 5 3 4 4 2 5 1 6 3 7 8 8 9 9 10 10 11 11 12 12 13 13
REMARK SMILES IDX 14 14
REMARK H PARENT
REMARK Flexibility Score: inf
ROOT
ATOM      1  C   UNL     1      -4.091  -0.047  -0.276  1.00  0.00     0.000 C 
ENDROOT
BRANCH   1   2
ATOM      2  C   UNL     1      -5.016   0.410   0.865  1.00  0.00     0.000 C 
BRANCH   2   3
ATOM      3  C   UNL     1      -4.297   0.457   2.223  1.00  0.00     0.006 C 
BRANCH   3   4
ATOM      4  C   UNL     1      -5.239   0.181   3.402  1.00  0.00     0.053 C 
BRANCH   4   5
ATOM      5  C   UNL     1      -4.877  -1.107   4.069  1.00  0.00     0.041 C 
ATOM      6  O   UNL     1      -3.798  -1.691   3.779  1.00  0.00    -0.550 OA
ATOM      7  O   UNL     1      -5.706  -1.641   5.047  1.00  0.00    -0.550 OA
ENDBRANCH   4   5
ENDBRANCH   3   4
ENDBRANCH   2   3
ENDBRANCH   1   2
BRANCH   1   8
ATOM      8  C   UNL     1      -4.720   0.141  -1.669  1.00  0.00     0.000 C 
BRANCH   8   9
ATOM      9  C   UNL     1      -3.716   0.358  -2.816  1.00  0.00     0.000 C 
BRANCH   9  10
ATOM     10  C   UNL     1      -3.422  -0.928  -3.607  1.00  0.00     0.006 C 
BRANCH  10  11
ATOM     11  C   UNL     1      -4.543  -1.966  -3.462  1.00  0.00     0.053 C 
BRANCH  11  12
ATOM     12  C   UNL     1      -4.009  -3.305  -3.054  1.00  0.00     0.041 C 
ATOM     13  O   UNL     1      -2.785  -3.446  -2.794  1.00  0.00    -0.550 OA
ATOM     14  O   UNL     1      -4.870  -4.388  -2.926  1.00  0.00    -0.550 OA
ENDBRANCH  11  12
ENDBRANCH  10  11
ENDBRANCH   9  10
ENDBRANCH   8   9
ENDBRANCH   1   8
TORSDOF 9
ENDMDL
MODEL 4
REMARK VINA RESULT:    -5.933      3.269      8.163
REMARK INTER + INTRA:          -9.411
REMARK INTER:                  -9.163
REMARK INTRA:                  -0.248
REMARK UNBOUND:                -0.356
REMARK SMILES O=C([O-])CCCCCCCCC(=O)[O-]
REMARK SMILES IDX 7 1 6 2 5 3 4 4 2 5 1 6 3 7 8 8 9 9 10 10 11 11 12 12 13 13
REMARK SMILES IDX 14 14
REMARK H PARENT
REMARK Flexibility Score: inf
ROOT
ATOM      1  C   UNL     1      -4.282   4.440   5.515  1.00  0.00     0.000 C 
ENDROOT
BRANCH   1   2
ATOM      2  C   UNL     1      -3.678   5.545   4.630  1.00  0.00     0.000 C 
BRANCH   2   3
ATOM      3  C   UNL     1      -4.753   6.413   3.957  1.00  0.00     0.006 C 
BRANCH   3   4
ATOM      4  C   UNL     1      -6.177   6.008   4.357  1.00  0.00     0.053 C 
BRANCH   4   5
ATOM      5  C   UNL     1      -7.053   5.916   3.148  1.00  0.00     0.041 C 
ATOM      6  O   UNL     1      -8.215   5.437   3.241  1.00  0.00    -0.550 OA
ATOM      7  O   UNL     1      -6.606   6.404   1.927  1.00  0.00    -0.550 OA
ENDBRANCH   4   5
ENDBRANCH   3   4
ENDBRANCH   2   3
ENDBRANCH   1   2
BRANCH   1   8
ATOM      8  C   UNL     1      -3.246   3.386   5.948  1.00  0.00     0.000 C 
BRANCH   8   9
ATOM      9  C   UNL     1      -3.224   3.074   7.455  1.00  0.00     0.000 C 
BRANCH   9  10
ATOM     10  C   UNL     1      -2.525   1.742   7.782  1.00  0.00     0.006 C 
BRANCH  10  11
ATOM     11  C   UNL     1      -1.992   1.706   9.220  1.00  0.00     0.053 C 
BRANCH  11  12
ATOM     12  C   UNL     1      -0.685   0.979   9.309  1.00  0.00     0.041 C 
ATOM     13  O   UNL     1       0.351   1.473   8.791  1.00  0.00    -0.550 OA
ATOM     14  O   UNL     1      -0.604  -0.226   9.996  1.00  0.00    -0.550 OA
ENDBRANCH  11  12
ENDBRANCH  10  11
ENDBRANCH   9  10
ENDBRANCH   8   9
ENDBRANCH   1   8
TORSDOF 9
ENDMDL
MODEL 5
REMARK VINA RESULT:    -5.932      2.597      6.181
REMARK INTER + INTRA:          -9.410
REMARK INTER:                  -8.868
REMARK INTRA:                  -0.542
REMARK UNBOUND:                -0.356
REMARK SMILES O=C([O-])CCCCCCCCC(=O)[O-]
REMARK SMILES IDX 7 1 6 2 5 3 4 4 2 5 1 6 3 7 8 8 9 9 10 10 11 11 12 12 13 13
REMARK SMILES IDX 14 14
REMARK H PARENT
REMARK Flexibility Score: inf
ROOT
ATOM      1  C   UNL     1      -4.684   4.921   5.433  1.00  0.00     0.000 C 
ENDROOT
BRANCH   1   2
ATOM      2  C   UNL     1      -4.242   5.991   4.420  1.00  0.00     0.000 C 
BRANCH   2   3
ATOM      3  C   UNL     1      -5.359   6.365   3.433  1.00  0.00     0.006 C 
BRANCH   3   4
ATOM      4  C   UNL     1      -6.747   5.922   3.914  1.00  0.00     0.053 C 
BRANCH   4   5
ATOM      5  C   UNL     1      -7.706   5.875   2.767  1.00  0.00     0.041 C 
ATOM      6  O   UNL     1      -7.346   6.261   1.623  1.00  0.00    -0.550 OA
ATOM      7  O   UNL     1      -8.983   5.359   2.949  1.00  0.00    -0.550 OA
ENDBRANCH   4   5
ENDBRANCH   3   4
ENDBRANCH   2   3
ENDBRANCH   1   2
BRANCH   1   8
ATOM      8  C   UNL     1      -3.604   3.853   5.687  1.00  0.00     0.000 C 
BRANCH   8   9
ATOM      9  C   UNL     1      -3.099   3.123   4.429  1.00  0.00     0.000 C 
BRANCH   9  10
ATOM     10  C   UNL     1      -3.647   1.690   4.306  1.00  0.00     0.006 C 
BRANCH  10  11
ATOM     11  C   UNL     1      -4.634   1.547   3.140  1.00  0.00     0.053 C 
BRANCH  11  12
ATOM     12  C   UNL     1      -4.416   0.273   2.383  1.00  0.00     0.041 C 
ATOM     13  O   UNL     1      -3.993  -0.753   2.979  1.00  0.00    -0.550 OA
ATOM     14  O   UNL     1      -4.714   0.208   1.028  1.00  0.00    -0.550 OA
ENDBRANCH  11  12
ENDBRANCH  10  11
ENDBRANCH   9  10
ENDBRANCH   8   9
ENDBRANCH   1   8
TORSDOF 9
ENDMDL
MODEL 6
REMARK VINA RESULT:    -5.897      7.674      9.245
REMARK INTER + INTRA:          -9.357
REMARK INTER:                  -8.976
REMARK INTRA:                  -0.380
REMARK UNBOUND:                -0.356
REMARK SMILES O=C([O-])CCCCCCCCC(=O)[O-]
REMARK SMILES IDX 7 1 6 2 5 3 4 4 2 5 1 6 3 7 8 8 9 9 10 10 11 11 12 12 13 13
REMARK SMILES IDX 14 14
REMARK H PARENT
REMARK Flexibility Score: inf
ROOT
ATOM      1  C   UNL     1      -4.710   0.052  -1.732  1.00  0.00     0.000 C 
ENDROOT
BRANCH   1   2
ATOM      2  C   UNL     1      -3.654   0.219  -2.839  1.00  0.00     0.000 C 
BRANCH   2   3
ATOM      3  C   UNL     1      -3.529  -1.028  -3.728  1.00  0.00     0.006 C 
BRANCH   3   4
ATOM      4  C   UNL     1      -4.641  -2.053  -3.468  1.00  0.00     0.053 C 
BRANCH   4   5
ATOM      5  C   UNL     1      -4.057  -3.350  -3.008  1.00  0.00     0.041 C 
ATOM      6  O   UNL     1      -4.784  -4.375  -2.913  1.00  0.00    -0.550 OA
ATOM      7  O   UNL     1      -2.699  -3.442  -2.729  1.00  0.00    -0.550 OA
ENDBRANCH   4   5
ENDBRANCH   3   4
ENDBRANCH   2   3
ENDBRANCH   1   2
BRANCH   1   8
ATOM      8  C   UNL     1      -4.097   0.005  -0.320  1.00  0.00     0.000 C 
BRANCH   8   9
ATOM      9  C   UNL     1      -5.012   0.516   0.806  1.00  0.00     0.000 C 
BRANCH   9  10
ATOM     10  C   UNL     1      -4.366   0.412   2.199  1.00  0.00     0.006 C 
BRANCH  10  11
ATOM     11  C   UNL     1      -5.383   0.029   3.282  1.00  0.00     0.053 C 
BRANCH  11  12
ATOM     12  C   UNL     1      -4.915  -1.141   4.093  1.00  0.00     0.041 C 
ATOM     13  O   UNL     1      -3.795  -1.667   3.857  1.00  0.00    -0.550 OA
ATOM     14  O   UNL     1      -5.698  -1.625   5.133  1.00  0.00    -0.550 OA
ENDBRANCH  11  12
ENDBRANCH  10  11
ENDBRANCH   9  10
ENDBRANCH   8   9
ENDBRANCH   1   8
TORSDOF 9
ENDMDL
MODEL 7
REMARK VINA RESULT:    -5.887      2.460      7.553
REMARK INTER + INTRA:          -9.340
REMARK INTER:                  -9.075
REMARK INTRA:                  -0.265
REMARK UNBOUND:                -0.356
REMARK SMILES O=C([O-])CCCCCCCCC(=O)[O-]
REMARK SMILES IDX 7 1 6 2 5 3 4 4 2 5 1 6 3 7 8 8 9 9 10 10 11 11 12 12 13 13
REMARK SMILES IDX 14 14
REMARK H PARENT
REMARK Flexibility Score: inf
ROOT
ATOM      1  C   UNL     1      -3.885   5.516   4.724  1.00  0.00     0.000 C 
ENDROOT
BRANCH   1   2
ATOM      2  C   UNL     1      -5.152   6.289   4.315  1.00  0.00     0.000 C 
BRANCH   2   3
ATOM      3  C   UNL     1      -6.192   5.391   3.628  1.00  0.00     0.006 C 
BRANCH   3   4
ATOM      4  C   UNL     1      -6.844   6.063   2.413  1.00  0.00     0.053 C 
BRANCH   4   5
ATOM      5  C   UNL     1      -8.335   6.000   2.519  1.00  0.00     0.041 C 
ATOM      6  O   UNL     1      -9.043   5.950   1.478  1.00  0.00    -0.550 OA
ATOM      7  O   UNL     1      -8.942   5.947   3.767  1.00  0.00    -0.550 OA
ENDBRANCH   4   5
ENDBRANCH   3   4
ENDBRANCH   2   3
ENDBRANCH   1   2
BRANCH   1   8
ATOM      8  C   UNL     1      -4.188   4.098   5.242  1.00  0.00     0.000 C 
BRANCH   8   9
ATOM      9  C   UNL     1      -3.005   3.383   5.919  1.00  0.00     0.000 C 
BRANCH   9  10
ATOM     10  C   UNL     1      -3.262   3.070   7.403  1.00  0.00     0.006 C 
BRANCH  10  11
ATOM     11  C   UNL     1      -2.640   1.733   7.829  1.00  0.00     0.053 C 
BRANCH  11  12
ATOM     12  C   UNL     1      -1.886   1.858   9.117  1.00  0.00     0.041 C 
ATOM     13  O   UNL     1      -2.480   1.696  10.216  1.00  0.00    -0.550 OA
ATOM     14  O   UNL     1      -0.521   2.115   9.103  1.00  0.00    -0.550 OA
ENDBRANCH  11  12
ENDBRANCH  10  11
ENDBRANCH   9  10
ENDBRANCH   8   9
ENDBRANCH   1   8
TORSDOF 9
ENDMDL
MODEL 8
REMARK VINA RESULT:    -5.816      2.452      3.956
REMARK INTER + INTRA:          -9.233
REMARK INTER:                  -8.715
REMARK INTRA:                  -0.518
REMARK UNBOUND:                -0.356
REMARK SMILES O=C([O-])CCCCCCCCC(=O)[O-]
REMARK SMILES IDX 7 1 6 2 5 3 4 4 2 5 1 6 3 7 8 8 9 9 10 10 11 11 12 12 13 13
REMARK SMILES IDX 14 14
REMARK H PARENT
REMARK Flexibility Score: inf
ROOT
ATOM      1  C   UNL     1      -3.657   3.990   5.681  1.00  0.00     0.000 C 
ENDROOT
BRANCH   1   2
ATOM      2  C   UNL     1      -3.051   3.224   4.492  1.00  0.00     0.000 C 
BRANCH   2   3
ATOM      3  C   UNL     1      -3.621   1.804   4.355  1.00  0.00     0.006 C 
BRANCH   3   4
ATOM      4  C   UNL     1      -4.585   1.664   3.170  1.00  0.00     0.053 C 
BRANCH   4   5
ATOM      5  C   UNL     1      -4.391   0.345   2.492  1.00  0.00     0.041 C 
ATOM      6  O   UNL     1      -4.523   0.249   1.242  1.00  0.00    -0.550 OA
ATOM      7  O   UNL     1      -4.015  -0.769   3.232  1.00  0.00    -0.550 OA
ENDBRANCH   4   5
ENDBRANCH   3   4
ENDBRANCH   2   3
ENDBRANCH   1   2
BRANCH   1   8
ATOM      8  C   UNL     1      -4.793   4.943   5.264  1.00  0.00     0.000 C 
BRANCH   8   9
ATOM      9  C   UNL     1      -4.498   5.809   4.026  1.00  0.00     0.000 C 
BRANCH   9  10
ATOM     10  C   UNL     1      -5.662   6.746   3.658  1.00  0.00     0.006 C 
BRANCH  10  11
ATOM     11  C   UNL     1      -6.295   6.379   2.309  1.00  0.00     0.053 C 
BRANCH  11  12
ATOM     12  C   UNL     1      -7.745   6.030   2.453  1.00  0.00     0.041 C 
ATOM     13  O   UNL     1      -8.504   6.050   1.448  1.00  0.00    -0.550 OA
ATOM     14  O   UNL     1      -8.250   5.647   3.689  1.00  0.00    -0.550 OA
ENDBRANCH  11  12
ENDBRANCH  10  11
ENDBRANCH   9  10
ENDBRANCH   8   9
ENDBRANCH   1   8
TORSDOF 9
ENDMDL
MODEL 9
REMARK VINA RESULT:    -5.777     14.966     17.034
REMARK INTER + INTRA:          -9.172
REMARK INTER:                  -8.677
REMARK INTRA:                  -0.495
REMARK UNBOUND:                -0.356
REMARK SMILES O=C([O-])CCCCCCCCC(=O)[O-]
REMARK SMILES IDX 7 1 6 2 5 3 4 4 2 5 1 6 3 7 8 8 9 9 10 10 11 11 12 12 13 13
REMARK SMILES IDX 14 14
REMARK H PARENT
REMARK Flexibility Score: inf
ROOT
ATOM      1  C   UNL     1       3.459  -3.141  -8.346  1.00  0.00     0.000 C 
ENDROOT
BRANCH   1   2
ATOM      2  C   UNL     1       2.279  -3.889  -7.701  1.00  0.00     0.000 C 
BRANCH   2   3
ATOM      3  C   UNL     1       0.921  -3.450  -8.273  1.00  0.00     0.006 C 
BRANCH   3   4
ATOM      4  C   UNL     1      -0.262  -4.150  -7.592  1.00  0.00     0.053 C 
BRANCH   4   5
ATOM      5  C   UNL     1      -0.215  -3.934  -6.113  1.00  0.00     0.041 C 
ATOM      6  O   UNL     1      -0.099  -4.916  -5.332  1.00  0.00    -0.550 OA
ATOM      7  O   UNL     1      -0.249  -2.645  -5.597  1.00  0.00    -0.550 OA
ENDBRANCH   4   5
ENDBRANCH   3   4
ENDBRANCH   2   3
ENDBRANCH   1   2
BRANCH   1   8
ATOM      8  C   UNL     1       4.829  -3.660  -7.871  1.00  0.00     0.000 C 
BRANCH   8   9
ATOM      9  C   UNL     1       5.477  -2.847  -6.735  1.00  0.00     0.000 C 
BRANCH   9  10
ATOM     10  C   UNL     1       4.692  -1.570  -6.388  1.00  0.00     0.006 C 
BRANCH  10  11
ATOM     11  C   UNL     1       4.220  -1.562  -4.928  1.00  0.00     0.053 C 
BRANCH  11  12
ATOM     12  C   UNL     1       5.358  -1.346  -3.978  1.00  0.00     0.041 C 
ATOM     13  O   UNL     1       6.279  -0.538  -4.267  1.00  0.00    -0.550 OA
ATOM     14  O   UNL     1       5.382  -2.010  -2.758  1.00  0.00    -0.550 OA
ENDBRANCH  11  12
ENDBRANCH  10  11
ENDBRANCH   9  10
ENDBRANCH   8   9
ENDBRANCH   1   8
TORSDOF 9
ENDMDL
