MODEL 1
REMARK VINA RESULT:    -6.596      0.000      0.000
REMARK INTER + INTRA:          -6.596
REMARK INTER:                  -6.596
REMARK INTRA:                   0.000
REMARK UNBOUND:                 0.000
REMARK SMILES Cc1cc2cc3c(C)cc(=O)oc3c(C)c2o1
REMARK SMILES IDX 8 1 7 2 9 3 10 4 11 5 12 6 13 7 6 8 5 9 4 10 3 11 2 12 17 13
REMARK SMILES IDX 16 14 14 15 15 16 1 17
REMARK H PARENT
REMARK Flexibility Score: inf
ROOT
ATOM      1  C   UNL     1     175.267 173.015 181.455  1.00  0.00     0.045 C 
ATOM      2  C   UNL     1     173.943 173.157 180.750  1.00  0.00    -0.033 A 
ATOM      3  C   UNL     1     172.772 173.279 181.510  1.00  0.00     0.098 A 
ATOM      4  C   UNL     1     171.541 173.412 180.865  1.00  0.00     0.336 A 
ATOM      5  O   UNL     1     170.487 173.523 181.543  1.00  0.00    -0.246 OA
ATOM      6  O   UNL     1     171.472 173.423 179.540  1.00  0.00    -0.422 OA
ATOM      7  C   UNL     1     172.543 173.310 178.759  1.00  0.00     0.145 A 
ATOM      8  C   UNL     1     173.843 173.173 179.341  1.00  0.00     0.022 A 
ATOM      9  C   UNL     1     174.978 173.064 178.501  1.00  0.00     0.024 A 
ATOM     10  C   UNL     1     174.780 173.099 177.125  1.00  0.00     0.022 A 
ATOM     11  C   UNL     1     175.684 173.028 176.091  1.00  0.00     0.054 A 
ATOM     12  C   UNL     1     174.901 173.122 174.947  1.00  0.00     0.102 A 
ATOM     13  O   UNL     1     173.624 173.245 175.260  1.00  0.00    -0.461 OA
ATOM     14  C   UNL     1     173.536 173.230 176.568  1.00  0.00     0.140 A 
ATOM     15  C   UNL     1     172.384 173.329 177.351  1.00  0.00     0.036 A 
ATOM     16  C   UNL     1     171.030 173.502 176.722  1.00  0.00     0.052 C 
ATOM     17  C   UNL     1     175.416 173.113 173.547  1.00  0.00     0.087 C 
ENDROOT
TORSDOF 0
ENDMDL
MODEL 2
REMARK VINA RESULT:    -6.548      1.851      3.215
REMARK INTER + INTRA:          -6.548
REMARK INTER:                  -6.548
REMARK INTRA:                   0.000
REMARK UNBOUND:                 0.000
REMARK SMILES Cc1cc2cc3c(C)cc(=O)oc3c(C)c2o1
REMARK SMILES IDX 8 1 7 2 9 3 10 4 11 5 12 6 13 7 6 8 5 9 4 10 3 11 2 12 17 13
REMARK SMILES IDX 16 14 14 15 15 16 1 17
REMARK H PARENT
REMARK Flexibility Score: inf
ROOT
ATOM      1  C   UNL     1     171.147 173.369 181.443  1.00  0.00     0.045 C 
ATOM      2  C   UNL     1     172.482 173.216 180.762  1.00  0.00    -0.033 A 
ATOM      3  C   UNL     1     173.637 173.078 181.543  1.00  0.00     0.098 A 
ATOM      4  C   UNL     1     174.878 172.934 180.921  1.00  0.00     0.336 A 
ATOM      5  O   UNL     1     175.918 172.809 181.619  1.00  0.00    -0.246 OA
ATOM      6  O   UNL     1     174.973 172.928 179.598  1.00  0.00    -0.422 OA
ATOM      7  C   UNL     1     173.918 173.056 178.797  1.00  0.00     0.145 A 
ATOM      8  C   UNL     1     172.609 173.205 179.355  1.00  0.00     0.022 A 
ATOM      9  C   UNL     1     171.491 173.330 178.494  1.00  0.00     0.024 A 
ATOM     10  C   UNL     1     171.715 173.299 177.122  1.00  0.00     0.022 A 
ATOM     11  C   UNL     1     170.832 173.384 176.072  1.00  0.00     0.054 A 
ATOM     12  C   UNL     1     171.635 173.286 174.942  1.00  0.00     0.102 A 
ATOM     13  O   UNL     1     172.904 173.148 175.279  1.00  0.00    -0.461 OA
ATOM     14  C   UNL     1     172.967 173.157 176.589  1.00  0.00     0.140 A 
ATOM     15  C   UNL     1     174.104 173.042 177.392  1.00  0.00     0.036 A 
ATOM     16  C   UNL     1     175.467 172.857 176.788  1.00  0.00     0.052 C 
ATOM     17  C   UNL     1     171.146 173.308 173.533  1.00  0.00     0.087 C 
ENDROOT
TORSDOF 0
ENDMDL
MODEL 3
REMARK VINA RESULT:    -6.511      2.841      5.475
REMARK INTER + INTRA:          -6.511
REMARK INTER:                  -6.511
REMARK INTRA:                   0.000
REMARK UNBOUND:                 0.000
REMARK SMILES Cc1cc2cc3c(C)cc(=O)oc3c(C)c2o1
REMARK SMILES IDX 8 1 7 2 9 3 10 4 11 5 12 6 13 7 6 8 5 9 4 10 3 11 2 12 17 13
REMARK SMILES IDX 16 14 14 15 15 16 1 17
REMARK H PARENT
REMARK Flexibility Score: inf
ROOT
ATOM      1  C   UNL     1     175.456 169.415 175.156  1.00  0.00     0.045 C 
ATOM      2  C   UNL     1     174.000 169.802 175.158  1.00  0.00    -0.033 A 
ATOM      3  C   UNL     1     173.158 169.304 174.156  1.00  0.00     0.098 A 
ATOM      4  C   UNL     1     171.807 169.656 174.151  1.00  0.00     0.336 A 
ATOM      5  O   UNL     1     171.047 169.210 173.253  1.00  0.00    -0.246 OA
ATOM      6  O   UNL     1     171.316 170.460 175.085  1.00  0.00    -0.422 OA
ATOM      7  C   UNL     1     172.060 170.969 176.065  1.00  0.00     0.145 A 
ATOM      8  C   UNL     1     173.453 170.654 176.143  1.00  0.00     0.022 A 
ATOM      9  C   UNL     1     174.234 171.194 177.195  1.00  0.00     0.024 A 
ATOM     10  C   UNL     1     173.604 172.016 178.122  1.00  0.00     0.022 A 
ATOM     11  C   UNL     1     174.103 172.655 179.233  1.00  0.00     0.054 A 
ATOM     12  C   UNL     1     173.006 173.320 179.767  1.00  0.00     0.102 A 
ATOM     13  O   UNL     1     171.925 173.098 179.041  1.00  0.00    -0.461 OA
ATOM     14  C   UNL     1     172.271 172.317 178.047  1.00  0.00     0.140 A 
ATOM     15  C   UNL     1     171.459 171.822 177.024  1.00  0.00     0.036 A 
ATOM     16  C   UNL     1     169.991 172.140 176.974  1.00  0.00     0.052 C 
ATOM     17  C   UNL     1     173.021 174.154 181.003  1.00  0.00     0.087 C 
ENDROOT
TORSDOF 0
ENDMDL
MODEL 4
REMARK VINA RESULT:    -6.495      2.741      6.022
REMARK INTER + INTRA:          -6.495
REMARK INTER:                  -6.495
REMARK INTRA:                   0.000
REMARK UNBOUND:                 0.000
REMARK SMILES Cc1cc2cc3c(C)cc(=O)oc3c(C)c2o1
REMARK SMILES IDX 8 1 7 2 9 3 10 4 11 5 12 6 13 7 6 8 5 9 4 10 3 11 2 12 17 13
REMARK SMILES IDX 16 14 14 15 15 16 1 17
REMARK H PARENT
REMARK Flexibility Score: inf
ROOT
ATOM      1  C   UNL     1     170.869 176.903 175.133  1.00  0.00     0.045 C 
ATOM      2  C   UNL     1     172.332 176.542 175.135  1.00  0.00    -0.033 A 
ATOM      3  C   UNL     1     173.162 177.042 174.124  1.00  0.00     0.098 A 
ATOM      4  C   UNL     1     174.519 176.714 174.119  1.00  0.00     0.336 A 
ATOM      5  O   UNL     1     175.268 177.162 173.212  1.00  0.00    -0.246 OA
ATOM      6  O   UNL     1     175.027 175.932 175.062  1.00  0.00    -0.422 OA
ATOM      7  C   UNL     1     174.296 175.421 176.050  1.00  0.00     0.145 A 
ATOM      8  C   UNL     1     172.897 175.713 176.129  1.00  0.00     0.022 A 
ATOM      9  C   UNL     1     172.130 175.173 177.191  1.00  0.00     0.024 A 
ATOM     10  C   UNL     1     172.777 174.375 178.127  1.00  0.00     0.022 A 
ATOM     11  C   UNL     1     172.292 173.742 179.247  1.00  0.00     0.054 A 
ATOM     12  C   UNL     1     173.404 173.103 179.786  1.00  0.00     0.102 A 
ATOM     13  O   UNL     1     174.478 173.334 179.054  1.00  0.00    -0.461 OA
ATOM     14  C   UNL     1     174.115 174.096 178.050  1.00  0.00     0.140 A 
ATOM     15  C   UNL     1     174.914 174.593 177.018  1.00  0.00     0.036 A 
ATOM     16  C   UNL     1     176.388 174.300 176.967  1.00  0.00     0.052 C 
ATOM     17  C   UNL     1     173.407 172.285 181.033  1.00  0.00     0.087 C 
ENDROOT
TORSDOF 0
ENDMDL
MODEL 5
REMARK VINA RESULT:    -6.295      2.107      3.241
REMARK INTER + INTRA:          -6.295
REMARK INTER:                  -6.295
REMARK INTRA:                   0.000
REMARK UNBOUND:                 0.000
REMARK SMILES Cc1cc2cc3c(C)cc(=O)oc3c(C)c2o1
REMARK SMILES IDX 8 1 7 2 9 3 10 4 11 5 12 6 13 7 6 8 5 9 4 10 3 11 2 12 17 13
REMARK SMILES IDX 16 14 14 15 15 16 1 17
REMARK H PARENT
REMARK Flexibility Score: inf
ROOT
ATOM      1  C   UNL     1     171.060 173.377 180.836  1.00  0.00     0.045 C 
ATOM      2  C   UNL     1     172.477 173.363 180.323  1.00  0.00    -0.033 A 
ATOM      3  C   UNL     1     173.513 172.983 181.185  1.00  0.00     0.098 A 
ATOM      4  C   UNL     1     174.828 172.966 180.717  1.00  0.00     0.336 A 
ATOM      5  O   UNL     1     175.763 172.625 181.489  1.00  0.00    -0.246 OA
ATOM      6  O   UNL     1     175.104 173.307 179.466  1.00  0.00    -0.422 OA
ATOM      7  C   UNL     1     174.169 173.678 178.595  1.00  0.00     0.145 A 
ATOM      8  C   UNL     1     172.795 173.719 178.994  1.00  0.00     0.022 A 
ATOM      9  C   UNL     1     171.806 174.106 178.056  1.00  0.00     0.024 A 
ATOM     10  C   UNL     1     172.216 174.431 176.768  1.00  0.00     0.022 A 
ATOM     11  C   UNL     1     171.485 174.821 175.670  1.00  0.00     0.054 A 
ATOM     12  C   UNL     1     172.437 174.998 174.672  1.00  0.00     0.102 A 
ATOM     13  O   UNL     1     173.647 174.732 175.126  1.00  0.00    -0.461 OA
ATOM     14  C   UNL     1     173.530 174.392 176.387  1.00  0.00     0.140 A 
ATOM     15  C   UNL     1     174.546 174.029 177.275  1.00  0.00     0.036 A 
ATOM     16  C   UNL     1     175.980 173.964 176.830  1.00  0.00     0.052 C 
ATOM     17  C   UNL     1     172.145 175.407 173.268  1.00  0.00     0.087 C 
ENDROOT
TORSDOF 0
ENDMDL
MODEL 6
REMARK VINA RESULT:    -6.097      1.388      1.410
REMARK INTER + INTRA:          -6.097
REMARK INTER:                  -6.097
REMARK INTRA:                   0.000
REMARK UNBOUND:                 0.000
REMARK SMILES Cc1cc2cc3c(C)cc(=O)oc3c(C)c2o1
REMARK SMILES IDX 8 1 7 2 9 3 10 4 11 5 12 6 13 7 6 8 5 9 4 10 3 11 2 12 17 13
REMARK SMILES IDX 16 14 14 15 15 16 1 17
REMARK H PARENT
REMARK Flexibility Score: inf
ROOT
ATOM      1  C   UNL     1     175.625 173.001 180.454  1.00  0.00     0.045 C 
ATOM      2  C   UNL     1     174.171 172.977 180.059  1.00  0.00    -0.033 A 
ATOM      3  C   UNL     1     173.200 173.344 181.000  1.00  0.00     0.098 A 
ATOM      4  C   UNL     1     171.850 173.326 180.641  1.00  0.00     0.336 A 
ATOM      5  O   UNL     1     170.975 173.655 181.483  1.00  0.00    -0.246 OA
ATOM      6  O   UNL     1     171.482 172.963 179.420  1.00  0.00    -0.422 OA
ATOM      7  C   UNL     1     172.351 172.602 178.479  1.00  0.00     0.145 A 
ATOM      8  C   UNL     1     173.753 172.597 178.764  1.00  0.00     0.022 A 
ATOM      9  C   UNL     1     174.671 172.220 177.753  1.00  0.00     0.024 A 
ATOM     10  C   UNL     1     174.164 171.870 176.507  1.00  0.00     0.022 A 
ATOM     11  C   UNL     1     174.812 171.483 175.357  1.00  0.00     0.054 A 
ATOM     12  C   UNL     1     173.787 171.273 174.442  1.00  0.00     0.102 A 
ATOM     13  O   UNL     1     172.611 171.517 174.991  1.00  0.00    -0.461 OA
ATOM     14  C   UNL     1     172.823 171.875 176.234  1.00  0.00     0.140 A 
ATOM     15  C   UNL     1     171.876 172.226 177.199  1.00  0.00     0.036 A 
ATOM     16  C   UNL     1     170.409 172.254 176.873  1.00  0.00     0.052 C 
ATOM     17  C   UNL     1     173.971 170.852 173.023  1.00  0.00     0.087 C 
ENDROOT
TORSDOF 0
ENDMDL
MODEL 7
REMARK VINA RESULT:    -5.995      2.288      5.652
REMARK INTER + INTRA:          -5.995
REMARK INTER:                  -5.995
REMARK INTRA:                   0.000
REMARK UNBOUND:                 0.000
REMARK SMILES Cc1cc2cc3c(C)cc(=O)oc3c(C)c2o1
REMARK SMILES IDX 8 1 7 2 9 3 10 4 11 5 12 6 13 7 6 8 5 9 4 10 3 11 2 12 17 13
REMARK SMILES IDX 16 14 14 15 15 16 1 17
REMARK H PARENT
REMARK Flexibility Score: inf
ROOT
ATOM      1  C   UNL     1     170.574 175.390 174.928  1.00  0.00     0.045 C 
ATOM      2  C   UNL     1     171.155 174.000 174.900  1.00  0.00    -0.033 A 
ATOM      3  C   UNL     1     171.049 173.237 173.730  1.00  0.00     0.098 A 
ATOM      4  C   UNL     1     171.586 171.948 173.696  1.00  0.00     0.336 A 
ATOM      5  O   UNL     1     171.493 171.259 172.646  1.00  0.00    -0.246 OA
ATOM      6  O   UNL     1     172.193 171.442 174.760  1.00  0.00    -0.422 OA
ATOM      7  C   UNL     1     172.328 172.111 175.903  1.00  0.00     0.145 A 
ATOM      8  C   UNL     1     171.808 173.439 176.020  1.00  0.00     0.022 A 
ATOM      9  C   UNL     1     171.965 174.146 177.237  1.00  0.00     0.024 A 
ATOM     10  C   UNL     1     172.631 173.513 178.281  1.00  0.00     0.022 A 
ATOM     11  C   UNL     1     172.933 173.959 179.546  1.00  0.00     0.054 A 
ATOM     12  C   UNL     1     173.610 172.894 180.130  1.00  0.00     0.102 A 
ATOM     13  O   UNL     1     173.715 171.885 179.285  1.00  0.00    -0.461 OA
ATOM     14  C   UNL     1     173.127 172.243 178.168  1.00  0.00     0.140 A 
ATOM     15  C   UNL     1     172.989 171.498 176.995  1.00  0.00     0.036 A 
ATOM     16  C   UNL     1     173.567 170.115 176.881  1.00  0.00     0.052 C 
ATOM     17  C   UNL     1     174.171 172.883 181.512  1.00  0.00     0.087 C 
ENDROOT
TORSDOF 0
ENDMDL
MODEL 8
REMARK VINA RESULT:    -5.974      2.349      6.087
REMARK INTER + INTRA:          -5.974
REMARK INTER:                  -5.974
REMARK INTRA:                   0.000
REMARK UNBOUND:                 0.000
REMARK SMILES Cc1cc2cc3c(C)cc(=O)oc3c(C)c2o1
REMARK SMILES IDX 8 1 7 2 9 3 10 4 11 5 12 6 13 7 6 8 5 9 4 10 3 11 2 12 17 13
REMARK SMILES IDX 16 14 14 15 15 16 1 17
REMARK H PARENT
REMARK Flexibility Score: inf
ROOT
ATOM      1  C   UNL     1     173.777 168.891 174.908  1.00  0.00     0.045 C 
ATOM      2  C   UNL     1     174.580 170.165 174.863  1.00  0.00    -0.033 A 
ATOM      3  C   UNL     1     175.382 170.429 173.746  1.00  0.00     0.098 A 
ATOM      4  C   UNL     1     176.128 171.608 173.695  1.00  0.00     0.336 A 
ATOM      5  O   UNL     1     176.850 171.850 172.693  1.00  0.00    -0.246 OA
ATOM      6  O   UNL     1     176.085 172.478 174.696  1.00  0.00    -0.422 OA
ATOM      7  C   UNL     1     175.346 172.288 175.787  1.00  0.00     0.145 A 
ATOM      8  C   UNL     1     174.549 171.107 175.915  1.00  0.00     0.022 A 
ATOM      9  C   UNL     1     173.758 170.920 177.075  1.00  0.00     0.024 A 
ATOM     10  C   UNL     1     173.786 171.908 178.053  1.00  0.00     0.022 A 
ATOM     11  C   UNL     1     173.120 171.994 179.253  1.00  0.00     0.054 A 
ATOM     12  C   UNL     1     173.541 173.205 179.790  1.00  0.00     0.102 A 
ATOM     13  O   UNL     1     174.390 173.809 178.978  1.00  0.00    -0.461 OA
ATOM     14  C   UNL     1     174.549 173.037 177.930  1.00  0.00     0.140 A 
ATOM     15  C   UNL     1     175.355 173.265 176.813  1.00  0.00     0.036 A 
ATOM     16  C   UNL     1     176.163 174.525 176.682  1.00  0.00     0.052 C 
ATOM     17  C   UNL     1     173.088 173.774 181.092  1.00  0.00     0.087 C 
ENDROOT
TORSDOF 0
ENDMDL
MODEL 9
REMARK VINA RESULT:    -5.973      1.696      5.621
REMARK INTER + INTRA:          -5.973
REMARK INTER:                  -5.973
REMARK INTRA:                   0.000
REMARK UNBOUND:                 0.000
REMARK SMILES Cc1cc2cc3c(C)cc(=O)oc3c(C)c2o1
REMARK SMILES IDX 8 1 7 2 9 3 10 4 11 5 12 6 13 7 6 8 5 9 4 10 3 11 2 12 17 13
REMARK SMILES IDX 16 14 14 15 15 16 1 17
REMARK H PARENT
REMARK Flexibility Score: inf
ROOT
ATOM      1  C   UNL     1     175.844 171.119 174.824  1.00  0.00     0.045 C 
ATOM      2  C   UNL     1     175.235 172.498 174.821  1.00  0.00    -0.033 A 
ATOM      3  C   UNL     1     175.324 173.282 173.664  1.00  0.00     0.098 A 
ATOM      4  C   UNL     1     174.762 174.560 173.651  1.00  0.00     0.336 A 
ATOM      5  O   UNL     1     174.839 175.268 172.613  1.00  0.00    -0.246 OA
ATOM      6  O   UNL     1     174.147 175.037 174.725  1.00  0.00    -0.422 OA
ATOM      7  C   UNL     1     174.028 174.347 175.857  1.00  0.00     0.145 A 
ATOM      8  C   UNL     1     174.574 173.027 175.951  1.00  0.00     0.022 A 
ATOM      9  C   UNL     1     174.433 172.297 177.156  1.00  0.00     0.024 A 
ATOM     10  C   UNL     1     173.758 172.899 178.212  1.00  0.00     0.022 A 
ATOM     11  C   UNL     1     173.466 172.427 179.470  1.00  0.00     0.054 A 
ATOM     12  C   UNL     1     172.770 173.468 180.072  1.00  0.00     0.102 A 
ATOM     13  O   UNL     1     172.644 174.489 179.244  1.00  0.00    -0.461 OA
ATOM     14  C   UNL     1     173.236 174.161 178.121  1.00  0.00     0.140 A 
ATOM     15  C   UNL     1     173.357 174.928 176.961  1.00  0.00     0.036 A 
ATOM     16  C   UNL     1     172.752 176.301 176.870  1.00  0.00     0.052 C 
ATOM     17  C   UNL     1     172.212 173.445 181.455  1.00  0.00     0.087 C 
ENDROOT
TORSDOF 0
ENDMDL
