MODEL 1
REMARK VINA RESULT:    -4.295      0.000      0.000
REMARK INTER + INTRA:          -5.003
REMARK INTER:                  -4.797
REMARK INTRA:                  -0.205
REMARK UNBOUND:                -0.205
REMARK SMILES CC(C)c1ccc(C(=O)[O-])cc1
REMARK SMILES IDX 7 1 6 2 11 3 5 4 12 5 4 6 8 7 9 8 10 9 2 10 1 11 3 12
REMARK H PARENT
REMARK Flexibility Score: inf
ROOT
ATOM      1  C   UNL     1      42.821   8.908  12.774  1.00  0.00    -0.003 A 
ATOM      2  C   UNL     1      42.643   9.302  14.110  1.00  0.00     0.010 A 
ATOM      3  C   UNL     1      41.855   9.275  11.821  1.00  0.00     0.010 A 
ATOM      4  C   UNL     1      41.523  10.048  14.487  1.00  0.00     0.004 A 
ATOM      5  C   UNL     1      40.734  10.022  12.198  1.00  0.00     0.004 A 
ATOM      6  C   UNL     1      40.555  10.417  13.534  1.00  0.00    -0.045 A 
ENDROOT
BRANCH   1   7
ATOM      7  C   UNL     1      44.008   8.118  12.379  1.00  0.00     0.071 C 
ATOM      8  O   UNL     1      45.169   8.525  12.653  1.00  0.00    -0.545 OA
ATOM      9  O   UNL     1      43.859   6.913  11.702  1.00  0.00    -0.545 OA
ENDBRANCH   1   7
BRANCH   6  10
ATOM     10  C   UNL     1      39.334  11.226  13.930  1.00  0.00     0.013 C 
ATOM     11  C   UNL     1      38.064  10.662  13.281  1.00  0.00     0.012 C 
ATOM     12  C   UNL     1      39.518  12.708  13.584  1.00  0.00     0.012 C 
ENDBRANCH   6  10
TORSDOF 2
ENDMDL
MODEL 2
REMARK VINA RESULT:    -4.188     12.608     13.748
REMARK INTER + INTRA:          -4.883
REMARK INTER:                  -4.673
REMARK INTRA:                  -0.210
REMARK UNBOUND:                -0.205
REMARK SMILES CC(C)c1ccc(C(=O)[O-])cc1
REMARK SMILES IDX 7 1 6 2 11 3 5 4 12 5 4 6 8 7 9 8 10 9 2 10 1 11 3 12
REMARK H PARENT
REMARK Flexibility Score: inf
ROOT
ATOM      1  C   UNL     1      32.474  17.818  18.655  1.00  0.00    -0.003 A 
ATOM      2  C   UNL     1      33.457  17.659  17.665  1.00  0.00     0.010 A 
ATOM      3  C   UNL     1      31.120  17.707  18.293  1.00  0.00     0.010 A 
ATOM      4  C   UNL     1      33.095  17.394  16.341  1.00  0.00     0.004 A 
ATOM      5  C   UNL     1      30.758  17.443  16.969  1.00  0.00     0.004 A 
ATOM      6  C   UNL     1      31.741  17.283  15.978  1.00  0.00    -0.045 A 
ENDROOT
BRANCH   1   7
ATOM      7  C   UNL     1      32.861  18.098  20.055  1.00  0.00     0.071 C 
ATOM      8  O   UNL     1      32.007  18.039  20.980  1.00  0.00    -0.545 OA
ATOM      9  O   UNL     1      34.174  18.430  20.370  1.00  0.00    -0.545 OA
ENDBRANCH   1   7
BRANCH   6  10
ATOM     10  C   UNL     1      31.334  16.996  14.544  1.00  0.00     0.013 C 
ATOM     11  C   UNL     1      30.332  18.040  14.036  1.00  0.00     0.012 C 
ATOM     12  C   UNL     1      30.772  15.577  14.403  1.00  0.00     0.012 C 
ENDBRANCH   6  10
TORSDOF 2
ENDMDL
MODEL 3
REMARK VINA RESULT:    -3.927     12.726     13.844
REMARK INTER + INTRA:          -4.591
REMARK INTER:                  -4.379
REMARK INTRA:                  -0.212
REMARK UNBOUND:                -0.205
REMARK SMILES CC(C)c1ccc(C(=O)[O-])cc1
REMARK SMILES IDX 7 1 6 2 11 3 5 4 12 5 4 6 8 7 9 8 10 9 2 10 1 11 3 12
REMARK H PARENT
REMARK Flexibility Score: inf
ROOT
ATOM      1  C   UNL     1      31.275  17.343  15.935  1.00  0.00    -0.003 A 
ATOM      2  C   UNL     1      32.654  17.486  16.157  1.00  0.00     0.010 A 
ATOM      3  C   UNL     1      30.407  17.304  17.040  1.00  0.00     0.010 A 
ATOM      4  C   UNL     1      33.156  17.588  17.458  1.00  0.00     0.004 A 
ATOM      5  C   UNL     1      30.909  17.406  18.341  1.00  0.00     0.004 A 
ATOM      6  C   UNL     1      32.289  17.549  18.565  1.00  0.00    -0.045 A 
ENDROOT
BRANCH   1   7
ATOM      7  C   UNL     1      30.747  17.236  14.557  1.00  0.00     0.071 C 
ATOM      8  O   UNL     1      30.567  18.268  13.856  1.00  0.00    -0.545 OA
ATOM      9  O   UNL     1      30.443  15.992  14.014  1.00  0.00    -0.545 OA
ENDBRANCH   1   7
BRANCH   6  10
ATOM     10  C   UNL     1      32.820  17.658  19.982  1.00  0.00     0.013 C 
ATOM     11  C   UNL     1      31.719  18.100  20.952  1.00  0.00     0.012 C 
ATOM     12  C   UNL     1      34.026  18.602  20.048  1.00  0.00     0.012 C 
ENDBRANCH   6  10
TORSDOF 2
ENDMDL
MODEL 4
REMARK VINA RESULT:    -3.646      3.247      4.055
REMARK INTER + INTRA:          -4.278
REMARK INTER:                  -4.068
REMARK INTRA:                  -0.210
REMARK UNBOUND:                -0.205
REMARK SMILES CC(C)c1ccc(C(=O)[O-])cc1
REMARK SMILES IDX 7 1 6 2 11 3 5 4 12 5 4 6 8 7 9 8 10 9 2 10 1 11 3 12
REMARK H PARENT
REMARK Flexibility Score: inf
ROOT
ATOM      1  C   UNL     1      43.263  12.721  12.483  1.00  0.00    -0.003 A 
ATOM      2  C   UNL     1      41.958  13.194  12.698  1.00  0.00     0.010 A 
ATOM      3  C   UNL     1      43.594  11.421  12.905  1.00  0.00     0.010 A 
ATOM      4  C   UNL     1      41.004  12.385  13.322  1.00  0.00     0.004 A 
ATOM      5  C   UNL     1      42.640  10.613  13.529  1.00  0.00     0.004 A 
ATOM      6  C   UNL     1      41.334  11.085  13.744  1.00  0.00    -0.045 A 
ENDROOT
BRANCH   1   7
ATOM      7  C   UNL     1      44.270  13.580  11.822  1.00  0.00     0.071 C 
ATOM      8  O   UNL     1      44.127  13.928  10.620  1.00  0.00    -0.545 OA
ATOM      9  O   UNL     1      45.390  14.017  12.521  1.00  0.00    -0.545 OA
ENDBRANCH   1   7
BRANCH   6  10
ATOM     10  C   UNL     1      40.308  10.196  14.423  1.00  0.00     0.013 C 
ATOM     11  C   UNL     1      40.936   8.872  14.873  1.00  0.00     0.012 C 
ATOM     12  C   UNL     1      39.099   9.953  13.512  1.00  0.00     0.012 C 
ENDBRANCH   6  10
TORSDOF 2
ENDMDL
MODEL 5
REMARK VINA RESULT:    -3.601     12.717     13.888
REMARK INTER + INTRA:          -4.228
REMARK INTER:                  -4.016
REMARK INTRA:                  -0.212
REMARK UNBOUND:                -0.205
REMARK SMILES CC(C)c1ccc(C(=O)[O-])cc1
REMARK SMILES IDX 7 1 6 2 11 3 5 4 12 5 4 6 8 7 9 8 10 9 2 10 1 11 3 12
REMARK H PARENT
REMARK Flexibility Score: inf
ROOT
ATOM      1  C   UNL     1      31.291  17.256  15.980  1.00  0.00    -0.003 A 
ATOM      2  C   UNL     1      32.633  17.574  16.243  1.00  0.00     0.010 A 
ATOM      3  C   UNL     1      30.365  17.279  17.037  1.00  0.00     0.010 A 
ATOM      4  C   UNL     1      33.042  17.910  17.537  1.00  0.00     0.004 A 
ATOM      5  C   UNL     1      30.774  17.616  18.331  1.00  0.00     0.004 A 
ATOM      6  C   UNL     1      32.117  17.935  18.596  1.00  0.00    -0.045 A 
ENDROOT
BRANCH   1   7
ATOM      7  C   UNL     1      30.862  16.900  14.609  1.00  0.00     0.071 C 
ATOM      8  O   UNL     1      30.781  15.693  14.256  1.00  0.00    -0.545 OA
ATOM      9  O   UNL     1      30.541  17.893  13.691  1.00  0.00    -0.545 OA
ENDBRANCH   1   7
BRANCH   6  10
ATOM     10  C   UNL     1      32.547  18.298  20.005  1.00  0.00     0.013 C 
ATOM     11  C   UNL     1      33.898  17.661  20.351  1.00  0.00     0.012 C 
ATOM     12  C   UNL     1      31.474  17.907  21.028  1.00  0.00     0.012 C 
ENDBRANCH   6  10
TORSDOF 2
ENDMDL
MODEL 6
REMARK VINA RESULT:    -3.466     12.898     13.967
REMARK INTER + INTRA:          -4.077
REMARK INTER:                  -3.868
REMARK INTRA:                  -0.210
REMARK UNBOUND:                -0.205
REMARK SMILES CC(C)c1ccc(C(=O)[O-])cc1
REMARK SMILES IDX 7 1 6 2 11 3 5 4 12 5 4 6 8 7 9 8 10 9 2 10 1 11 3 12
REMARK H PARENT
REMARK Flexibility Score: inf
ROOT
ATOM      1  C   UNL     1      30.926  17.278  14.852  1.00  0.00    -0.003 A 
ATOM      2  C   UNL     1      30.702  15.972  14.387  1.00  0.00     0.010 A 
ATOM      3  C   UNL     1      30.561  18.363  14.036  1.00  0.00     0.010 A 
ATOM      4  C   UNL     1      30.124  15.754  13.133  1.00  0.00     0.004 A 
ATOM      5  C   UNL     1      29.983  18.145  12.782  1.00  0.00     0.004 A 
ATOM      6  C   UNL     1      29.758  16.839  12.316  1.00  0.00    -0.045 A 
ENDROOT
BRANCH   1   7
ATOM      7  C   UNL     1      31.538  17.505  16.180  1.00  0.00     0.071 C 
ATOM      8  O   UNL     1      30.816  17.652  17.202  1.00  0.00    -0.545 OA
ATOM      9  O   UNL     1      32.920  17.558  16.318  1.00  0.00    -0.545 OA
ENDBRANCH   1   7
BRANCH   6  10
ATOM     10  C   UNL     1      29.130  16.617  10.952  1.00  0.00     0.013 C 
ATOM     11  C   UNL     1      30.002  15.700  10.086  1.00  0.00     0.012 C 
ATOM     12  C   UNL     1      28.858  17.949  10.245  1.00  0.00     0.012 C 
ENDBRANCH   6  10
TORSDOF 2
ENDMDL
MODEL 7
REMARK VINA RESULT:    -3.421      3.633      4.521
REMARK INTER + INTRA:          -4.027
REMARK INTER:                  -3.820
REMARK INTRA:                  -0.207
REMARK UNBOUND:                -0.205
REMARK SMILES CC(C)c1ccc(C(=O)[O-])cc1
REMARK SMILES IDX 7 1 6 2 11 3 5 4 12 5 4 6 8 7 9 8 10 9 2 10 1 11 3 12
REMARK H PARENT
REMARK Flexibility Score: inf
ROOT
ATOM      1  C   UNL     1      41.241  10.613  13.623  1.00  0.00    -0.003 A 
ATOM      2  C   UNL     1      40.704  11.892  13.405  1.00  0.00     0.010 A 
ATOM      3  C   UNL     1      42.592  10.379  13.310  1.00  0.00     0.010 A 
ATOM      4  C   UNL     1      41.500  12.917  12.886  1.00  0.00     0.004 A 
ATOM      5  C   UNL     1      43.388  11.405  12.791  1.00  0.00     0.004 A 
ATOM      6  C   UNL     1      42.852  12.685  12.573  1.00  0.00    -0.045 A 
ENDROOT
BRANCH   1   7
ATOM      7  C   UNL     1      40.396   9.530  14.172  1.00  0.00     0.071 C 
ATOM      8  O   UNL     1      39.215   9.368  13.762  1.00  0.00    -0.545 OA
ATOM      9  O   UNL     1      40.893   8.674  15.148  1.00  0.00    -0.545 OA
ENDBRANCH   1   7
BRANCH   6  10
ATOM     10  C   UNL     1      43.727  13.789  12.009  1.00  0.00     0.013 C 
ATOM     11  C   UNL     1      43.939  13.608  10.501  1.00  0.00     0.012 C 
ATOM     12  C   UNL     1      45.067  13.865  12.750  1.00  0.00     0.012 C 
ENDBRANCH   6  10
TORSDOF 2
ENDMDL
MODEL 8
REMARK VINA RESULT:    -3.367     12.666     14.077
REMARK INTER + INTRA:          -3.966
REMARK INTER:                  -3.767
REMARK INTRA:                  -0.200
REMARK UNBOUND:                -0.205
REMARK SMILES CC(C)c1ccc(C(=O)[O-])cc1
REMARK SMILES IDX 7 1 6 2 11 3 5 4 12 5 4 6 8 7 9 8 10 9 2 10 1 11 3 12
REMARK H PARENT
REMARK Flexibility Score: inf
ROOT
ATOM      1  C   UNL     1      29.810  17.046  12.839  1.00  0.00    -0.003 A 
ATOM      2  C   UNL     1      30.158  18.267  13.438  1.00  0.00     0.010 A 
ATOM      3  C   UNL     1      30.134  15.847  13.498  1.00  0.00     0.010 A 
ATOM      4  C   UNL     1      30.816  18.291  14.671  1.00  0.00     0.004 A 
ATOM      5  C   UNL     1      30.792  15.871  14.731  1.00  0.00     0.004 A 
ATOM      6  C   UNL     1      31.141  17.092  15.332  1.00  0.00    -0.045 A 
ENDROOT
BRANCH   1   7
ATOM      7  C   UNL     1      29.113  17.025  11.534  1.00  0.00     0.071 C 
ATOM      8  O   UNL     1      27.875  17.248  11.464  1.00  0.00    -0.545 OA
ATOM      9  O   UNL     1      29.817  16.760  10.364  1.00  0.00    -0.545 OA
ENDBRANCH   1   7
BRANCH   6  10
ATOM     10  C   UNL     1      31.856  17.103  16.670  1.00  0.00     0.013 C 
ATOM     11  C   UNL     1      31.136  18.013  17.673  1.00  0.00     0.012 C 
ATOM     12  C   UNL     1      33.324  17.513  16.509  1.00  0.00     0.012 C 
ENDBRANCH   6  10
TORSDOF 2
ENDMDL
MODEL 9
REMARK VINA RESULT:    -3.351     15.140     16.613
REMARK INTER + INTRA:          -3.948
REMARK INTER:                  -3.736
REMARK INTRA:                  -0.212
REMARK UNBOUND:                -0.205
REMARK SMILES CC(C)c1ccc(C(=O)[O-])cc1
REMARK SMILES IDX 7 1 6 2 11 3 5 4 12 5 4 6 8 7 9 8 10 9 2 10 1 11 3 12
REMARK H PARENT
REMARK Flexibility Score: inf
ROOT
ATOM      1  C   UNL     1      44.828   1.304  26.597  1.00  0.00    -0.003 A 
ATOM      2  C   UNL     1      45.319  -0.010  26.533  1.00  0.00     0.010 A 
ATOM      3  C   UNL     1      45.384   2.281  25.754  1.00  0.00     0.010 A 
ATOM      4  C   UNL     1      46.345  -0.342  25.643  1.00  0.00     0.004 A 
ATOM      5  C   UNL     1      46.411   1.950  24.864  1.00  0.00     0.004 A 
ATOM      6  C   UNL     1      46.903   0.635  24.799  1.00  0.00    -0.045 A 
ENDROOT
BRANCH   1   7
ATOM      7  C   UNL     1      43.742   1.650  27.540  1.00  0.00     0.071 C 
ATOM      8  O   UNL     1      42.535   1.492  27.214  1.00  0.00    -0.545 OA
ATOM      9  O   UNL     1      44.038   2.155  28.802  1.00  0.00    -0.545 OA
ENDBRANCH   1   7
BRANCH   6  10
ATOM     10  C   UNL     1      48.018   0.290  23.829  1.00  0.00     0.013 C 
ATOM     11  C   UNL     1      48.124   1.337  22.714  1.00  0.00     0.012 C 
ATOM     12  C   UNL     1      47.829  -1.117  23.249  1.00  0.00     0.012 C 
ENDBRANCH   6  10
TORSDOF 2
ENDMDL
