MODEL 1
REMARK VINA RESULT:    -4.544      0.000      0.000
REMARK INTER + INTRA:          -4.996
REMARK INTER:                  -4.942
REMARK INTRA:                  -0.054
REMARK UNBOUND:                -0.054
REMARK SMILES COc1cc2ccc(=O)oc2cc1O
REMARK SMILES IDX 3 1 13 2 12 3 11 4 5 5 4 6 6 7 7 8 8 9 9 10 10 11 2 12 1 13
REMARK SMILES IDX 14 14
REMARK H PARENT 14 15
REMARK Flexibility Score: inf
ROOT
ATOM      1  C   UNL     1       7.787   1.380  32.589  1.00  0.00     0.161 A 
ATOM      2  C   UNL     1       8.526   0.248  32.988  1.00  0.00     0.161 A 
ATOM      3  C   UNL     1       7.896  -0.994  33.119  1.00  0.00     0.098 A 
ATOM      4  C   UNL     1       6.530  -1.126  32.858  1.00  0.00     0.142 A 
ATOM      5  C   UNL     1       5.782   0.000  32.458  1.00  0.00     0.022 A 
ATOM      6  C   UNL     1       6.408   1.246  32.325  1.00  0.00     0.062 A 
ATOM      7  C   UNL     1       4.416  -0.164  32.203  1.00  0.00     0.019 A 
ATOM      8  C   UNL     1       3.838  -1.425  32.351  1.00  0.00     0.094 A 
ATOM      9  C   UNL     1       4.644  -2.496  32.750  1.00  0.00     0.336 A 
ATOM     10  O   UNL     1       4.141  -3.643  32.889  1.00  0.00    -0.246 OA
ATOM     11  O   UNL     1       5.941  -2.313  32.986  1.00  0.00    -0.423 OA
ENDROOT
BRANCH   1  12
ATOM     12  O   UNL     1       8.450   2.612  32.467  1.00  0.00    -0.493 OA
ATOM     13  C   UNL     1       8.053   3.811  33.124  1.00  0.00     0.278 C 
ENDBRANCH   1  12
BRANCH   2  14
ATOM     14  O   UNL     1       9.892   0.340  33.258  1.00  0.00    -0.504 OA
ATOM     15  H   UNL     1      10.586  -0.150  32.706  1.00  0.00     0.293 HD
ENDBRANCH   2  14
TORSDOF 2
ENDMDL
MODEL 2
REMARK VINA RESULT:    -4.369      1.262      5.409
REMARK INTER + INTRA:          -4.806
REMARK INTER:                  -4.742
REMARK INTRA:                  -0.065
REMARK UNBOUND:                -0.054
REMARK SMILES COc1cc2ccc(=O)oc2cc1O
REMARK SMILES IDX 3 1 13 2 12 3 11 4 5 5 4 6 6 7 7 8 8 9 9 10 10 11 2 12 1 13
REMARK SMILES IDX 14 14
REMARK H PARENT 14 15
REMARK Flexibility Score: inf
ROOT
ATOM      1  C   UNL     1       5.189  -2.388  32.675  1.00  0.00     0.161 A 
ATOM      2  C   UNL     1       4.305  -1.316  32.438  1.00  0.00     0.161 A 
ATOM      3  C   UNL     1       4.789  -0.006  32.366  1.00  0.00     0.098 A 
ATOM      4  C   UNL     1       6.151   0.255  32.529  1.00  0.00     0.142 A 
ATOM      5  C   UNL     1       7.044  -0.810  32.767  1.00  0.00     0.022 A 
ATOM      6  C   UNL     1       6.564  -2.124  32.840  1.00  0.00     0.062 A 
ATOM      7  C   UNL     1       8.403  -0.517  32.926  1.00  0.00     0.019 A 
ATOM      8  C   UNL     1       8.832   0.808  32.846  1.00  0.00     0.094 A 
ATOM      9  C   UNL     1       7.888   1.812  32.607  1.00  0.00     0.336 A 
ATOM     10  O   UNL     1       8.256   3.014  32.530  1.00  0.00    -0.246 OA
ATOM     11  O   UNL     1       6.602   1.506  32.459  1.00  0.00    -0.423 OA
ENDROOT
BRANCH   1  12
ATOM     12  O   UNL     1       4.670  -3.691  32.742  1.00  0.00    -0.493 OA
ATOM     13  C   UNL     1       4.343  -4.370  33.950  1.00  0.00     0.278 C 
ENDBRANCH   1  12
BRANCH   2  14
ATOM     14  O   UNL     1       2.937  -1.536  32.270  1.00  0.00    -0.504 OA
ATOM     15  H   UNL     1       2.553  -2.462  32.120  1.00  0.00     0.293 HD
ENDBRANCH   2  14
TORSDOF 2
ENDMDL
MODEL 3
REMARK VINA RESULT:    -4.154      9.701     11.258
REMARK INTER + INTRA:          -4.573
REMARK INTER:                  -4.508
REMARK INTRA:                  -0.065
REMARK UNBOUND:                -0.054
REMARK SMILES COc1cc2ccc(=O)oc2cc1O
REMARK SMILES IDX 3 1 13 2 12 3 11 4 5 5 4 6 6 7 7 8 8 9 9 10 10 11 2 12 1 13
REMARK SMILES IDX 14 14
REMARK H PARENT 14 15
REMARK Flexibility Score: inf
ROOT
ATOM      1  C   UNL     1       9.232   2.394  44.185  1.00  0.00     0.161 A 
ATOM      2  C   UNL     1       8.235   1.675  43.495  1.00  0.00     0.161 A 
ATOM      3  C   UNL     1       7.981   1.940  42.145  1.00  0.00     0.098 A 
ATOM      4  C   UNL     1       8.710   2.919  41.467  1.00  0.00     0.142 A 
ATOM      5  C   UNL     1       9.711   3.644  42.147  1.00  0.00     0.022 A 
ATOM      6  C   UNL     1       9.969   3.382  43.499  1.00  0.00     0.062 A 
ATOM      7  C   UNL     1      10.425   4.618  41.441  1.00  0.00     0.019 A 
ATOM      8  C   UNL     1      10.130   4.843  40.096  1.00  0.00     0.094 A 
ATOM      9  C   UNL     1       9.125   4.084  39.487  1.00  0.00     0.336 A 
ATOM     10  O   UNL     1       8.844   4.271  38.274  1.00  0.00    -0.246 OA
ATOM     11  O   UNL     1       8.461   3.164  40.182  1.00  0.00    -0.423 OA
ENDROOT
BRANCH   1  12
ATOM     12  O   UNL     1       9.461   2.103  45.539  1.00  0.00    -0.493 OA
ATOM     13  C   UNL     1       9.019   2.910  46.625  1.00  0.00     0.278 C 
ENDBRANCH   1  12
BRANCH   2  14
ATOM     14  O   UNL     1       7.485   0.690  44.138  1.00  0.00    -0.504 OA
ATOM     15  H   UNL     1       7.053  -0.076  43.634  1.00  0.00     0.293 HD
ENDBRANCH   2  14
TORSDOF 2
ENDMDL
MODEL 4
REMARK VINA RESULT:    -4.082      4.851      7.306
REMARK INTER + INTRA:          -4.494
REMARK INTER:                  -4.450
REMARK INTRA:                  -0.044
REMARK UNBOUND:                -0.054
REMARK SMILES COc1cc2ccc(=O)oc2cc1O
REMARK SMILES IDX 3 1 13 2 12 3 11 4 5 5 4 6 6 7 7 8 8 9 9 10 10 11 2 12 1 13
REMARK SMILES IDX 14 14
REMARK H PARENT 14 15
REMARK Flexibility Score: inf
ROOT
ATOM      1  C   UNL     1       2.721  -4.520  34.441  1.00  0.00     0.161 A 
ATOM      2  C   UNL     1       3.491  -3.398  34.072  1.00  0.00     0.161 A 
ATOM      3  C   UNL     1       4.655  -3.079  34.780  1.00  0.00     0.098 A 
ATOM      4  C   UNL     1       5.066  -3.866  35.858  1.00  0.00     0.142 A 
ATOM      5  C   UNL     1       4.303  -4.991  36.234  1.00  0.00     0.022 A 
ATOM      6  C   UNL     1       3.137  -5.315  35.529  1.00  0.00     0.062 A 
ATOM      7  C   UNL     1       4.741  -5.760  37.317  1.00  0.00     0.019 A 
ATOM      8  C   UNL     1       5.909  -5.397  37.988  1.00  0.00     0.094 A 
ATOM      9  C   UNL     1       6.614  -4.268  37.557  1.00  0.00     0.336 A 
ATOM     10  O   UNL     1       7.671  -3.924  38.149  1.00  0.00    -0.246 OA
ATOM     11  O   UNL     1       6.176  -3.554  36.524  1.00  0.00    -0.423 OA
ENDROOT
BRANCH   1  12
ATOM     12  O   UNL     1       1.558  -4.811  33.710  1.00  0.00    -0.493 OA
ATOM     13  C   UNL     1       0.890  -6.069  33.723  1.00  0.00     0.278 C 
ENDBRANCH   1  12
BRANCH   2  14
ATOM     14  O   UNL     1       3.112  -2.587  33.002  1.00  0.00    -0.504 OA
ATOM     15  H   UNL     1       2.445  -2.891  32.303  1.00  0.00     0.293 HD
ENDBRANCH   2  14
TORSDOF 2
ENDMDL
MODEL 5
REMARK VINA RESULT:    -4.065      5.470      7.756
REMARK INTER + INTRA:          -4.476
REMARK INTER:                  -4.432
REMARK INTRA:                  -0.044
REMARK UNBOUND:                -0.054
REMARK SMILES COc1cc2ccc(=O)oc2cc1O
REMARK SMILES IDX 3 1 13 2 12 3 11 4 5 5 4 6 6 7 7 8 8 9 9 10 10 11 2 12 1 13
REMARK SMILES IDX 14 14
REMARK H PARENT 14 15
REMARK Flexibility Score: inf
ROOT
ATOM      1  C   UNL     1       3.720  -4.284  35.314  1.00  0.00     0.161 A 
ATOM      2  C   UNL     1       2.869  -4.027  34.221  1.00  0.00     0.161 A 
ATOM      3  C   UNL     1       1.691  -4.764  34.056  1.00  0.00     0.098 A 
ATOM      4  C   UNL     1       1.346  -5.761  34.971  1.00  0.00     0.142 A 
ATOM      5  C   UNL     1       2.191  -6.026  36.069  1.00  0.00     0.022 A 
ATOM      6  C   UNL     1       3.371  -5.291  36.238  1.00  0.00     0.062 A 
ATOM      7  C   UNL     1       1.818  -7.030  36.969  1.00  0.00     0.019 A 
ATOM      8  C   UNL     1       0.634  -7.735  36.757  1.00  0.00     0.094 A 
ATOM      9  C   UNL     1      -0.154  -7.416  35.645  1.00  0.00     0.336 A 
ATOM     10  O   UNL     1      -1.228  -8.041  35.437  1.00  0.00    -0.246 OA
ATOM     11  O   UNL     1       0.223  -6.456  34.805  1.00  0.00    -0.423 OA
ENDROOT
BRANCH   1  12
ATOM     12  O   UNL     1       4.894  -3.527  35.449  1.00  0.00    -0.493 OA
ATOM     13  C   UNL     1       5.933  -3.806  36.383  1.00  0.00     0.278 C 
ENDBRANCH   1  12
BRANCH   2  14
ATOM     14  O   UNL     1       3.179  -3.040  33.285  1.00  0.00    -0.504 OA
ATOM     15  H   UNL     1       3.320  -3.250  32.304  1.00  0.00     0.293 HD
ENDBRANCH   2  14
TORSDOF 2
ENDMDL
MODEL 6
REMARK VINA RESULT:    -4.047      4.765      8.647
REMARK INTER + INTRA:          -4.457
REMARK INTER:                  -4.413
REMARK INTRA:                  -0.043
REMARK UNBOUND:                -0.054
REMARK SMILES COc1cc2ccc(=O)oc2cc1O
REMARK SMILES IDX 3 1 13 2 12 3 11 4 5 5 4 6 6 7 7 8 8 9 9 10 10 11 2 12 1 13
REMARK SMILES IDX 14 14
REMARK H PARENT 14 15
REMARK Flexibility Score: inf
ROOT
ATOM      1  C   UNL     1       1.332  -6.564  35.898  1.00  0.00     0.161 A 
ATOM      2  C   UNL     1       0.828  -6.078  34.675  1.00  0.00     0.161 A 
ATOM      3  C   UNL     1       1.502  -5.061  33.989  1.00  0.00     0.098 A 
ATOM      4  C   UNL     1       2.678  -4.517  34.509  1.00  0.00     0.142 A 
ATOM      5  C   UNL     1       3.190  -4.996  35.732  1.00  0.00     0.022 A 
ATOM      6  C   UNL     1       2.520  -6.014  36.422  1.00  0.00     0.062 A 
ATOM      7  C   UNL     1       4.371  -4.430  36.226  1.00  0.00     0.019 A 
ATOM      8  C   UNL     1       5.002  -3.419  35.503  1.00  0.00     0.094 A 
ATOM      9  C   UNL     1       4.435  -2.995  34.296  1.00  0.00     0.336 A 
ATOM     10  O   UNL     1       4.990  -2.084  33.627  1.00  0.00    -0.246 OA
ATOM     11  O   UNL     1       3.312  -3.550  33.848  1.00  0.00    -0.423 OA
ENDROOT
BRANCH   1  12
ATOM     12  O   UNL     1       0.631  -7.584  36.561  1.00  0.00    -0.493 OA
ATOM     13  C   UNL     1       0.948  -8.069  37.861  1.00  0.00     0.278 C 
ENDBRANCH   1  12
BRANCH   2  14
ATOM     14  O   UNL     1      -0.344  -6.596  34.124  1.00  0.00    -0.504 OA
ATOM     15  H   UNL     1      -1.143  -6.849  34.693  1.00  0.00     0.293 HD
ENDBRANCH   2  14
TORSDOF 2
ENDMDL
MODEL 7
REMARK VINA RESULT:    -4.037      9.769     10.967
REMARK INTER + INTRA:          -4.446
REMARK INTER:                  -4.383
REMARK INTRA:                  -0.063
REMARK UNBOUND:                -0.054
REMARK SMILES COc1cc2ccc(=O)oc2cc1O
REMARK SMILES IDX 3 1 13 2 12 3 11 4 5 5 4 6 6 7 7 8 8 9 9 10 10 11 2 12 1 13
REMARK SMILES IDX 14 14
REMARK H PARENT 14 15
REMARK Flexibility Score: inf
ROOT
ATOM      1  C   UNL     1       9.332   4.003  40.565  1.00  0.00     0.161 A 
ATOM      2  C   UNL     1      10.270   4.624  41.414  1.00  0.00     0.161 A 
ATOM      3  C   UNL     1      10.380   4.229  42.751  1.00  0.00     0.098 A 
ATOM      4  C   UNL     1       9.562   3.218  43.260  1.00  0.00     0.142 A 
ATOM      5  C   UNL     1       8.620   2.590  42.419  1.00  0.00     0.022 A 
ATOM      6  C   UNL     1       8.506   2.982  41.079  1.00  0.00     0.062 A 
ATOM      7  C   UNL     1       7.815   1.580  42.958  1.00  0.00     0.019 A 
ATOM      8  C   UNL     1       7.966   1.226  44.299  1.00  0.00     0.094 A 
ATOM      9  C   UNL     1       8.923   1.893  45.072  1.00  0.00     0.336 A 
ATOM     10  O   UNL     1       9.074   1.587  46.284  1.00  0.00    -0.246 OA
ATOM     11  O   UNL     1       9.675   2.849  44.534  1.00  0.00    -0.423 OA
ENDROOT
BRANCH   1  12
ATOM     12  O   UNL     1       9.247   4.423  39.228  1.00  0.00    -0.493 OA
ATOM     13  C   UNL     1       9.678   3.654  38.110  1.00  0.00     0.278 C 
ENDBRANCH   1  12
BRANCH   2  14
ATOM     14  O   UNL     1      11.105   5.638  40.943  1.00  0.00    -0.504 OA
ATOM     15  H   UNL     1      11.630   6.239  41.567  1.00  0.00     0.293 HD
ENDBRANCH   2  14
TORSDOF 2
ENDMDL
MODEL 8
REMARK VINA RESULT:    -3.989      4.012      6.437
REMARK INTER + INTRA:          -4.394
REMARK INTER:                  -4.349
REMARK INTRA:                  -0.044
REMARK UNBOUND:                -0.054
REMARK SMILES COc1cc2ccc(=O)oc2cc1O
REMARK SMILES IDX 3 1 13 2 12 3 11 4 5 5 4 6 6 7 7 8 8 9 9 10 10 11 2 12 1 13
REMARK SMILES IDX 14 14
REMARK H PARENT 14 15
REMARK Flexibility Score: inf
ROOT
ATOM      1  C   UNL     1       3.916  -3.095  33.960  1.00  0.00     0.161 A 
ATOM      2  C   UNL     1       2.930  -4.022  34.353  1.00  0.00     0.161 A 
ATOM      3  C   UNL     1       3.152  -4.867  35.445  1.00  0.00     0.098 A 
ATOM      4  C   UNL     1       4.352  -4.803  36.157  1.00  0.00     0.142 A 
ATOM      5  C   UNL     1       5.345  -3.879  35.772  1.00  0.00     0.022 A 
ATOM      6  C   UNL     1       5.128  -3.030  34.679  1.00  0.00     0.062 A 
ATOM      7  C   UNL     1       6.536  -3.838  36.505  1.00  0.00     0.019 A 
ATOM      8  C   UNL     1       6.706  -4.704  37.586  1.00  0.00     0.094 A 
ATOM      9  C   UNL     1       5.676  -5.593  37.909  1.00  0.00     0.336 A 
ATOM     10  O   UNL     1       5.810  -6.383  38.881  1.00  0.00    -0.246 OA
ATOM     11  O   UNL     1       4.553  -5.611  37.195  1.00  0.00    -0.423 OA
ENDROOT
BRANCH   1  12
ATOM     12  O   UNL     1       3.661  -2.262  32.859  1.00  0.00    -0.493 OA
ATOM     13  C   UNL     1       4.318  -1.023  32.614  1.00  0.00     0.278 C 
ENDBRANCH   1  12
BRANCH   2  14
ATOM     14  O   UNL     1       1.719  -4.116  33.666  1.00  0.00    -0.504 OA
ATOM     15  H   UNL     1       1.158  -3.302  33.445  1.00  0.00     0.293 HD
ENDBRANCH   2  14
TORSDOF 2
ENDMDL
MODEL 9
REMARK VINA RESULT:    -3.877      4.239      6.285
REMARK INTER + INTRA:          -4.271
REMARK INTER:                  -4.227
REMARK INTRA:                  -0.044
REMARK UNBOUND:                -0.054
REMARK SMILES COc1cc2ccc(=O)oc2cc1O
REMARK SMILES IDX 3 1 13 2 12 3 11 4 5 5 4 6 6 7 7 8 8 9 9 10 10 11 2 12 1 13
REMARK SMILES IDX 14 14
REMARK H PARENT 14 15
REMARK Flexibility Score: inf
ROOT
ATOM      1  C   UNL     1       4.399  -3.316  34.546  1.00  0.00     0.161 A 
ATOM      2  C   UNL     1       4.800  -3.828  35.796  1.00  0.00     0.161 A 
ATOM      3  C   UNL     1       4.051  -4.832  36.419  1.00  0.00     0.098 A 
ATOM      4  C   UNL     1       2.899  -5.337  35.812  1.00  0.00     0.142 A 
ATOM      5  C   UNL     1       2.489  -4.831  34.561  1.00  0.00     0.022 A 
ATOM      6  C   UNL     1       3.236  -3.826  33.932  1.00  0.00     0.062 A 
ATOM      7  C   UNL     1       1.331  -5.357  33.977  1.00  0.00     0.019 A 
ATOM      8  C   UNL     1       0.622  -6.356  34.642  1.00  0.00     0.094 A 
ATOM      9  C   UNL     1       1.090  -6.809  35.881  1.00  0.00     0.336 A 
ATOM     10  O   UNL     1       0.464  -7.711  36.497  1.00  0.00    -0.246 OA
ATOM     11  O   UNL     1       2.194  -6.292  36.413  1.00  0.00    -0.423 OA
ENDROOT
BRANCH   1  12
ATOM     12  O   UNL     1       5.172  -2.309  33.948  1.00  0.00    -0.493 OA
ATOM     13  C   UNL     1       4.700  -1.416  32.944  1.00  0.00     0.278 C 
ENDBRANCH   1  12
BRANCH   2  14
ATOM     14  O   UNL     1       5.944  -3.350  36.435  1.00  0.00    -0.504 OA
ATOM     15  H   UNL     1       6.665  -2.837  35.940  1.00  0.00     0.293 HD
ENDBRANCH   2  14
TORSDOF 2
ENDMDL
