MODEL 1
REMARK VINA RESULT:    -4.818      0.000      0.000
REMARK INTER + INTRA:          -7.279
REMARK INTER:                  -6.086
REMARK INTRA:                  -1.194
REMARK UNBOUND:                -1.194
REMARK SMILES CC(C)[C@H](C)C=C[C@H](C)[C@H]1CC[C@H]2C3=CC=C4C[C@@H](O)CC[C@@]4(C)[C@H]3CC[C@]12C
REMARK SMILES IDX 8 1 9 2 7 3 6 4 4 5 5 6 2 7 1 8 3 9 10 10 11 11 28 12 12 13
REMARK SMILES IDX 13 14 27 15 29 16 14 17 26 18 25 19 15 20 23 21 16 22 17 23
REMARK SMILES IDX 22 24 24 25 18 26 21 27 19 28 20 29
REMARK H PARENT 20 30
REMARK Flexibility Score: inf
ROOT
ATOM      1  C   UNL     1      39.722   2.109  -8.008  1.00  0.00     0.012 C 
ATOM      2  C   UNL     1      39.736   0.603  -8.291  1.00  0.00     0.012 C 
ENDROOT
BRANCH   1   3
ATOM      3  C   UNL     1      40.289   2.370  -6.620  1.00  0.00    -0.028 C 
ATOM      4  C   UNL     1      41.600   2.395  -6.300  1.00  0.00    -0.028 C 
BRANCH   4   5
ATOM      5  C   UNL     1      42.749   2.182  -7.271  1.00  0.00     0.011 C 
ATOM      6  C   UNL     1      43.471   3.525  -7.469  1.00  0.00     0.012 C 
BRANCH   5   7
ATOM      7  C   UNL     1      43.710   1.071  -6.746  1.00  0.00    -0.011 C 
ATOM      8  C   UNL     1      44.123   1.336  -5.287  1.00  0.00     0.008 C 
ATOM      9  C   UNL     1      43.080  -0.330  -6.837  1.00  0.00     0.008 C 
ENDBRANCH   5   7
ENDBRANCH   4   5
ENDBRANCH   1   3
BRANCH   1  10
ATOM     10  C   UNL     1      40.365   2.953  -9.163  1.00  0.00     0.002 C 
ATOM     11  C   UNL     1      40.162   2.334 -10.573  1.00  0.00     0.005 C 
ATOM     12  C   UNL     1      40.029   4.465  -9.346  1.00  0.00    -0.023 C 
ATOM     13  C   UNL     1      40.168   3.496 -11.581  1.00  0.00     0.009 C 
ATOM     14  C   UNL     1      40.618   4.690 -10.750  1.00  0.00     0.021 C 
ATOM     15  C   UNL     1      40.755   5.447  -8.380  1.00  0.00     0.008 C 
ATOM     16  C   UNL     1      38.494   4.721  -9.302  1.00  0.00     0.012 C 
ATOM     17  C   UNL     1      40.398   6.113 -11.197  1.00  0.00    -0.063 C 
ATOM     18  C   UNL     1      40.654   6.929  -8.850  1.00  0.00     0.009 C 
ATOM     19  C   UNL     1      41.113   7.135 -10.326  1.00  0.00     0.025 C 
ATOM     20  C   UNL     1      39.393   6.472 -12.008  1.00  0.00    -0.000 C 
ATOM     21  C   UNL     1      41.012   8.605 -10.908  1.00  0.00    -0.005 C 
ATOM     22  C   UNL     1      38.969   7.872 -12.123  1.00  0.00    -0.000 C 
ATOM     23  C   UNL     1      39.643   8.872 -11.536  1.00  0.00    -0.061 C 
ATOM     24  C   UNL     1      41.309   9.676  -9.810  1.00  0.00     0.014 C 
ATOM     25  C   UNL     1      42.070   8.736 -12.035  1.00  0.00     0.017 C 
ATOM     26  C   UNL     1      39.214  10.294 -11.834  1.00  0.00     0.063 C 
ATOM     27  C   UNL     1      41.011  11.113 -10.260  1.00  0.00     0.033 C 
ATOM     28  C   UNL     1      39.543  11.257 -10.688  1.00  0.00     0.118 C 
BRANCH  28  29
ATOM     29  O   UNL     1      38.682  11.007  -9.606  1.00  0.00    -0.393 OA
ATOM     30  H   UNL     1      37.948  10.432  -9.950  1.00  0.00     0.210 HD
ENDBRANCH  28  29
ENDBRANCH   1  10
TORSDOF 5
ENDMDL
MODEL 2
REMARK VINA RESULT:    -3.393      3.992      6.658
REMARK INTER + INTRA:          -5.479
REMARK INTER:                  -4.792
REMARK INTRA:                  -0.687
REMARK UNBOUND:                -1.194
REMARK SMILES CC(C)[C@H](C)C=C[C@H](C)[C@H]1CC[C@H]2C3=CC=C4C[C@@H](O)CC[C@@]4(C)[C@H]3CC[C@]12C
REMARK SMILES IDX 8 1 9 2 7 3 6 4 4 5 5 6 2 7 1 8 3 9 10 10 11 11 28 12 12 13
REMARK SMILES IDX 13 14 27 15 29 16 14 17 26 18 25 19 15 20 23 21 16 22 17 23
REMARK SMILES IDX 22 24 24 25 18 26 21 27 19 28 20 29
REMARK H PARENT 20 30
REMARK Flexibility Score: inf
ROOT
ATOM      1  C   UNL     1      42.699   8.150  -6.258  1.00  0.00     0.012 C 
ATOM      2  C   UNL     1      44.125   7.594  -6.350  1.00  0.00     0.012 C 
ENDROOT
BRANCH   1   3
ATOM      3  C   UNL     1      42.721   9.488  -5.533  1.00  0.00    -0.028 C 
ATOM      4  C   UNL     1      42.516   9.667  -4.211  1.00  0.00    -0.028 C 
BRANCH   4   5
ATOM      5  C   UNL     1      42.239   8.564  -3.204  1.00  0.00     0.011 C 
ATOM      6  C   UNL     1      43.353   8.587  -2.144  1.00  0.00     0.012 C 
BRANCH   5   7
ATOM      7  C   UNL     1      40.824   8.741  -2.573  1.00  0.00    -0.011 C 
ATOM      8  C   UNL     1      40.838   9.812  -1.466  1.00  0.00     0.008 C 
ATOM      9  C   UNL     1      39.766   9.126  -3.622  1.00  0.00     0.008 C 
ENDBRANCH   5   7
ENDBRANCH   4   5
ENDBRANCH   1   3
BRANCH   1  10
ATOM     10  C   UNL     1      41.955   8.150  -7.638  1.00  0.00     0.002 C 
ATOM     11  C   UNL     1      42.818   8.691  -8.811  1.00  0.00     0.005 C 
ATOM     12  C   UNL     1      41.295   6.855  -8.203  1.00  0.00    -0.023 C 
ATOM     13  C   UNL     1      42.314   8.011 -10.094  1.00  0.00     0.009 C 
ATOM     14  C   UNL     1      41.037   7.309  -9.651  1.00  0.00     0.021 C 
ATOM     15  C   UNL     1      39.917   6.469  -7.590  1.00  0.00     0.008 C 
ATOM     16  C   UNL     1      42.265   5.638  -8.130  1.00  0.00     0.012 C 
ATOM     17  C   UNL     1      40.408   6.197 -10.452  1.00  0.00    -0.063 C 
ATOM     18  C   UNL     1      39.167   5.398  -8.438  1.00  0.00     0.009 C 
ATOM     19  C   UNL     1      39.034   5.790  -9.941  1.00  0.00     0.025 C 
ATOM     20  C   UNL     1      41.114   5.396 -11.263  1.00  0.00    -0.000 C 
ATOM     21  C   UNL     1      38.317   4.746 -10.893  1.00  0.00    -0.005 C 
ATOM     22  C   UNL     1      40.575   4.113 -11.726  1.00  0.00    -0.000 C 
ATOM     23  C   UNL     1      39.310   3.740 -11.478  1.00  0.00    -0.061 C 
ATOM     24  C   UNL     1      37.172   3.988 -10.149  1.00  0.00     0.014 C 
ATOM     25  C   UNL     1      37.707   5.537 -12.080  1.00  0.00     0.017 C 
ATOM     26  C   UNL     1      38.802   2.466 -12.122  1.00  0.00     0.063 C 
ATOM     27  C   UNL     1      36.592   2.815 -10.952  1.00  0.00     0.033 C 
ATOM     28  C   UNL     1      37.690   1.800 -11.306  1.00  0.00     0.118 C 
BRANCH  28  29
ATOM     29  O   UNL     1      38.239   1.235 -10.143  1.00  0.00    -0.393 OA
ATOM     30  H   UNL     1      38.719   0.411 -10.422  1.00  0.00     0.210 HD
ENDBRANCH  28  29
ENDBRANCH   1  10
TORSDOF 5
ENDMDL
MODEL 3
REMARK VINA RESULT:    -3.382     13.733     15.556
REMARK INTER + INTRA:          -5.465
REMARK INTER:                  -4.871
REMARK INTRA:                  -0.595
REMARK UNBOUND:                -1.194
REMARK SMILES CC(C)[C@H](C)C=C[C@H](C)[C@H]1CC[C@H]2C3=CC=C4C[C@@H](O)CC[C@@]4(C)[C@H]3CC[C@]12C
REMARK SMILES IDX 8 1 9 2 7 3 6 4 4 5 5 6 2 7 1 8 3 9 10 10 11 11 28 12 12 13
REMARK SMILES IDX 13 14 27 15 29 16 14 17 26 18 25 19 15 20 23 21 16 22 17 23
REMARK SMILES IDX 22 24 24 25 18 26 21 27 19 28 20 29
REMARK H PARENT 20 30
REMARK Flexibility Score: inf
ROOT
ATOM      1  C   UNL     1      35.647   9.661   7.376  1.00  0.00     0.012 C 
ATOM      2  C   UNL     1      35.093  11.082   7.540  1.00  0.00     0.012 C 
ENDROOT
BRANCH   1   3
ATOM      3  C   UNL     1      34.814   8.907   6.349  1.00  0.00    -0.028 C 
ATOM      4  C   UNL     1      34.537   7.587   6.380  1.00  0.00    -0.028 C 
BRANCH   4   5
ATOM      5  C   UNL     1      34.993   6.616   7.455  1.00  0.00     0.011 C 
ATOM      6  C   UNL     1      33.747   5.991   8.104  1.00  0.00     0.012 C 
BRANCH   5   7
ATOM      7  C   UNL     1      35.943   5.537   6.850  1.00  0.00    -0.011 C 
ATOM      8  C   UNL     1      35.554   4.124   7.323  1.00  0.00     0.008 C 
ATOM      9  C   UNL     1      35.943   5.563   5.312  1.00  0.00     0.008 C 
ENDBRANCH   5   7
ENDBRANCH   4   5
ENDBRANCH   1   3
BRANCH   1  10
ATOM     10  C   UNL     1      37.195   9.636   7.131  1.00  0.00     0.002 C 
ATOM     11  C   UNL     1      37.896   8.375   7.706  1.00  0.00     0.005 C 
ATOM     12  C   UNL     1      37.792   9.796   5.699  1.00  0.00    -0.023 C 
ATOM     13  C   UNL     1      39.141   8.117   6.843  1.00  0.00     0.009 C 
ATOM     14  C   UNL     1      39.243   9.365   5.976  1.00  0.00     0.021 C 
ATOM     15  C   UNL     1      37.843  11.249   5.141  1.00  0.00     0.008 C 
ATOM     16  C   UNL     1      37.083   8.862   4.674  1.00  0.00     0.012 C 
ATOM     17  C   UNL     1      40.060   9.404   4.709  1.00  0.00    -0.063 C 
ATOM     18  C   UNL     1      38.763  11.375   3.889  1.00  0.00     0.009 C 
ATOM     19  C   UNL     1      40.194  10.801   4.122  1.00  0.00     0.025 C 
ATOM     20  C   UNL     1      40.309   8.312   3.971  1.00  0.00    -0.000 C 
ATOM     21  C   UNL     1      41.193  10.850   2.894  1.00  0.00    -0.005 C 
ATOM     22  C   UNL     1      40.762   8.419   2.580  1.00  0.00    -0.000 C 
ATOM     23  C   UNL     1      41.080   9.597   2.023  1.00  0.00    -0.061 C 
ATOM     24  C   UNL     1      40.963  12.125   2.020  1.00  0.00     0.014 C 
ATOM     25  C   UNL     1      42.635  10.886   3.464  1.00  0.00     0.017 C 
ATOM     26  C   UNL     1      41.678   9.590   0.631  1.00  0.00     0.063 C 
ATOM     27  C   UNL     1      41.749  12.113   0.702  1.00  0.00     0.033 C 
ATOM     28  C   UNL     1      41.383  10.881  -0.140  1.00  0.00     0.118 C 
BRANCH  28  29
ATOM     29  O   UNL     1      40.026  10.910  -0.502  1.00  0.00    -0.393 OA
ATOM     30  H   UNL     1      39.554  10.276   0.101  1.00  0.00     0.210 HD
ENDBRANCH  28  29
ENDBRANCH   1  10
TORSDOF 5
ENDMDL
MODEL 4
REMARK VINA RESULT:    -3.047     13.166     15.976
REMARK INTER + INTRA:          -5.043
REMARK INTER:                  -4.200
REMARK INTRA:                  -0.843
REMARK UNBOUND:                -1.194
REMARK SMILES CC(C)[C@H](C)C=C[C@H](C)[C@H]1CC[C@H]2C3=CC=C4C[C@@H](O)CC[C@@]4(C)[C@H]3CC[C@]12C
REMARK SMILES IDX 8 1 9 2 7 3 6 4 4 5 5 6 2 7 1 8 3 9 10 10 11 11 28 12 12 13
REMARK SMILES IDX 13 14 27 15 29 16 14 17 26 18 25 19 15 20 23 21 16 22 17 23
REMARK SMILES IDX 22 24 24 25 18 26 21 27 19 28 20 29
REMARK H PARENT 20 30
REMARK Flexibility Score: inf
ROOT
ATOM      1  C   UNL     1      41.090  10.614   2.533  1.00  0.00     0.012 C 
ATOM      2  C   UNL     1      41.164  12.125   2.780  1.00  0.00     0.012 C 
ENDROOT
BRANCH   1   3
ATOM      3  C   UNL     1      42.221  10.194   1.605  1.00  0.00    -0.028 C 
ATOM      4  C   UNL     1      42.074   9.755   0.338  1.00  0.00    -0.028 C 
BRANCH   4   5
ATOM      5  C   UNL     1      40.753   9.613  -0.399  1.00  0.00     0.011 C 
ATOM      6  C   UNL     1      40.314  11.007  -0.877  1.00  0.00     0.012 C 
BRANCH   5   7
ATOM      7  C   UNL     1      40.891   8.604  -1.580  1.00  0.00    -0.011 C 
ATOM      8  C   UNL     1      40.095   9.075  -2.811  1.00  0.00     0.008 C 
ATOM      9  C   UNL     1      42.359   8.389  -1.990  1.00  0.00     0.008 C 
ENDBRANCH   5   7
ENDBRANCH   4   5
ENDBRANCH   1   3
BRANCH   1  10
ATOM     10  C   UNL     1      40.970   9.785   3.859  1.00  0.00     0.002 C 
ATOM     11  C   UNL     1      41.617  10.481   5.088  1.00  0.00     0.005 C 
ATOM     12  C   UNL     1      39.589   9.280   4.377  1.00  0.00    -0.023 C 
ATOM     13  C   UNL     1      40.859   9.992   6.334  1.00  0.00     0.009 C 
ATOM     14  C   UNL     1      39.987   8.862   5.803  1.00  0.00     0.021 C 
ATOM     15  C   UNL     1      39.017   8.015   3.670  1.00  0.00     0.008 C 
ATOM     16  C   UNL     1      38.523  10.415   4.370  1.00  0.00     0.012 C 
ATOM     17  C   UNL     1      38.790   8.344   6.560  1.00  0.00    -0.063 C 
ATOM     18  C   UNL     1      37.842   7.369   4.464  1.00  0.00     0.009 C 
ATOM     19  C   UNL     1      38.197   7.080   5.955  1.00  0.00     0.025 C 
ATOM     20  C   UNL     1      38.089   9.100   7.417  1.00  0.00    -0.000 C 
ATOM     21  C   UNL     1      37.052   6.456   6.855  1.00  0.00    -0.005 C 
ATOM     22  C   UNL     1      36.737   8.718   7.841  1.00  0.00    -0.000 C 
ATOM     23  C   UNL     1      36.192   7.540   7.507  1.00  0.00    -0.061 C 
ATOM     24  C   UNL     1      36.146   5.483   6.034  1.00  0.00     0.014 C 
ATOM     25  C   UNL     1      37.736   5.660   7.998  1.00  0.00     0.017 C 
ATOM     26  C   UNL     1      34.852   7.175   8.114  1.00  0.00     0.063 C 
ATOM     27  C   UNL     1      34.896   5.022   6.795  1.00  0.00     0.033 C 
ATOM     28  C   UNL     1      34.043   6.227   7.223  1.00  0.00     0.118 C 
BRANCH  28  29
ATOM     29  O   UNL     1      33.573   6.929   6.100  1.00  0.00    -0.393 OA
ATOM     30  H   UNL     1      34.277   6.859   5.402  1.00  0.00     0.210 HD
ENDBRANCH  28  29
ENDBRANCH   1  10
TORSDOF 5
ENDMDL
MODEL 5
REMARK VINA RESULT:    -3.025      2.730      7.925
REMARK INTER + INTRA:          -5.014
REMARK INTER:                  -3.912
REMARK INTRA:                  -1.102
REMARK UNBOUND:                -1.194
REMARK SMILES CC(C)[C@H](C)C=C[C@H](C)[C@H]1CC[C@H]2C3=CC=C4C[C@@H](O)CC[C@@]4(C)[C@H]3CC[C@]12C
REMARK SMILES IDX 8 1 9 2 7 3 6 4 4 5 5 6 2 7 1 8 3 9 10 10 11 11 28 12 12 13
REMARK SMILES IDX 13 14 27 15 29 16 14 17 26 18 25 19 15 20 23 21 16 22 17 23
REMARK SMILES IDX 22 24 24 25 18 26 21 27 19 28 20 29
REMARK H PARENT 20 30
REMARK Flexibility Score: inf
ROOT
ATOM      1  C   UNL     1      41.278   7.456 -11.711  1.00  0.00     0.012 C 
ATOM      2  C   UNL     1      40.511   8.718 -12.123  1.00  0.00     0.012 C 
ENDROOT
BRANCH   1   3
ATOM      3  C   UNL     1      42.772   7.743 -11.724  1.00  0.00    -0.028 C 
ATOM      4  C   UNL     1      43.424   8.547 -10.858  1.00  0.00    -0.028 C 
BRANCH   4   5
ATOM      5  C   UNL     1      42.787   9.299  -9.702  1.00  0.00     0.011 C 
ATOM      6  C   UNL     1      43.442   8.823  -8.395  1.00  0.00     0.012 C 
BRANCH   5   7
ATOM      7  C   UNL     1      42.933  10.838  -9.904  1.00  0.00    -0.011 C 
ATOM      8  C   UNL     1      43.994  11.162 -10.972  1.00  0.00     0.008 C 
ATOM      9  C   UNL     1      41.603  11.498 -10.310  1.00  0.00     0.008 C 
ENDBRANCH   5   7
ENDBRANCH   4   5
ENDBRANCH   1   3
BRANCH   1  10
ATOM     10  C   UNL     1      40.731   6.816 -10.388  1.00  0.00     0.002 C 
ATOM     11  C   UNL     1      39.187   6.648 -10.369  1.00  0.00     0.005 C 
ATOM     12  C   UNL     1      41.279   5.455  -9.860  1.00  0.00    -0.023 C 
ATOM     13  C   UNL     1      38.874   5.453  -9.455  1.00  0.00     0.009 C 
ATOM     14  C   UNL     1      40.212   5.144  -8.796  1.00  0.00     0.021 C 
ATOM     15  C   UNL     1      42.654   5.511  -9.129  1.00  0.00     0.008 C 
ATOM     16  C   UNL     1      41.323   4.378 -10.984  1.00  0.00     0.012 C 
ATOM     17  C   UNL     1      40.496   3.823  -8.127  1.00  0.00    -0.063 C 
ATOM     18  C   UNL     1      42.956   4.209  -8.328  1.00  0.00     0.009 C 
ATOM     19  C   UNL     1      41.806   3.810  -7.353  1.00  0.00     0.025 C 
ATOM     20  C   UNL     1      39.887   2.683  -8.482  1.00  0.00    -0.000 C 
ATOM     21  C   UNL     1      42.005   2.477  -6.519  1.00  0.00    -0.005 C 
ATOM     22  C   UNL     1      40.433   1.375  -8.102  1.00  0.00    -0.000 C 
ATOM     23  C   UNL     1      41.482   1.254  -7.275  1.00  0.00    -0.061 C 
ATOM     24  C   UNL     1      43.504   2.262  -6.136  1.00  0.00     0.014 C 
ATOM     25  C   UNL     1      41.169   2.609  -5.219  1.00  0.00     0.017 C 
ATOM     26  C   UNL     1      41.880  -0.137  -6.826  1.00  0.00     0.063 C 
ATOM     27  C   UNL     1      43.787   0.884  -5.522  1.00  0.00     0.033 C 
ATOM     28  C   UNL     1      43.371  -0.238  -6.485  1.00  0.00     0.118 C 
BRANCH  28  29
ATOM     29  O   UNL     1      44.125  -0.183  -7.670  1.00  0.00    -0.393 OA
ATOM     30  H   UNL     1      43.723   0.529  -8.233  1.00  0.00     0.210 HD
ENDBRANCH  28  29
ENDBRANCH   1  10
TORSDOF 5
ENDMDL
MODEL 6
REMARK VINA RESULT:    -2.954     14.740     16.596
REMARK INTER + INTRA:          -4.925
REMARK INTER:                  -5.498
REMARK INTRA:                   0.573
REMARK UNBOUND:                -1.194
REMARK SMILES CC(C)[C@H](C)C=C[C@H](C)[C@H]1CC[C@H]2C3=CC=C4C[C@@H](O)CC[C@@]4(C)[C@H]3CC[C@]12C
REMARK SMILES IDX 8 1 9 2 7 3 6 4 4 5 5 6 2 7 1 8 3 9 10 10 11 11 28 12 12 13
REMARK SMILES IDX 13 14 27 15 29 16 14 17 26 18 25 19 15 20 23 21 16 22 17 23
REMARK SMILES IDX 22 24 24 25 18 26 21 27 19 28 20 29
REMARK H PARENT 20 30
REMARK Flexibility Score: inf
ROOT
ATOM      1  C   UNL     1      42.148  10.680   6.226  1.00  0.00     0.012 C 
ATOM      2  C   UNL     1      42.224  12.117   5.696  1.00  0.00     0.012 C 
ENDROOT
BRANCH   1   3
ATOM      3  C   UNL     1      43.236  10.465   7.267  1.00  0.00    -0.028 C 
ATOM      4  C   UNL     1      43.825   9.285   7.555  1.00  0.00    -0.028 C 
BRANCH   4   5
ATOM      5  C   UNL     1      43.518   7.960   6.880  1.00  0.00     0.011 C 
ATOM      6  C   UNL     1      44.118   6.831   7.735  1.00  0.00     0.012 C 
BRANCH   5   7
ATOM      7  C   UNL     1      41.981   7.790   6.680  1.00  0.00    -0.011 C 
ATOM      8  C   UNL     1      41.671   6.916   5.451  1.00  0.00     0.008 C 
ATOM      9  C   UNL     1      41.301   7.171   7.914  1.00  0.00     0.008 C 
ENDBRANCH   5   7
ENDBRANCH   4   5
ENDBRANCH   1   3
BRANCH   1  10
ATOM     10  C   UNL     1      40.702  10.272   6.676  1.00  0.00     0.002 C 
ATOM     11  C   UNL     1      40.322  10.787   8.092  1.00  0.00     0.005 C 
ATOM     12  C   UNL     1      39.457  10.598   5.794  1.00  0.00    -0.023 C 
ATOM     13  C   UNL     1      38.795  10.962   8.114  1.00  0.00     0.009 C 
ATOM     14  C   UNL     1      38.340  10.312   6.813  1.00  0.00     0.021 C 
ATOM     15  C   UNL     1      39.220   9.656   4.576  1.00  0.00     0.008 C 
ATOM     16  C   UNL     1      39.460  12.081   5.321  1.00  0.00     0.012 C 
ATOM     17  C   UNL     1      36.986  10.582   6.207  1.00  0.00    -0.063 C 
ATOM     18  C   UNL     1      37.792   9.813   3.972  1.00  0.00     0.009 C 
ATOM     19  C   UNL     1      36.659   9.671   5.033  1.00  0.00     0.025 C 
ATOM     20  C   UNL     1      36.315  11.725   6.407  1.00  0.00    -0.000 C 
ATOM     21  C   UNL     1      35.171   9.851   4.520  1.00  0.00    -0.005 C 
ATOM     22  C   UNL     1      35.209  12.125   5.529  1.00  0.00    -0.000 C 
ATOM     23  C   UNL     1      34.728  11.314   4.576  1.00  0.00    -0.061 C 
ATOM     24  C   UNL     1      34.996   9.299   3.069  1.00  0.00     0.014 C 
ATOM     25  C   UNL     1      34.246   9.052   5.476  1.00  0.00     0.017 C 
ATOM     26  C   UNL     1      33.491  11.756   3.820  1.00  0.00     0.063 C 
ATOM     27  C   UNL     1      33.638   9.645   2.443  1.00  0.00     0.033 C 
ATOM     28  C   UNL     1      33.425  11.166   2.407  1.00  0.00     0.118 C 
BRANCH  28  29
ATOM     29  O   UNL     1      34.392  11.786   1.597  1.00  0.00    -0.393 OA
ATOM     30  H   UNL     1      34.797  12.514   2.139  1.00  0.00     0.210 HD
ENDBRANCH  28  29
ENDBRANCH   1  10
TORSDOF 5
ENDMDL
MODEL 7
REMARK VINA RESULT:    -2.932     15.063     16.660
REMARK INTER + INTRA:          -4.897
REMARK INTER:                  -3.541
REMARK INTRA:                  -1.357
REMARK UNBOUND:                -1.194
REMARK SMILES CC(C)[C@H](C)C=C[C@H](C)[C@H]1CC[C@H]2C3=CC=C4C[C@@H](O)CC[C@@]4(C)[C@H]3CC[C@]12C
REMARK SMILES IDX 8 1 9 2 7 3 6 4 4 5 5 6 2 7 1 8 3 9 10 10 11 11 28 12 12 13
REMARK SMILES IDX 13 14 27 15 29 16 14 17 26 18 25 19 15 20 23 21 16 22 17 23
REMARK SMILES IDX 22 24 24 25 18 26 21 27 19 28 20 29
REMARK H PARENT 20 30
REMARK Flexibility Score: inf
ROOT
ATOM      1  C   UNL     1      33.423   7.660   5.190  1.00  0.00     0.012 C 
ATOM      2  C   UNL     1      31.966   7.935   4.797  1.00  0.00     0.012 C 
ENDROOT
BRANCH   1   3
ATOM      3  C   UNL     1      33.729   6.181   4.999  1.00  0.00    -0.028 C 
ATOM      4  C   UNL     1      34.354   5.388   5.894  1.00  0.00    -0.028 C 
BRANCH   4   5
ATOM      5  C   UNL     1      34.854   5.823   7.261  1.00  0.00     0.011 C 
ATOM      6  C   UNL     1      33.650   6.316   8.081  1.00  0.00     0.012 C 
BRANCH   5   7
ATOM      7  C   UNL     1      35.605   4.654   7.967  1.00  0.00    -0.011 C 
ATOM      8  C   UNL     1      35.432   3.333   7.194  1.00  0.00     0.008 C 
ATOM      9  C   UNL     1      37.109   4.943   8.125  1.00  0.00     0.008 C 
ENDBRANCH   5   7
ENDBRANCH   4   5
ENDBRANCH   1   3
BRANCH   1  10
ATOM     10  C   UNL     1      34.434   8.645   4.509  1.00  0.00     0.002 C 
ATOM     11  C   UNL     1      33.815  10.025   4.151  1.00  0.00     0.005 C 
ATOM     12  C   UNL     1      35.802   8.991   5.174  1.00  0.00    -0.023 C 
ATOM     13  C   UNL     1      34.956  11.054   4.185  1.00  0.00     0.009 C 
ATOM     14  C   UNL     1      36.209  10.197   4.310  1.00  0.00     0.021 C 
ATOM     15  C   UNL     1      36.922   7.919   5.025  1.00  0.00     0.008 C 
ATOM     16  C   UNL     1      35.631   9.369   6.674  1.00  0.00     0.012 C 
ATOM     17  C   UNL     1      37.529  10.761   4.774  1.00  0.00    -0.063 C 
ATOM     18  C   UNL     1      38.332   8.477   5.387  1.00  0.00     0.009 C 
ATOM     19  C   UNL     1      38.687   9.787   4.620  1.00  0.00     0.025 C 
ATOM     20  C   UNL     1      37.620  11.828   5.581  1.00  0.00    -0.000 C 
ATOM     21  C   UNL     1      40.088  10.451   4.949  1.00  0.00    -0.005 C 
ATOM     22  C   UNL     1      38.855  12.125   6.316  1.00  0.00    -0.000 C 
ATOM     23  C   UNL     1      39.986  11.433   6.117  1.00  0.00    -0.061 C 
ATOM     24  C   UNL     1      41.174   9.372   5.256  1.00  0.00     0.014 C 
ATOM     25  C   UNL     1      40.525  11.263   3.701  1.00  0.00     0.017 C 
ATOM     26  C   UNL     1      41.245  11.908   6.814  1.00  0.00     0.063 C 
ATOM     27  C   UNL     1      42.486   9.960   5.794  1.00  0.00     0.033 C 
ATOM     28  C   UNL     1      42.236  10.769   7.076  1.00  0.00     0.118 C 
BRANCH  28  29
ATOM     29  O   UNL     1      41.737   9.943   8.097  1.00  0.00    -0.393 OA
ATOM     30  H   UNL     1      42.500   9.397   8.424  1.00  0.00     0.210 HD
ENDBRANCH  28  29
ENDBRANCH   1  10
TORSDOF 5
ENDMDL
