MODEL 1
REMARK VINA RESULT:    -3.904      0.000      0.000
REMARK INTER + INTRA:          -6.141
REMARK INTER:                  -5.502
REMARK INTRA:                  -0.639
REMARK UNBOUND:                -0.639
REMARK SMILES CCCCCCCCC(=O)[O-]
REMARK SMILES IDX 6 1 7 2 8 3 9 4 10 5 11 6 5 7 4 8 3 9 2 10 1 11
REMARK H PARENT
REMARK Flexibility Score: inf
ROOT
ATOM      1  C   UNL     1       2.072  48.981  21.733  1.00  0.00     0.000 C 
ENDROOT
BRANCH   1   2
ATOM      2  C   UNL     1       0.939  47.944  21.794  1.00  0.00     0.006 C 
BRANCH   2   3
ATOM      3  C   UNL     1       0.088  48.074  23.065  1.00  0.00     0.053 C 
BRANCH   3   4
ATOM      4  C   UNL     1      -0.550  46.763  23.401  1.00  0.00     0.041 C 
ATOM      5  O   UNL     1      -0.740  45.902  22.501  1.00  0.00    -0.550 OA
ATOM      6  O   UNL     1      -0.889  46.472  24.716  1.00  0.00    -0.550 OA
ENDBRANCH   3   4
ENDBRANCH   2   3
ENDBRANCH   1   2
BRANCH   1   7
ATOM      7  C   UNL     1       1.556  50.407  21.487  1.00  0.00     0.000 C 
BRANCH   7   8
ATOM      8  C   UNL     1       2.234  51.407  22.432  1.00  0.00    -0.000 C 
BRANCH   8   9
ATOM      9  C   UNL     1       1.544  51.422  23.803  1.00  0.00    -0.000 C 
BRANCH   9  10
ATOM     10  C   UNL     1       2.520  51.154  24.959  1.00  0.00    -0.003 C 
ATOM     11  C   UNL     1       2.420  49.727  25.498  1.00  0.00     0.004 C 
ENDBRANCH   9  10
ENDBRANCH   8   9
ENDBRANCH   7   8
ENDBRANCH   1   7
TORSDOF 7
ENDMDL
MODEL 2
REMARK VINA RESULT:    -3.792      1.302      2.381
REMARK INTER + INTRA:          -5.983
REMARK INTER:                  -5.647
REMARK INTRA:                  -0.336
REMARK UNBOUND:                -0.639
REMARK SMILES CCCCCCCCC(=O)[O-]
REMARK SMILES IDX 6 1 7 2 8 3 9 4 10 5 11 6 5 7 4 8 3 9 2 10 1 11
REMARK H PARENT
REMARK Flexibility Score: inf
ROOT
ATOM      1  C   UNL     1       0.215  48.036  22.931  1.00  0.00     0.000 C 
ENDROOT
BRANCH   1   2
ATOM      2  C   UNL     1      -0.548  46.713  23.102  1.00  0.00     0.006 C 
BRANCH   2   3
ATOM      3  C   UNL     1      -0.682  46.296  24.572  1.00  0.00     0.053 C 
BRANCH   3   4
ATOM      4  C   UNL     1      -2.110  45.986  24.897  1.00  0.00     0.041 C 
ATOM      5  O   UNL     1      -2.725  45.092  24.258  1.00  0.00    -0.550 OA
ATOM      6  O   UNL     1      -2.747  46.651  25.936  1.00  0.00    -0.550 OA
ENDBRANCH   3   4
ENDBRANCH   2   3
ENDBRANCH   1   2
BRANCH   1   7
ATOM      7  C   UNL     1       1.048  48.076  21.640  1.00  0.00     0.000 C 
BRANCH   7   8
ATOM      8  C   UNL     1       2.136  49.154  21.723  1.00  0.00    -0.000 C 
BRANCH   8   9
ATOM      9  C   UNL     1       1.532  50.558  21.571  1.00  0.00    -0.000 C 
BRANCH   9  10
ATOM     10  C   UNL     1       2.134  51.570  22.559  1.00  0.00    -0.003 C 
ATOM     11  C   UNL     1       2.140  51.059  23.999  1.00  0.00     0.004 C 
ENDBRANCH   9  10
ENDBRANCH   8   9
ENDBRANCH   7   8
ENDBRANCH   1   7
TORSDOF 7
ENDMDL
MODEL 3
REMARK VINA RESULT:    -3.785      3.704      5.373
REMARK INTER + INTRA:          -5.973
REMARK INTER:                  -5.601
REMARK INTRA:                  -0.372
REMARK UNBOUND:                -0.639
REMARK SMILES CCCCCCCCC(=O)[O-]
REMARK SMILES IDX 6 1 7 2 8 3 9 4 10 5 11 6 5 7 4 8 3 9 2 10 1 11
REMARK H PARENT
REMARK Flexibility Score: inf
ROOT
ATOM      1  C   UNL     1       1.973  49.821  23.144  1.00  0.00     0.000 C 
ENDROOT
BRANCH   1   2
ATOM      2  C   UNL     1       2.046  51.351  23.004  1.00  0.00     0.006 C 
BRANCH   2   3
ATOM      3  C   UNL     1       1.676  51.832  21.595  1.00  0.00     0.053 C 
BRANCH   3   4
ATOM      4  C   UNL     1       1.395  53.302  21.605  1.00  0.00     0.041 C 
ATOM      5  O   UNL     1       2.150  54.087  22.238  1.00  0.00    -0.550 OA
ATOM      6  O   UNL     1       0.329  53.812  20.875  1.00  0.00    -0.550 OA
ENDBRANCH   3   4
ENDBRANCH   2   3
ENDBRANCH   1   2
BRANCH   1   7
ATOM      7  C   UNL     1       2.076  49.099  21.792  1.00  0.00     0.000 C 
BRANCH   7   8
ATOM      8  C   UNL     1       1.003  48.009  21.669  1.00  0.00    -0.000 C 
BRANCH   8   9
ATOM      9  C   UNL     1       0.118  47.967  22.923  1.00  0.00    -0.000 C 
BRANCH   9  10
ATOM     10  C   UNL     1      -0.535  46.592  23.139  1.00  0.00    -0.003 C 
ATOM     11  C   UNL     1      -0.644  46.215  24.616  1.00  0.00     0.004 C 
ENDBRANCH   9  10
ENDBRANCH   8   9
ENDBRANCH   7   8
ENDBRANCH   1   7
TORSDOF 7
ENDMDL
MODEL 4
REMARK VINA RESULT:    -3.759      1.087      1.365
REMARK INTER + INTRA:          -5.936
REMARK INTER:                  -5.339
REMARK INTRA:                  -0.596
REMARK UNBOUND:                -0.639
REMARK SMILES CCCCCCCCC(=O)[O-]
REMARK SMILES IDX 6 1 7 2 8 3 9 4 10 5 11 6 5 7 4 8 3 9 2 10 1 11
REMARK H PARENT
REMARK Flexibility Score: inf
ROOT
ATOM      1  C   UNL     1       1.196  48.967  21.634  1.00  0.00     0.000 C 
ENDROOT
BRANCH   1   2
ATOM      2  C   UNL     1       0.964  48.816  23.146  1.00  0.00     0.006 C 
BRANCH   2   3
ATOM      3  C   UNL     1      -0.458  48.346  23.481  1.00  0.00     0.053 C 
BRANCH   3   4
ATOM      4  C   UNL     1      -0.483  46.864  23.685  1.00  0.00     0.041 C 
ATOM      5  O   UNL     1      -0.818  46.100  22.741  1.00  0.00    -0.550 OA
ATOM      6  O   UNL     1      -0.090  46.323  24.902  1.00  0.00    -0.550 OA
ENDBRANCH   3   4
ENDBRANCH   2   3
ENDBRANCH   1   2
BRANCH   1   7
ATOM      7  C   UNL     1       1.769  50.342  21.258  1.00  0.00     0.000 C 
BRANCH   7   8
ATOM      8  C   UNL     1       0.933  51.472  21.874  1.00  0.00    -0.000 C 
BRANCH   8   9
ATOM      9  C   UNL     1       1.827  52.640  22.314  1.00  0.00    -0.000 C 
BRANCH   9  10
ATOM     10  C   UNL     1       3.024  52.181  23.162  1.00  0.00    -0.003 C 
ATOM     11  C   UNL     1       2.630  51.826  24.596  1.00  0.00     0.004 C 
ENDBRANCH   9  10
ENDBRANCH   8   9
ENDBRANCH   7   8
ENDBRANCH   1   7
TORSDOF 7
ENDMDL
MODEL 5
REMARK VINA RESULT:    -3.706      3.903      5.462
REMARK INTER + INTRA:          -5.861
REMARK INTER:                  -5.575
REMARK INTRA:                  -0.286
REMARK UNBOUND:                -0.639
REMARK SMILES CCCCCCCCC(=O)[O-]
REMARK SMILES IDX 6 1 7 2 8 3 9 4 10 5 11 6 5 7 4 8 3 9 2 10 1 11
REMARK H PARENT
REMARK Flexibility Score: inf
ROOT
ATOM      1  C   UNL     1       1.501  50.557  21.234  1.00  0.00     0.000 C 
ENDROOT
BRANCH   1   2
ATOM      2  C   UNL     1       1.587  51.835  22.083  1.00  0.00     0.006 C 
BRANCH   2   3
ATOM      3  C   UNL     1       2.786  51.827  23.040  1.00  0.00     0.053 C 
BRANCH   3   4
ATOM      4  C   UNL     1       3.189  53.227  23.383  1.00  0.00     0.041 C 
ATOM      5  O   UNL     1       3.368  54.076  22.470  1.00  0.00    -0.550 OA
ATOM      6  O   UNL     1       3.318  53.608  24.712  1.00  0.00    -0.550 OA
ENDBRANCH   3   4
ENDBRANCH   2   3
ENDBRANCH   1   2
BRANCH   1   7
ATOM      7  C   UNL     1       2.051  49.323  21.965  1.00  0.00     0.000 C 
BRANCH   7   8
ATOM      8  C   UNL     1       1.068  48.148  21.875  1.00  0.00    -0.000 C 
BRANCH   8   9
ATOM      9  C   UNL     1       0.074  48.174  23.045  1.00  0.00    -0.000 C 
BRANCH   9  10
ATOM     10  C   UNL     1      -0.652  46.832  23.232  1.00  0.00    -0.003 C 
ATOM     11  C   UNL     1      -0.415  46.219  24.612  1.00  0.00     0.004 C 
ENDBRANCH   9  10
ENDBRANCH   8   9
ENDBRANCH   7   8
ENDBRANCH   1   7
TORSDOF 7
ENDMDL
MODEL 6
REMARK VINA RESULT:    -3.695     17.581     18.970
REMARK INTER + INTRA:          -5.846
REMARK INTER:                  -5.260
REMARK INTRA:                  -0.586
REMARK UNBOUND:                -0.639
REMARK SMILES CCCCCCCCC(=O)[O-]
REMARK SMILES IDX 6 1 7 2 8 3 9 4 10 5 11 6 5 7 4 8 3 9 2 10 1 11
REMARK H PARENT
REMARK Flexibility Score: inf
ROOT
ATOM      1  C   UNL     1      -9.017  51.777  39.227  1.00  0.00     0.000 C 
ENDROOT
BRANCH   1   2
ATOM      2  C   UNL     1      -9.982  52.097  38.074  1.00  0.00     0.006 C 
BRANCH   2   3
ATOM      3  C   UNL     1     -10.369  50.851  37.266  1.00  0.00     0.053 C 
BRANCH   3   4
ATOM      4  C   UNL     1     -10.819  51.241  35.893  1.00  0.00     0.041 C 
ATOM      5  O   UNL     1     -11.874  51.912  35.739  1.00  0.00    -0.550 OA
ATOM      6  O   UNL     1     -10.050  50.904  34.787  1.00  0.00    -0.550 OA
ENDBRANCH   3   4
ENDBRANCH   2   3
ENDBRANCH   1   2
BRANCH   1   7
ATOM      7  C   UNL     1      -9.749  51.368  40.514  1.00  0.00     0.000 C 
BRANCH   7   8
ATOM      8  C   UNL     1      -9.233  50.019  41.033  1.00  0.00    -0.000 C 
BRANCH   8   9
ATOM      9  C   UNL     1      -8.130  49.465  40.121  1.00  0.00    -0.000 C 
BRANCH   9  10
ATOM     10  C   UNL     1      -8.261  47.952  39.887  1.00  0.00    -0.003 C 
ATOM     11  C   UNL     1      -8.707  47.609  38.466  1.00  0.00     0.004 C 
ENDBRANCH   9  10
ENDBRANCH   8   9
ENDBRANCH   7   8
ENDBRANCH   1   7
TORSDOF 7
ENDMDL
MODEL 7
REMARK VINA RESULT:    -3.627      1.303      2.970
REMARK INTER + INTRA:          -5.751
REMARK INTER:                  -5.184
REMARK INTRA:                  -0.567
REMARK UNBOUND:                -0.639
REMARK SMILES CCCCCCCCC(=O)[O-]
REMARK SMILES IDX 6 1 7 2 8 3 9 4 10 5 11 6 5 7 4 8 3 9 2 10 1 11
REMARK H PARENT
REMARK Flexibility Score: inf
ROOT
ATOM      1  C   UNL     1       0.717  48.858  25.816  1.00  0.00     0.000 C 
ENDROOT
BRANCH   1   2
ATOM      2  C   UNL     1      -0.371  48.169  24.978  1.00  0.00     0.006 C 
BRANCH   2   3
ATOM      3  C   UNL     1      -0.168  46.651  24.882  1.00  0.00     0.053 C 
BRANCH   3   4
ATOM      4  C   UNL     1      -1.191  46.045  23.972  1.00  0.00     0.041 C 
ATOM      5  O   UNL     1      -0.949  45.918  22.743  1.00  0.00    -0.550 OA
ATOM      6  O   UNL     1      -2.391  45.577  24.490  1.00  0.00    -0.550 OA
ENDBRANCH   3   4
ENDBRANCH   2   3
ENDBRANCH   1   2
BRANCH   1   7
ATOM      7  C   UNL     1       1.813  49.500  24.950  1.00  0.00     0.000 C 
BRANCH   7   8
ATOM      8  C   UNL     1       1.199  50.344  23.826  1.00  0.00    -0.000 C 
BRANCH   8   9
ATOM      9  C   UNL     1       2.072  50.294  22.563  1.00  0.00    -0.000 C 
BRANCH   9  10
ATOM     10  C   UNL     1       1.352  49.641  21.373  1.00  0.00    -0.003 C 
ATOM     11  C   UNL     1       1.339  48.115  21.456  1.00  0.00     0.004 C 
ENDBRANCH   9  10
ENDBRANCH   8   9
ENDBRANCH   7   8
ENDBRANCH   1   7
TORSDOF 7
ENDMDL
MODEL 8
REMARK VINA RESULT:    -3.581      2.704      4.390
REMARK INTER + INTRA:          -5.685
REMARK INTER:                  -5.524
REMARK INTRA:                  -0.161
REMARK UNBOUND:                -0.639
REMARK SMILES CCCCCCCCC(=O)[O-]
REMARK SMILES IDX 6 1 7 2 8 3 9 4 10 5 11 6 5 7 4 8 3 9 2 10 1 11
REMARK H PARENT
REMARK Flexibility Score: inf
ROOT
ATOM      1  C   UNL     1      -0.865  46.282  24.435  1.00  0.00     0.000 C 
ENDROOT
BRANCH   1   2
ATOM      2  C   UNL     1      -2.380  46.123  24.636  1.00  0.00     0.006 C 
BRANCH   2   3
ATOM      3  C   UNL     1      -2.890  44.741  24.208  1.00  0.00     0.053 C 
BRANCH   3   4
ATOM      4  C   UNL     1      -4.386  44.709  24.227  1.00  0.00     0.041 C 
ATOM      5  O   UNL     1      -5.003  43.684  23.832  1.00  0.00    -0.550 OA
ATOM      6  O   UNL     1      -5.098  45.792  24.725  1.00  0.00    -0.550 OA
ENDBRANCH   3   4
ENDBRANCH   2   3
ENDBRANCH   1   2
BRANCH   1   7
ATOM      7  C   UNL     1      -0.496  46.654  22.990  1.00  0.00     0.000 C 
BRANCH   7   8
ATOM      8  C   UNL     1       0.207  48.017  22.937  1.00  0.00    -0.000 C 
BRANCH   8   9
ATOM      9  C   UNL     1       1.087  48.132  21.684  1.00  0.00    -0.000 C 
BRANCH   9  10
ATOM     10  C   UNL     1       1.941  49.410  21.678  1.00  0.00    -0.003 C 
ATOM     11  C   UNL     1       1.102  50.682  21.802  1.00  0.00     0.004 C 
ENDBRANCH   9  10
ENDBRANCH   8   9
ENDBRANCH   7   8
ENDBRANCH   1   7
TORSDOF 7
ENDMDL
MODEL 9
REMARK VINA RESULT:    -3.559      2.845      3.984
REMARK INTER + INTRA:          -5.653
REMARK INTER:                  -4.912
REMARK INTRA:                  -0.742
REMARK UNBOUND:                -0.639
REMARK SMILES CCCCCCCCC(=O)[O-]
REMARK SMILES IDX 6 1 7 2 8 3 9 4 10 5 11 6 5 7 4 8 3 9 2 10 1 11
REMARK H PARENT
REMARK Flexibility Score: inf
ROOT
ATOM      1  C   UNL     1       0.992  48.009  21.502  1.00  0.00     0.000 C 
ENDROOT
BRANCH   1   2
ATOM      2  C   UNL     1       2.069  49.012  21.947  1.00  0.00     0.006 C 
BRANCH   2   3
ATOM      3  C   UNL     1       1.899  50.389  21.292  1.00  0.00     0.053 C 
BRANCH   3   4
ATOM      4  C   UNL     1       1.658  51.435  22.335  1.00  0.00     0.041 C 
ATOM      5  O   UNL     1       2.629  51.966  22.936  1.00  0.00    -0.550 OA
ATOM      6  O   UNL     1       0.364  51.858  22.609  1.00  0.00    -0.550 OA
ENDBRANCH   3   4
ENDBRANCH   2   3
ENDBRANCH   1   2
BRANCH   1   7
ATOM      7  C   UNL     1       0.210  47.417  22.684  1.00  0.00     0.000 C 
BRANCH   7   8
ATOM      8  C   UNL     1      -0.259  48.523  23.640  1.00  0.00    -0.000 C 
BRANCH   8   9
ATOM      9  C   UNL     1       0.263  48.277  25.063  1.00  0.00    -0.000 C 
BRANCH   9  10
ATOM     10  C   UNL     1       0.946  49.516  25.664  1.00  0.00    -0.003 C 
ATOM     11  C   UNL     1       2.468  49.474  25.535  1.00  0.00     0.004 C 
ENDBRANCH   9  10
ENDBRANCH   8   9
ENDBRANCH   7   8
ENDBRANCH   1   7
TORSDOF 7
ENDMDL
