MODEL 1
REMARK VINA RESULT:    -4.067      0.000      0.000
REMARK INTER + INTRA:          -5.128
REMARK INTER:                  -5.018
REMARK INTRA:                  -0.110
REMARK UNBOUND:                -0.110
REMARK SMILES CCCCCC(=O)[O-]
REMARK SMILES IDX 4 1 5 2 6 3 7 4 8 5 3 6 2 7 1 8
REMARK H PARENT
REMARK Flexibility Score: inf
ROOT
ATOM      1  C   UNL     1     158.995 146.571 153.427  1.00  0.00     0.006 C 
ENDROOT
BRANCH   1   2
ATOM      2  C   UNL     1     158.313 145.561 152.494  1.00  0.00     0.053 C 
BRANCH   2   3
ATOM      3  C   UNL     1     158.922 145.570 151.126  1.00  0.00     0.041 C 
ATOM      4  O   UNL     1     159.898 144.817 150.863  1.00  0.00    -0.550 OA
ATOM      5  O   UNL     1     158.392 146.381 150.132  1.00  0.00    -0.550 OA
ENDBRANCH   2   3
ENDBRANCH   1   2
BRANCH   1   6
ATOM      6  C   UNL     1     160.071 145.913 154.309  1.00  0.00     0.000 C 
BRANCH   6   7
ATOM      7  C   UNL     1     160.715 146.903 155.291  1.00  0.00    -0.003 C 
ATOM      8  C   UNL     1     160.299 148.349 155.029  1.00  0.00     0.004 C 
ENDBRANCH   6   7
ENDBRANCH   1   6
TORSDOF 4
ENDMDL
MODEL 2
REMARK VINA RESULT:    -4.061      2.797      4.509
REMARK INTER + INTRA:          -5.121
REMARK INTER:                  -5.076
REMARK INTRA:                  -0.045
REMARK UNBOUND:                -0.110
REMARK SMILES CCCCCC(=O)[O-]
REMARK SMILES IDX 4 1 5 2 6 3 7 4 8 5 3 6 2 7 1 8
REMARK H PARENT
REMARK Flexibility Score: inf
ROOT
ATOM      1  C   UNL     1     158.735 146.375 153.184  1.00  0.00     0.006 C 
ENDROOT
BRANCH   1   2
ATOM      2  C   UNL     1     159.822 146.040 154.213  1.00  0.00     0.053 C 
BRANCH   2   3
ATOM      3  C   UNL     1     160.384 147.275 154.849  1.00  0.00     0.041 C 
ATOM      4  O   UNL     1     161.406 147.200 155.582  1.00  0.00    -0.550 OA
ATOM      5  O   UNL     1     159.802 148.511 154.606  1.00  0.00    -0.550 OA
ENDBRANCH   2   3
ENDBRANCH   1   2
BRANCH   1   6
ATOM      6  C   UNL     1     158.678 145.344 152.043  1.00  0.00     0.000 C 
BRANCH   6   7
ATOM      7  C   UNL     1     158.309 145.979 150.693  1.00  0.00    -0.003 C 
ATOM      8  C   UNL     1     157.524 145.030 149.789  1.00  0.00     0.004 C 
ENDBRANCH   6   7
ENDBRANCH   1   6
TORSDOF 4
ENDMDL
MODEL 3
REMARK VINA RESULT:    -4.029      0.736      1.409
REMARK INTER + INTRA:          -5.082
REMARK INTER:                  -4.953
REMARK INTRA:                  -0.129
REMARK UNBOUND:                -0.110
REMARK SMILES CCCCCC(=O)[O-]
REMARK SMILES IDX 4 1 5 2 6 3 7 4 8 5 3 6 2 7 1 8
REMARK H PARENT
REMARK Flexibility Score: inf
ROOT
ATOM      1  C   UNL     1     159.293 145.343 153.895  1.00  0.00     0.006 C 
ENDROOT
BRANCH   1   2
ATOM      2  C   UNL     1     158.620 146.211 152.823  1.00  0.00     0.053 C 
BRANCH   2   3
ATOM      3  C   UNL     1     158.787 145.629 151.453  1.00  0.00     0.041 C 
ATOM      4  O   UNL     1     157.979 145.933 150.534  1.00  0.00    -0.550 OA
ATOM      5  O   UNL     1     159.851 144.781 151.180  1.00  0.00    -0.550 OA
ENDBRANCH   2   3
ENDBRANCH   1   2
BRANCH   1   6
ATOM      6  C   UNL     1     160.334 146.130 154.710  1.00  0.00     0.000 C 
BRANCH   6   7
ATOM      7  C   UNL     1     160.048 147.640 154.731  1.00  0.00    -0.003 C 
ATOM      8  C   UNL     1     160.824 148.373 155.824  1.00  0.00     0.004 C 
ENDBRANCH   6   7
ENDBRANCH   1   6
TORSDOF 4
ENDMDL
MODEL 4
REMARK VINA RESULT:    -3.462     22.656     23.571
REMARK INTER + INTRA:          -4.382
REMARK INTER:                  -4.318
REMARK INTRA:                  -0.064
REMARK UNBOUND:                -0.110
REMARK SMILES CCCCCC(=O)[O-]
REMARK SMILES IDX 4 1 5 2 6 3 7 4 8 5 3 6 2 7 1 8
REMARK H PARENT
REMARK Flexibility Score: inf
ROOT
ATOM      1  C   UNL     1     150.413 163.851 139.104  1.00  0.00     0.006 C 
ENDROOT
BRANCH   1   2
ATOM      2  C   UNL     1     151.758 164.020 138.384  1.00  0.00     0.053 C 
BRANCH   2   3
ATOM      3  C   UNL     1     152.052 162.864 137.478  1.00  0.00     0.041 C 
ATOM      4  O   UNL     1     151.543 161.735 137.708  1.00  0.00    -0.550 OA
ATOM      5  O   UNL     1     152.859 163.041 136.362  1.00  0.00    -0.550 OA
ENDBRANCH   2   3
ENDBRANCH   1   2
BRANCH   1   6
ATOM      6  C   UNL     1     150.535 164.074 140.622  1.00  0.00     0.000 C 
BRANCH   6   7
ATOM      7  C   UNL     1     149.186 163.945 141.346  1.00  0.00    -0.003 C 
ATOM      8  C   UNL     1     149.337 163.498 142.799  1.00  0.00     0.004 C 
ENDBRANCH   6   7
ENDBRANCH   1   6
TORSDOF 4
ENDMDL
MODEL 5
REMARK VINA RESULT:    -3.388      2.375      4.437
REMARK INTER + INTRA:          -4.290
REMARK INTER:                  -4.074
REMARK INTRA:                  -0.216
REMARK UNBOUND:                -0.110
REMARK SMILES CCCCCC(=O)[O-]
REMARK SMILES IDX 4 1 5 2 6 3 7 4 8 5 3 6 2 7 1 8
REMARK H PARENT
REMARK Flexibility Score: inf
ROOT
ATOM      1  C   UNL     1     159.805 144.362 151.167  1.00  0.00     0.006 C 
ENDROOT
BRANCH   1   2
ATOM      2  C   UNL     1     160.561 145.010 152.335  1.00  0.00     0.053 C 
BRANCH   2   3
ATOM      3  C   UNL     1     159.634 145.421 153.437  1.00  0.00     0.041 C 
ATOM      4  O   UNL     1     158.389 145.423 153.248  1.00  0.00    -0.550 OA
ATOM      5  O   UNL     1     160.141 145.769 154.682  1.00  0.00    -0.550 OA
ENDBRANCH   2   3
ENDBRANCH   1   2
BRANCH   1   6
ATOM      6  C   UNL     1     159.774 145.267 149.923  1.00  0.00     0.000 C 
BRANCH   6   7
ATOM      7  C   UNL     1     158.443 146.020 149.775  1.00  0.00    -0.003 C 
ATOM      8  C   UNL     1     157.230 145.093 149.832  1.00  0.00     0.004 C 
ENDBRANCH   6   7
ENDBRANCH   1   6
TORSDOF 4
ENDMDL
MODEL 6
REMARK VINA RESULT:    -3.166      1.508      2.247
REMARK INTER + INTRA:          -4.016
REMARK INTER:                  -3.877
REMARK INTRA:                  -0.140
REMARK UNBOUND:                -0.110
REMARK SMILES CCCCCC(=O)[O-]
REMARK SMILES IDX 4 1 5 2 6 3 7 4 8 5 3 6 2 7 1 8
REMARK H PARENT
REMARK Flexibility Score: inf
ROOT
ATOM      1  C   UNL     1     157.966 145.224 151.564  1.00  0.00     0.006 C 
ENDROOT
BRANCH   1   2
ATOM      2  C   UNL     1     159.043 145.649 150.557  1.00  0.00     0.053 C 
BRANCH   2   3
ATOM      3  C   UNL     1     159.423 144.525 149.642  1.00  0.00     0.041 C 
ATOM      4  O   UNL     1     160.483 143.875 149.845  1.00  0.00    -0.550 OA
ATOM      5  O   UNL     1     158.591 144.172 148.588  1.00  0.00    -0.550 OA
ENDBRANCH   2   3
ENDBRANCH   1   2
BRANCH   1   6
ATOM      6  C   UNL     1     158.319 145.642 153.002  1.00  0.00     0.000 C 
BRANCH   6   7
ATOM      7  C   UNL     1     159.816 145.485 153.312  1.00  0.00    -0.003 C 
ATOM      8  C   UNL     1     160.216 146.136 154.635  1.00  0.00     0.004 C 
ENDBRANCH   6   7
ENDBRANCH   1   6
TORSDOF 4
ENDMDL
MODEL 7
REMARK VINA RESULT:    -2.715     22.575     23.389
REMARK INTER + INTRA:          -3.460
REMARK INTER:                  -3.401
REMARK INTRA:                  -0.059
REMARK UNBOUND:                -0.110
REMARK SMILES CCCCCC(=O)[O-]
REMARK SMILES IDX 4 1 5 2 6 3 7 4 8 5 3 6 2 7 1 8
REMARK H PARENT
REMARK Flexibility Score: inf
ROOT
ATOM      1  C   UNL     1     149.686 164.125 141.163  1.00  0.00     0.006 C 
ENDROOT
BRANCH   1   2
ATOM      2  C   UNL     1     150.636 163.652 140.054  1.00  0.00     0.053 C 
BRANCH   2   3
ATOM      3  C   UNL     1     149.942 163.564 138.729  1.00  0.00     0.041 C 
ATOM      4  O   UNL     1     148.688 163.661 138.664  1.00  0.00    -0.550 OA
ATOM      5  O   UNL     1     150.681 163.411 137.564  1.00  0.00    -0.550 OA
ENDBRANCH   2   3
ENDBRANCH   1   2
BRANCH   1   6
ATOM      6  C   UNL     1     150.288 163.928 142.565  1.00  0.00     0.000 C 
BRANCH   6   7
ATOM      7  C   UNL     1     149.392 163.076 143.477  1.00  0.00    -0.003 C 
ATOM      8  C   UNL     1     148.204 163.858 144.035  1.00  0.00     0.004 C 
ENDBRANCH   6   7
ENDBRANCH   1   6
TORSDOF 4
ENDMDL
MODEL 8
REMARK VINA RESULT:    -2.251     15.736     16.838
REMARK INTER + INTRA:          -2.887
REMARK INTER:                  -2.782
REMARK INTRA:                  -0.105
REMARK UNBOUND:                -0.110
REMARK SMILES CCCCCC(=O)[O-]
REMARK SMILES IDX 4 1 5 2 6 3 7 4 8 5 3 6 2 7 1 8
REMARK H PARENT
REMARK Flexibility Score: inf
ROOT
ATOM      1  C   UNL     1     147.078 148.390 142.105  1.00  0.00     0.006 C 
ENDROOT
BRANCH   1   2
ATOM      2  C   UNL     1     146.842 149.693 142.881  1.00  0.00     0.053 C 
BRANCH   2   3
ATOM      3  C   UNL     1     145.412 149.836 143.303  1.00  0.00     0.041 C 
ATOM      4  O   UNL     1     144.501 149.916 142.436  1.00  0.00    -0.550 OA
ATOM      5  O   UNL     1     145.080 149.848 144.651  1.00  0.00    -0.550 OA
ENDBRANCH   2   3
ENDBRANCH   1   2
BRANCH   1   6
ATOM      6  C   UNL     1     147.056 147.156 143.023  1.00  0.00     0.000 C 
BRANCH   6   7
ATOM      7  C   UNL     1     148.299 146.269 142.849  1.00  0.00    -0.003 C 
ATOM      8  C   UNL     1     148.008 144.993 142.061  1.00  0.00     0.004 C 
ENDBRANCH   6   7
ENDBRANCH   1   6
TORSDOF 4
ENDMDL
MODEL 9
REMARK VINA RESULT:    -2.221     15.504     16.706
REMARK INTER + INTRA:          -2.851
REMARK INTER:                  -2.731
REMARK INTRA:                  -0.119
REMARK UNBOUND:                -0.110
REMARK SMILES CCCCCC(=O)[O-]
REMARK SMILES IDX 4 1 5 2 6 3 7 4 8 5 3 6 2 7 1 8
REMARK H PARENT
REMARK Flexibility Score: inf
ROOT
ATOM      1  C   UNL     1     147.057 147.283 142.934  1.00  0.00     0.006 C 
ENDROOT
BRANCH   1   2
ATOM      2  C   UNL     1     146.835 148.067 141.633  1.00  0.00     0.053 C 
BRANCH   2   3
ATOM      3  C   UNL     1     146.591 149.521 141.895  1.00  0.00     0.041 C 
ATOM      4  O   UNL     1     147.392 150.178 142.611  1.00  0.00    -0.550 OA
ATOM      5  O   UNL     1     145.499 150.159 141.322  1.00  0.00    -0.550 OA
ENDBRANCH   2   3
ENDBRANCH   1   2
BRANCH   1   6
ATOM      6  C   UNL     1     148.291 146.369 142.857  1.00  0.00     0.000 C 
BRANCH   6   7
ATOM      7  C   UNL     1     148.006 145.054 142.115  1.00  0.00    -0.003 C 
ATOM      8  C   UNL     1     146.805 144.302 142.687  1.00  0.00     0.004 C 
ENDBRANCH   6   7
ENDBRANCH   1   6
TORSDOF 4
ENDMDL
