MODEL 1
REMARK VINA RESULT:    -2.969      0.000      0.000
REMARK INTER + INTRA:          -3.836
REMARK INTER:                  -3.749
REMARK INTRA:                  -0.086
REMARK UNBOUND:                -0.086
REMARK SMILES CCCCC[C@@H](C)O
REMARK SMILES IDX 4 1 3 2 2 3 1 4 5 5 6 6 7 7 8 8
REMARK H PARENT 8 9
REMARK Flexibility Score: inf
ROOT
ATOM      1  C   UNL     1      -2.005   6.010  -1.018  1.00  0.00     0.003 C 
ENDROOT
BRANCH   1   2
ATOM      2  C   UNL     1      -1.184   6.730   0.066  1.00  0.00    -0.000 C 
BRANCH   2   3
ATOM      3  C   UNL     1      -1.975   7.854   0.754  1.00  0.00    -0.003 C 
ATOM      4  C   UNL     1      -1.763   7.883   2.267  1.00  0.00     0.004 C 
ENDBRANCH   2   3
ENDBRANCH   1   2
BRANCH   1   5
ATOM      5  C   UNL     1      -1.565   4.548  -1.230  1.00  0.00     0.031 C 
BRANCH   5   6
ATOM      6  C   UNL     1      -1.920   3.953  -2.611  1.00  0.00     0.111 C 
ATOM      7  C   UNL     1      -0.959   4.418  -3.707  1.00  0.00     0.038 C 
BRANCH   6   8
ATOM      8  O   UNL     1      -1.864   2.552  -2.536  1.00  0.00    -0.393 OA
ATOM      9  H   UNL     1      -2.668   2.257  -2.034  1.00  0.00     0.210 HD
ENDBRANCH   6   8
ENDBRANCH   5   6
ENDBRANCH   1   5
TORSDOF 5
ENDMDL
MODEL 2
REMARK VINA RESULT:    -2.912      2.957      5.251
REMARK INTER + INTRA:          -3.764
REMARK INTER:                  -3.629
REMARK INTRA:                  -0.136
REMARK UNBOUND:                -0.086
REMARK SMILES CCCCC[C@@H](C)O
REMARK SMILES IDX 4 1 3 2 2 3 1 4 5 5 6 6 7 7 8 8
REMARK H PARENT 8 9
REMARK Flexibility Score: inf
ROOT
ATOM      1  C   UNL     1      -1.477   7.588  -0.454  1.00  0.00     0.003 C 
ENDROOT
BRANCH   1   2
ATOM      2  C   UNL     1      -1.862   6.435  -1.396  1.00  0.00    -0.000 C 
BRANCH   2   3
ATOM      3  C   UNL     1      -1.475   5.059  -0.832  1.00  0.00    -0.003 C 
ATOM      4  C   UNL     1      -1.526   3.955  -1.887  1.00  0.00     0.004 C 
ENDBRANCH   2   3
ENDBRANCH   1   2
BRANCH   1   5
ATOM      5  C   UNL     1      -0.959   7.098   0.912  1.00  0.00     0.031 C 
BRANCH   5   6
ATOM      6  C   UNL     1      -0.889   8.182   2.011  1.00  0.00     0.111 C 
ATOM      7  C   UNL     1      -2.256   8.457   2.642  1.00  0.00     0.038 C 
BRANCH   6   8
ATOM      8  O   UNL     1      -0.012   7.756   3.022  1.00  0.00    -0.393 OA
ATOM      9  H   UNL     1       0.600   7.090   2.612  1.00  0.00     0.210 HD
ENDBRANCH   6   8
ENDBRANCH   5   6
ENDBRANCH   1   5
TORSDOF 5
ENDMDL
MODEL 3
REMARK VINA RESULT:    -2.886      7.767      8.582
REMARK INTER + INTRA:          -3.731
REMARK INTER:                  -3.554
REMARK INTRA:                  -0.177
REMARK UNBOUND:                -0.086
REMARK SMILES CCCCC[C@@H](C)O
REMARK SMILES IDX 4 1 3 2 2 3 1 4 5 5 6 6 7 7 8 8
REMARK H PARENT 8 9
REMARK Flexibility Score: inf
ROOT
ATOM      1  C   UNL     1       6.809   3.653  -2.264  1.00  0.00     0.003 C 
ENDROOT
BRANCH   1   2
ATOM      2  C   UNL     1       6.508   4.627  -3.415  1.00  0.00    -0.000 C 
BRANCH   2   3
ATOM      3  C   UNL     1       5.332   5.565  -3.101  1.00  0.00    -0.003 C 
ATOM      4  C   UNL     1       4.809   6.289  -4.341  1.00  0.00     0.004 C 
ENDBRANCH   2   3
ENDBRANCH   1   2
BRANCH   1   5
ATOM      5  C   UNL     1       5.537   3.022  -1.665  1.00  0.00     0.031 C 
BRANCH   5   6
ATOM      6  C   UNL     1       5.517   2.930  -0.123  1.00  0.00     0.111 C 
ATOM      7  C   UNL     1       6.478   1.862   0.405  1.00  0.00     0.038 C 
BRANCH   6   8
ATOM      8  O   UNL     1       5.893   4.170   0.417  1.00  0.00    -0.393 OA
ATOM      9  H   UNL     1       5.777   4.845  -0.302  1.00  0.00     0.210 HD
ENDBRANCH   6   8
ENDBRANCH   5   6
ENDBRANCH   1   5
TORSDOF 5
ENDMDL
MODEL 4
REMARK VINA RESULT:    -2.833      7.697      8.527
REMARK INTER + INTRA:          -3.665
REMARK INTER:                  -3.494
REMARK INTRA:                  -0.171
REMARK UNBOUND:                -0.086
REMARK SMILES CCCCC[C@@H](C)O
REMARK SMILES IDX 4 1 3 2 2 3 1 4 5 5 6 6 7 7 8 8
REMARK H PARENT 8 9
REMARK Flexibility Score: inf
ROOT
ATOM      1  C   UNL     1       5.598   3.111  -1.506  1.00  0.00     0.003 C 
ENDROOT
BRANCH   1   2
ATOM      2  C   UNL     1       5.761   3.499  -0.026  1.00  0.00    -0.000 C 
BRANCH   2   3
ATOM      3  C   UNL     1       6.848   2.675   0.683  1.00  0.00    -0.003 C 
ATOM      4  C   UNL     1       6.640   1.170   0.527  1.00  0.00     0.004 C 
ENDBRANCH   2   3
ENDBRANCH   1   2
BRANCH   1   5
ATOM      5  C   UNL     1       6.566   3.868  -2.434  1.00  0.00     0.031 C 
BRANCH   5   6
ATOM      6  C   UNL     1       5.888   4.772  -3.488  1.00  0.00     0.111 C 
ATOM      7  C   UNL     1       4.422   4.397  -3.714  1.00  0.00     0.038 C 
BRANCH   6   8
ATOM      8  O   UNL     1       5.943   6.106  -3.054  1.00  0.00    -0.393 OA
ATOM      9  H   UNL     1       5.050   6.324  -2.677  1.00  0.00     0.210 HD
ENDBRANCH   6   8
ENDBRANCH   5   6
ENDBRANCH   1   5
TORSDOF 5
ENDMDL
MODEL 5
REMARK VINA RESULT:    -2.825      7.728      8.732
REMARK INTER + INTRA:          -3.655
REMARK INTER:                  -3.549
REMARK INTRA:                  -0.106
REMARK UNBOUND:                -0.086
REMARK SMILES CCCCC[C@@H](C)O
REMARK SMILES IDX 4 1 3 2 2 3 1 4 5 5 6 6 7 7 8 8
REMARK H PARENT 8 9
REMARK Flexibility Score: inf
ROOT
ATOM      1  C   UNL     1       5.640   3.750  -0.899  1.00  0.00     0.003 C 
ENDROOT
BRANCH   1   2
ATOM      2  C   UNL     1       5.754   3.382  -2.388  1.00  0.00    -0.000 C 
BRANCH   2   3
ATOM      3  C   UNL     1       4.877   4.270  -3.284  1.00  0.00    -0.003 C 
ATOM      4  C   UNL     1       5.316   5.734  -3.271  1.00  0.00     0.004 C 
ENDBRANCH   2   3
ENDBRANCH   1   2
BRANCH   1   5
ATOM      5  C   UNL     1       5.351   2.532  -0.000  1.00  0.00     0.031 C 
BRANCH   5   6
ATOM      6  C   UNL     1       6.569   1.624   0.280  1.00  0.00     0.111 C 
ATOM      7  C   UNL     1       7.418   2.136   1.446  1.00  0.00     0.038 C 
BRANCH   6   8
ATOM      8  O   UNL     1       6.118   0.332   0.594  1.00  0.00    -0.393 OA
ATOM      9  H   UNL     1       6.673  -0.303   0.069  1.00  0.00     0.210 HD
ENDBRANCH   6   8
ENDBRANCH   5   6
ENDBRANCH   1   5
TORSDOF 5
ENDMDL
MODEL 6
REMARK VINA RESULT:    -2.812      8.468      9.190
REMARK INTER + INTRA:          -3.638
REMARK INTER:                  -3.385
REMARK INTRA:                  -0.253
REMARK UNBOUND:                -0.086
REMARK SMILES CCCCC[C@@H](C)O
REMARK SMILES IDX 4 1 3 2 2 3 1 4 5 5 6 6 7 7 8 8
REMARK H PARENT 8 9
REMARK Flexibility Score: inf
ROOT
ATOM      1  C   UNL     1       5.552   3.074  -0.170  1.00  0.00     0.003 C 
ENDROOT
BRANCH   1   2
ATOM      2  C   UNL     1       5.619   1.543  -0.035  1.00  0.00    -0.000 C 
BRANCH   2   3
ATOM      3  C   UNL     1       6.878   1.072   0.710  1.00  0.00    -0.003 C 
ATOM      4  C   UNL     1       7.473   2.157   1.607  1.00  0.00     0.004 C 
ENDBRANCH   2   3
ENDBRANCH   1   2
BRANCH   1   5
ATOM      5  C   UNL     1       5.562   3.546  -1.637  1.00  0.00     0.031 C 
BRANCH   5   6
ATOM      6  C   UNL     1       6.944   3.511  -2.325  1.00  0.00     0.111 C 
ATOM      7  C   UNL     1       6.996   4.406  -3.566  1.00  0.00     0.038 C 
BRANCH   6   8
ATOM      8  O   UNL     1       7.921   3.953  -1.419  1.00  0.00    -0.393 OA
ATOM      9  H   UNL     1       8.387   4.719  -1.848  1.00  0.00     0.210 HD
ENDBRANCH   6   8
ENDBRANCH   5   6
ENDBRANCH   1   5
TORSDOF 5
ENDMDL
MODEL 7
REMARK VINA RESULT:    -2.799      2.653      4.077
REMARK INTER + INTRA:          -3.621
REMARK INTER:                  -3.362
REMARK INTRA:                  -0.259
REMARK UNBOUND:                -0.086
REMARK SMILES CCCCC[C@@H](C)O
REMARK SMILES IDX 4 1 3 2 2 3 1 4 5 5 6 6 7 7 8 8
REMARK H PARENT 8 9
REMARK Flexibility Score: inf
ROOT
ATOM      1  C   UNL     1      -3.790   5.505  -2.035  1.00  0.00     0.003 C 
ENDROOT
BRANCH   1   2
ATOM      2  C   UNL     1      -5.182   5.079  -1.536  1.00  0.00    -0.000 C 
BRANCH   2   3
ATOM      3  C   UNL     1      -5.529   3.632  -1.921  1.00  0.00    -0.003 C 
ATOM      4  C   UNL     1      -6.520   2.987  -0.953  1.00  0.00     0.004 C 
ENDBRANCH   2   3
ENDBRANCH   1   2
BRANCH   1   5
ATOM      5  C   UNL     1      -3.173   4.495  -3.021  1.00  0.00     0.031 C 
BRANCH   5   6
ATOM      6  C   UNL     1      -1.825   3.886  -2.574  1.00  0.00     0.111 C 
ATOM      7  C   UNL     1      -1.459   4.279  -1.141  1.00  0.00     0.038 C 
BRANCH   6   8
ATOM      8  O   UNL     1      -1.906   2.486  -2.642  1.00  0.00    -0.393 OA
ATOM      9  H   UNL     1      -1.537   2.134  -1.790  1.00  0.00     0.210 HD
ENDBRANCH   6   8
ENDBRANCH   5   6
ENDBRANCH   1   5
TORSDOF 5
ENDMDL
MODEL 8
REMARK VINA RESULT:    -2.775      9.034      9.894
REMARK INTER + INTRA:          -3.592
REMARK INTER:                  -3.302
REMARK INTRA:                  -0.290
REMARK UNBOUND:                -0.086
REMARK SMILES CCCCC[C@@H](C)O
REMARK SMILES IDX 4 1 3 2 2 3 1 4 5 5 6 6 7 7 8 8
REMARK H PARENT 8 9
REMARK Flexibility Score: inf
ROOT
ATOM      1  C   UNL     1       5.610   1.672  -0.328  1.00  0.00     0.003 C 
ENDROOT
BRANCH   1   2
ATOM      2  C   UNL     1       5.614   3.210  -0.306  1.00  0.00    -0.000 C 
BRANCH   2   3
ATOM      3  C   UNL     1       5.734   3.819  -1.712  1.00  0.00    -0.003 C 
ATOM      4  C   UNL     1       7.131   3.650  -2.309  1.00  0.00     0.004 C 
ENDBRANCH   2   3
ENDBRANCH   1   2
BRANCH   1   5
ATOM      5  C   UNL     1       6.760   1.058   0.493  1.00  0.00     0.031 C 
BRANCH   5   6
ATOM      6  C   UNL     1       7.695   2.082   1.175  1.00  0.00     0.111 C 
ATOM      7  C   UNL     1       7.902   1.776   2.660  1.00  0.00     0.038 C 
BRANCH   6   8
ATOM      8  O   UNL     1       8.946   2.058   0.539  1.00  0.00    -0.393 OA
ATOM      9  H   UNL     1       9.024   1.177   0.088  1.00  0.00     0.210 HD
ENDBRANCH   6   8
ENDBRANCH   5   6
ENDBRANCH   1   5
TORSDOF 5
ENDMDL
MODEL 9
REMARK VINA RESULT:    -2.755      8.558      9.605
REMARK INTER + INTRA:          -3.567
REMARK INTER:                  -3.185
REMARK INTRA:                  -0.381
REMARK UNBOUND:                -0.086
REMARK SMILES CCCCC[C@@H](C)O
REMARK SMILES IDX 4 1 3 2 2 3 1 4 5 5 6 6 7 7 8 8
REMARK H PARENT 8 9
REMARK Flexibility Score: inf
ROOT
ATOM      1  C   UNL     1       5.965   3.924  -2.270  1.00  0.00     0.003 C 
ENDROOT
BRANCH   1   2
ATOM      2  C   UNL     1       7.249   3.920  -3.116  1.00  0.00    -0.000 C 
BRANCH   2   3
ATOM      3  C   UNL     1       8.370   3.080  -2.483  1.00  0.00    -0.003 C 
ATOM      4  C   UNL     1       9.313   3.914  -1.618  1.00  0.00     0.004 C 
ENDBRANCH   2   3
ENDBRANCH   1   2
BRANCH   1   5
ATOM      5  C   UNL     1       5.769   2.621  -1.471  1.00  0.00     0.031 C 
BRANCH   5   6
ATOM      6  C   UNL     1       5.785   2.788   0.065  1.00  0.00     0.111 C 
ATOM      7  C   UNL     1       6.874   1.941   0.728  1.00  0.00     0.038 C 
BRANCH   6   8
ATOM      8  O   UNL     1       6.019   4.136   0.379  1.00  0.00    -0.393 OA
ATOM      9  H   UNL     1       6.903   4.372  -0.006  1.00  0.00     0.210 HD
ENDBRANCH   6   8
ENDBRANCH   5   6
ENDBRANCH   1   5
TORSDOF 5
ENDMDL
