MODEL 1
REMARK VINA RESULT:    -3.959      0.000      0.000
REMARK INTER + INTRA:          -4.706
REMARK INTER:                  -4.538
REMARK INTRA:                  -0.169
REMARK UNBOUND:                -0.169
REMARK SMILES CC=Cc1ccc(O)c(OC)c1
REMARK SMILES IDX 4 1 12 2 9 3 7 4 6 5 5 6 3 7 1 8 2 9 10 10 11 11 8 12
REMARK H PARENT 8 13
REMARK Flexibility Score: inf
ROOT
ATOM      1  C   UNL     1      21.676  51.656  53.550  1.00  0.00    -0.022 A 
ATOM      2  C   UNL     1      21.137  51.745  52.254  1.00  0.00     0.058 A 
ATOM      3  C   UNL     1      21.907  51.400  51.125  1.00  0.00     0.161 A 
ATOM      4  C   UNL     1      23.227  50.953  51.305  1.00  0.00     0.157 A 
ATOM      5  C   UNL     1      23.760  50.849  52.593  1.00  0.00     0.051 A 
ATOM      6  C   UNL     1      22.995  51.193  53.707  1.00  0.00     0.012 A 
ENDROOT
BRANCH   1   7
ATOM      7  C   UNL     1      20.816  52.024  54.702  1.00  0.00     0.003 C 
ATOM      8  C   UNL     1      18.967  53.195  55.835  1.00  0.00     0.035 C 
ATOM      9  C   UNL     1      19.796  52.887  54.629  1.00  0.00    -0.030 C 
ENDBRANCH   1   7
BRANCH   3  10
ATOM     10  O   UNL     1      21.395  51.489  49.821  1.00  0.00    -0.493 OA
ATOM     11  C   UNL     1      21.420  52.666  49.020  1.00  0.00     0.278 C 
ENDBRANCH   3  10
BRANCH   4  12
ATOM     12  O   UNL     1      24.025  50.601  50.216  1.00  0.00    -0.504 OA
ATOM     13  H   UNL     1      23.921  51.037  49.308  1.00  0.00     0.293 HD
ENDBRANCH   4  12
TORSDOF 3
ENDMDL
MODEL 2
REMARK VINA RESULT:    -3.955      2.166      4.584
REMARK INTER + INTRA:          -4.702
REMARK INTER:                  -4.520
REMARK INTRA:                  -0.182
REMARK UNBOUND:                -0.169
REMARK SMILES CC=Cc1ccc(O)c(OC)c1
REMARK SMILES IDX 4 1 12 2 9 3 7 4 6 5 5 6 3 7 1 8 2 9 10 10 11 11 8 12
REMARK H PARENT 8 13
REMARK Flexibility Score: inf
ROOT
ATOM      1  C   UNL     1      22.012  51.577  51.326  1.00  0.00    -0.022 A 
ATOM      2  C   UNL     1      21.160  51.623  52.443  1.00  0.00     0.058 A 
ATOM      3  C   UNL     1      21.622  51.252  53.722  1.00  0.00     0.161 A 
ATOM      4  C   UNL     1      22.956  50.839  53.877  1.00  0.00     0.157 A 
ATOM      5  C   UNL     1      23.810  50.807  52.771  1.00  0.00     0.051 A 
ATOM      6  C   UNL     1      23.349  51.174  51.507  1.00  0.00     0.012 A 
ENDROOT
BRANCH   1   7
ATOM      7  C   UNL     1      21.475  51.988  50.005  1.00  0.00     0.003 C 
ATOM      8  C   UNL     1      21.619  52.685  47.646  1.00  0.00     0.035 C 
ATOM      9  C   UNL     1      22.238  52.292  48.950  1.00  0.00    -0.030 C 
ENDBRANCH   1   7
BRANCH   3  10
ATOM     10  O   UNL     1      20.787  51.281  54.851  1.00  0.00    -0.493 OA
ATOM     11  C   UNL     1      20.319  52.470  55.479  1.00  0.00     0.278 C 
ENDBRANCH   3  10
BRANCH   4  12
ATOM     12  O   UNL     1      23.455  50.463  55.124  1.00  0.00    -0.504 OA
ATOM     13  H   UNL     1      24.388  50.085  55.240  1.00  0.00     0.293 HD
ENDBRANCH   4  12
TORSDOF 3
ENDMDL
MODEL 3
REMARK VINA RESULT:    -3.785      2.671      5.223
REMARK INTER + INTRA:          -4.507
REMARK INTER:                  -4.333
REMARK INTRA:                  -0.174
REMARK UNBOUND:                -0.169
REMARK SMILES CC=Cc1ccc(O)c(OC)c1
REMARK SMILES IDX 4 1 12 2 9 3 7 4 6 5 5 6 3 7 1 8 2 9 10 10 11 11 8 12
REMARK H PARENT 8 13
REMARK Flexibility Score: inf
ROOT
ATOM      1  C   UNL     1      22.196  51.997  51.521  1.00  0.00    -0.022 A 
ATOM      2  C   UNL     1      21.519  51.708  52.718  1.00  0.00     0.058 A 
ATOM      3  C   UNL     1      20.788  52.704  53.395  1.00  0.00     0.161 A 
ATOM      4  C   UNL     1      20.732  54.001  52.855  1.00  0.00     0.157 A 
ATOM      5  C   UNL     1      21.391  54.288  51.657  1.00  0.00     0.051 A 
ATOM      6  C   UNL     1      22.115  53.298  50.991  1.00  0.00     0.012 A 
ENDROOT
BRANCH   1   7
ATOM      7  C   UNL     1      22.943  50.906  50.847  1.00  0.00     0.003 C 
ATOM      8  C   UNL     1      24.063  49.795  48.954  1.00  0.00     0.035 C 
ATOM      9  C   UNL     1      23.298  50.930  49.557  1.00  0.00    -0.030 C 
ENDBRANCH   1   7
BRANCH   3  10
ATOM     10  O   UNL     1      20.110  52.443  54.597  1.00  0.00    -0.493 OA
ATOM     11  C   UNL     1      20.716  51.896  55.764  1.00  0.00     0.278 C 
ENDBRANCH   3  10
BRANCH   4  12
ATOM     12  O   UNL     1      20.020  55.018  53.491  1.00  0.00    -0.504 OA
ATOM     13  H   UNL     1      20.480  55.815  53.913  1.00  0.00     0.293 HD
ENDBRANCH   4  12
TORSDOF 3
ENDMDL
MODEL 4
REMARK VINA RESULT:    -3.760      1.503      2.389
REMARK INTER + INTRA:          -4.478
REMARK INTER:                  -4.332
REMARK INTRA:                  -0.145
REMARK UNBOUND:                -0.169
REMARK SMILES CC=Cc1ccc(O)c(OC)c1
REMARK SMILES IDX 4 1 12 2 9 3 7 4 6 5 5 6 3 7 1 8 2 9 10 10 11 11 8 12
REMARK H PARENT 8 13
REMARK Flexibility Score: inf
ROOT
ATOM      1  C   UNL     1      21.036  52.868  52.818  1.00  0.00    -0.022 A 
ATOM      2  C   UNL     1      21.408  51.740  52.067  1.00  0.00     0.058 A 
ATOM      3  C   UNL     1      21.919  51.877  50.760  1.00  0.00     0.161 A 
ATOM      4  C   UNL     1      22.065  53.163  50.212  1.00  0.00     0.157 A 
ATOM      5  C   UNL     1      21.710  54.287  50.962  1.00  0.00     0.051 A 
ATOM      6  C   UNL     1      21.203  54.147  52.254  1.00  0.00     0.012 A 
ENDROOT
BRANCH   1   7
ATOM      7  C   UNL     1      20.512  52.664  54.192  1.00  0.00     0.003 C 
ATOM      8  C   UNL     1      18.878  52.888  56.023  1.00  0.00     0.035 C 
ATOM      9  C   UNL     1      19.343  53.149  54.625  1.00  0.00    -0.030 C 
ENDBRANCH   1   7
BRANCH   3  10
ATOM     10  O   UNL     1      22.290  50.766  49.986  1.00  0.00    -0.493 OA
ATOM     11  C   UNL     1      23.606  50.225  49.926  1.00  0.00     0.278 C 
ENDBRANCH   3  10
BRANCH   4  12
ATOM     12  O   UNL     1      22.566  53.345  48.923  1.00  0.00    -0.504 OA
ATOM     13  H   UNL     1      23.280  52.742  48.531  1.00  0.00     0.293 HD
ENDBRANCH   4  12
TORSDOF 3
ENDMDL
MODEL 5
REMARK VINA RESULT:    -3.618      2.623      5.102
REMARK INTER + INTRA:          -4.316
REMARK INTER:                  -4.148
REMARK INTRA:                  -0.168
REMARK UNBOUND:                -0.169
REMARK SMILES CC=Cc1ccc(O)c(OC)c1
REMARK SMILES IDX 4 1 12 2 9 3 7 4 6 5 5 6 3 7 1 8 2 9 10 10 11 11 8 12
REMARK H PARENT 8 13
REMARK Flexibility Score: inf
ROOT
ATOM      1  C   UNL     1      21.452  53.394  51.669  1.00  0.00    -0.022 A 
ATOM      2  C   UNL     1      21.638  52.170  52.335  1.00  0.00     0.058 A 
ATOM      3  C   UNL     1      21.356  52.043  53.710  1.00  0.00     0.161 A 
ATOM      4  C   UNL     1      20.871  53.158  54.416  1.00  0.00     0.157 A 
ATOM      5  C   UNL     1      20.671  54.372  53.754  1.00  0.00     0.051 A 
ATOM      6  C   UNL     1      20.953  54.493  52.393  1.00  0.00     0.012 A 
ENDROOT
BRANCH   1   7
ATOM      7  C   UNL     1      21.758  53.466  50.219  1.00  0.00     0.003 C 
ATOM      8  C   UNL     1      21.726  52.689  47.880  1.00  0.00     0.035 C 
ATOM      9  C   UNL     1      21.391  52.536  49.330  1.00  0.00    -0.030 C 
ENDBRANCH   1   7
BRANCH   3  10
ATOM     10  O   UNL     1      21.542  50.834  54.399  1.00  0.00    -0.493 OA
ATOM     11  C   UNL     1      22.771  50.420  54.986  1.00  0.00     0.278 C 
ENDBRANCH   3  10
BRANCH   4  12
ATOM     12  O   UNL     1      20.578  53.078  55.778  1.00  0.00    -0.504 OA
ATOM     13  H   UNL     1      20.735  53.853  56.410  1.00  0.00     0.293 HD
ENDBRANCH   4  12
TORSDOF 3
ENDMDL
MODEL 6
REMARK VINA RESULT:    -3.596     12.428     13.946
REMARK INTER + INTRA:          -4.290
REMARK INTER:                  -4.110
REMARK INTRA:                  -0.180
REMARK UNBOUND:                -0.169
REMARK SMILES CC=Cc1ccc(O)c(OC)c1
REMARK SMILES IDX 4 1 12 2 9 3 7 4 6 5 5 6 3 7 1 8 2 9 10 10 11 11 8 12
REMARK H PARENT 8 13
REMARK Flexibility Score: inf
ROOT
ATOM      1  C   UNL     1      19.478  53.524  39.426  1.00  0.00    -0.022 A 
ATOM      2  C   UNL     1      20.681  52.812  39.570  1.00  0.00     0.058 A 
ATOM      3  C   UNL     1      21.294  52.194  38.462  1.00  0.00     0.161 A 
ATOM      4  C   UNL     1      20.693  52.304  37.196  1.00  0.00     0.157 A 
ATOM      5  C   UNL     1      19.505  53.024  37.047  1.00  0.00     0.051 A 
ATOM      6  C   UNL     1      18.901  53.633  38.147  1.00  0.00     0.012 A 
ENDROOT
BRANCH   1   7
ATOM      7  C   UNL     1      18.883  54.162  40.627  1.00  0.00     0.003 C 
ATOM      8  C   UNL     1      17.714  55.937  41.873  1.00  0.00     0.035 C 
ATOM      9  C   UNL     1      18.304  55.368  40.622  1.00  0.00    -0.030 C 
ENDBRANCH   1   7
BRANCH   3  10
ATOM     10  O   UNL     1      22.491  51.470  38.582  1.00  0.00    -0.493 OA
ATOM     11  C   UNL     1      23.790  52.053  38.609  1.00  0.00     0.278 C 
ENDBRANCH   3  10
BRANCH   4  12
ATOM     12  O   UNL     1      21.265  51.708  36.072  1.00  0.00    -0.504 OA
ATOM     13  H   UNL     1      20.791  51.678  35.177  1.00  0.00     0.293 HD
ENDBRANCH   4  12
TORSDOF 3
ENDMDL
MODEL 7
REMARK VINA RESULT:    -3.495     11.094     14.625
REMARK INTER + INTRA:          -4.175
REMARK INTER:                  -4.001
REMARK INTRA:                  -0.174
REMARK UNBOUND:                -0.169
REMARK SMILES CC=Cc1ccc(O)c(OC)c1
REMARK SMILES IDX 4 1 12 2 9 3 7 4 6 5 5 6 3 7 1 8 2 9 10 10 11 11 8 12
REMARK H PARENT 8 13
REMARK Flexibility Score: inf
ROOT
ATOM      1  C   UNL     1      20.903  52.320  37.687  1.00  0.00    -0.022 A 
ATOM      2  C   UNL     1      21.329  52.332  39.026  1.00  0.00     0.058 A 
ATOM      3  C   UNL     1      20.547  52.938  40.030  1.00  0.00     0.161 A 
ATOM      4  C   UNL     1      19.319  53.527  39.681  1.00  0.00     0.157 A 
ATOM      5  C   UNL     1      18.886  53.503  38.353  1.00  0.00     0.051 A 
ATOM      6  C   UNL     1      19.664  52.904  37.362  1.00  0.00     0.012 A 
ENDROOT
BRANCH   1   7
ATOM      7  C   UNL     1      21.764  51.661  36.674  1.00  0.00     0.003 C 
ATOM      8  C   UNL     1      23.610  50.227  35.894  1.00  0.00     0.035 C 
ATOM      9  C   UNL     1      22.798  50.866  36.975  1.00  0.00    -0.030 C 
ENDBRANCH   1   7
BRANCH   3  10
ATOM     10  O   UNL     1      20.955  52.971  41.373  1.00  0.00    -0.493 OA
ATOM     11  C   UNL     1      21.958  53.838  41.892  1.00  0.00     0.278 C 
ENDBRANCH   3  10
BRANCH   4  12
ATOM     12  O   UNL     1      18.513  54.137  40.641  1.00  0.00    -0.504 OA
ATOM     13  H   UNL     1      18.425  53.773  41.582  1.00  0.00     0.293 HD
ENDBRANCH   4  12
TORSDOF 3
ENDMDL
