MODEL 1
REMARK VINA RESULT:    -4.347      0.000      0.000
REMARK INTER + INTRA:          -6.476
REMARK INTER:                  -6.633
REMARK INTRA:                   0.158
REMARK UNBOUND:                 0.158
REMARK SMILES CC1=CCC[C@@H](C)C(=O)C[C@H](C(C)C)C(=O)C1
REMARK SMILES IDX 8 1 9 2 6 3 7 4 5 5 4 6 3 7 2 8 1 9 10 11 11 12 15 13 16 14
REMARK SMILES IDX 17 15 12 17 13 18 14 19
REMARK H PARENT
REMARK Flexibility Score: 70.00
ROOT
ATOM      1  C   UNL     1       4.455  19.365   6.948  1.00  0.00     0.136 C 
ATOM      2  O   UNL     1       4.375  18.319   6.316  1.00  0.00    -0.299 OA
ENDROOT
BRANCH   1   3
ATOM      3  C   UNL     1       5.812  19.859   7.408  1.00  0.00     0.053 C 
ATOM      4  C   UNL     1       5.701  21.281   7.980  1.00  0.00     0.016 C 
BRANCH   3   5
ATOM      5  C   UNL     1       6.824  19.810   6.241  1.00  0.00     0.015 C 
BRANCH   5   6
ATOM      6  C   UNL     1       6.702  21.036   5.313  1.00  0.00     0.028 C 
BRANCH   6   7
ATOM      7  C   UNL     1       6.185  20.645   3.953  1.00  0.00    -0.028 C 
ATOM      8  C   UNL     1       5.036  21.095   3.397  1.00  0.00    -0.070 CG0
ATOM      9  C   UNL     1       4.705  20.643   1.997  1.00  0.00     0.039 C 
ATOM     10  G   UNL     1       4.077  22.038   4.107  1.00  0.00     0.000 G0
ENDBRANCH   6   7
ENDBRANCH   5   6
ENDBRANCH   3   5
ENDBRANCH   1   3
BRANCH   1  11
ATOM     11  C   UNL     1       3.194  20.138   7.253  1.00  0.00     0.087 C 
BRANCH  11  12
ATOM     12  C   UNL     1       3.147  21.508   6.529  1.00  0.00     0.066 C 
BRANCH  12  13
ATOM     13  C   UNL     1       3.104  21.324   5.016  1.00  0.00     0.140 C 
ATOM     14  O   UNL     1       2.312  20.521   4.544  1.00  0.00    -0.299 OA
BRANCH  13  15
ATOM     15  C   UNL     1       4.059  22.047   4.093  1.00  0.00     0.106 CG0
ATOM     16  G   UNL     1       5.033  21.097   3.413  1.00  0.00     0.000 G0
ENDBRANCH  13  15
ENDBRANCH  12  13
BRANCH  12  17
ATOM     17  C   UNL     1       1.984  22.425   7.028  1.00  0.00    -0.006 C 
ATOM     18  C   UNL     1       1.502  22.046   8.440  1.00  0.00     0.008 C 
ATOM     19  C   UNL     1       2.410  23.905   7.033  1.00  0.00     0.008 C 
ENDBRANCH  12  17
ENDBRANCH  11  12
ENDBRANCH   1  11
TORSDOF 1
ENDMDL
MODEL 2
REMARK VINA RESULT:    -4.153      1.760      4.181
REMARK INTER + INTRA:          -6.181
REMARK INTER:                  -6.146
REMARK INTRA:                  -0.035
REMARK UNBOUND:                 0.158
REMARK SMILES CC1=CCC[C@@H](C)C(=O)C[C@H](C(C)C)C(=O)C1
REMARK SMILES IDX 8 1 9 2 6 3 7 4 5 5 4 6 3 7 2 8 1 9 10 11 11 12 15 13 16 14
REMARK SMILES IDX 17 15 12 17 13 18 14 19
REMARK H PARENT
REMARK Flexibility Score: 70.00
ROOT
ATOM      1  C   UNL     1       6.001  20.204   5.145  1.00  0.00     0.136 C 
ATOM      2  O   UNL     1       6.208  19.311   4.334  1.00  0.00    -0.299 OA
ENDROOT
BRANCH   1   3
ATOM      3  C   UNL     1       6.424  20.017   6.589  1.00  0.00     0.053 C 
ATOM      4  C   UNL     1       6.366  18.532   6.979  1.00  0.00     0.016 C 
BRANCH   3   5
ATOM      5  C   UNL     1       5.532  20.868   7.522  1.00  0.00     0.015 C 
BRANCH   5   6
ATOM      6  C   UNL     1       4.160  20.211   7.774  1.00  0.00     0.028 C 
BRANCH   6   7
ATOM      7  C   UNL     1       3.124  21.235   8.162  1.00  0.00    -0.028 C 
ATOM      8  C   UNL     1       2.136  21.687   7.356  1.00  0.00    -0.070 CG0
ATOM      9  C   UNL     1       1.149  22.671   7.934  1.00  0.00     0.039 C 
ATOM     10  G   UNL     1       1.968  21.245   5.911  1.00  0.00     0.000 G0
ENDBRANCH   6   7
ENDBRANCH   5   6
ENDBRANCH   3   5
ENDBRANCH   1   3
BRANCH   1  11
ATOM     11  C   UNL     1       5.328  21.475   4.685  1.00  0.00     0.087 C 
BRANCH  11  12
ATOM     12  C   UNL     1       3.903  21.225   4.128  1.00  0.00     0.066 C 
BRANCH  12  13
ATOM     13  C   UNL     1       2.859  21.972   4.950  1.00  0.00     0.140 C 
ATOM     14  O   UNL     1       2.811  23.191   4.871  1.00  0.00    -0.299 OA
BRANCH  13  15
ATOM     15  C   UNL     1       1.935  21.258   5.912  1.00  0.00     0.106 CG0
ATOM     16  G   UNL     1       2.155  21.694   7.352  1.00  0.00     0.000 G0
ENDBRANCH  13  15
ENDBRANCH  12  13
BRANCH  12  17
ATOM     17  C   UNL     1       3.774  21.550   2.605  1.00  0.00    -0.006 C 
ATOM     18  C   UNL     1       5.134  21.536   1.884  1.00  0.00     0.008 C 
ATOM     19  C   UNL     1       2.834  20.553   1.904  1.00  0.00     0.008 C 
ENDBRANCH  12  17
ENDBRANCH  11  12
ENDBRANCH   1  11
TORSDOF 1
ENDMDL
MODEL 3
REMARK VINA RESULT:    -4.062      1.922      4.336
REMARK INTER + INTRA:          -6.041
REMARK INTER:                  -5.925
REMARK INTRA:                  -0.116
REMARK UNBOUND:                 0.158
REMARK SMILES CC1=CCC[C@@H](C)C(=O)C[C@H](C(C)C)C(=O)C1
REMARK SMILES IDX 8 1 9 2 6 3 7 4 5 5 4 6 3 7 2 8 1 9 10 11 11 12 15 13 16 14
REMARK SMILES IDX 17 15 12 17 13 18 14 19
REMARK H PARENT
REMARK Flexibility Score: 70.00
ROOT
ATOM      1  C   UNL     1       5.901  20.454   4.013  1.00  0.00     0.136 C 
ATOM      2  O   UNL     1       6.469  19.398   3.768  1.00  0.00    -0.299 OA
ENDROOT
BRANCH   1   3
ATOM      3  C   UNL     1       5.735  20.898   5.453  1.00  0.00     0.053 C 
ATOM      4  C   UNL     1       7.100  20.982   6.151  1.00  0.00     0.016 C 
BRANCH   3   5
ATOM      5  C   UNL     1       4.788  19.936   6.204  1.00  0.00     0.015 C 
BRANCH   5   6
ATOM      6  C   UNL     1       3.495  20.637   6.670  1.00  0.00     0.028 C 
BRANCH   6   7
ATOM      7  C   UNL     1       3.577  22.128   6.471  1.00  0.00    -0.028 C 
ATOM      8  C   UNL     1       3.022  22.808   5.441  1.00  0.00    -0.070 CG0
ATOM      9  C   UNL     1       3.153  24.311   5.435  1.00  0.00     0.039 C 
ATOM     10  G   UNL     1       2.266  22.136   4.306  1.00  0.00     0.000 G0
ENDBRANCH   6   7
ENDBRANCH   5   6
ENDBRANCH   3   5
ENDBRANCH   1   3
BRANCH   1  11
ATOM     11  C   UNL     1       5.377  21.290   2.870  1.00  0.00     0.087 C 
BRANCH  11  12
ATOM     12  C   UNL     1       3.888  20.997   2.552  1.00  0.00     0.066 C 
BRANCH  12  13
ATOM     13  C   UNL     1       3.000  22.157   2.987  1.00  0.00     0.140 C 
ATOM     14  O   UNL     1       2.946  23.153   2.279  1.00  0.00    -0.299 OA
BRANCH  13  15
ATOM     15  C   UNL     1       2.246  22.143   4.298  1.00  0.00     0.106 CG0
ATOM     16  G   UNL     1       3.026  22.813   5.419  1.00  0.00     0.000 G0
ENDBRANCH  13  15
ENDBRANCH  12  13
BRANCH  12  17
ATOM     17  C   UNL     1       3.644  20.617   1.056  1.00  0.00    -0.006 C 
ATOM     18  C   UNL     1       4.793  19.779   0.468  1.00  0.00     0.008 C 
ATOM     19  C   UNL     1       2.328  19.835   0.891  1.00  0.00     0.008 C 
ENDBRANCH  12  17
ENDBRANCH  11  12
ENDBRANCH   1  11
TORSDOF 1
ENDMDL
MODEL 4
REMARK VINA RESULT:    -4.039      2.143      4.389
REMARK INTER + INTRA:          -6.006
REMARK INTER:                  -5.827
REMARK INTRA:                  -0.180
REMARK UNBOUND:                 0.158
REMARK SMILES CC1=CCC[C@@H](C)C(=O)C[C@H](C(C)C)C(=O)C1
REMARK SMILES IDX 8 1 9 2 6 3 7 4 5 5 4 6 3 7 2 8 1 9 10 11 11 12 15 13 16 14
REMARK SMILES IDX 17 15 12 17 13 18 14 19
REMARK H PARENT
REMARK Flexibility Score: 70.00
ROOT
ATOM      1  C   UNL     1       5.048  20.968   3.425  1.00  0.00     0.136 C 
ATOM      2  O   UNL     1       6.246  21.215   3.379  1.00  0.00    -0.299 OA
ENDROOT
BRANCH   1   3
ATOM      3  C   UNL     1       4.209  21.095   2.169  1.00  0.00     0.053 C 
ATOM      4  C   UNL     1       4.745  20.169   1.067  1.00  0.00     0.016 C 
BRANCH   3   5
ATOM      5  C   UNL     1       4.180  22.564   1.691  1.00  0.00     0.015 C 
BRANCH   5   6
ATOM      6  C   UNL     1       2.839  23.255   2.013  1.00  0.00     0.028 C 
BRANCH   6   7
ATOM      7  C   UNL     1       3.007  24.315   3.069  1.00  0.00    -0.028 C 
ATOM      8  C   UNL     1       2.849  24.122   4.399  1.00  0.00    -0.070 CG0
ATOM      9  C   UNL     1       3.118  25.287   5.319  1.00  0.00     0.039 C 
ATOM     10  G   UNL     1       2.429  22.793   5.007  1.00  0.00     0.000 G0
ENDBRANCH   6   7
ENDBRANCH   5   6
ENDBRANCH   3   5
ENDBRANCH   1   3
BRANCH   1  11
ATOM     11  C   UNL     1       4.435  20.542   4.737  1.00  0.00     0.087 C 
BRANCH  11  12
ATOM     12  C   UNL     1       4.643  21.592   5.859  1.00  0.00     0.066 C 
BRANCH  12  13
ATOM     13  C   UNL     1       3.352  22.352   6.140  1.00  0.00     0.140 C 
ATOM     14  O   UNL     1       3.032  22.559   7.301  1.00  0.00    -0.299 OA
BRANCH  13  15
ATOM     15  C   UNL     1       2.422  22.790   5.029  1.00  0.00     0.106 CG0
ATOM     16  G   UNL     1       2.853  24.107   4.404  1.00  0.00     0.000 G0
ENDBRANCH  13  15
ENDBRANCH  12  13
BRANCH  12  17
ATOM     17  C   UNL     1       5.244  20.980   7.166  1.00  0.00    -0.006 C 
ATOM     18  C   UNL     1       5.589  19.488   7.012  1.00  0.00     0.008 C 
ATOM     19  C   UNL     1       6.512  21.738   7.599  1.00  0.00     0.008 C 
ENDBRANCH  12  17
ENDBRANCH  11  12
ENDBRANCH   1  11
TORSDOF 1
ENDMDL
MODEL 5
REMARK VINA RESULT:    -4.009      1.743      3.898
REMARK INTER + INTRA:          -5.960
REMARK INTER:                  -5.812
REMARK INTRA:                  -0.148
REMARK UNBOUND:                 0.158
REMARK SMILES CC1=CCC[C@@H](C)C(=O)C[C@H](C(C)C)C(=O)C1
REMARK SMILES IDX 8 1 9 2 6 3 7 4 5 5 4 6 3 7 2 8 1 9 10 11 11 12 15 13 16 14
REMARK SMILES IDX 17 15 12 17 13 18 14 19
REMARK H PARENT
REMARK Flexibility Score: 70.00
ROOT
ATOM      1  C   UNL     1       3.291  21.634   7.241  1.00  0.00     0.136 C 
ATOM      2  O   UNL     1       3.523  20.873   8.171  1.00  0.00    -0.299 OA
ENDROOT
BRANCH   1   3
ATOM      3  C   UNL     1       1.896  22.199   7.065  1.00  0.00     0.053 C 
ATOM      4  C   UNL     1       1.062  21.979   8.335  1.00  0.00     0.016 C 
BRANCH   3   5
ATOM      5  C   UNL     1       1.211  21.560   5.836  1.00  0.00     0.015 C 
BRANCH   5   6
ATOM      6  C   UNL     1       1.361  22.427   4.569  1.00  0.00     0.028 C 
BRANCH   6   7
ATOM      7  C   UNL     1       1.638  21.580   3.354  1.00  0.00    -0.028 C 
ATOM      8  C   UNL     1       2.863  21.350   2.828  1.00  0.00    -0.070 CG0
ATOM      9  C   UNL     1       2.960  20.425   1.641  1.00  0.00     0.039 C 
ATOM     10  G   UNL     1       4.139  21.966   3.380  1.00  0.00     0.000 G0
ENDBRANCH   6   7
ENDBRANCH   5   6
ENDBRANCH   3   5
ENDBRANCH   1   3
BRANCH   1  11
ATOM     11  C   UNL     1       4.407  21.991   6.288  1.00  0.00     0.087 C 
BRANCH  11  12
ATOM     12  C   UNL     1       5.003  20.749   5.577  1.00  0.00     0.066 C 
BRANCH  12  13
ATOM     13  C   UNL     1       5.031  20.949   4.066  1.00  0.00     0.140 C 
ATOM     14  O   UNL     1       5.838  20.312   3.404  1.00  0.00    -0.299 OA
BRANCH  13  15
ATOM     15  C   UNL     1       4.144  21.960   3.374  1.00  0.00     0.106 CG0
ATOM     16  G   UNL     1       2.858  21.337   2.853  1.00  0.00     0.000 G0
ENDBRANCH  13  15
ENDBRANCH  12  13
BRANCH  12  17
ATOM     17  C   UNL     1       6.408  20.343   6.128  1.00  0.00    -0.006 C 
ATOM     18  C   UNL     1       6.876  21.258   7.274  1.00  0.00     0.008 C 
ATOM     19  C   UNL     1       6.407  18.887   6.628  1.00  0.00     0.008 C 
ENDBRANCH  12  17
ENDBRANCH  11  12
ENDBRANCH   1  11
TORSDOF 1
ENDMDL
MODEL 6
REMARK VINA RESULT:    -3.731      1.772      4.475
REMARK INTER + INTRA:          -5.536
REMARK INTER:                  -5.447
REMARK INTRA:                  -0.088
REMARK UNBOUND:                 0.158
REMARK SMILES CC1=CCC[C@@H](C)C(=O)C[C@H](C(C)C)C(=O)C1
REMARK SMILES IDX 8 1 9 2 6 3 7 4 5 5 4 6 3 7 2 8 1 9 10 11 11 12 15 13 16 14
REMARK SMILES IDX 17 15 12 17 13 18 14 19
REMARK H PARENT
REMARK Flexibility Score: 70.00
ROOT
ATOM      1  C   UNL     1       2.296  22.449   4.708  1.00  0.00     0.136 C 
ATOM      2  O   UNL     1       1.905  23.331   3.954  1.00  0.00    -0.299 OA
ENDROOT
BRANCH   1   3
ATOM      3  C   UNL     1       2.059  22.578   6.200  1.00  0.00     0.053 C 
ATOM      4  C   UNL     1       2.988  23.643   6.802  1.00  0.00     0.016 C 
BRANCH   3   5
ATOM      5  C   UNL     1       2.260  21.213   6.894  1.00  0.00     0.015 C 
BRANCH   5   6
ATOM      6  C   UNL     1       3.536  21.182   7.761  1.00  0.00     0.028 C 
BRANCH   6   7
ATOM      7  C   UNL     1       4.414  20.012   7.404  1.00  0.00    -0.028 C 
ATOM      8  C   UNL     1       5.404  20.033   6.482  1.00  0.00    -0.070 CG0
ATOM      9  C   UNL     1       6.225  18.781   6.298  1.00  0.00     0.039 C 
ATOM     10  G   UNL     1       5.735  21.254   5.638  1.00  0.00     0.000 G0
ENDBRANCH   6   7
ENDBRANCH   5   6
ENDBRANCH   3   5
ENDBRANCH   1   3
BRANCH   1  11
ATOM     11  C   UNL     1       3.006  21.248   4.129  1.00  0.00     0.087 C 
BRANCH  11  12
ATOM     12  C   UNL     1       4.333  21.626   3.423  1.00  0.00     0.066 C 
BRANCH  12  13
ATOM     13  C   UNL     1       5.529  21.033   4.158  1.00  0.00     0.140 C 
ATOM     14  O   UNL     1       6.293  20.301   3.544  1.00  0.00    -0.299 OA
BRANCH  13  15
ATOM     15  C   UNL     1       5.756  21.262   5.636  1.00  0.00     0.106 CG0
ATOM     16  G   UNL     1       5.404  20.040   6.469  1.00  0.00     0.000 G0
ENDBRANCH  13  15
ENDBRANCH  12  13
BRANCH  12  17
ATOM     17  C   UNL     1       4.348  21.250   1.906  1.00  0.00    -0.006 C 
ATOM     18  C   UNL     1       3.015  20.639   1.439  1.00  0.00     0.008 C 
ATOM     19  C   UNL     1       4.659  22.480   1.034  1.00  0.00     0.008 C 
ENDBRANCH  12  17
ENDBRANCH  11  12
ENDBRANCH   1  11
TORSDOF 1
ENDMDL
MODEL 7
REMARK VINA RESULT:    -3.713      1.915      2.417
REMARK INTER + INTRA:          -5.509
REMARK INTER:                  -5.271
REMARK INTRA:                  -0.237
REMARK UNBOUND:                 0.158
REMARK SMILES CC1=CCC[C@@H](C)C(=O)C[C@H](C(C)C)C(=O)C1
REMARK SMILES IDX 8 1 9 2 6 3 7 4 5 5 4 6 3 7 2 8 1 9 10 11 11 12 15 13 16 14
REMARK SMILES IDX 17 15 12 17 13 18 14 19
REMARK H PARENT
REMARK Flexibility Score: 70.00
ROOT
ATOM      1  C   UNL     1       4.826  21.670   6.300  1.00  0.00     0.136 C 
ATOM      2  O   UNL     1       5.501  22.371   7.042  1.00  0.00    -0.299 OA
ENDROOT
BRANCH   1   3
ATOM      3  C   UNL     1       5.471  20.503   5.579  1.00  0.00     0.053 C 
ATOM      4  C   UNL     1       6.455  19.774   6.507  1.00  0.00     0.016 C 
BRANCH   3   5
ATOM      5  C   UNL     1       6.181  20.994   4.297  1.00  0.00     0.015 C 
BRANCH   5   6
ATOM      6  C   UNL     1       5.564  20.385   3.021  1.00  0.00     0.028 C 
BRANCH   6   7
ATOM      7  C   UNL     1       5.096  21.458   2.072  1.00  0.00    -0.028 C 
ATOM      8  C   UNL     1       3.875  22.041   2.095  1.00  0.00    -0.070 CG0
ATOM      9  C   UNL     1       3.600  23.144   1.104  1.00  0.00     0.039 C 
ATOM     10  G   UNL     1       2.780  21.648   3.075  1.00  0.00     0.000 G0
ENDBRANCH   6   7
ENDBRANCH   5   6
ENDBRANCH   3   5
ENDBRANCH   1   3
BRANCH   1  11
ATOM     11  C   UNL     1       3.360  21.987   6.123  1.00  0.00     0.087 C 
BRANCH  11  12
ATOM     12  C   UNL     1       3.124  23.224   5.218  1.00  0.00     0.066 C 
BRANCH  12  13
ATOM     13  C   UNL     1       2.365  22.837   3.954  1.00  0.00     0.140 C 
ATOM     14  O   UNL     1       1.352  23.457   3.663  1.00  0.00    -0.299 OA
BRANCH  13  15
ATOM     15  C   UNL     1       2.785  21.665   3.094  1.00  0.00     0.106 CG0
ATOM     16  G   UNL     1       3.867  22.043   2.095  1.00  0.00     0.000 G0
ENDBRANCH  13  15
ENDBRANCH  12  13
BRANCH  12  17
ATOM     17  C   UNL     1       2.427  24.406   5.967  1.00  0.00    -0.006 C 
ATOM     18  C   UNL     1       1.747  23.955   7.272  1.00  0.00     0.008 C 
ATOM     19  C   UNL     1       3.435  25.522   6.296  1.00  0.00     0.008 C 
ENDBRANCH  12  17
ENDBRANCH  11  12
ENDBRANCH   1  11
TORSDOF 1
ENDMDL
MODEL 8
REMARK VINA RESULT:    -3.691      1.897      4.044
REMARK INTER + INTRA:          -5.475
REMARK INTER:                  -5.863
REMARK INTRA:                   0.388
REMARK UNBOUND:                 0.158
REMARK SMILES CC1=CCC[C@@H](C)C(=O)C[C@H](C(C)C)C(=O)C1
REMARK SMILES IDX 8 1 9 2 6 3 7 4 5 5 4 6 3 7 2 8 1 9 10 11 11 12 15 13 16 14
REMARK SMILES IDX 17 15 12 17 13 18 14 19
REMARK H PARENT
REMARK Flexibility Score: 70.00
ROOT
ATOM      1  C   UNL     1       5.430  20.646   5.388  1.00  0.00     0.136 C 
ATOM      2  O   UNL     1       5.805  19.481   5.432  1.00  0.00    -0.299 OA
ENDROOT
BRANCH   1   3
ATOM      3  C   UNL     1       5.164  21.396   6.678  1.00  0.00     0.053 C 
ATOM      4  C   UNL     1       6.483  21.711   7.399  1.00  0.00     0.016 C 
BRANCH   3   5
ATOM      5  C   UNL     1       4.218  20.578   7.587  1.00  0.00     0.015 C 
BRANCH   5   6
ATOM      6  C   UNL     1       2.738  20.958   7.379  1.00  0.00     0.028 C 
BRANCH   6   7
ATOM      7  C   UNL     1       2.037  19.968   6.486  1.00  0.00    -0.028 C 
ATOM      8  C   UNL     1       1.486  20.256   5.285  1.00  0.00    -0.070 CG0
ATOM      9  C   UNL     1       0.877  19.124   4.497  1.00  0.00     0.039 C 
ATOM     10  G   UNL     1       1.463  21.656   4.690  1.00  0.00     0.000 G0
ENDBRANCH   6   7
ENDBRANCH   5   6
ENDBRANCH   3   5
ENDBRANCH   1   3
BRANCH   1  11
ATOM     11  C   UNL     1       5.240  21.307   4.044  1.00  0.00     0.087 C 
BRANCH  11  12
ATOM     12  C   UNL     1       3.797  21.146   3.500  1.00  0.00     0.066 C 
BRANCH  12  13
ATOM     13  C   UNL     1       2.837  22.090   4.215  1.00  0.00     0.140 C 
ATOM     14  O   UNL     1       3.217  23.221   4.483  1.00  0.00    -0.299 OA
BRANCH  13  15
ATOM     15  C   UNL     1       1.463  21.647   4.664  1.00  0.00     0.106 CG0
ATOM     16  G   UNL     1       1.481  20.261   5.289  1.00  0.00     0.000 G0
ENDBRANCH  13  15
ENDBRANCH  12  13
BRANCH  12  17
ATOM     17  C   UNL     1       3.707  21.303   1.947  1.00  0.00    -0.006 C 
ATOM     18  C   UNL     1       4.099  22.715   1.476  1.00  0.00     0.008 C 
ATOM     19  C   UNL     1       4.607  20.278   1.234  1.00  0.00     0.008 C 
ENDBRANCH  12  17
ENDBRANCH  11  12
ENDBRANCH   1  11
TORSDOF 1
ENDMDL
MODEL 9
REMARK VINA RESULT:    -3.631      1.883      3.948
REMARK INTER + INTRA:          -5.384
REMARK INTER:                  -5.648
REMARK INTRA:                   0.264
REMARK UNBOUND:                 0.158
REMARK SMILES CC1=CCC[C@@H](C)C(=O)C[C@H](C(C)C)C(=O)C1
REMARK SMILES IDX 8 1 9 2 6 3 7 4 5 5 4 6 3 7 2 8 1 9 10 11 11 12 15 13 16 14
REMARK SMILES IDX 17 15 12 17 13 18 14 19
REMARK H PARENT
REMARK Flexibility Score: 70.00
ROOT
ATOM      1  C   UNL     1       2.986  18.934   6.380  1.00  0.00     0.136 C 
ATOM      2  O   UNL     1       3.541  17.861   6.576  1.00  0.00    -0.299 OA
ENDROOT
BRANCH   1   3
ATOM      3  C   UNL     1       1.501  18.965   6.075  1.00  0.00     0.053 C 
ATOM      4  C   UNL     1       0.955  17.540   5.912  1.00  0.00     0.016 C 
BRANCH   3   5
ATOM      5  C   UNL     1       1.234  19.808   4.807  1.00  0.00     0.015 C 
BRANCH   5   6
ATOM      6  C   UNL     1       1.192  21.320   5.111  1.00  0.00     0.028 C 
BRANCH   6   7
ATOM      7  C   UNL     1       1.587  22.133   3.905  1.00  0.00    -0.028 C 
ATOM      8  C   UNL     1       2.814  22.659   3.689  1.00  0.00    -0.070 CG0
ATOM      9  C   UNL     1       3.047  23.397   2.394  1.00  0.00     0.039 C 
ATOM     10  G   UNL     1       3.964  22.532   4.675  1.00  0.00     0.000 G0
ENDBRANCH   6   7
ENDBRANCH   5   6
ENDBRANCH   3   5
ENDBRANCH   1   3
BRANCH   1  11
ATOM     11  C   UNL     1       3.799  20.205   6.449  1.00  0.00     0.087 C 
BRANCH  11  12
ATOM     12  C   UNL     1       4.988  20.205   5.455  1.00  0.00     0.066 C 
BRANCH  12  13
ATOM     13  C   UNL     1       4.827  21.305   4.413  1.00  0.00     0.140 C 
ATOM     14  O   UNL     1       5.450  21.218   3.364  1.00  0.00    -0.299 OA
BRANCH  13  15
ATOM     15  C   UNL     1       3.980  22.532   4.667  1.00  0.00     0.106 CG0
ATOM     16  G   UNL     1       2.823  22.646   3.687  1.00  0.00     0.000 G0
ENDBRANCH  13  15
ENDBRANCH  12  13
BRANCH  12  17
ATOM     17  C   UNL     1       6.379  20.286   6.165  1.00  0.00    -0.006 C 
ATOM     18  C   UNL     1       6.392  21.307   7.316  1.00  0.00     0.008 C 
ATOM     19  C   UNL     1       6.798  18.912   6.719  1.00  0.00     0.008 C 
ENDBRANCH  12  17
ENDBRANCH  11  12
ENDBRANCH   1  11
TORSDOF 1
ENDMDL
