MODEL 1
REMARK VINA RESULT:    -4.479      0.000      0.000
REMARK INTER + INTRA:          -5.061
REMARK INTER:                  -4.741
REMARK INTRA:                  -0.320
REMARK UNBOUND:                -0.320
REMARK SMILES c1ccc(-c2ccccc2)cc1
REMARK SMILES IDX 1 1 2 2 3 3 4 4 11 5 12 6 5 7 6 8 10 9 7 10 9 11 8 12
REMARK H PARENT
REMARK Flexibility Score: inf
ROOT
ATOM      1  C   UNL     1      -5.842 -10.681  43.091  1.00  0.00     0.000 A 
ATOM      2  C   UNL     1      -5.765  -9.502  42.346  1.00  0.00     0.001 A 
ATOM      3  C   UNL     1      -4.631  -9.231  41.575  1.00  0.00     0.009 A 
ATOM      4  C   UNL     1      -3.558 -10.142  41.540  1.00  0.00    -0.018 A 
ATOM      5  C   UNL     1      -3.648 -11.327  42.295  1.00  0.00     0.009 A 
ATOM      6  C   UNL     1      -4.784 -11.592  43.065  1.00  0.00     0.001 A 
ENDROOT
BRANCH   4   7
ATOM      7  C   UNL     1      -2.351  -9.858  40.721  1.00  0.00    -0.018 A 
ATOM      8  C   UNL     1      -1.443 -10.886  40.405  1.00  0.00     0.009 A 
ATOM      9  C   UNL     1      -2.098  -8.557  40.246  1.00  0.00     0.009 A 
ATOM     10  C   UNL     1      -0.308 -10.616  39.633  1.00  0.00     0.001 A 
ATOM     11  C   UNL     1      -0.962  -8.293  39.474  1.00  0.00     0.001 A 
ATOM     12  C   UNL     1      -0.068  -9.321  39.168  1.00  0.00     0.000 A 
ENDBRANCH   4   7
TORSDOF 1
ENDMDL
MODEL 2
REMARK VINA RESULT:    -4.477      0.106      4.944
REMARK INTER + INTRA:          -5.059
REMARK INTER:                  -4.739
REMARK INTRA:                  -0.320
REMARK UNBOUND:                -0.320
REMARK SMILES c1ccc(-c2ccccc2)cc1
REMARK SMILES IDX 1 1 2 2 3 3 4 4 11 5 12 6 5 7 6 8 10 9 7 10 9 11 8 12
REMARK H PARENT
REMARK Flexibility Score: inf
ROOT
ATOM      1  C   UNL     1      -0.082  -9.299  39.075  1.00  0.00     0.000 A 
ATOM      2  C   UNL     1      -1.017  -8.288  39.308  1.00  0.00     0.001 A 
ATOM      3  C   UNL     1      -2.148  -8.544  40.090  1.00  0.00     0.009 A 
ATOM      4  C   UNL     1      -2.354  -9.819  40.649  1.00  0.00    -0.018 A 
ATOM      5  C   UNL     1      -1.403 -10.829  40.408  1.00  0.00     0.009 A 
ATOM      6  C   UNL     1      -0.275 -10.568  39.625  1.00  0.00     0.001 A 
ENDROOT
BRANCH   4   7
ATOM      7  C   UNL     1      -3.554 -10.095  41.481  1.00  0.00    -0.018 A 
ATOM      8  C   UNL     1      -4.653  -9.215  41.466  1.00  0.00     0.009 A 
ATOM      9  C   UNL     1      -3.612 -11.241  42.297  1.00  0.00     0.009 A 
ATOM     10  C   UNL     1      -5.782  -9.478  42.249  1.00  0.00     0.001 A 
ATOM     11  C   UNL     1      -4.742 -11.499  43.078  1.00  0.00     0.001 A 
ATOM     12  C   UNL     1      -5.826 -10.619  43.054  1.00  0.00     0.000 A 
ENDBRANCH   4   7
TORSDOF 1
ENDMDL
MODEL 3
REMARK VINA RESULT:    -4.462      0.073      1.977
REMARK INTER + INTRA:          -5.043
REMARK INTER:                  -4.722
REMARK INTRA:                  -0.321
REMARK UNBOUND:                -0.320
REMARK SMILES c1ccc(-c2ccccc2)cc1
REMARK SMILES IDX 1 1 2 2 3 3 4 4 11 5 12 6 5 7 6 8 10 9 7 10 9 11 8 12
REMARK H PARENT
REMARK Flexibility Score: inf
ROOT
ATOM      1  C   UNL     1      -5.843 -10.696  43.044  1.00  0.00     0.000 A 
ATOM      2  C   UNL     1      -4.774 -11.594  43.027  1.00  0.00     0.001 A 
ATOM      3  C   UNL     1      -3.641 -11.323  42.254  1.00  0.00     0.009 A 
ATOM      4  C   UNL     1      -3.566 -10.145  41.488  1.00  0.00    -0.018 A 
ATOM      5  C   UNL     1      -4.650  -9.247  41.513  1.00  0.00     0.009 A 
ATOM      6  C   UNL     1      -5.781  -9.523  42.288  1.00  0.00     0.001 A 
ENDROOT
BRANCH   4   7
ATOM      7  C   UNL     1      -2.363  -9.853  40.665  1.00  0.00    -0.018 A 
ATOM      8  C   UNL     1      -2.157  -8.568  40.129  1.00  0.00     0.009 A 
ATOM      9  C   UNL     1      -1.409 -10.856  40.411  1.00  0.00     0.009 A 
ATOM     10  C   UNL     1      -1.024  -8.296  39.356  1.00  0.00     0.001 A 
ATOM     11  C   UNL     1      -0.278 -10.579  39.637  1.00  0.00     0.001 A 
ATOM     12  C   UNL     1      -0.085  -9.300  39.110  1.00  0.00     0.000 A 
ENDBRANCH   4   7
TORSDOF 1
ENDMDL
MODEL 4
REMARK VINA RESULT:    -4.432      0.197      1.405
REMARK INTER + INTRA:          -5.011
REMARK INTER:                  -4.692
REMARK INTRA:                  -0.319
REMARK UNBOUND:                -0.320
REMARK SMILES c1ccc(-c2ccccc2)cc1
REMARK SMILES IDX 1 1 2 2 3 3 4 4 11 5 12 6 5 7 6 8 10 9 7 10 9 11 8 12
REMARK H PARENT
REMARK Flexibility Score: inf
ROOT
ATOM      1  C   UNL     1      -5.838 -10.599  42.926  1.00  0.00     0.000 A 
ATOM      2  C   UNL     1      -4.721 -11.429  43.034  1.00  0.00     0.001 A 
ATOM      3  C   UNL     1      -3.578 -11.173  42.269  1.00  0.00     0.009 A 
ATOM      4  C   UNL     1      -3.543 -10.078  41.386  1.00  0.00    -0.018 A 
ATOM      5  C   UNL     1      -4.676  -9.248  41.286  1.00  0.00     0.009 A 
ATOM      6  C   UNL     1      -5.816  -9.509  42.053  1.00  0.00     0.001 A 
ENDROOT
BRANCH   4   7
ATOM      7  C   UNL     1      -2.331  -9.802  40.571  1.00  0.00    -0.018 A 
ATOM      8  C   UNL     1      -1.386 -10.816  40.328  1.00  0.00     0.009 A 
ATOM      9  C   UNL     1      -2.109  -8.522  40.029  1.00  0.00     0.009 A 
ATOM     10  C   UNL     1      -0.246 -10.553  39.561  1.00  0.00     0.001 A 
ATOM     11  C   UNL     1      -0.968  -8.264  39.263  1.00  0.00     0.001 A 
ATOM     12  C   UNL     1      -0.038  -9.279  39.029  1.00  0.00     0.000 A 
ENDBRANCH   4   7
TORSDOF 1
ENDMDL
MODEL 5
REMARK VINA RESULT:    -4.419      0.162      4.951
REMARK INTER + INTRA:          -4.998
REMARK INTER:                  -4.676
REMARK INTRA:                  -0.322
REMARK UNBOUND:                -0.320
REMARK SMILES c1ccc(-c2ccccc2)cc1
REMARK SMILES IDX 1 1 2 2 3 3 4 4 11 5 12 6 5 7 6 8 10 9 7 10 9 11 8 12
REMARK H PARENT
REMARK Flexibility Score: inf
ROOT
ATOM      1  C   UNL     1      -0.164  -9.161  39.051  1.00  0.00     0.000 A 
ATOM      2  C   UNL     1      -0.275 -10.425  39.636  1.00  0.00     0.001 A 
ATOM      3  C   UNL     1      -1.382 -10.737  40.431  1.00  0.00     0.009 A 
ATOM      4  C   UNL     1      -2.394  -9.783  40.649  1.00  0.00    -0.018 A 
ATOM      5  C   UNL     1      -2.272  -8.513  40.054  1.00  0.00     0.009 A 
ATOM      6  C   UNL     1      -1.162  -8.207  39.260  1.00  0.00     0.001 A 
ENDROOT
BRANCH   4   7
ATOM      7  C   UNL     1      -3.573 -10.111  41.493  1.00  0.00    -0.018 A 
ATOM      8  C   UNL     1      -3.595 -11.286  42.267  1.00  0.00     0.009 A 
ATOM      9  C   UNL     1      -4.686  -9.250  41.532  1.00  0.00     0.009 A 
ATOM     10  C   UNL     1      -4.705 -11.591  43.061  1.00  0.00     0.001 A 
ATOM     11  C   UNL     1      -5.794  -9.560  42.328  1.00  0.00     0.001 A 
ATOM     12  C   UNL     1      -5.803 -10.729  43.091  1.00  0.00     0.000 A 
ENDBRANCH   4   7
TORSDOF 1
ENDMDL
MODEL 6
REMARK VINA RESULT:    -4.352      2.020      3.159
REMARK INTER + INTRA:          -4.927
REMARK INTER:                  -4.623
REMARK INTRA:                  -0.304
REMARK UNBOUND:                -0.320
REMARK SMILES c1ccc(-c2ccccc2)cc1
REMARK SMILES IDX 1 1 2 2 3 3 4 4 11 5 12 6 5 7 6 8 10 9 7 10 9 11 8 12
REMARK H PARENT
REMARK Flexibility Score: inf
ROOT
ATOM      1  C   UNL     1      -2.306 -13.966  42.592  1.00  0.00     0.000 A 
ATOM      2  C   UNL     1      -1.307 -13.042  42.906  1.00  0.00     0.001 A 
ATOM      3  C   UNL     1      -1.228 -11.830  42.212  1.00  0.00     0.009 A 
ATOM      4  C   UNL     1      -2.153 -11.529  41.195  1.00  0.00    -0.018 A 
ATOM      5  C   UNL     1      -3.156 -12.469  40.889  1.00  0.00     0.009 A 
ATOM      6  C   UNL     1      -3.229 -13.679  41.585  1.00  0.00     0.001 A 
ENDROOT
BRANCH   4   7
ATOM      7  C   UNL     1      -2.074 -10.242  40.456  1.00  0.00    -0.018 A 
ATOM      8  C   UNL     1      -3.230  -9.470  40.237  1.00  0.00     0.009 A 
ATOM      9  C   UNL     1      -0.841  -9.774  39.965  1.00  0.00     0.009 A 
ATOM     10  C   UNL     1      -3.152  -8.259  39.543  1.00  0.00     0.001 A 
ATOM     11  C   UNL     1      -0.768  -8.562  39.271  1.00  0.00     0.001 A 
ATOM     12  C   UNL     1      -1.922  -7.805  39.060  1.00  0.00     0.000 A 
ENDBRANCH   4   7
TORSDOF 1
ENDMDL
MODEL 7
REMARK VINA RESULT:    -4.257      4.642      6.993
REMARK INTER + INTRA:          -4.826
REMARK INTER:                  -4.528
REMARK INTRA:                  -0.297
REMARK UNBOUND:                -0.320
REMARK SMILES c1ccc(-c2ccccc2)cc1
REMARK SMILES IDX 1 1 2 2 3 3 4 4 11 5 12 6 5 7 6 8 10 9 7 10 9 11 8 12
REMARK H PARENT
REMARK Flexibility Score: inf
ROOT
ATOM      1  C   UNL     1      -3.882  -4.703  33.917  1.00  0.00     0.000 A 
ATOM      2  C   UNL     1      -3.066  -5.836  33.922  1.00  0.00     0.001 A 
ATOM      3  C   UNL     1      -2.930  -6.598  35.087  1.00  0.00     0.009 A 
ATOM      4  C   UNL     1      -3.613  -6.233  36.262  1.00  0.00    -0.018 A 
ATOM      5  C   UNL     1      -4.433  -5.089  36.244  1.00  0.00     0.009 A 
ATOM      6  C   UNL     1      -4.565  -4.330  35.077  1.00  0.00     0.001 A 
ENDROOT
BRANCH   4   7
ATOM      7  C   UNL     1      -3.472  -7.041  37.501  1.00  0.00    -0.018 A 
ATOM      8  C   UNL     1      -2.203  -7.273  38.064  1.00  0.00     0.009 A 
ATOM      9  C   UNL     1      -4.606  -7.586  38.133  1.00  0.00     0.009 A 
ATOM     10  C   UNL     1      -2.073  -8.033  39.231  1.00  0.00     0.001 A 
ATOM     11  C   UNL     1      -4.470  -8.346  39.300  1.00  0.00     0.001 A 
ATOM     12  C   UNL     1      -3.205  -8.569  39.848  1.00  0.00     0.000 A 
ENDBRANCH   4   7
TORSDOF 1
ENDMDL
MODEL 8
REMARK VINA RESULT:    -4.254      4.768      6.123
REMARK INTER + INTRA:          -4.823
REMARK INTER:                  -4.525
REMARK INTRA:                  -0.298
REMARK UNBOUND:                -0.320
REMARK SMILES c1ccc(-c2ccccc2)cc1
REMARK SMILES IDX 1 1 2 2 3 3 4 4 11 5 12 6 5 7 6 8 10 9 7 10 9 11 8 12
REMARK H PARENT
REMARK Flexibility Score: inf
ROOT
ATOM      1  C   UNL     1      -3.598  -8.442  39.682  1.00  0.00     0.000 A 
ATOM      2  C   UNL     1      -4.789  -8.138  39.019  1.00  0.00     0.001 A 
ATOM      3  C   UNL     1      -4.762  -7.410  37.825  1.00  0.00     0.009 A 
ATOM      4  C   UNL     1      -3.538  -6.979  37.280  1.00  0.00    -0.018 A 
ATOM      5  C   UNL     1      -2.344  -7.293  37.958  1.00  0.00     0.009 A 
ATOM      6  C   UNL     1      -2.377  -8.020  39.151  1.00  0.00     0.001 A 
ENDROOT
BRANCH   4   7
ATOM      7  C   UNL     1      -3.505  -6.206  36.011  1.00  0.00    -0.018 A 
ATOM      8  C   UNL     1      -2.747  -6.660  34.916  1.00  0.00     0.009 A 
ATOM      9  C   UNL     1      -4.233  -5.008  35.884  1.00  0.00     0.009 A 
ATOM     10  C   UNL     1      -2.719  -5.931  33.723  1.00  0.00     0.001 A 
ATOM     11  C   UNL     1      -4.201  -4.282  34.689  1.00  0.00     0.001 A 
ATOM     12  C   UNL     1      -3.445  -4.743  33.610  1.00  0.00     0.000 A 
ENDBRANCH   4   7
TORSDOF 1
ENDMDL
MODEL 9
REMARK VINA RESULT:    -4.200      3.562      4.943
REMARK INTER + INTRA:          -4.766
REMARK INTER:                  -4.446
REMARK INTRA:                  -0.320
REMARK UNBOUND:                -0.320
REMARK SMILES c1ccc(-c2ccccc2)cc1
REMARK SMILES IDX 1 1 2 2 3 3 4 4 11 5 12 6 5 7 6 8 10 9 7 10 9 11 8 12
REMARK H PARENT
REMARK Flexibility Score: inf
ROOT
ATOM      1  C   UNL     1      -3.814 -17.095  43.687  1.00  0.00     0.000 A 
ATOM      2  C   UNL     1      -2.533 -16.621  43.980  1.00  0.00     0.001 A 
ATOM      3  C   UNL     1      -2.107 -15.389  43.474  1.00  0.00     0.009 A 
ATOM      4  C   UNL     1      -2.962 -14.616  42.667  1.00  0.00    -0.018 A 
ATOM      5  C   UNL     1      -4.251 -15.104  42.379  1.00  0.00     0.009 A 
ATOM      6  C   UNL     1      -4.672 -16.336  42.887  1.00  0.00     0.001 A 
ENDROOT
BRANCH   4   7
ATOM      7  C   UNL     1      -2.513 -13.305  42.128  1.00  0.00    -0.018 A 
ATOM      8  C   UNL     1      -3.195 -12.701  41.055  1.00  0.00     0.009 A 
ATOM      9  C   UNL     1      -1.400 -12.646  42.683  1.00  0.00     0.009 A 
ATOM     10  C   UNL     1      -2.770 -11.468  40.550  1.00  0.00     0.001 A 
ATOM     11  C   UNL     1      -0.980 -11.414  42.175  1.00  0.00     0.001 A 
ATOM     12  C   UNL     1      -1.664 -10.825  41.109  1.00  0.00     0.000 A 
ENDBRANCH   4   7
TORSDOF 1
ENDMDL
