MODEL 1
REMARK VINA RESULT:    -4.097      0.000      0.000
REMARK INTER + INTRA:          -6.541
REMARK INTER:                  -6.013
REMARK INTRA:                  -0.528
REMARK UNBOUND:                -0.528
REMARK SMILES O=C([O-])CCCCCCCC(=O)[O-]
REMARK SMILES IDX 7 1 6 2 5 3 4 4 2 5 1 6 3 7 8 8 9 9 10 10 11 11 12 12 13 13
REMARK H PARENT
REMARK Flexibility Score: inf
ROOT
ATOM      1  C   UNL     1      39.413  23.282 223.120  1.00  0.00     0.000 C 
ENDROOT
BRANCH   1   2
ATOM      2  C   UNL     1      38.919  22.646 224.428  1.00  0.00     0.000 C 
BRANCH   2   3
ATOM      3  C   UNL     1      38.272  23.696 225.340  1.00  0.00     0.006 C 
BRANCH   3   4
ATOM      4  C   UNL     1      36.777  23.836 225.043  1.00  0.00     0.053 C 
BRANCH   4   5
ATOM      5  C   UNL     1      36.434  25.261 224.740  1.00  0.00     0.041 C 
ATOM      6  O   UNL     1      36.924  25.829 223.729  1.00  0.00    -0.550 OA
ATOM      7  O   UNL     1      35.535  25.945 225.548  1.00  0.00    -0.550 OA
ENDBRANCH   4   5
ENDBRANCH   3   4
ENDBRANCH   2   3
ENDBRANCH   1   2
BRANCH   1   8
ATOM      8  C   UNL     1      40.948  23.311 223.008  1.00  0.00     0.000 C 
BRANCH   8   9
ATOM      9  C   UNL     1      41.689  22.322 223.931  1.00  0.00     0.006 C 
BRANCH   9  10
ATOM     10  C   UNL     1      42.428  21.194 223.194  1.00  0.00     0.053 C 
BRANCH  10  11
ATOM     11  C   UNL     1      41.481  20.230 222.549  1.00  0.00     0.041 C 
ATOM     12  O   UNL     1      41.294  20.262 221.304  1.00  0.00    -0.550 OA
ATOM     13  O   UNL     1      40.778  19.318 223.328  1.00  0.00    -0.550 OA
ENDBRANCH  10  11
ENDBRANCH   9  10
ENDBRANCH   8   9
ENDBRANCH   1   8
TORSDOF 8
ENDMDL
MODEL 2
REMARK VINA RESULT:    -4.034      3.542      4.660
REMARK INTER + INTRA:          -6.449
REMARK INTER:                  -5.798
REMARK INTRA:                  -0.651
REMARK UNBOUND:                -0.528
REMARK SMILES O=C([O-])CCCCCCCC(=O)[O-]
REMARK SMILES IDX 7 1 6 2 5 3 4 4 2 5 1 6 3 7 8 8 9 9 10 10 11 11 12 12 13 13
REMARK H PARENT
REMARK Flexibility Score: inf
ROOT
ATOM      1  C   UNL     1      38.632  21.876 226.739  1.00  0.00     0.000 C 
ENDROOT
BRANCH   1   2
ATOM      2  C   UNL     1      38.673  21.823 225.205  1.00  0.00     0.000 C 
BRANCH   2   3
ATOM      3  C   UNL     1      37.353  22.319 224.603  1.00  0.00     0.006 C 
BRANCH   3   4
ATOM      4  C   UNL     1      36.846  23.563 225.338  1.00  0.00     0.053 C 
BRANCH   4   5
ATOM      5  C   UNL     1      36.222  24.523 224.375  1.00  0.00     0.041 C 
ATOM      6  O   UNL     1      35.307  24.138 223.600  1.00  0.00    -0.550 OA
ATOM      7  O   UNL     1      36.615  25.855 224.368  1.00  0.00    -0.550 OA
ENDBRANCH   4   5
ENDBRANCH   3   4
ENDBRANCH   2   3
ENDBRANCH   1   2
BRANCH   1   8
ATOM      8  C   UNL     1      39.012  20.537 227.397  1.00  0.00     0.000 C 
BRANCH   8   9
ATOM      9  C   UNL     1      37.823  19.709 227.927  1.00  0.00     0.006 C 
BRANCH   9  10
ATOM     10  C   UNL     1      37.238  18.711 226.915  1.00  0.00     0.053 C 
BRANCH  10  11
ATOM     11  C   UNL     1      36.004  19.240 226.253  1.00  0.00     0.041 C 
ATOM     12  O   UNL     1      35.541  18.672 225.229  1.00  0.00    -0.550 OA
ATOM     13  O   UNL     1      35.384  20.382 226.746  1.00  0.00    -0.550 OA
ENDBRANCH  10  11
ENDBRANCH   9  10
ENDBRANCH   8   9
ENDBRANCH   1   8
TORSDOF 8
ENDMDL
MODEL 3
REMARK VINA RESULT:    -4.016      3.302      5.696
REMARK INTER + INTRA:          -6.422
REMARK INTER:                  -5.738
REMARK INTRA:                  -0.684
REMARK UNBOUND:                -0.528
REMARK SMILES O=C([O-])CCCCCCCC(=O)[O-]
REMARK SMILES IDX 7 1 6 2 5 3 4 4 2 5 1 6 3 7 8 8 9 9 10 10 11 11 12 12 13 13
REMARK H PARENT
REMARK Flexibility Score: inf
ROOT
ATOM      1  C   UNL     1      39.204  22.669 225.993  1.00  0.00     0.000 C 
ENDROOT
BRANCH   1   2
ATOM      2  C   UNL     1      39.625  21.227 226.315  1.00  0.00     0.000 C 
BRANCH   2   3
ATOM      3  C   UNL     1      38.474  20.449 226.964  1.00  0.00     0.006 C 
BRANCH   3   4
ATOM      4  C   UNL     1      37.680  19.666 225.916  1.00  0.00     0.053 C 
BRANCH   4   5
ATOM      5  C   UNL     1      36.211  19.784 226.174  1.00  0.00     0.041 C 
ATOM      6  O   UNL     1      35.763  20.744 226.854  1.00  0.00    -0.550 OA
ATOM      7  O   UNL     1      35.332  18.862 225.622  1.00  0.00    -0.550 OA
ENDBRANCH   4   5
ENDBRANCH   3   4
ENDBRANCH   2   3
ENDBRANCH   1   2
BRANCH   1   8
ATOM      8  C   UNL     1      39.035  22.922 224.484  1.00  0.00     0.000 C 
BRANCH   8   9
ATOM      9  C   UNL     1      37.581  23.144 224.017  1.00  0.00     0.006 C 
BRANCH   9  10
ATOM     10  C   UNL     1      36.669  23.804 225.063  1.00  0.00     0.053 C 
BRANCH  10  11
ATOM     11  C   UNL     1      36.332  25.218 224.703  1.00  0.00     0.041 C 
ATOM     12  O   UNL     1      36.859  25.757 223.694  1.00  0.00    -0.550 OA
ATOM     13  O   UNL     1      35.463  25.951 225.500  1.00  0.00    -0.550 OA
ENDBRANCH  10  11
ENDBRANCH   9  10
ENDBRANCH   8   9
ENDBRANCH   1   8
TORSDOF 8
ENDMDL
MODEL 4
REMARK VINA RESULT:    -3.999      3.391      4.243
REMARK INTER + INTRA:          -6.397
REMARK INTER:                  -5.913
REMARK INTRA:                  -0.484
REMARK UNBOUND:                -0.528
REMARK SMILES O=C([O-])CCCCCCCC(=O)[O-]
REMARK SMILES IDX 7 1 6 2 5 3 4 4 2 5 1 6 3 7 8 8 9 9 10 10 11 11 12 12 13 13
REMARK H PARENT
REMARK Flexibility Score: inf
ROOT
ATOM      1  C   UNL     1      38.863  21.434 225.168  1.00  0.00     0.000 C 
ENDROOT
BRANCH   1   2
ATOM      2  C   UNL     1      38.440  22.443 226.247  1.00  0.00     0.000 C 
BRANCH   2   3
ATOM      3  C   UNL     1      37.158  23.179 225.839  1.00  0.00     0.006 C 
BRANCH   3   4
ATOM      4  C   UNL     1      37.261  24.675 226.145  1.00  0.00     0.053 C 
BRANCH   4   5
ATOM      5  C   UNL     1      36.362  25.459 225.241  1.00  0.00     0.041 C 
ATOM      6  O   UNL     1      36.804  25.930 224.161  1.00  0.00    -0.550 OA
ATOM      7  O   UNL     1      35.023  25.626 225.568  1.00  0.00    -0.550 OA
ENDBRANCH   4   5
ENDBRANCH   3   4
ENDBRANCH   2   3
ENDBRANCH   1   2
BRANCH   1   8
ATOM      8  C   UNL     1      39.345  20.095 225.755  1.00  0.00     0.000 C 
BRANCH   8   9
ATOM      9  C   UNL     1      38.348  19.401 226.705  1.00  0.00     0.006 C 
BRANCH   9  10
ATOM     10  C   UNL     1      37.377  18.431 226.012  1.00  0.00     0.053 C 
BRANCH  10  11
ATOM     11  C   UNL     1      36.046  19.063 225.747  1.00  0.00     0.041 C 
ATOM     12  O   UNL     1      35.358  18.700 224.757  1.00  0.00    -0.550 OA
ATOM     13  O   UNL     1      35.580  20.079 226.574  1.00  0.00    -0.550 OA
ENDBRANCH  10  11
ENDBRANCH   9  10
ENDBRANCH   8   9
ENDBRANCH   1   8
TORSDOF 8
ENDMDL
MODEL 5
REMARK VINA RESULT:    -3.998      2.989      4.160
REMARK INTER + INTRA:          -6.396
REMARK INTER:                  -5.789
REMARK INTRA:                  -0.606
REMARK UNBOUND:                -0.528
REMARK SMILES O=C([O-])CCCCCCCC(=O)[O-]
REMARK SMILES IDX 7 1 6 2 5 3 4 4 2 5 1 6 3 7 8 8 9 9 10 10 11 11 12 12 13 13
REMARK H PARENT
REMARK Flexibility Score: inf
ROOT
ATOM      1  C   UNL     1      38.722  22.220 225.551  1.00  0.00     0.000 C 
ENDROOT
BRANCH   1   2
ATOM      2  C   UNL     1      38.249  22.907 224.261  1.00  0.00     0.000 C 
BRANCH   2   3
ATOM      3  C   UNL     1      36.761  22.634 224.006  1.00  0.00     0.006 C 
BRANCH   3   4
ATOM      4  C   UNL     1      36.098  23.820 223.302  1.00  0.00     0.053 C 
BRANCH   4   5
ATOM      5  C   UNL     1      36.171  25.046 224.158  1.00  0.00     0.041 C 
ATOM      6  O   UNL     1      36.913  26.007 223.825  1.00  0.00    -0.550 OA
ATOM      7  O   UNL     1      35.382  25.147 225.296  1.00  0.00    -0.550 OA
ENDBRANCH   4   5
ENDBRANCH   3   4
ENDBRANCH   2   3
ENDBRANCH   1   2
BRANCH   1   8
ATOM      8  C   UNL     1      37.626  22.149 226.630  1.00  0.00     0.000 C 
BRANCH   8   9
ATOM      9  C   UNL     1      37.399  20.751 227.241  1.00  0.00     0.006 C 
BRANCH   9  10
ATOM     10  C   UNL     1      36.219  19.975 226.635  1.00  0.00     0.053 C 
BRANCH  10  11
ATOM     11  C   UNL     1      36.678  18.848 225.761  1.00  0.00     0.041 C 
ATOM     12  O   UNL     1      35.837  18.140 225.147  1.00  0.00    -0.550 OA
ATOM     13  O   UNL     1      38.032  18.558 225.652  1.00  0.00    -0.550 OA
ENDBRANCH  10  11
ENDBRANCH   9  10
ENDBRANCH   8   9
ENDBRANCH   1   8
TORSDOF 8
ENDMDL
MODEL 6
REMARK VINA RESULT:    -3.991      3.349      6.244
REMARK INTER + INTRA:          -6.386
REMARK INTER:                  -5.841
REMARK INTRA:                  -0.545
REMARK UNBOUND:                -0.528
REMARK SMILES O=C([O-])CCCCCCCC(=O)[O-]
REMARK SMILES IDX 7 1 6 2 5 3 4 4 2 5 1 6 3 7 8 8 9 9 10 10 11 11 12 12 13 13
REMARK H PARENT
REMARK Flexibility Score: inf
ROOT
ATOM      1  C   UNL     1      39.220  21.371 225.105  1.00  0.00     0.000 C 
ENDROOT
BRANCH   1   2
ATOM      2  C   UNL     1      38.530  20.121 225.673  1.00  0.00     0.000 C 
BRANCH   2   3
ATOM      3  C   UNL     1      37.709  20.466 226.922  1.00  0.00     0.006 C 
BRANCH   3   4
ATOM      4  C   UNL     1      36.235  20.103 226.729  1.00  0.00     0.053 C 
BRANCH   4   5
ATOM      5  C   UNL     1      36.062  18.617 226.694  1.00  0.00     0.041 C 
ATOM      6  O   UNL     1      35.761  18.039 225.617  1.00  0.00    -0.550 OA
ATOM      7  O   UNL     1      36.282  17.865 227.841  1.00  0.00    -0.550 OA
ENDBRANCH   4   5
ENDBRANCH   3   4
ENDBRANCH   2   3
ENDBRANCH   1   2
BRANCH   1   8
ATOM      8  C   UNL     1      38.225  22.412 224.562  1.00  0.00     0.000 C 
BRANCH   8   9
ATOM      9  C   UNL     1      38.268  23.785 225.264  1.00  0.00     0.006 C 
BRANCH   9  10
ATOM     10  C   UNL     1      36.933  24.226 225.884  1.00  0.00     0.053 C 
BRANCH  10  11
ATOM     11  C   UNL     1      36.303  25.349 225.119  1.00  0.00     0.041 C 
ATOM     12  O   UNL     1      35.342  25.994 225.617  1.00  0.00    -0.550 OA
ATOM     13  O   UNL     1      36.754  25.662 223.843  1.00  0.00    -0.550 OA
ENDBRANCH  10  11
ENDBRANCH   9  10
ENDBRANCH   8   9
ENDBRANCH   1   8
TORSDOF 8
ENDMDL
MODEL 7
REMARK VINA RESULT:    -3.954      3.209      5.602
REMARK INTER + INTRA:          -6.332
REMARK INTER:                  -5.917
REMARK INTRA:                  -0.414
REMARK UNBOUND:                -0.528
REMARK SMILES O=C([O-])CCCCCCCC(=O)[O-]
REMARK SMILES IDX 7 1 6 2 5 3 4 4 2 5 1 6 3 7 8 8 9 9 10 10 11 11 12 12 13 13
REMARK H PARENT
REMARK Flexibility Score: inf
ROOT
ATOM      1  C   UNL     1      39.829  22.495 224.934  1.00  0.00     0.000 C 
ENDROOT
BRANCH   1   2
ATOM      2  C   UNL     1      38.954  21.783 225.977  1.00  0.00     0.000 C 
BRANCH   2   3
ATOM      3  C   UNL     1      37.690  21.203 225.330  1.00  0.00     0.006 C 
BRANCH   3   4
ATOM      4  C   UNL     1      37.501  19.733 225.714  1.00  0.00     0.053 C 
BRANCH   4   5
ATOM      5  C   UNL     1      36.084  19.476 226.121  1.00  0.00     0.041 C 
ATOM      6  O   UNL     1      35.535  18.377 225.845  1.00  0.00    -0.550 OA
ATOM      7  O   UNL     1      35.386  20.431 226.849  1.00  0.00    -0.550 OA
ENDBRANCH   4   5
ENDBRANCH   3   4
ENDBRANCH   2   3
ENDBRANCH   1   2
BRANCH   1   8
ATOM      8  C   UNL     1      39.681  24.027 224.971  1.00  0.00     0.000 C 
BRANCH   8   9
ATOM      9  C   UNL     1      38.720  24.616 223.918  1.00  0.00     0.006 C 
BRANCH   9  10
ATOM     10  C   UNL     1      37.822  25.750 224.438  1.00  0.00     0.053 C 
BRANCH  10  11
ATOM     11  C   UNL     1      36.441  25.269 224.762  1.00  0.00     0.041 C 
ATOM     12  O   UNL     1      35.686  25.960 225.495  1.00  0.00    -0.550 OA
ATOM     13  O   UNL     1      36.002  24.041 224.284  1.00  0.00    -0.550 OA
ENDBRANCH  10  11
ENDBRANCH   9  10
ENDBRANCH   8   9
ENDBRANCH   1   8
TORSDOF 8
ENDMDL
MODEL 8
REMARK VINA RESULT:    -3.946      1.607      6.751
REMARK INTER + INTRA:          -6.320
REMARK INTER:                  -6.053
REMARK INTRA:                  -0.268
REMARK UNBOUND:                -0.528
REMARK SMILES O=C([O-])CCCCCCCC(=O)[O-]
REMARK SMILES IDX 7 1 6 2 5 3 4 4 2 5 1 6 3 7 8 8 9 9 10 10 11 11 12 12 13 13
REMARK H PARENT
REMARK Flexibility Score: inf
ROOT
ATOM      1  C   UNL     1      40.769  23.909 223.013  1.00  0.00     0.000 C 
ENDROOT
BRANCH   1   2
ATOM      2  C   UNL     1      41.404  22.678 223.679  1.00  0.00     0.000 C 
BRANCH   2   3
ATOM      3  C   UNL     1      41.610  21.549 222.663  1.00  0.00     0.006 C 
BRANCH   3   4
ATOM      4  C   UNL     1      41.548  20.179 223.342  1.00  0.00     0.053 C 
BRANCH   4   5
ATOM      5  C   UNL     1      42.914  19.746 223.775  1.00  0.00     0.041 C 
ATOM      6  O   UNL     1      43.059  19.064 224.823  1.00  0.00    -0.550 OA
ATOM      7  O   UNL     1      44.020  20.054 222.994  1.00  0.00    -0.550 OA
ENDBRANCH   4   5
ENDBRANCH   3   4
ENDBRANCH   2   3
ENDBRANCH   1   2
BRANCH   1   8
ATOM      8  C   UNL     1      39.248  23.993 223.232  1.00  0.00     0.000 C 
BRANCH   8   9
ATOM      9  C   UNL     1      38.813  24.694 224.536  1.00  0.00     0.006 C 
BRANCH   9  10
ATOM     10  C   UNL     1      37.596  25.620 224.386  1.00  0.00     0.053 C 
BRANCH  10  11
ATOM     11  C   UNL     1      36.397  25.094 225.114  1.00  0.00     0.041 C 
ATOM     12  O   UNL     1      36.267  23.857 225.309  1.00  0.00    -0.550 OA
ATOM     13  O   UNL     1      35.406  25.968 225.545  1.00  0.00    -0.550 OA
ENDBRANCH  10  11
ENDBRANCH   9  10
ENDBRANCH   8   9
ENDBRANCH   1   8
TORSDOF 8
ENDMDL
MODEL 9
REMARK VINA RESULT:    -3.944      2.674      3.818
REMARK INTER + INTRA:          -6.317
REMARK INTER:                  -5.596
REMARK INTRA:                  -0.721
REMARK UNBOUND:                -0.528
REMARK SMILES O=C([O-])CCCCCCCC(=O)[O-]
REMARK SMILES IDX 7 1 6 2 5 3 4 4 2 5 1 6 3 7 8 8 9 9 10 10 11 11 12 12 13 13
REMARK H PARENT
REMARK Flexibility Score: inf
ROOT
ATOM      1  C   UNL     1      41.098  22.537 224.607  1.00  0.00     0.000 C 
ENDROOT
BRANCH   1   2
ATOM      2  C   UNL     1      40.978  23.779 223.710  1.00  0.00     0.000 C 
BRANCH   2   3
ATOM      3  C   UNL     1      39.512  24.067 223.365  1.00  0.00     0.006 C 
BRANCH   3   4
ATOM      4  C   UNL     1      38.904  25.073 224.345  1.00  0.00     0.053 C 
BRANCH   4   5
ATOM      5  C   UNL     1      37.455  25.292 224.041  1.00  0.00     0.041 C 
ATOM      6  O   UNL     1      36.942  24.787 223.009  1.00  0.00    -0.550 OA
ATOM      7  O   UNL     1      36.661  26.013 224.923  1.00  0.00    -0.550 OA
ENDBRANCH   4   5
ENDBRANCH   3   4
ENDBRANCH   2   3
ENDBRANCH   1   2
BRANCH   1   8
ATOM      8  C   UNL     1      40.047  21.460 224.286  1.00  0.00     0.000 C 
BRANCH   8   9
ATOM      9  C   UNL     1      39.317  20.872 225.511  1.00  0.00     0.006 C 
BRANCH   9  10
ATOM     10  C   UNL     1      38.441  21.878 226.275  1.00  0.00     0.053 C 
BRANCH  10  11
ATOM     11  C   UNL     1      36.986  21.700 225.969  1.00  0.00     0.041 C 
ATOM     12  O   UNL     1      36.197  21.288 226.860  1.00  0.00    -0.550 OA
ATOM     13  O   UNL     1      36.507  21.956 224.690  1.00  0.00    -0.550 OA
ENDBRANCH  10  11
ENDBRANCH   9  10
ENDBRANCH   8   9
ENDBRANCH   1   8
TORSDOF 8
ENDMDL
