MODEL 1
REMARK VINA RESULT:    -5.125      0.000      0.000
REMARK INTER + INTRA:          -7.127
REMARK INTER:                  -6.923
REMARK INTRA:                  -0.204
REMARK UNBOUND:                -0.204
REMARK SMILES [NH3+]CCCC[C@@H]([NH3+])C(=O)[O-]
REMARK SMILES IDX 4 1 3 2 2 3 1 4 5 8 6 9 7 10 8 14 9 15 10 16
REMARK H PARENT 1 5 1 6 1 7 7 11 7 12 7 13
REMARK Flexibility Score: inf
ROOT
ATOM      1  C   UNL     1     -20.566  70.093  -0.094  1.00  0.00     0.012 C 
ENDROOT
BRANCH   1   2
ATOM      2  C   UNL     1     -21.627  69.881   0.996  1.00  0.00     0.061 C 
BRANCH   2   3
ATOM      3  C   UNL     1     -21.657  68.435   1.519  1.00  0.00     0.258 C 
BRANCH   3   4
ATOM      4  N   UNL     1     -22.945  67.784   1.268  1.00  0.00    -0.358 N 
ATOM      5  H   UNL     1     -22.898  66.773   1.528  1.00  0.00     0.344 HD
ATOM      6  H   UNL     1     -23.676  68.241   1.857  1.00  0.00     0.344 HD
ATOM      7  H   UNL     1     -23.214  67.883   0.262  1.00  0.00     0.344 HD
ENDBRANCH   3   4
ENDBRANCH   2   3
ENDBRANCH   1   2
BRANCH   1   8
ATOM      8  C   UNL     1     -20.622  68.963  -1.137  1.00  0.00     0.072 C 
BRANCH   8   9
ATOM      9  C   UNL     1     -19.255  68.301  -1.431  1.00  0.00     0.227 C 
BRANCH   9  10
ATOM     10  N   UNL     1     -18.128  69.154  -1.024  1.00  0.00    -0.350 N 
ATOM     11  H   UNL     1     -18.438  69.915  -0.378  1.00  0.00     0.345 HD
ATOM     12  H   UNL     1     -17.410  68.571  -0.534  1.00  0.00     0.345 HD
ATOM     13  H   UNL     1     -17.682  69.580  -1.869  1.00  0.00     0.345 HD
ENDBRANCH   9  10
BRANCH   9  14
ATOM     14  C   UNL     1     -19.161  66.926  -0.817  1.00  0.00     0.099 C 
ATOM     15  O   UNL     1     -18.864  66.778   0.398  1.00  0.00    -0.544 OA
ATOM     16  O   UNL     1     -19.455  65.809  -1.589  1.00  0.00    -0.544 OA
ENDBRANCH   9  14
ENDBRANCH   8   9
ENDBRANCH   1   8
TORSDOF 7
ENDMDL
MODEL 2
REMARK VINA RESULT:    -4.890      2.325      4.465
REMARK INTER + INTRA:          -6.808
REMARK INTER:                  -6.341
REMARK INTRA:                  -0.467
REMARK UNBOUND:                -0.204
REMARK SMILES [NH3+]CCCC[C@@H]([NH3+])C(=O)[O-]
REMARK SMILES IDX 4 1 3 2 2 3 1 4 5 8 6 9 7 10 8 14 9 15 10 16
REMARK H PARENT 1 5 1 6 1 7 7 11 7 12 7 13
REMARK Flexibility Score: inf
ROOT
ATOM      1  C   UNL     1     -20.156  67.259  -1.074  1.00  0.00     0.012 C 
ENDROOT
BRANCH   1   2
ATOM      2  C   UNL     1     -18.627  67.160  -1.181  1.00  0.00     0.061 C 
BRANCH   2   3
ATOM      3  C   UNL     1     -17.907  68.287  -0.422  1.00  0.00     0.258 C 
BRANCH   3   4
ATOM      4  N   UNL     1     -17.857  69.530  -1.196  1.00  0.00    -0.358 N 
ATOM      5  H   UNL     1     -17.152  70.185  -0.787  1.00  0.00     0.344 HD
ATOM      6  H   UNL     1     -17.570  69.308  -2.175  1.00  0.00     0.344 HD
ATOM      7  H   UNL     1     -18.799  69.984  -1.216  1.00  0.00     0.344 HD
ENDBRANCH   3   4
ENDBRANCH   2   3
ENDBRANCH   1   2
BRANCH   1   8
ATOM      8  C   UNL     1     -20.576  67.687   0.344  1.00  0.00     0.072 C 
BRANCH   8   9
ATOM      9  C   UNL     1     -21.735  68.711   0.382  1.00  0.00     0.227 C 
BRANCH   9  10
ATOM     10  N   UNL     1     -22.724  68.390   1.421  1.00  0.00    -0.350 N 
ATOM     11  H   UNL     1     -22.451  68.794   2.347  1.00  0.00     0.345 HD
ATOM     12  H   UNL     1     -23.655  68.782   1.148  1.00  0.00     0.345 HD
ATOM     13  H   UNL     1     -22.820  67.353   1.513  1.00  0.00     0.345 HD
ENDBRANCH   9  10
BRANCH   9  14
ATOM     14  C   UNL     1     -21.223  70.123   0.519  1.00  0.00     0.099 C 
ATOM     15  O   UNL     1     -20.505  70.641  -0.377  1.00  0.00    -0.544 OA
ATOM     16  O   UNL     1     -21.590  70.882   1.623  1.00  0.00    -0.544 OA
ENDBRANCH   9  14
ENDBRANCH   8   9
ENDBRANCH   1   8
TORSDOF 7
ENDMDL
MODEL 3
REMARK VINA RESULT:    -4.755      2.101      4.196
REMARK INTER + INTRA:          -6.627
REMARK INTER:                  -6.513
REMARK INTRA:                  -0.114
REMARK UNBOUND:                -0.204
REMARK SMILES [NH3+]CCCC[C@@H]([NH3+])C(=O)[O-]
REMARK SMILES IDX 4 1 3 2 2 3 1 4 5 8 6 9 7 10 8 14 9 15 10 16
REMARK H PARENT 1 5 1 6 1 7 7 11 7 12 7 13
REMARK Flexibility Score: inf
ROOT
ATOM      1  C   UNL     1     -20.498  66.959  -1.501  1.00  0.00     0.012 C 
ENDROOT
BRANCH   1   2
ATOM      2  C   UNL     1     -19.063  66.530  -1.159  1.00  0.00     0.061 C 
BRANCH   2   3
ATOM      3  C   UNL     1     -18.479  67.313   0.028  1.00  0.00     0.258 C 
BRANCH   3   4
ATOM      4  N   UNL     1     -17.483  68.299  -0.397  1.00  0.00    -0.358 N 
ATOM      5  H   UNL     1     -17.267  68.184  -1.413  1.00  0.00     0.344 HD
ATOM      6  H   UNL     1     -17.871  69.258  -0.250  1.00  0.00     0.344 HD
ATOM      7  H   UNL     1     -16.608  68.200   0.168  1.00  0.00     0.344 HD
ENDBRANCH   3   4
ENDBRANCH   2   3
ENDBRANCH   1   2
BRANCH   1   8
ATOM      8  C   UNL     1     -20.709  68.453  -1.194  1.00  0.00     0.072 C 
BRANCH   8   9
ATOM      9  C   UNL     1     -21.961  68.755  -0.338  1.00  0.00     0.227 C 
BRANCH   9  10
ATOM     10  N   UNL     1     -22.903  67.626  -0.316  1.00  0.00    -0.350 N 
ATOM     11  H   UNL     1     -23.841  67.918   0.043  1.00  0.00     0.345 HD
ATOM     12  H   UNL     1     -23.019  67.250  -1.285  1.00  0.00     0.345 HD
ATOM     13  H   UNL     1     -22.526  66.861   0.290  1.00  0.00     0.345 HD
ENDBRANCH   9  10
BRANCH   9  14
ATOM     14  C   UNL     1     -21.587  69.195   1.055  1.00  0.00     0.099 C 
ATOM     15  O   UNL     1     -21.231  68.356   1.925  1.00  0.00    -0.544 OA
ATOM     16  O   UNL     1     -21.585  70.547   1.371  1.00  0.00    -0.544 OA
ENDBRANCH   9  14
ENDBRANCH   8   9
ENDBRANCH   1   8
TORSDOF 7
ENDMDL
MODEL 4
REMARK VINA RESULT:    -4.726      2.623      3.802
REMARK INTER + INTRA:          -6.587
REMARK INTER:                  -6.388
REMARK INTRA:                  -0.199
REMARK UNBOUND:                -0.204
REMARK SMILES [NH3+]CCCC[C@@H]([NH3+])C(=O)[O-]
REMARK SMILES IDX 4 1 3 2 2 3 1 4 5 8 6 9 7 10 8 14 9 15 10 16
REMARK H PARENT 1 5 1 6 1 7 7 11 7 12 7 13
REMARK Flexibility Score: inf
ROOT
ATOM      1  C   UNL     1     -18.852  68.381  -0.847  1.00  0.00     0.012 C 
ENDROOT
BRANCH   1   2
ATOM      2  C   UNL     1     -18.949  66.873  -0.576  1.00  0.00     0.061 C 
BRANCH   2   3
ATOM      3  C   UNL     1     -19.697  66.119  -1.689  1.00  0.00     0.258 C 
BRANCH   3   4
ATOM      4  N   UNL     1     -19.251  64.729  -1.811  1.00  0.00    -0.358 N 
ATOM      5  H   UNL     1     -19.766  64.248  -2.583  1.00  0.00     0.344 HD
ATOM      6  H   UNL     1     -18.232  64.719  -2.040  1.00  0.00     0.344 HD
ATOM      7  H   UNL     1     -19.398  64.219  -0.910  1.00  0.00     0.344 HD
ENDBRANCH   3   4
ENDBRANCH   2   3
ENDBRANCH   1   2
BRANCH   1   8
ATOM      8  C   UNL     1     -20.252  69.022  -0.874  1.00  0.00     0.072 C 
BRANCH   8   9
ATOM      9  C   UNL     1     -20.950  69.081   0.504  1.00  0.00     0.227 C 
BRANCH   9  10
ATOM     10  N   UNL     1     -21.304  70.456   0.888  1.00  0.00    -0.350 N 
ATOM     11  H   UNL     1     -21.567  71.030   0.054  1.00  0.00     0.345 HD
ATOM     12  H   UNL     1     -22.115  70.435   1.548  1.00  0.00     0.345 HD
ATOM     13  H   UNL     1     -20.496  70.908   1.375  1.00  0.00     0.345 HD
ENDBRANCH   9  10
BRANCH   9  14
ATOM     14  C   UNL     1     -22.147  68.164   0.560  1.00  0.00     0.099 C 
ATOM     15  O   UNL     1     -22.710  67.901   1.656  1.00  0.00    -0.544 OA
ATOM     16  O   UNL     1     -22.667  67.642  -0.618  1.00  0.00    -0.544 OA
ENDBRANCH   9  14
ENDBRANCH   8   9
ENDBRANCH   1   8
TORSDOF 7
ENDMDL
MODEL 5
REMARK VINA RESULT:    -4.632      1.015      1.634
REMARK INTER + INTRA:          -6.461
REMARK INTER:                  -6.004
REMARK INTRA:                  -0.457
REMARK UNBOUND:                -0.204
REMARK SMILES [NH3+]CCCC[C@@H]([NH3+])C(=O)[O-]
REMARK SMILES IDX 4 1 3 2 2 3 1 4 5 8 6 9 7 10 8 14 9 15 10 16
REMARK H PARENT 1 5 1 6 1 7 7 11 7 12 7 13
REMARK Flexibility Score: inf
ROOT
ATOM      1  C   UNL     1     -21.592  68.030  -1.129  1.00  0.00     0.012 C 
ENDROOT
BRANCH   1   2
ATOM      2  C   UNL     1     -22.433  68.240   0.138  1.00  0.00     0.061 C 
BRANCH   2   3
ATOM      3  C   UNL     1     -21.732  69.139   1.171  1.00  0.00     0.258 C 
BRANCH   3   4
ATOM      4  N   UNL     1     -21.110  68.364   2.247  1.00  0.00    -0.358 N 
ATOM      5  H   UNL     1     -20.222  67.926   1.913  1.00  0.00     0.344 HD
ATOM      6  H   UNL     1     -20.882  69.006   3.038  1.00  0.00     0.344 HD
ATOM      7  H   UNL     1     -21.767  67.626   2.590  1.00  0.00     0.344 HD
ENDBRANCH   3   4
ENDBRANCH   2   3
ENDBRANCH   1   2
BRANCH   1   8
ATOM      8  C   UNL     1     -20.353  68.943  -1.120  1.00  0.00     0.072 C 
BRANCH   8   9
ATOM      9  C   UNL     1     -19.010  68.194  -1.284  1.00  0.00     0.227 C 
BRANCH   9  10
ATOM     10  N   UNL     1     -17.869  68.990  -0.805  1.00  0.00    -0.350 N 
ATOM     11  H   UNL     1     -17.980  70.001  -1.047  1.00  0.00     0.345 HD
ATOM     12  H   UNL     1     -17.796  68.902   0.235  1.00  0.00     0.345 HD
ATOM     13  H   UNL     1     -16.983  68.630  -1.227  1.00  0.00     0.345 HD
ENDBRANCH   9  10
BRANCH   9  14
ATOM     14  C   UNL     1     -19.050  66.834  -0.633  1.00  0.00     0.099 C 
ATOM     15  O   UNL     1     -19.108  65.785  -1.330  1.00  0.00    -0.544 OA
ATOM     16  O   UNL     1     -18.970  66.731   0.750  1.00  0.00    -0.544 OA
ENDBRANCH   9  14
ENDBRANCH   8   9
ENDBRANCH   1   8
TORSDOF 7
ENDMDL
MODEL 6
REMARK VINA RESULT:    -4.536      2.684      4.243
REMARK INTER + INTRA:          -6.330
REMARK INTER:                  -6.244
REMARK INTRA:                  -0.086
REMARK UNBOUND:                -0.204
REMARK SMILES [NH3+]CCCC[C@@H]([NH3+])C(=O)[O-]
REMARK SMILES IDX 4 1 3 2 2 3 1 4 5 8 6 9 7 10 8 14 9 15 10 16
REMARK H PARENT 1 5 1 6 1 7 7 11 7 12 7 13
REMARK Flexibility Score: inf
ROOT
ATOM      1  C   UNL     1     -19.065  67.252   0.192  1.00  0.00     0.012 C 
ENDROOT
BRANCH   1   2
ATOM      2  C   UNL     1     -19.365  67.368  -1.309  1.00  0.00     0.061 C 
BRANCH   2   3
ATOM      3  C   UNL     1     -20.090  66.131  -1.864  1.00  0.00     0.258 C 
BRANCH   3   4
ATOM      4  N   UNL     1     -19.282  64.915  -1.742  1.00  0.00    -0.358 N 
ATOM      5  H   UNL     1     -19.265  64.397  -2.649  1.00  0.00     0.344 HD
ATOM      6  H   UNL     1     -18.302  65.183  -1.499  1.00  0.00     0.344 HD
ATOM      7  H   UNL     1     -19.660  64.301  -0.985  1.00  0.00     0.344 HD
ENDBRANCH   3   4
ENDBRANCH   2   3
ENDBRANCH   1   2
BRANCH   1   8
ATOM      8  C   UNL     1     -20.293  67.658   1.027  1.00  0.00     0.072 C 
BRANCH   8   9
ATOM      9  C   UNL     1     -21.341  68.490   0.252  1.00  0.00     0.227 C 
BRANCH   9  10
ATOM     10  N   UNL     1     -22.717  68.058   0.542  1.00  0.00    -0.350 N 
ATOM     11  H   UNL     1     -22.836  67.814   1.552  1.00  0.00     0.345 HD
ATOM     12  H   UNL     1     -23.382  68.830   0.304  1.00  0.00     0.345 HD
ATOM     13  H   UNL     1     -22.959  67.226  -0.044  1.00  0.00     0.345 HD
ENDBRANCH   9  10
BRANCH   9  14
ATOM     14  C   UNL     1     -21.162  69.969   0.490  1.00  0.00     0.099 C 
ATOM     15  O   UNL     1     -21.689  70.533   1.486  1.00  0.00    -0.544 OA
ATOM     16  O   UNL     1     -20.363  70.711  -0.371  1.00  0.00    -0.544 OA
ENDBRANCH   9  14
ENDBRANCH   8   9
ENDBRANCH   1   8
TORSDOF 7
ENDMDL
MODEL 7
REMARK VINA RESULT:    -4.159      2.264      2.540
REMARK INTER + INTRA:          -5.822
REMARK INTER:                  -5.599
REMARK INTRA:                  -0.223
REMARK UNBOUND:                -0.204
REMARK SMILES [NH3+]CCCC[C@@H]([NH3+])C(=O)[O-]
REMARK SMILES IDX 4 1 3 2 2 3 1 4 5 8 6 9 7 10 8 14 9 15 10 16
REMARK H PARENT 1 5 1 6 1 7 7 11 7 12 7 13
REMARK Flexibility Score: inf
ROOT
ATOM      1  C   UNL     1     -21.795  67.798   0.612  1.00  0.00     0.012 C 
ENDROOT
BRANCH   1   2
ATOM      2  C   UNL     1     -22.298  69.249   0.616  1.00  0.00     0.061 C 
BRANCH   2   3
ATOM      3  C   UNL     1     -21.152  70.272   0.690  1.00  0.00     0.258 C 
BRANCH   3   4
ATOM      4  N   UNL     1     -21.356  71.254   1.757  1.00  0.00    -0.358 N 
ATOM      5  H   UNL     1     -22.278  71.733   1.639  1.00  0.00     0.344 HD
ATOM      6  H   UNL     1     -21.358  70.760   2.677  1.00  0.00     0.344 HD
ATOM      7  H   UNL     1     -20.584  71.960   1.756  1.00  0.00     0.344 HD
ENDBRANCH   3   4
ENDBRANCH   2   3
ENDBRANCH   1   2
BRANCH   1   8
ATOM      8  C   UNL     1     -20.284  67.743   0.900  1.00  0.00     0.072 C 
BRANCH   8   9
ATOM      9  C   UNL     1     -19.430  67.226  -0.281  1.00  0.00     0.227 C 
BRANCH   9  10
ATOM     10  N   UNL     1     -20.248  66.916  -1.463  1.00  0.00    -0.350 N 
ATOM     11  H   UNL     1     -20.936  66.154  -1.262  1.00  0.00     0.345 HD
ATOM     12  H   UNL     1     -20.774  67.771  -1.756  1.00  0.00     0.345 HD
ATOM     13  H   UNL     1     -19.632  66.623  -2.255  1.00  0.00     0.345 HD
ENDBRANCH   9  10
BRANCH   9  14
ATOM     14  C   UNL     1     -18.310  68.180  -0.616  1.00  0.00     0.099 C 
ATOM     15  O   UNL     1     -17.181  68.070  -0.067  1.00  0.00    -0.544 OA
ATOM     16  O   UNL     1     -18.508  69.160  -1.580  1.00  0.00    -0.544 OA
ENDBRANCH   9  14
ENDBRANCH   8   9
ENDBRANCH   1   8
TORSDOF 7
ENDMDL
MODEL 8
REMARK VINA RESULT:    -4.104      2.471      4.008
REMARK INTER + INTRA:          -5.747
REMARK INTER:                  -5.666
REMARK INTRA:                  -0.081
REMARK UNBOUND:                -0.204
REMARK SMILES [NH3+]CCCC[C@@H]([NH3+])C(=O)[O-]
REMARK SMILES IDX 4 1 3 2 2 3 1 4 5 8 6 9 7 10 8 14 9 15 10 16
REMARK H PARENT 1 5 1 6 1 7 7 11 7 12 7 13
REMARK Flexibility Score: inf
ROOT
ATOM      1  C   UNL     1     -19.397  66.693  -1.243  1.00  0.00     0.012 C 
ENDROOT
BRANCH   1   2
ATOM      2  C   UNL     1     -18.765  66.961   0.130  1.00  0.00     0.061 C 
BRANCH   2   3
ATOM      3  C   UNL     1     -17.480  67.801   0.036  1.00  0.00     0.258 C 
BRANCH   3   4
ATOM      4  N   UNL     1     -17.670  69.014  -0.763  1.00  0.00    -0.358 N 
ATOM      5  H   UNL     1     -17.472  69.864  -0.187  1.00  0.00     0.344 HD
ATOM      6  H   UNL     1     -17.003  68.999  -1.566  1.00  0.00     0.344 HD
ATOM      7  H   UNL     1     -18.646  69.055  -1.137  1.00  0.00     0.344 HD
ENDBRANCH   3   4
ENDBRANCH   2   3
ENDBRANCH   1   2
BRANCH   1   8
ATOM      8  C   UNL     1     -20.594  67.630  -1.486  1.00  0.00     0.072 C 
BRANCH   8   9
ATOM      9  C   UNL     1     -21.084  68.375  -0.222  1.00  0.00     0.227 C 
BRANCH   9  10
ATOM     10  N   UNL     1     -21.039  69.835  -0.387  1.00  0.00    -0.350 N 
ATOM     11  H   UNL     1     -20.616  70.104  -1.305  1.00  0.00     0.345 HD
ATOM     12  H   UNL     1     -22.011  70.221  -0.341  1.00  0.00     0.345 HD
ATOM     13  H   UNL     1     -20.481  70.263   0.387  1.00  0.00     0.345 HD
ENDBRANCH   9  10
BRANCH   9  14
ATOM     14  C   UNL     1     -22.454  67.906   0.201  1.00  0.00     0.099 C 
ATOM     15  O   UNL     1     -23.274  67.456  -0.643  1.00  0.00    -0.544 OA
ATOM     16  O   UNL     1     -22.800  67.920   1.547  1.00  0.00    -0.544 OA
ENDBRANCH   9  14
ENDBRANCH   8   9
ENDBRANCH   1   8
TORSDOF 7
ENDMDL
MODEL 9
REMARK VINA RESULT:    -3.866      1.922      2.168
REMARK INTER + INTRA:          -5.426
REMARK INTER:                  -5.284
REMARK INTRA:                  -0.142
REMARK UNBOUND:                -0.204
REMARK SMILES [NH3+]CCCC[C@@H]([NH3+])C(=O)[O-]
REMARK SMILES IDX 4 1 3 2 2 3 1 4 5 8 6 9 7 10 8 14 9 15 10 16
REMARK H PARENT 1 5 1 6 1 7 7 11 7 12 7 13
REMARK Flexibility Score: inf
ROOT
ATOM      1  C   UNL     1     -19.257  69.735  -0.636  1.00  0.00     0.012 C 
ENDROOT
BRANCH   1   2
ATOM      2  C   UNL     1     -20.489  70.605  -0.344  1.00  0.00     0.061 C 
BRANCH   2   3
ATOM      3  C   UNL     1     -21.257  70.142   0.905  1.00  0.00     0.258 C 
BRANCH   3   4
ATOM      4  N   UNL     1     -21.486  71.238   1.850  1.00  0.00    -0.358 N 
ATOM      5  H   UNL     1     -20.853  71.143   2.677  1.00  0.00     0.344 HD
ATOM      6  H   UNL     1     -21.273  72.144   1.376  1.00  0.00     0.344 HD
ATOM      7  H   UNL     1     -22.484  71.247   2.162  1.00  0.00     0.344 HD
ENDBRANCH   3   4
ENDBRANCH   2   3
ENDBRANCH   1   2
BRANCH   1   8
ATOM      8  C   UNL     1     -19.642  68.513  -1.490  1.00  0.00     0.072 C 
BRANCH   8   9
ATOM      9  C   UNL     1     -19.055  67.175  -0.984  1.00  0.00     0.227 C 
BRANCH   9  10
ATOM     10  N   UNL     1     -19.159  67.040   0.476  1.00  0.00    -0.350 N 
ATOM     11  H   UNL     1     -18.795  66.115   0.802  1.00  0.00     0.345 HD
ATOM     12  H   UNL     1     -18.605  67.798   0.936  1.00  0.00     0.345 HD
ATOM     13  H   UNL     1     -20.158  67.139   0.772  1.00  0.00     0.345 HD
ENDBRANCH   9  10
BRANCH   9  14
ATOM     14  C   UNL     1     -19.668  65.995  -1.697  1.00  0.00     0.099 C 
ATOM     15  O   UNL     1     -19.079  64.882  -1.731  1.00  0.00    -0.544 OA
ATOM     16  O   UNL     1     -20.923  66.121  -2.278  1.00  0.00    -0.544 OA
ENDBRANCH   9  14
ENDBRANCH   8   9
ENDBRANCH   1   8
TORSDOF 7
ENDMDL
