MODEL 1
REMARK VINA RESULT:    -3.919      0.000      0.000
REMARK INTER + INTRA:         -13.222
REMARK INTER:                  -8.959
REMARK INTRA:                  -4.263
REMARK UNBOUND:                -4.263
REMARK SMILES CCCCCCCCCCCCCCCCCCCCCCCC(=O)[O-]
REMARK SMILES IDX 13 1 14 2 15 3 16 4 17 5 18 6 19 7 20 8 21 9 22 10 23 11
REMARK SMILES IDX 24 12 25 13 26 14 12 15 11 16 10 17 9 18 8 19 7 20 6 21 5 22
REMARK SMILES IDX 4 23 3 24 2 25 1 26
REMARK H PARENT
REMARK Flexibility Score: inf
ROOT
ATOM      1  C   UNL     1      97.497  82.888  80.968  1.00  0.00     0.000 C 
ENDROOT
BRANCH   1   2
ATOM      2  C   UNL     1      98.579  82.271  81.874  1.00  0.00     0.000 C 
BRANCH   2   3
ATOM      3  C   UNL     1      99.901  83.053  81.831  1.00  0.00     0.000 C 
BRANCH   3   4
ATOM      4  C   UNL     1     100.473  83.325  83.231  1.00  0.00     0.000 C 
BRANCH   4   5
ATOM      5  C   UNL     1     100.889  84.794  83.435  1.00  0.00     0.000 C 
BRANCH   5   6
ATOM      6  C   UNL     1     100.562  85.739  82.263  1.00  0.00     0.000 C 
BRANCH   6   7
ATOM      7  C   UNL     1      99.334  86.626  82.530  1.00  0.00     0.000 C 
BRANCH   7   8
ATOM      8  C   UNL     1      98.911  86.619  84.008  1.00  0.00     0.000 C 
BRANCH   8   9
ATOM      9  C   UNL     1      97.444  86.200  84.201  1.00  0.00     0.000 C 
BRANCH   9  10
ATOM     10  C   UNL     1      97.269  84.677  84.346  1.00  0.00     0.006 C 
BRANCH  10  11
ATOM     11  C   UNL     1      96.884  84.223  85.765  1.00  0.00     0.053 C 
BRANCH  11  12
ATOM     12  C   UNL     1      97.976  84.468  86.761  1.00  0.00     0.041 C 
ATOM     13  O   UNL     1      99.153  84.087  86.520  1.00  0.00    -0.550 OA
ATOM     14  O   UNL     1      97.689  85.081  87.974  1.00  0.00    -0.550 OA
ENDBRANCH  11  12
ENDBRANCH  10  11
ENDBRANCH   9  10
ENDBRANCH   8   9
ENDBRANCH   7   8
ENDBRANCH   6   7
ENDBRANCH   5   6
ENDBRANCH   4   5
ENDBRANCH   3   4
ENDBRANCH   2   3
ENDBRANCH   1   2
BRANCH   1  15
ATOM     15  C   UNL     1      98.028  84.059  80.122  1.00  0.00     0.000 C 
BRANCH  15  16
ATOM     16  C   UNL     1      97.079  85.269  80.012  1.00  0.00     0.000 C 
BRANCH  16  17
ATOM     17  C   UNL     1      95.898  85.234  81.005  1.00  0.00     0.000 C 
BRANCH  17  18
ATOM     18  C   UNL     1      94.555  85.571  80.331  1.00  0.00    -0.000 C 
BRANCH  18  19
ATOM     19  C   UNL     1      94.178  84.568  79.225  1.00  0.00    -0.000 C 
BRANCH  19  20
ATOM     20  C   UNL     1      92.827  83.863  79.445  1.00  0.00    -0.000 C 
BRANCH  20  21
ATOM     21  C   UNL     1      92.787  83.058  80.756  1.00  0.00    -0.000 C 
BRANCH  21  22
ATOM     22  C   UNL     1      91.577  83.415  81.640  1.00  0.00    -0.000 C 
BRANCH  22  23
ATOM     23  C   UNL     1      91.177  84.904  81.629  1.00  0.00    -0.000 C 
BRANCH  23  24
ATOM     24  C   UNL     1      91.232  85.549  83.025  1.00  0.00    -0.000 C 
BRANCH  24  25
ATOM     25  C   UNL     1      92.579  86.234  83.305  1.00  0.00    -0.003 C 
ATOM     26  C   UNL     1      93.553  85.340  84.074  1.00  0.00     0.004 C 
ENDBRANCH  24  25
ENDBRANCH  23  24
ENDBRANCH  22  23
ENDBRANCH  21  22
ENDBRANCH  20  21
ENDBRANCH  19  20
ENDBRANCH  18  19
ENDBRANCH  17  18
ENDBRANCH  16  17
ENDBRANCH  15  16
ENDBRANCH   1  15
TORSDOF 22
ENDMDL
MODEL 2
REMARK VINA RESULT:    -3.830      4.108      7.823
REMARK INTER + INTRA:         -13.019
REMARK INTER:                  -9.704
REMARK INTRA:                  -3.314
REMARK UNBOUND:                -4.263
REMARK SMILES CCCCCCCCCCCCCCCCCCCCCCCC(=O)[O-]
REMARK SMILES IDX 13 1 14 2 15 3 16 4 17 5 18 6 19 7 20 8 21 9 22 10 23 11
REMARK SMILES IDX 24 12 25 13 26 14 12 15 11 16 10 17 9 18 8 19 7 20 6 21 5 22
REMARK SMILES IDX 4 23 3 24 2 25 1 26
REMARK H PARENT
REMARK Flexibility Score: inf
ROOT
ATOM      1  C   UNL     1      97.277  83.088  80.697  1.00  0.00     0.000 C 
ENDROOT
BRANCH   1   2
ATOM      2  C   UNL     1      97.861  84.390  80.119  1.00  0.00     0.000 C 
BRANCH   2   3
ATOM      3  C   UNL     1      96.797  85.485  79.940  1.00  0.00     0.000 C 
BRANCH   3   4
ATOM      4  C   UNL     1      96.061  85.813  81.249  1.00  0.00     0.000 C 
BRANCH   4   5
ATOM      5  C   UNL     1      94.533  85.656  81.134  1.00  0.00     0.000 C 
BRANCH   5   6
ATOM      6  C   UNL     1      93.958  84.360  81.736  1.00  0.00     0.000 C 
BRANCH   6   7
ATOM      7  C   UNL     1      93.488  83.357  80.667  1.00  0.00     0.000 C 
BRANCH   7   8
ATOM      8  C   UNL     1      93.183  84.031  79.319  1.00  0.00     0.000 C 
BRANCH   8   9
ATOM      9  C   UNL     1      91.696  83.946  78.938  1.00  0.00     0.000 C 
BRANCH   9  10
ATOM     10  C   UNL     1      90.760  84.425  80.063  1.00  0.00     0.006 C 
BRANCH  10  11
ATOM     11  C   UNL     1      89.806  83.338  80.589  1.00  0.00     0.053 C 
BRANCH  11  12
ATOM     12  C   UNL     1      88.615  83.142  79.701  1.00  0.00     0.041 C 
ATOM     13  O   UNL     1      88.169  84.101  79.017  1.00  0.00    -0.550 OA
ATOM     14  O   UNL     1      87.973  81.912  79.658  1.00  0.00    -0.550 OA
ENDBRANCH  11  12
ENDBRANCH  10  11
ENDBRANCH   9  10
ENDBRANCH   8   9
ENDBRANCH   7   8
ENDBRANCH   6   7
ENDBRANCH   5   6
ENDBRANCH   4   5
ENDBRANCH   3   4
ENDBRANCH   2   3
ENDBRANCH   1   2
BRANCH   1  15
ATOM     15  C   UNL     1      98.244  82.380  81.662  1.00  0.00     0.000 C 
BRANCH  15  16
ATOM     16  C   UNL     1      99.710  82.852  81.582  1.00  0.00     0.000 C 
BRANCH  16  17
ATOM     17  C   UNL     1     100.312  83.266  82.943  1.00  0.00     0.000 C 
BRANCH  17  18
ATOM     18  C   UNL     1     101.384  84.361  82.800  1.00  0.00    -0.000 C 
BRANCH  18  19
ATOM     19  C   UNL     1     100.927  85.717  83.372  1.00  0.00    -0.000 C 
BRANCH  19  20
ATOM     20  C   UNL     1      99.460  86.070  83.063  1.00  0.00    -0.000 C 
BRANCH  20  21
ATOM     21  C   UNL     1      99.314  87.442  82.381  1.00  0.00    -0.000 C 
BRANCH  21  22
ATOM     22  C   UNL     1     100.003  87.501  81.004  1.00  0.00    -0.000 C 
BRANCH  22  23
ATOM     23  C   UNL     1      99.225  88.270  79.918  1.00  0.00    -0.000 C 
BRANCH  23  24
ATOM     24  C   UNL     1      98.142  89.196  80.498  1.00  0.00    -0.000 C 
BRANCH  24  25
ATOM     25  C   UNL     1      97.062  89.559  79.466  1.00  0.00    -0.003 C 
ATOM     26  C   UNL     1      97.421  89.112  78.048  1.00  0.00     0.004 C 
ENDBRANCH  24  25
ENDBRANCH  23  24
ENDBRANCH  22  23
ENDBRANCH  21  22
ENDBRANCH  20  21
ENDBRANCH  19  20
ENDBRANCH  18  19
ENDBRANCH  17  18
ENDBRANCH  16  17
ENDBRANCH  15  16
ENDBRANCH   1  15
TORSDOF 22
ENDMDL
MODEL 3
REMARK VINA RESULT:    -3.820      3.152      4.550
REMARK INTER + INTRA:         -12.996
REMARK INTER:                 -10.018
REMARK INTRA:                  -2.978
REMARK UNBOUND:                -4.263
REMARK SMILES CCCCCCCCCCCCCCCCCCCCCCCC(=O)[O-]
REMARK SMILES IDX 13 1 14 2 15 3 16 4 17 5 18 6 19 7 20 8 21 9 22 10 23 11
REMARK SMILES IDX 24 12 25 13 26 14 12 15 11 16 10 17 9 18 8 19 7 20 6 21 5 22
REMARK SMILES IDX 4 23 3 24 2 25 1 26
REMARK H PARENT
REMARK Flexibility Score: inf
ROOT
ATOM      1  C   UNL     1      97.006  84.791  81.904  1.00  0.00     0.000 C 
ENDROOT
BRANCH   1   2
ATOM      2  C   UNL     1      96.698  83.285  81.814  1.00  0.00     0.000 C 
BRANCH   2   3
ATOM      3  C   UNL     1      97.828  82.491  81.139  1.00  0.00     0.000 C 
BRANCH   3   4
ATOM      4  C   UNL     1      99.052  83.363  80.818  1.00  0.00     0.000 C 
BRANCH   4   5
ATOM      5  C   UNL     1     100.297  82.977  81.640  1.00  0.00     0.000 C 
BRANCH   5   6
ATOM      6  C   UNL     1     100.280  83.430  83.111  1.00  0.00     0.000 C 
BRANCH   6   7
ATOM      7  C   UNL     1     101.028  84.755  83.342  1.00  0.00     0.000 C 
BRANCH   7   8
ATOM      8  C   UNL     1     102.378  84.806  82.607  1.00  0.00     0.000 C 
BRANCH   8   9
ATOM      9  C   UNL     1     103.081  86.165  82.755  1.00  0.00     0.000 C 
BRANCH   9  10
ATOM     10  C   UNL     1     102.124  87.358  82.578  1.00  0.00     0.006 C 
BRANCH  10  11
ATOM     11  C   UNL     1     102.090  87.927  81.148  1.00  0.00     0.053 C 
BRANCH  11  12
ATOM     12  C   UNL     1     102.748  89.270  81.050  1.00  0.00     0.041 C 
ATOM     13  O   UNL     1     103.194  89.678  79.946  1.00  0.00    -0.550 OA
ATOM     14  O   UNL     1     102.903  90.055  82.186  1.00  0.00    -0.550 OA
ENDBRANCH  11  12
ENDBRANCH  10  11
ENDBRANCH   9  10
ENDBRANCH   8   9
ENDBRANCH   7   8
ENDBRANCH   6   7
ENDBRANCH   5   6
ENDBRANCH   4   5
ENDBRANCH   3   4
ENDBRANCH   2   3
ENDBRANCH   1   2
BRANCH   1  15
ATOM     15  C   UNL     1      95.772  85.628  82.283  1.00  0.00     0.000 C 
BRANCH  15  16
ATOM     16  C   UNL     1      95.083  86.349  81.107  1.00  0.00     0.000 C 
BRANCH  16  17
ATOM     17  C   UNL     1      95.876  86.291  79.784  1.00  0.00     0.000 C 
BRANCH  17  18
ATOM     18  C   UNL     1      95.225  85.352  78.751  1.00  0.00    -0.000 C 
BRANCH  18  19
ATOM     19  C   UNL     1      93.811  84.902  79.167  1.00  0.00    -0.000 C 
BRANCH  19  20
ATOM     20  C   UNL     1      93.640  83.375  79.272  1.00  0.00    -0.000 C 
BRANCH  20  21
ATOM     21  C   UNL     1      93.344  82.911  80.709  1.00  0.00    -0.000 C 
BRANCH  21  22
ATOM     22  C   UNL     1      92.287  83.783  81.413  1.00  0.00    -0.000 C 
BRANCH  22  23
ATOM     23  C   UNL     1      90.900  83.130  81.568  1.00  0.00    -0.000 C 
BRANCH  23  24
ATOM     24  C   UNL     1      89.794  83.881  80.805  1.00  0.00    -0.000 C 
BRANCH  24  25
ATOM     25  C   UNL     1      90.260  85.253  80.292  1.00  0.00    -0.003 C 
ATOM     26  C   UNL     1      90.191  85.373  78.769  1.00  0.00     0.004 C 
ENDBRANCH  24  25
ENDBRANCH  23  24
ENDBRANCH  22  23
ENDBRANCH  21  22
ENDBRANCH  20  21
ENDBRANCH  19  20
ENDBRANCH  18  19
ENDBRANCH  17  18
ENDBRANCH  16  17
ENDBRANCH  15  16
ENDBRANCH   1  15
TORSDOF 22
ENDMDL
MODEL 4
REMARK VINA RESULT:    -3.802      2.883      6.034
REMARK INTER + INTRA:         -12.954
REMARK INTER:                  -8.969
REMARK INTRA:                  -3.985
REMARK UNBOUND:                -4.263
REMARK SMILES CCCCCCCCCCCCCCCCCCCCCCCC(=O)[O-]
REMARK SMILES IDX 13 1 14 2 15 3 16 4 17 5 18 6 19 7 20 8 21 9 22 10 23 11
REMARK SMILES IDX 24 12 25 13 26 14 12 15 11 16 10 17 9 18 8 19 7 20 6 21 5 22
REMARK SMILES IDX 4 23 3 24 2 25 1 26
REMARK H PARENT
REMARK Flexibility Score: inf
ROOT
ATOM      1  C   UNL     1     100.520  86.526  83.623  1.00  0.00     0.000 C 
ENDROOT
BRANCH   1   2
ATOM      2  C   UNL     1     100.642  85.610  82.392  1.00  0.00     0.000 C 
BRANCH   2   3
ATOM      3  C   UNL     1     101.375  84.296  82.704  1.00  0.00     0.000 C 
BRANCH   3   4
ATOM      4  C   UNL     1     100.543  83.055  82.341  1.00  0.00     0.000 C 
BRANCH   4   5
ATOM      5  C   UNL     1      99.025  83.310  82.401  1.00  0.00     0.000 C 
BRANCH   5   6
ATOM      6  C   UNL     1      98.156  82.286  81.650  1.00  0.00     0.000 C 
BRANCH   6   7
ATOM      7  C   UNL     1      97.308  82.920  80.534  1.00  0.00     0.000 C 
BRANCH   7   8
ATOM      8  C   UNL     1      97.871  84.271  80.060  1.00  0.00     0.000 C 
BRANCH   8   9
ATOM      9  C   UNL     1      96.801  85.374  80.013  1.00  0.00     0.000 C 
BRANCH   9  10
ATOM     10  C   UNL     1      95.550  84.963  79.214  1.00  0.00     0.006 C 
BRANCH  10  11
ATOM     11  C   UNL     1      94.277  84.829  80.068  1.00  0.00     0.053 C 
BRANCH  11  12
ATOM     12  C   UNL     1      93.501  83.587  79.751  1.00  0.00     0.041 C 
ATOM     13  O   UNL     1      92.435  83.658  79.085  1.00  0.00    -0.550 OA
ATOM     14  O   UNL     1      93.935  82.355  80.224  1.00  0.00    -0.550 OA
ENDBRANCH  11  12
ENDBRANCH  10  11
ENDBRANCH   9  10
ENDBRANCH   8   9
ENDBRANCH   7   8
ENDBRANCH   6   7
ENDBRANCH   5   6
ENDBRANCH   4   5
ENDBRANCH   3   4
ENDBRANCH   2   3
ENDBRANCH   1   2
BRANCH   1  15
ATOM     15  C   UNL     1     101.686  86.352  84.611  1.00  0.00     0.000 C 
BRANCH  15  16
ATOM     16  C   UNL     1     101.273  86.068  86.069  1.00  0.00     0.000 C 
BRANCH  16  17
ATOM     17  C   UNL     1     101.028  84.574  86.372  1.00  0.00     0.000 C 
BRANCH  17  18
ATOM     18  C   UNL     1      99.624  84.315  86.947  1.00  0.00    -0.000 C 
BRANCH  18  19
ATOM     19  C   UNL     1      98.529  84.318  85.863  1.00  0.00    -0.000 C 
BRANCH  19  20
ATOM     20  C   UNL     1      97.312  85.201  86.197  1.00  0.00    -0.000 C 
BRANCH  20  21
ATOM     21  C   UNL     1      97.251  86.474  85.333  1.00  0.00    -0.000 C 
BRANCH  21  22
ATOM     22  C   UNL     1      97.019  86.172  83.840  1.00  0.00    -0.000 C 
BRANCH  22  23
ATOM     23  C   UNL     1      95.815  85.259  83.538  1.00  0.00    -0.000 C 
BRANCH  23  24
ATOM     24  C   UNL     1      94.463  85.976  83.698  1.00  0.00    -0.000 C 
BRANCH  24  25
ATOM     25  C   UNL     1      93.354  85.039  84.202  1.00  0.00    -0.003 C 
ATOM     26  C   UNL     1      93.282  84.969  85.728  1.00  0.00     0.004 C 
ENDBRANCH  24  25
ENDBRANCH  23  24
ENDBRANCH  22  23
ENDBRANCH  21  22
ENDBRANCH  20  21
ENDBRANCH  19  20
ENDBRANCH  18  19
ENDBRANCH  17  18
ENDBRANCH  16  17
ENDBRANCH  15  16
ENDBRANCH   1  15
TORSDOF 22
ENDMDL
MODEL 5
REMARK VINA RESULT:    -3.798      1.766      5.083
REMARK INTER + INTRA:         -12.945
REMARK INTER:                  -9.791
REMARK INTRA:                  -3.154
REMARK UNBOUND:                -4.263
REMARK SMILES CCCCCCCCCCCCCCCCCCCCCCCC(=O)[O-]
REMARK SMILES IDX 13 1 14 2 15 3 16 4 17 5 18 6 19 7 20 8 21 9 22 10 23 11
REMARK SMILES IDX 24 12 25 13 26 14 12 15 11 16 10 17 9 18 8 19 7 20 6 21 5 22
REMARK SMILES IDX 4 23 3 24 2 25 1 26
REMARK H PARENT
REMARK Flexibility Score: inf
ROOT
ATOM      1  C   UNL     1      96.700  85.525  84.764  1.00  0.00     0.000 C 
ENDROOT
BRANCH   1   2
ATOM      2  C   UNL     1      96.128  85.197  83.372  1.00  0.00     0.000 C 
BRANCH   2   3
ATOM      3  C   UNL     1      95.153  86.273  82.867  1.00  0.00     0.000 C 
BRANCH   3   4
ATOM      4  C   UNL     1      94.699  86.025  81.420  1.00  0.00     0.000 C 
BRANCH   4   5
ATOM      5  C   UNL     1      94.982  84.589  80.939  1.00  0.00     0.000 C 
BRANCH   5   6
ATOM      6  C   UNL     1      95.943  84.474  79.741  1.00  0.00     0.000 C 
BRANCH   6   7
ATOM      7  C   UNL     1      97.338  83.961  80.137  1.00  0.00     0.000 C 
BRANCH   7   8
ATOM      8  C   UNL     1      97.283  82.615  80.878  1.00  0.00     0.000 C 
BRANCH   8   9
ATOM      9  C   UNL     1      98.470  82.419  81.836  1.00  0.00     0.000 C 
BRANCH   9  10
ATOM     10  C   UNL     1      99.479  83.581  81.788  1.00  0.00     0.006 C 
BRANCH  10  11
ATOM     11  C   UNL     1     100.732  83.358  82.652  1.00  0.00     0.053 C 
BRANCH  11  12
ATOM     12  C   UNL     1     100.537  83.800  84.070  1.00  0.00     0.041 C 
ATOM     13  O   UNL     1     100.027  84.925  84.320  1.00  0.00    -0.550 OA
ATOM     14  O   UNL     1     100.953  82.988  85.117  1.00  0.00    -0.550 OA
ENDBRANCH  11  12
ENDBRANCH  10  11
ENDBRANCH   9  10
ENDBRANCH   8   9
ENDBRANCH   7   8
ENDBRANCH   6   7
ENDBRANCH   5   6
ENDBRANCH   4   5
ENDBRANCH   3   4
ENDBRANCH   2   3
ENDBRANCH   1   2
BRANCH   1  15
ATOM     15  C   UNL     1      96.730  84.302  85.697  1.00  0.00     0.000 C 
BRANCH  15  16
ATOM     16  C   UNL     1      96.430  84.601  87.179  1.00  0.00     0.000 C 
BRANCH  16  17
ATOM     17  C   UNL     1      95.013  84.187  87.629  1.00  0.00     0.000 C 
BRANCH  17  18
ATOM     18  C   UNL     1      93.923  85.113  87.058  1.00  0.00    -0.000 C 
BRANCH  18  19
ATOM     19  C   UNL     1      92.844  84.345  86.272  1.00  0.00    -0.000 C 
BRANCH  19  20
ATOM     20  C   UNL     1      92.548  84.924  84.876  1.00  0.00    -0.000 C 
BRANCH  20  21
ATOM     21  C   UNL     1      91.466  84.128  84.124  1.00  0.00    -0.000 C 
BRANCH  21  22
ATOM     22  C   UNL     1      91.710  84.077  82.604  1.00  0.00    -0.000 C 
BRANCH  22  23
ATOM     23  C   UNL     1      90.922  82.987  81.852  1.00  0.00    -0.000 C 
BRANCH  23  24
ATOM     24  C   UNL     1      90.241  83.510  80.575  1.00  0.00    -0.000 C 
BRANCH  24  25
ATOM     25  C   UNL     1      90.943  84.750  79.999  1.00  0.00    -0.003 C 
ATOM     26  C   UNL     1      91.832  84.426  78.797  1.00  0.00     0.004 C 
ENDBRANCH  24  25
ENDBRANCH  23  24
ENDBRANCH  22  23
ENDBRANCH  21  22
ENDBRANCH  20  21
ENDBRANCH  19  20
ENDBRANCH  18  19
ENDBRANCH  17  18
ENDBRANCH  16  17
ENDBRANCH  15  16
ENDBRANCH   1  15
TORSDOF 22
ENDMDL
MODEL 6
REMARK VINA RESULT:    -3.780      1.634      3.015
REMARK INTER + INTRA:         -12.904
REMARK INTER:                  -8.637
REMARK INTRA:                  -4.267
REMARK UNBOUND:                -4.263
REMARK SMILES CCCCCCCCCCCCCCCCCCCCCCCC(=O)[O-]
REMARK SMILES IDX 13 1 14 2 15 3 16 4 17 5 18 6 19 7 20 8 21 9 22 10 23 11
REMARK SMILES IDX 24 12 25 13 26 14 12 15 11 16 10 17 9 18 8 19 7 20 6 21 5 22
REMARK SMILES IDX 4 23 3 24 2 25 1 26
REMARK H PARENT
REMARK Flexibility Score: inf
ROOT
ATOM      1  C   UNL     1      98.092  83.375  81.096  1.00  0.00     0.000 C 
ENDROOT
BRANCH   1   2
ATOM      2  C   UNL     1      98.141  84.585  80.144  1.00  0.00     0.000 C 
BRANCH   2   3
ATOM      3  C   UNL     1      98.141  85.926  80.894  1.00  0.00     0.000 C 
BRANCH   3   4
ATOM      4  C   UNL     1      97.023  86.868  80.419  1.00  0.00     0.000 C 
BRANCH   4   5
ATOM      5  C   UNL     1      95.783  86.837  81.332  1.00  0.00     0.000 C 
BRANCH   5   6
ATOM      6  C   UNL     1      95.848  87.761  82.562  1.00  0.00     0.000 C 
BRANCH   6   7
ATOM      7  C   UNL     1      95.852  86.991  83.894  1.00  0.00     0.000 C 
BRANCH   7   8
ATOM      8  C   UNL     1      95.658  85.477  83.701  1.00  0.00     0.000 C 
BRANCH   8   9
ATOM      9  C   UNL     1      96.850  84.658  84.222  1.00  0.00     0.000 C 
BRANCH   9  10
ATOM     10  C   UNL     1      98.089  85.523  84.518  1.00  0.00     0.006 C 
BRANCH  10  11
ATOM     11  C   UNL     1      99.428  84.808  84.260  1.00  0.00     0.053 C 
BRANCH  11  12
ATOM     12  C   UNL     1     100.265  84.694  85.497  1.00  0.00     0.041 C 
ATOM     13  O   UNL     1     101.130  85.570  85.762  1.00  0.00    -0.550 OA
ATOM     14  O   UNL     1     100.116  83.600  86.340  1.00  0.00    -0.550 OA
ENDBRANCH  11  12
ENDBRANCH  10  11
ENDBRANCH   9  10
ENDBRANCH   8   9
ENDBRANCH   7   8
ENDBRANCH   6   7
ENDBRANCH   5   6
ENDBRANCH   4   5
ENDBRANCH   3   4
ENDBRANCH   2   3
ENDBRANCH   1   2
BRANCH   1  15
ATOM     15  C   UNL     1      96.780  82.581  80.979  1.00  0.00     0.000 C 
BRANCH  15  16
ATOM     16  C   UNL     1      95.555  83.403  80.530  1.00  0.00     0.000 C 
BRANCH  16  17
ATOM     17  C   UNL     1      94.262  82.572  80.379  1.00  0.00     0.000 C 
BRANCH  17  18
ATOM     18  C   UNL     1      93.383  83.064  79.215  1.00  0.00    -0.000 C 
BRANCH  18  19
ATOM     19  C   UNL     1      93.076  84.571  79.299  1.00  0.00    -0.000 C 
BRANCH  19  20
ATOM     20  C   UNL     1      91.610  84.935  78.996  1.00  0.00    -0.000 C 
BRANCH  20  21
ATOM     21  C   UNL     1      90.632  83.806  79.366  1.00  0.00    -0.000 C 
BRANCH  21  22
ATOM     22  C   UNL     1      90.085  83.936  80.800  1.00  0.00    -0.000 C 
BRANCH  22  23
ATOM     23  C   UNL     1      90.831  83.103  81.862  1.00  0.00    -0.000 C 
BRANCH  23  24
ATOM     24  C   UNL     1      91.717  83.961  82.783  1.00  0.00    -0.000 C 
BRANCH  24  25
ATOM     25  C   UNL     1      91.175  85.388  82.960  1.00  0.00    -0.003 C 
ATOM     26  C   UNL     1      92.235  86.462  82.706  1.00  0.00     0.004 C 
ENDBRANCH  24  25
ENDBRANCH  23  24
ENDBRANCH  22  23
ENDBRANCH  21  22
ENDBRANCH  20  21
ENDBRANCH  19  20
ENDBRANCH  18  19
ENDBRANCH  17  18
ENDBRANCH  16  17
ENDBRANCH  15  16
ENDBRANCH   1  15
TORSDOF 22
ENDMDL
MODEL 7
REMARK VINA RESULT:    -3.771      3.854      5.222
REMARK INTER + INTRA:         -12.884
REMARK INTER:                 -10.296
REMARK INTRA:                  -2.588
REMARK UNBOUND:                -4.263
REMARK SMILES CCCCCCCCCCCCCCCCCCCCCCCC(=O)[O-]
REMARK SMILES IDX 13 1 14 2 15 3 16 4 17 5 18 6 19 7 20 8 21 9 22 10 23 11
REMARK SMILES IDX 24 12 25 13 26 14 12 15 11 16 10 17 9 18 8 19 7 20 6 21 5 22
REMARK SMILES IDX 4 23 3 24 2 25 1 26
REMARK H PARENT
REMARK Flexibility Score: inf
ROOT
ATOM      1  C   UNL     1      96.362  84.326  81.299  1.00  0.00     0.000 C 
ENDROOT
BRANCH   1   2
ATOM      2  C   UNL     1      97.201  83.182  80.698  1.00  0.00     0.000 C 
BRANCH   2   3
ATOM      3  C   UNL     1      98.126  82.523  81.733  1.00  0.00     0.000 C 
BRANCH   3   4
ATOM      4  C   UNL     1      99.584  82.992  81.606  1.00  0.00     0.000 C 
BRANCH   4   5
ATOM      5  C   UNL     1      99.921  84.165  82.546  1.00  0.00     0.000 C 
BRANCH   5   6
ATOM      6  C   UNL     1      99.660  85.568  81.966  1.00  0.00     0.000 C 
BRANCH   6   7
ATOM      7  C   UNL     1      99.165  86.572  83.022  1.00  0.00     0.000 C 
BRANCH   7   8
ATOM      8  C   UNL     1      98.332  87.711  82.409  1.00  0.00     0.000 C 
BRANCH   8   9
ATOM      9  C   UNL     1      98.661  87.952  80.927  1.00  0.00     0.000 C 
BRANCH   9  10
ATOM     10  C   UNL     1      97.636  88.863  80.226  1.00  0.00     0.006 C 
BRANCH  10  11
ATOM     11  C   UNL     1      97.834  88.971  78.703  1.00  0.00     0.053 C 
BRANCH  11  12
ATOM     12  C   UNL     1      97.702  90.379  78.207  1.00  0.00     0.041 C 
ATOM     13  O   UNL     1      97.096  91.241  78.896  1.00  0.00    -0.550 OA
ATOM     14  O   UNL     1      98.215  90.730  76.965  1.00  0.00    -0.550 OA
ENDBRANCH  11  12
ENDBRANCH  10  11
ENDBRANCH   9  10
ENDBRANCH   8   9
ENDBRANCH   7   8
ENDBRANCH   6   7
ENDBRANCH   5   6
ENDBRANCH   4   5
ENDBRANCH   3   4
ENDBRANCH   2   3
ENDBRANCH   1   2
BRANCH   1  15
ATOM     15  C   UNL     1      96.136  85.480  80.307  1.00  0.00     0.000 C 
BRANCH  15  16
ATOM     16  C   UNL     1      95.419  85.090  79.000  1.00  0.00     0.000 C 
BRANCH  16  17
ATOM     17  C   UNL     1      93.906  84.830  79.168  1.00  0.00     0.000 C 
BRANCH  17  18
ATOM     18  C   UNL     1      93.582  83.332  79.318  1.00  0.00    -0.000 C 
BRANCH  18  19
ATOM     19  C   UNL     1      93.011  82.986  80.707  1.00  0.00    -0.000 C 
BRANCH  19  20
ATOM     20  C   UNL     1      92.715  84.211  81.591  1.00  0.00    -0.000 C 
BRANCH  20  21
ATOM     21  C   UNL     1      91.407  84.062  82.388  1.00  0.00    -0.000 C 
BRANCH  21  22
ATOM     22  C   UNL     1      90.510  82.927  81.858  1.00  0.00    -0.000 C 
BRANCH  22  23
ATOM     23  C   UNL     1      89.178  83.386  81.233  1.00  0.00    -0.000 C 
BRANCH  23  24
ATOM     24  C   UNL     1      89.077  83.064  79.732  1.00  0.00    -0.000 C 
BRANCH  24  25
ATOM     25  C   UNL     1      87.938  82.080  79.415  1.00  0.00    -0.003 C 
ATOM     26  C   UNL     1      87.516  81.249  80.628  1.00  0.00     0.004 C 
ENDBRANCH  24  25
ENDBRANCH  23  24
ENDBRANCH  22  23
ENDBRANCH  21  22
ENDBRANCH  20  21
ENDBRANCH  19  20
ENDBRANCH  18  19
ENDBRANCH  17  18
ENDBRANCH  16  17
ENDBRANCH  15  16
ENDBRANCH   1  15
TORSDOF 22
ENDMDL
MODEL 8
REMARK VINA RESULT:    -3.730      3.230      6.566
REMARK INTER + INTRA:         -12.790
REMARK INTER:                  -8.425
REMARK INTRA:                  -4.365
REMARK UNBOUND:                -4.263
REMARK SMILES CCCCCCCCCCCCCCCCCCCCCCCC(=O)[O-]
REMARK SMILES IDX 13 1 14 2 15 3 16 4 17 5 18 6 19 7 20 8 21 9 22 10 23 11
REMARK SMILES IDX 24 12 25 13 26 14 12 15 11 16 10 17 9 18 8 19 7 20 6 21 5 22
REMARK SMILES IDX 4 23 3 24 2 25 1 26
REMARK H PARENT
REMARK Flexibility Score: inf
ROOT
ATOM      1  C   UNL     1      99.748  85.295  87.834  1.00  0.00     0.000 C 
ENDROOT
BRANCH   1   2
ATOM      2  C   UNL     1     100.296  84.147  86.968  1.00  0.00     0.000 C 
BRANCH   2   3
ATOM      3  C   UNL     1     100.674  84.605  85.551  1.00  0.00     0.000 C 
BRANCH   3   4
ATOM      4  C   UNL     1     100.686  83.448  84.539  1.00  0.00     0.000 C 
BRANCH   4   5
ATOM      5  C   UNL     1     101.055  83.901  83.113  1.00  0.00     0.000 C 
BRANCH   5   6
ATOM      6  C   UNL     1     100.480  83.033  81.979  1.00  0.00     0.000 C 
BRANCH   6   7
ATOM      7  C   UNL     1      99.122  83.540  81.464  1.00  0.00     0.000 C 
BRANCH   7   8
ATOM      8  C   UNL     1      98.006  82.492  81.611  1.00  0.00     0.000 C 
BRANCH   8   9
ATOM      9  C   UNL     1      96.811  82.765  80.684  1.00  0.00     0.000 C 
BRANCH   9  10
ATOM     10  C   UNL     1      96.541  84.267  80.480  1.00  0.00     0.006 C 
BRANCH  10  11
ATOM     11  C   UNL     1      95.087  84.686  80.767  1.00  0.00     0.053 C 
BRANCH  11  12
ATOM     12  C   UNL     1      94.172  84.406  79.614  1.00  0.00     0.041 C 
ATOM     13  O   UNL     1      93.950  85.296  78.750  1.00  0.00    -0.550 OA
ATOM     14  O   UNL     1      93.533  83.177  79.514  1.00  0.00    -0.550 OA
ENDBRANCH  11  12
ENDBRANCH  10  11
ENDBRANCH   9  10
ENDBRANCH   8   9
ENDBRANCH   7   8
ENDBRANCH   6   7
ENDBRANCH   5   6
ENDBRANCH   4   5
ENDBRANCH   3   4
ENDBRANCH   2   3
ENDBRANCH   1   2
BRANCH   1  15
ATOM     15  C   UNL     1      99.922  86.673  87.173  1.00  0.00     0.000 C 
BRANCH  15  16
ATOM     16  C   UNL     1      98.736  87.642  87.357  1.00  0.00     0.000 C 
BRANCH  16  17
ATOM     17  C   UNL     1      97.692  87.167  88.390  1.00  0.00     0.000 C 
BRANCH  17  18
ATOM     18  C   UNL     1      96.267  87.128  87.807  1.00  0.00    -0.000 C 
BRANCH  18  19
ATOM     19  C   UNL     1      95.434  85.953  88.355  1.00  0.00    -0.000 C 
BRANCH  19  20
ATOM     20  C   UNL     1      95.965  84.563  87.958  1.00  0.00    -0.000 C 
BRANCH  20  21
ATOM     21  C   UNL     1      95.689  84.226  86.482  1.00  0.00    -0.000 C 
BRANCH  21  22
ATOM     22  C   UNL     1      96.976  84.124  85.642  1.00  0.00    -0.000 C 
BRANCH  22  23
ATOM     23  C   UNL     1      96.922  84.836  84.276  1.00  0.00    -0.000 C 
BRANCH  23  24
ATOM     24  C   UNL     1      97.580  86.227  84.298  1.00  0.00    -0.000 C 
BRANCH  24  25
ATOM     25  C   UNL     1      97.928  86.737  82.890  1.00  0.00    -0.003 C 
ATOM     26  C   UNL     1      99.403  87.115  82.742  1.00  0.00     0.004 C 
ENDBRANCH  24  25
ENDBRANCH  23  24
ENDBRANCH  22  23
ENDBRANCH  21  22
ENDBRANCH  20  21
ENDBRANCH  19  20
ENDBRANCH  18  19
ENDBRANCH  17  18
ENDBRANCH  16  17
ENDBRANCH  15  16
ENDBRANCH   1  15
TORSDOF 22
ENDMDL
MODEL 9
REMARK VINA RESULT:    -3.710      3.187      6.479
REMARK INTER + INTRA:         -12.744
REMARK INTER:                  -8.759
REMARK INTRA:                  -3.985
REMARK UNBOUND:                -4.263
REMARK SMILES CCCCCCCCCCCCCCCCCCCCCCCC(=O)[O-]
REMARK SMILES IDX 13 1 14 2 15 3 16 4 17 5 18 6 19 7 20 8 21 9 22 10 23 11
REMARK SMILES IDX 24 12 25 13 26 14 12 15 11 16 10 17 9 18 8 19 7 20 6 21 5 22
REMARK SMILES IDX 4 23 3 24 2 25 1 26
REMARK H PARENT
REMARK Flexibility Score: inf
ROOT
ATOM      1  C   UNL     1     101.389  84.571  84.097  1.00  0.00     0.000 C 
ENDROOT
BRANCH   1   2
ATOM      2  C   UNL     1     101.279  84.217  82.602  1.00  0.00     0.000 C 
BRANCH   2   3
ATOM      3  C   UNL     1     100.358  83.013  82.348  1.00  0.00     0.000 C 
BRANCH   3   4
ATOM      4  C   UNL     1      99.139  83.373  81.485  1.00  0.00     0.000 C 
BRANCH   4   5
ATOM      5  C   UNL     1      98.018  82.319  81.558  1.00  0.00     0.000 C 
BRANCH   5   6
ATOM      6  C   UNL     1      96.756  82.642  80.738  1.00  0.00     0.000 C 
BRANCH   6   7
ATOM      7  C   UNL     1      96.638  84.134  80.379  1.00  0.00     0.000 C 
BRANCH   7   8
ATOM      8  C   UNL     1      95.341  84.768  80.911  1.00  0.00     0.000 C 
BRANCH   8   9
ATOM      9  C   UNL     1      95.410  86.303  80.959  1.00  0.00     0.000 C 
BRANCH   9  10
ATOM     10  C   UNL     1      96.166  86.908  79.762  1.00  0.00     0.006 C 
BRANCH  10  11
ATOM     11  C   UNL     1      96.687  88.335  80.007  1.00  0.00     0.053 C 
BRANCH  11  12
ATOM     12  C   UNL     1      97.872  88.668  79.152  1.00  0.00     0.041 C 
ATOM     13  O   UNL     1      97.710  89.198  78.021  1.00  0.00    -0.550 OA
ATOM     14  O   UNL     1      99.154  88.358  79.588  1.00  0.00    -0.550 OA
ENDBRANCH  11  12
ENDBRANCH  10  11
ENDBRANCH   9  10
ENDBRANCH   8   9
ENDBRANCH   7   8
ENDBRANCH   6   7
ENDBRANCH   5   6
ENDBRANCH   4   5
ENDBRANCH   3   4
ENDBRANCH   2   3
ENDBRANCH   1   2
BRANCH   1  15
ATOM     15  C   UNL     1     100.980  83.406  85.015  1.00  0.00     0.000 C 
BRANCH  15  16
ATOM     16  C   UNL     1     100.710  83.793  86.483  1.00  0.00     0.000 C 
BRANCH  16  17
ATOM     17  C   UNL     1      99.295  84.358  86.732  1.00  0.00     0.000 C 
BRANCH  17  18
ATOM     18  C   UNL     1      99.318  85.642  87.582  1.00  0.00    -0.000 C 
BRANCH  18  19
ATOM     19  C   UNL     1      97.906  86.120  87.972  1.00  0.00    -0.000 C 
BRANCH  19  20
ATOM     20  C   UNL     1      96.863  84.992  88.073  1.00  0.00    -0.000 C 
BRANCH  20  21
ATOM     21  C   UNL     1      95.561  85.322  87.322  1.00  0.00    -0.000 C 
BRANCH  21  22
ATOM     22  C   UNL     1      95.395  84.504  86.027  1.00  0.00    -0.000 C 
BRANCH  22  23
ATOM     23  C   UNL     1      95.614  85.294  84.722  1.00  0.00    -0.000 C 
BRANCH  23  24
ATOM     24  C   UNL     1      97.040  85.146  84.163  1.00  0.00    -0.000 C 
BRANCH  24  25
ATOM     25  C   UNL     1      97.801  86.480  84.126  1.00  0.00    -0.003 C 
ATOM     26  C   UNL     1      98.562  86.695  82.816  1.00  0.00     0.004 C 
ENDBRANCH  24  25
ENDBRANCH  23  24
ENDBRANCH  22  23
ENDBRANCH  21  22
ENDBRANCH  20  21
ENDBRANCH  19  20
ENDBRANCH  18  19
ENDBRANCH  17  18
ENDBRANCH  16  17
ENDBRANCH  15  16
ENDBRANCH   1  15
TORSDOF 22
ENDMDL
