MODEL 1
REMARK VINA RESULT:    -4.697      0.000      0.000
REMARK INTER + INTRA:         -13.629
REMARK INTER:                 -10.738
REMARK INTRA:                  -2.891
REMARK UNBOUND:                -2.891
REMARK SMILES CCCCCCCCCCCCCCCCCCCCCCCC(=O)[O-]
REMARK SMILES IDX 13 1 14 2 15 3 16 4 17 5 18 6 19 7 20 8 21 9 22 10 23 11
REMARK SMILES IDX 24 12 25 13 26 14 12 15 11 16 10 17 9 18 8 19 7 20 6 21 5 22
REMARK SMILES IDX 4 23 3 24 2 25 1 26
REMARK H PARENT
REMARK Flexibility Score: inf
ROOT
ATOM      1  C   UNL     1      13.592  12.095  13.839  1.00  0.00     0.000 C 
ENDROOT
BRANCH   1   2
ATOM      2  C   UNL     1      14.596  11.457  14.823  1.00  0.00     0.000 C 
BRANCH   2   3
ATOM      3  C   UNL     1      14.444  11.993  16.258  1.00  0.00     0.000 C 
BRANCH   3   4
ATOM      4  C   UNL     1      15.790  12.159  16.981  1.00  0.00     0.000 C 
BRANCH   4   5
ATOM      5  C   UNL     1      15.683  12.077  18.520  1.00  0.00     0.000 C 
BRANCH   5   6
ATOM      6  C   UNL     1      17.067  12.067  19.195  1.00  0.00     0.000 C 
BRANCH   6   7
ATOM      7  C   UNL     1      18.190  12.530  18.253  1.00  0.00     0.000 C 
BRANCH   7   8
ATOM      8  C   UNL     1      19.304  11.480  18.101  1.00  0.00     0.000 C 
BRANCH   8   9
ATOM      9  C   UNL     1      19.749  11.297  16.642  1.00  0.00     0.000 C 
BRANCH   9  10
ATOM     10  C   UNL     1      19.191  12.389  15.712  1.00  0.00     0.006 C 
BRANCH  10  11
ATOM     11  C   UNL     1      18.464  11.799  14.497  1.00  0.00     0.053 C 
BRANCH  11  12
ATOM     12  C   UNL     1      18.321  12.801  13.393  1.00  0.00     0.041 C 
ATOM     13  O   UNL     1      17.180  13.112  12.962  1.00  0.00    -0.550 OA
ATOM     14  O   UNL     1      19.447  13.422  12.867  1.00  0.00    -0.550 OA
ENDBRANCH  11  12
ENDBRANCH  10  11
ENDBRANCH   9  10
ENDBRANCH   8   9
ENDBRANCH   7   8
ENDBRANCH   6   7
ENDBRANCH   5   6
ENDBRANCH   4   5
ENDBRANCH   3   4
ENDBRANCH   2   3
ENDBRANCH   1   2
BRANCH   1  15
ATOM     15  C   UNL     1      12.564  11.105  13.258  1.00  0.00     0.000 C 
BRANCH  15  16
ATOM     16  C   UNL     1      11.090  11.479  13.486  1.00  0.00     0.000 C 
BRANCH  16  17
ATOM     17  C   UNL     1      10.182  11.074  12.312  1.00  0.00     0.000 C 
BRANCH  17  18
ATOM     18  C   UNL     1       9.184  12.180  11.931  1.00  0.00    -0.000 C 
BRANCH  18  19
ATOM     19  C   UNL     1       9.295  13.411  12.843  1.00  0.00    -0.000 C 
BRANCH  19  20
ATOM     20  C   UNL     1       9.699  14.656  12.037  1.00  0.00    -0.000 C 
BRANCH  20  21
ATOM     21  C   UNL     1      11.214  14.730  11.784  1.00  0.00    -0.000 C 
BRANCH  21  22
ATOM     22  C   UNL     1      11.555  15.070  10.321  1.00  0.00    -0.000 C 
BRANCH  22  23
ATOM     23  C   UNL     1      10.517  14.519   9.330  1.00  0.00    -0.000 C 
BRANCH  23  24
ATOM     24  C   UNL     1      10.895  13.126   8.795  1.00  0.00    -0.000 C 
BRANCH  24  25
ATOM     25  C   UNL     1      12.384  12.801   8.991  1.00  0.00    -0.003 C 
ATOM     26  C   UNL     1      12.615  11.387   9.525  1.00  0.00     0.004 C 
ENDBRANCH  24  25
ENDBRANCH  23  24
ENDBRANCH  22  23
ENDBRANCH  21  22
ENDBRANCH  20  21
ENDBRANCH  19  20
ENDBRANCH  18  19
ENDBRANCH  17  18
ENDBRANCH  16  17
ENDBRANCH  15  16
ENDBRANCH   1  15
TORSDOF 22
ENDMDL
MODEL 2
REMARK VINA RESULT:    -4.636      1.789      8.644
REMARK INTER + INTRA:         -13.489
REMARK INTER:                 -10.755
REMARK INTRA:                  -2.734
REMARK UNBOUND:                -2.891
REMARK SMILES CCCCCCCCCCCCCCCCCCCCCCCC(=O)[O-]
REMARK SMILES IDX 13 1 14 2 15 3 16 4 17 5 18 6 19 7 20 8 21 9 22 10 23 11
REMARK SMILES IDX 24 12 25 13 26 14 12 15 11 16 10 17 9 18 8 19 7 20 6 21 5 22
REMARK SMILES IDX 4 23 3 24 2 25 1 26
REMARK H PARENT
REMARK Flexibility Score: inf
ROOT
ATOM      1  C   UNL     1      12.598  11.077  13.215  1.00  0.00     0.000 C 
ENDROOT
BRANCH   1   2
ATOM      2  C   UNL     1      11.132  11.342  13.620  1.00  0.00     0.000 C 
BRANCH   2   3
ATOM      3  C   UNL     1      10.141  11.066  12.475  1.00  0.00     0.000 C 
BRANCH   3   4
ATOM      4  C   UNL     1       9.298  12.296  12.102  1.00  0.00     0.000 C 
BRANCH   4   5
ATOM      5  C   UNL     1       9.551  13.521  13.009  1.00  0.00     0.000 C 
BRANCH   5   6
ATOM      6  C   UNL     1       9.942  14.770  12.198  1.00  0.00     0.000 C 
BRANCH   6   7
ATOM      7  C   UNL     1      11.353  14.668  11.597  1.00  0.00     0.000 C 
BRANCH   7   8
ATOM      8  C   UNL     1      11.399  15.103  10.121  1.00  0.00     0.000 C 
BRANCH   8   9
ATOM      9  C   UNL     1      10.394  14.336   9.248  1.00  0.00     0.000 C 
BRANCH   9  10
ATOM     10  C   UNL     1      11.076  13.322   8.312  1.00  0.00     0.006 C 
BRANCH  10  11
ATOM     11  C   UNL     1      10.992  11.889   8.853  1.00  0.00     0.053 C 
BRANCH  11  12
ATOM     12  C   UNL     1      12.299  11.436   9.429  1.00  0.00     0.041 C 
ATOM     13  O   UNL     1      13.275  12.229   9.491  1.00  0.00    -0.550 OA
ATOM     14  O   UNL     1      12.427  10.148   9.934  1.00  0.00    -0.550 OA
ENDBRANCH  11  12
ENDBRANCH  10  11
ENDBRANCH   9  10
ENDBRANCH   8   9
ENDBRANCH   7   8
ENDBRANCH   6   7
ENDBRANCH   5   6
ENDBRANCH   4   5
ENDBRANCH   3   4
ENDBRANCH   2   3
ENDBRANCH   1   2
BRANCH   1  15
ATOM     15  C   UNL     1      13.620  11.996  13.914  1.00  0.00     0.000 C 
BRANCH  15  16
ATOM     16  C   UNL     1      14.545  11.298  14.926  1.00  0.00     0.000 C 
BRANCH  16  17
ATOM     17  C   UNL     1      14.561  11.994  16.298  1.00  0.00     0.000 C 
BRANCH  17  18
ATOM     18  C   UNL     1      15.969  12.050  16.914  1.00  0.00    -0.000 C 
BRANCH  18  19
ATOM     19  C   UNL     1      15.937  12.161  18.445  1.00  0.00    -0.000 C 
BRANCH  19  20
ATOM     20  C   UNL     1      17.342  11.974  19.039  1.00  0.00    -0.000 C 
BRANCH  20  21
ATOM     21  C   UNL     1      18.445  12.564  18.145  1.00  0.00    -0.000 C 
BRANCH  21  22
ATOM     22  C   UNL     1      19.538  11.538  17.795  1.00  0.00    -0.000 C 
BRANCH  22  23
ATOM     23  C   UNL     1      19.597  11.229  16.290  1.00  0.00    -0.000 C 
BRANCH  23  24
ATOM     24  C   UNL     1      19.013  12.367  15.433  1.00  0.00    -0.000 C 
BRANCH  24  25
ATOM     25  C   UNL     1      18.399  11.862  14.118  1.00  0.00    -0.003 C 
ATOM     26  C   UNL     1      17.901  12.998  13.224  1.00  0.00     0.004 C 
ENDBRANCH  24  25
ENDBRANCH  23  24
ENDBRANCH  22  23
ENDBRANCH  21  22
ENDBRANCH  20  21
ENDBRANCH  19  20
ENDBRANCH  18  19
ENDBRANCH  17  18
ENDBRANCH  16  17
ENDBRANCH  15  16
ENDBRANCH   1  15
TORSDOF 22
ENDMDL
MODEL 3
REMARK VINA RESULT:    -4.391      1.093      2.322
REMARK INTER + INTRA:         -12.930
REMARK INTER:                 -10.131
REMARK INTRA:                  -2.799
REMARK UNBOUND:                -2.891
REMARK SMILES CCCCCCCCCCCCCCCCCCCCCCCC(=O)[O-]
REMARK SMILES IDX 13 1 14 2 15 3 16 4 17 5 18 6 19 7 20 8 21 9 22 10 23 11
REMARK SMILES IDX 24 12 25 13 26 14 12 15 11 16 10 17 9 18 8 19 7 20 6 21 5 22
REMARK SMILES IDX 4 23 3 24 2 25 1 26
REMARK H PARENT
REMARK Flexibility Score: inf
ROOT
ATOM      1  C   UNL     1      13.547  11.929  13.580  1.00  0.00     0.000 C 
ENDROOT
BRANCH   1   2
ATOM      2  C   UNL     1      14.283  11.050  14.614  1.00  0.00     0.000 C 
BRANCH   2   3
ATOM      3  C   UNL     1      14.999  11.879  15.695  1.00  0.00     0.000 C 
BRANCH   3   4
ATOM      4  C   UNL     1      14.179  12.010  16.990  1.00  0.00     0.000 C 
BRANCH   4   5
ATOM      5  C   UNL     1      14.925  12.745  18.125  1.00  0.00     0.000 C 
BRANCH   5   6
ATOM      6  C   UNL     1      16.071  11.897  18.707  1.00  0.00     0.000 C 
BRANCH   6   7
ATOM      7  C   UNL     1      17.168  12.752  19.361  1.00  0.00     0.000 C 
BRANCH   7   8
ATOM      8  C   UNL     1      18.381  12.965  18.437  1.00  0.00     0.000 C 
BRANCH   8   9
ATOM      9  C   UNL     1      18.991  11.642  17.949  1.00  0.00     0.000 C 
BRANCH   9  10
ATOM     10  C   UNL     1      19.502  11.726  16.499  1.00  0.00     0.006 C 
BRANCH  10  11
ATOM     11  C   UNL     1      18.694  12.721  15.658  1.00  0.00     0.053 C 
BRANCH  11  12
ATOM     12  C   UNL     1      18.536  12.253  14.243  1.00  0.00     0.041 C 
ATOM     13  O   UNL     1      17.963  11.159  13.997  1.00  0.00    -0.550 OA
ATOM     14  O   UNL     1      18.987  13.044  13.194  1.00  0.00    -0.550 OA
ENDBRANCH  11  12
ENDBRANCH  10  11
ENDBRANCH   9  10
ENDBRANCH   8   9
ENDBRANCH   7   8
ENDBRANCH   6   7
ENDBRANCH   5   6
ENDBRANCH   4   5
ENDBRANCH   3   4
ENDBRANCH   2   3
ENDBRANCH   1   2
BRANCH   1  15
ATOM     15  C   UNL     1      12.107  11.470  13.275  1.00  0.00     0.000 C 
BRANCH  15  16
ATOM     16  C   UNL     1      11.976  10.412  12.165  1.00  0.00     0.000 C 
BRANCH  16  17
ATOM     17  C   UNL     1      10.523   9.958  11.944  1.00  0.00     0.000 C 
BRANCH  17  18
ATOM     18  C   UNL     1       9.642  11.070  11.351  1.00  0.00    -0.000 C 
BRANCH  18  19
ATOM     19  C   UNL     1       9.207  10.770   9.909  1.00  0.00    -0.000 C 
BRANCH  19  20
ATOM     20  C   UNL     1       9.744  11.837   8.941  1.00  0.00    -0.000 C 
BRANCH  20  21
ATOM     21  C   UNL     1      11.159  11.516   8.432  1.00  0.00    -0.000 C 
BRANCH  21  22
ATOM     22  C   UNL     1      12.092  12.740   8.461  1.00  0.00    -0.000 C 
BRANCH  22  23
ATOM     23  C   UNL     1      12.688  12.996   9.854  1.00  0.00    -0.000 C 
BRANCH  23  24
ATOM     24  C   UNL     1      12.522  14.458  10.305  1.00  0.00    -0.000 C 
BRANCH  24  25
ATOM     25  C   UNL     1      11.049  14.856  10.492  1.00  0.00    -0.003 C 
ATOM     26  C   UNL     1      10.637  14.922  11.963  1.00  0.00     0.004 C 
ENDBRANCH  24  25
ENDBRANCH  23  24
ENDBRANCH  22  23
ENDBRANCH  21  22
ENDBRANCH  20  21
ENDBRANCH  19  20
ENDBRANCH  18  19
ENDBRANCH  17  18
ENDBRANCH  16  17
ENDBRANCH  15  16
ENDBRANCH   1  15
TORSDOF 22
ENDMDL
MODEL 4
REMARK VINA RESULT:    -4.366      1.929      9.065
REMARK INTER + INTRA:         -12.871
REMARK INTER:                 -10.428
REMARK INTRA:                  -2.443
REMARK UNBOUND:                -2.891
REMARK SMILES CCCCCCCCCCCCCCCCCCCCCCCC(=O)[O-]
REMARK SMILES IDX 13 1 14 2 15 3 16 4 17 5 18 6 19 7 20 8 21 9 22 10 23 11
REMARK SMILES IDX 24 12 25 13 26 14 12 15 11 16 10 17 9 18 8 19 7 20 6 21 5 22
REMARK SMILES IDX 4 23 3 24 2 25 1 26
REMARK H PARENT
REMARK Flexibility Score: inf
ROOT
ATOM      1  C   UNL     1      12.126  10.762  12.618  1.00  0.00     0.000 C 
ENDROOT
BRANCH   1   2
ATOM      2  C   UNL     1      10.616  11.077  12.551  1.00  0.00     0.000 C 
BRANCH   2   3
ATOM      3  C   UNL     1      10.252  12.392  13.263  1.00  0.00     0.000 C 
BRANCH   3   4
ATOM      4  C   UNL     1       9.199  13.214  12.501  1.00  0.00     0.000 C 
BRANCH   4   5
ATOM      5  C   UNL     1       9.674  14.633  12.121  1.00  0.00     0.000 C 
BRANCH   5   6
ATOM      6  C   UNL     1      11.176  14.667  11.781  1.00  0.00     0.000 C 
BRANCH   6   7
ATOM      7  C   UNL     1      11.455  15.253  10.388  1.00  0.00     0.000 C 
BRANCH   7   8
ATOM      8  C   UNL     1      10.279  15.052   9.416  1.00  0.00     0.000 C 
BRANCH   8   9
ATOM      9  C   UNL     1      10.523  13.904   8.424  1.00  0.00     0.000 C 
BRANCH   9  10
ATOM     10  C   UNL     1      10.411  12.518   9.084  1.00  0.00     0.006 C 
BRANCH  10  11
ATOM     11  C   UNL     1      11.171  11.441   8.299  1.00  0.00     0.053 C 
BRANCH  11  12
ATOM     12  C   UNL     1      12.600  11.338   8.738  1.00  0.00     0.041 C 
ATOM     13  O   UNL     1      13.366  10.489   8.212  1.00  0.00    -0.550 OA
ATOM     14  O   UNL     1      13.095  12.207   9.703  1.00  0.00    -0.550 OA
ENDBRANCH  11  12
ENDBRANCH  10  11
ENDBRANCH   9  10
ENDBRANCH   8   9
ENDBRANCH   7   8
ENDBRANCH   6   7
ENDBRANCH   5   6
ENDBRANCH   4   5
ENDBRANCH   3   4
ENDBRANCH   2   3
ENDBRANCH   1   2
BRANCH   1  15
ATOM     15  C   UNL     1      12.911  11.649  13.604  1.00  0.00     0.000 C 
BRANCH  15  16
ATOM     16  C   UNL     1      14.056  10.945  14.352  1.00  0.00     0.000 C 
BRANCH  16  17
ATOM     17  C   UNL     1      14.817  11.887  15.301  1.00  0.00     0.000 C 
BRANCH  17  18
ATOM     18  C   UNL     1      16.316  11.553  15.386  1.00  0.00    -0.000 C 
BRANCH  18  19
ATOM     19  C   UNL     1      17.143  12.292  14.323  1.00  0.00    -0.000 C 
BRANCH  19  20
ATOM     20  C   UNL     1      18.646  12.035  14.520  1.00  0.00    -0.000 C 
BRANCH  20  21
ATOM     21  C   UNL     1      19.167  12.578  15.861  1.00  0.00    -0.000 C 
BRANCH  21  22
ATOM     22  C   UNL     1      19.745  11.474  16.764  1.00  0.00    -0.000 C 
BRANCH  22  23
ATOM     23  C   UNL     1      19.186  11.529  18.195  1.00  0.00    -0.000 C 
BRANCH  23  24
ATOM     24  C   UNL     1      18.071  12.578  18.351  1.00  0.00    -0.000 C 
BRANCH  24  25
ATOM     25  C   UNL     1      16.775  11.984  18.924  1.00  0.00    -0.003 C 
ATOM     26  C   UNL     1      16.903  11.598  20.398  1.00  0.00     0.004 C 
ENDBRANCH  24  25
ENDBRANCH  23  24
ENDBRANCH  22  23
ENDBRANCH  21  22
ENDBRANCH  20  21
ENDBRANCH  19  20
ENDBRANCH  18  19
ENDBRANCH  17  18
ENDBRANCH  16  17
ENDBRANCH  15  16
ENDBRANCH   1  15
TORSDOF 22
ENDMDL
MODEL 5
REMARK VINA RESULT:    -4.315      2.386      8.531
REMARK INTER + INTRA:         -12.755
REMARK INTER:                  -9.907
REMARK INTRA:                  -2.849
REMARK UNBOUND:                -2.891
REMARK SMILES CCCCCCCCCCCCCCCCCCCCCCCC(=O)[O-]
REMARK SMILES IDX 13 1 14 2 15 3 16 4 17 5 18 6 19 7 20 8 21 9 22 10 23 11
REMARK SMILES IDX 24 12 25 13 26 14 12 15 11 16 10 17 9 18 8 19 7 20 6 21 5 22
REMARK SMILES IDX 4 23 3 24 2 25 1 26
REMARK H PARENT
REMARK Flexibility Score: inf
ROOT
ATOM      1  C   UNL     1      14.477  11.055  14.654  1.00  0.00     0.000 C 
ENDROOT
BRANCH   1   2
ATOM      2  C   UNL     1      13.537  11.770  13.659  1.00  0.00     0.000 C 
BRANCH   2   3
ATOM      3  C   UNL     1      12.317  10.913  13.275  1.00  0.00     0.000 C 
BRANCH   3   4
ATOM      4  C   UNL     1      10.985  11.665  13.430  1.00  0.00     0.000 C 
BRANCH   4   5
ATOM      5  C   UNL     1       9.941  11.310  12.348  1.00  0.00     0.000 C 
BRANCH   5   6
ATOM      6  C   UNL     1      10.488  10.290  11.332  1.00  0.00     0.000 C 
BRANCH   6   7
ATOM      7  C   UNL     1      10.864  10.935   9.989  1.00  0.00     0.000 C 
BRANCH   7   8
ATOM      8  C   UNL     1      12.384  10.960   9.750  1.00  0.00     0.000 C 
BRANCH   8   9
ATOM      9  C   UNL     1      12.873  12.304   9.190  1.00  0.00     0.000 C 
BRANCH   9  10
ATOM     10  C   UNL     1      11.822  13.421   9.331  1.00  0.00     0.006 C 
BRANCH  10  11
ATOM     11  C   UNL     1      12.075  14.300  10.563  1.00  0.00     0.053 C 
BRANCH  11  12
ATOM     12  C   UNL     1      10.794  14.755  11.193  1.00  0.00     0.041 C 
ATOM     13  O   UNL     1      10.815  15.467  12.231  1.00  0.00    -0.550 OA
ATOM     14  O   UNL     1       9.577  14.425  10.611  1.00  0.00    -0.550 OA
ENDBRANCH  11  12
ENDBRANCH  10  11
ENDBRANCH   9  10
ENDBRANCH   8   9
ENDBRANCH   7   8
ENDBRANCH   6   7
ENDBRANCH   5   6
ENDBRANCH   4   5
ENDBRANCH   3   4
ENDBRANCH   2   3
ENDBRANCH   1   2
BRANCH   1  15
ATOM     15  C   UNL     1      14.999  11.960  15.788  1.00  0.00     0.000 C 
BRANCH  15  16
ATOM     16  C   UNL     1      14.082  12.065  17.018  1.00  0.00     0.000 C 
BRANCH  16  17
ATOM     17  C   UNL     1      14.853  11.978  18.346  1.00  0.00     0.000 C 
BRANCH  17  18
ATOM     18  C   UNL     1      16.287  12.523  18.231  1.00  0.00    -0.000 C 
BRANCH  18  19
ATOM     19  C   UNL     1      17.291  11.713  19.065  1.00  0.00    -0.000 C 
BRANCH  19  20
ATOM     20  C   UNL     1      18.695  11.770  18.441  1.00  0.00    -0.000 C 
BRANCH  20  21
ATOM     21  C   UNL     1      18.989  13.122  17.771  1.00  0.00    -0.000 C 
BRANCH  21  22
ATOM     22  C   UNL     1      19.429  12.974  16.304  1.00  0.00    -0.000 C 
BRANCH  22  23
ATOM     23  C   UNL     1      19.176  11.562  15.752  1.00  0.00    -0.000 C 
BRANCH  23  24
ATOM     24  C   UNL     1      18.338  11.576  14.461  1.00  0.00    -0.000 C 
BRANCH  24  25
ATOM     25  C   UNL     1      18.715  12.734  13.523  1.00  0.00    -0.003 C 
ATOM     26  C   UNL     1      17.493  13.470  12.972  1.00  0.00     0.004 C 
ENDBRANCH  24  25
ENDBRANCH  23  24
ENDBRANCH  22  23
ENDBRANCH  21  22
ENDBRANCH  20  21
ENDBRANCH  19  20
ENDBRANCH  18  19
ENDBRANCH  17  18
ENDBRANCH  16  17
ENDBRANCH  15  16
ENDBRANCH   1  15
TORSDOF 22
ENDMDL
MODEL 6
REMARK VINA RESULT:    -4.232      2.176      3.215
REMARK INTER + INTRA:         -12.566
REMARK INTER:                  -9.493
REMARK INTRA:                  -3.073
REMARK UNBOUND:                -2.891
REMARK SMILES CCCCCCCCCCCCCCCCCCCCCCCC(=O)[O-]
REMARK SMILES IDX 13 1 14 2 15 3 16 4 17 5 18 6 19 7 20 8 21 9 22 10 23 11
REMARK SMILES IDX 24 12 25 13 26 14 12 15 11 16 10 17 9 18 8 19 7 20 6 21 5 22
REMARK SMILES IDX 4 23 3 24 2 25 1 26
REMARK H PARENT
REMARK Flexibility Score: inf
ROOT
ATOM      1  C   UNL     1      12.887  11.762  13.048  1.00  0.00     0.000 C 
ENDROOT
BRANCH   1   2
ATOM      2  C   UNL     1      13.709  10.939  14.064  1.00  0.00     0.000 C 
BRANCH   2   3
ATOM      3  C   UNL     1      14.143  11.767  15.287  1.00  0.00     0.000 C 
BRANCH   3   4
ATOM      4  C   UNL     1      15.656  11.697  15.552  1.00  0.00     0.000 C 
BRANCH   4   5
ATOM      5  C   UNL     1      16.515  11.754  14.269  1.00  0.00     0.000 C 
BRANCH   5   6
ATOM      6  C   UNL     1      17.723  12.695  14.425  1.00  0.00     0.000 C 
BRANCH   6   7
ATOM      7  C   UNL     1      19.011  11.948  14.808  1.00  0.00     0.000 C 
BRANCH   7   8
ATOM      8  C   UNL     1      19.599  12.432  16.146  1.00  0.00     0.000 C 
BRANCH   8   9
ATOM      9  C   UNL     1      19.827  11.283  17.140  1.00  0.00     0.000 C 
BRANCH   9  10
ATOM     10  C   UNL     1      19.148  11.533  18.499  1.00  0.00     0.006 C 
BRANCH  10  11
ATOM     11  C   UNL     1      17.904  12.421  18.369  1.00  0.00     0.053 C 
BRANCH  11  12
ATOM     12  C   UNL     1      16.789  11.949  19.251  1.00  0.00     0.041 C 
ATOM     13  O   UNL     1      15.595  12.014  18.856  1.00  0.00    -0.550 OA
ATOM     14  O   UNL     1      17.072  11.400  20.496  1.00  0.00    -0.550 OA
ENDBRANCH  11  12
ENDBRANCH  10  11
ENDBRANCH   9  10
ENDBRANCH   8   9
ENDBRANCH   7   8
ENDBRANCH   6   7
ENDBRANCH   5   6
ENDBRANCH   4   5
ENDBRANCH   3   4
ENDBRANCH   2   3
ENDBRANCH   1   2
BRANCH   1  15
ATOM     15  C   UNL     1      11.969  10.913  12.147  1.00  0.00     0.000 C 
BRANCH  15  16
ATOM     16  C   UNL     1      10.470  10.985  12.482  1.00  0.00     0.000 C 
BRANCH  16  17
ATOM     17  C   UNL     1      10.062  12.331  13.106  1.00  0.00     0.000 C 
BRANCH  17  18
ATOM     18  C   UNL     1       9.086  13.120  12.217  1.00  0.00    -0.000 C 
BRANCH  18  19
ATOM     19  C   UNL     1       9.339  14.635  12.268  1.00  0.00    -0.000 C 
BRANCH  19  20
ATOM     20  C   UNL     1      10.835  14.947  12.104  1.00  0.00    -0.000 C 
BRANCH  20  21
ATOM     21  C   UNL     1      11.251  15.094  10.631  1.00  0.00    -0.000 C 
BRANCH  21  22
ATOM     22  C   UNL     1      12.360  14.106  10.226  1.00  0.00    -0.000 C 
BRANCH  22  23
ATOM     23  C   UNL     1      11.925  13.161   9.094  1.00  0.00    -0.000 C 
BRANCH  23  24
ATOM     24  C   UNL     1      10.645  13.640   8.388  1.00  0.00    -0.000 C 
BRANCH  24  25
ATOM     25  C   UNL     1       9.433  12.742   8.685  1.00  0.00    -0.003 C 
ATOM     26  C   UNL     1       9.815  11.272   8.856  1.00  0.00     0.004 C 
ENDBRANCH  24  25
ENDBRANCH  23  24
ENDBRANCH  22  23
ENDBRANCH  21  22
ENDBRANCH  20  21
ENDBRANCH  19  20
ENDBRANCH  18  19
ENDBRANCH  17  18
ENDBRANCH  16  17
ENDBRANCH  15  16
ENDBRANCH   1  15
TORSDOF 22
ENDMDL
MODEL 7
REMARK VINA RESULT:    -4.214      2.131      3.790
REMARK INTER + INTRA:         -12.524
REMARK INTER:                  -9.757
REMARK INTRA:                  -2.767
REMARK UNBOUND:                -2.891
REMARK SMILES CCCCCCCCCCCCCCCCCCCCCCCC(=O)[O-]
REMARK SMILES IDX 13 1 14 2 15 3 16 4 17 5 18 6 19 7 20 8 21 9 22 10 23 11
REMARK SMILES IDX 24 12 25 13 26 14 12 15 11 16 10 17 9 18 8 19 7 20 6 21 5 22
REMARK SMILES IDX 4 23 3 24 2 25 1 26
REMARK H PARENT
REMARK Flexibility Score: inf
ROOT
ATOM      1  C   UNL     1      12.377  10.553  13.093  1.00  0.00     0.000 C 
ENDROOT
BRANCH   1   2
ATOM      2  C   UNL     1      13.507  11.574  13.348  1.00  0.00     0.000 C 
BRANCH   2   3
ATOM      3  C   UNL     1      13.618  11.980  14.828  1.00  0.00     0.000 C 
BRANCH   3   4
ATOM      4  C   UNL     1      14.956  11.567  15.464  1.00  0.00     0.000 C 
BRANCH   4   5
ATOM      5  C   UNL     1      16.073  11.287  14.435  1.00  0.00     0.000 C 
BRANCH   5   6
ATOM      6  C   UNL     1      17.154  12.384  14.443  1.00  0.00     0.000 C 
BRANCH   6   7
ATOM      7  C   UNL     1      18.550  11.837  14.782  1.00  0.00     0.000 C 
BRANCH   7   8
ATOM      8  C   UNL     1      19.286  12.700  15.823  1.00  0.00     0.000 C 
BRANCH   8   9
ATOM      9  C   UNL     1      20.039  11.856  16.863  1.00  0.00     0.000 C 
BRANCH   9  10
ATOM     10  C   UNL     1      19.147  11.438  18.045  1.00  0.00     0.006 C 
BRANCH  10  11
ATOM     11  C   UNL     1      18.184  12.556  18.466  1.00  0.00     0.053 C 
BRANCH  11  12
ATOM     12  C   UNL     1      17.043  12.028  19.282  1.00  0.00     0.041 C 
ATOM     13  O   UNL     1      17.230  11.661  20.471  1.00  0.00    -0.550 OA
ATOM     14  O   UNL     1      15.765  11.979  18.739  1.00  0.00    -0.550 OA
ENDBRANCH  11  12
ENDBRANCH  10  11
ENDBRANCH   9  10
ENDBRANCH   8   9
ENDBRANCH   7   8
ENDBRANCH   6   7
ENDBRANCH   5   6
ENDBRANCH   4   5
ENDBRANCH   3   4
ENDBRANCH   2   3
ENDBRANCH   1   2
BRANCH   1  15
ATOM     15  C   UNL     1      10.969  11.175  13.030  1.00  0.00     0.000 C 
BRANCH  15  16
ATOM     16  C   UNL     1       9.831  10.194  12.699  1.00  0.00     0.000 C 
BRANCH  16  17
ATOM     17  C   UNL     1       9.370  10.288  11.234  1.00  0.00     0.000 C 
BRANCH  17  18
ATOM     18  C   UNL     1       9.808  11.600  10.562  1.00  0.00    -0.000 C 
BRANCH  18  19
ATOM     19  C   UNL     1      10.569  11.362   9.249  1.00  0.00    -0.000 C 
BRANCH  19  20
ATOM     20  C   UNL     1      12.068  11.148   9.515  1.00  0.00    -0.000 C 
BRANCH  20  21
ATOM     21  C   UNL     1      12.901  12.413   9.251  1.00  0.00    -0.000 C 
BRANCH  21  22
ATOM     22  C   UNL     1      12.909  13.379  10.450  1.00  0.00    -0.000 C 
BRANCH  22  23
ATOM     23  C   UNL     1      12.417  14.786  10.077  1.00  0.00    -0.000 C 
BRANCH  23  24
ATOM     24  C   UNL     1      10.979  15.053  10.554  1.00  0.00    -0.000 C 
BRANCH  24  25
ATOM     25  C   UNL     1      10.831  14.946  12.080  1.00  0.00    -0.003 C 
ATOM     26  C   UNL     1       9.397  14.646  12.516  1.00  0.00     0.004 C 
ENDBRANCH  24  25
ENDBRANCH  23  24
ENDBRANCH  22  23
ENDBRANCH  21  22
ENDBRANCH  20  21
ENDBRANCH  19  20
ENDBRANCH  18  19
ENDBRANCH  17  18
ENDBRANCH  16  17
ENDBRANCH  15  16
ENDBRANCH   1  15
TORSDOF 22
ENDMDL
MODEL 8
REMARK VINA RESULT:    -4.062      3.655      6.336
REMARK INTER + INTRA:         -12.178
REMARK INTER:                  -9.829
REMARK INTRA:                  -2.350
REMARK UNBOUND:                -2.891
REMARK SMILES CCCCCCCCCCCCCCCCCCCCCCCC(=O)[O-]
REMARK SMILES IDX 13 1 14 2 15 3 16 4 17 5 18 6 19 7 20 8 21 9 22 10 23 11
REMARK SMILES IDX 24 12 25 13 26 14 12 15 11 16 10 17 9 18 8 19 7 20 6 21 5 22
REMARK SMILES IDX 4 23 3 24 2 25 1 26
REMARK H PARENT
REMARK Flexibility Score: inf
ROOT
ATOM      1  C   UNL     1      12.610  11.258  13.035  1.00  0.00     0.000 C 
ENDROOT
BRANCH   1   2
ATOM      2  C   UNL     1      13.797  12.059  13.612  1.00  0.00     0.000 C 
BRANCH   2   3
ATOM      3  C   UNL     1      14.161  11.633  15.045  1.00  0.00     0.000 C 
BRANCH   3   4
ATOM      4  C   UNL     1      15.665  11.371  15.229  1.00  0.00     0.000 C 
BRANCH   4   5
ATOM      5  C   UNL     1      16.558  12.164  14.250  1.00  0.00     0.000 C 
BRANCH   5   6
ATOM      6  C   UNL     1      18.006  11.642  14.237  1.00  0.00     0.000 C 
BRANCH   6   7
ATOM      7  C   UNL     1      19.024  12.708  14.673  1.00  0.00     0.000 C 
BRANCH   7   8
ATOM      8  C   UNL     1      19.037  12.924  16.197  1.00  0.00     0.000 C 
BRANCH   8   9
ATOM      9  C   UNL     1      19.638  11.733  16.958  1.00  0.00     0.000 C 
BRANCH   9  10
ATOM     10  C   UNL     1      18.948  11.486  18.312  1.00  0.00     0.006 C 
BRANCH  10  11
ATOM     11  C   UNL     1      17.848  12.517  18.596  1.00  0.00     0.053 C 
BRANCH  11  12
ATOM     12  C   UNL     1      16.596  11.868  19.104  1.00  0.00     0.041 C 
ATOM     13  O   UNL     1      16.640  11.097  20.099  1.00  0.00    -0.550 OA
ATOM     14  O   UNL     1      15.375  12.145  18.502  1.00  0.00    -0.550 OA
ENDBRANCH  11  12
ENDBRANCH  10  11
ENDBRANCH   9  10
ENDBRANCH   8   9
ENDBRANCH   7   8
ENDBRANCH   6   7
ENDBRANCH   5   6
ENDBRANCH   4   5
ENDBRANCH   3   4
ENDBRANCH   2   3
ENDBRANCH   1   2
BRANCH   1  15
ATOM     15  C   UNL     1      11.434  12.131  12.556  1.00  0.00     0.000 C 
BRANCH  15  16
ATOM     16  C   UNL     1      10.137  11.989  13.371  1.00  0.00     0.000 C 
BRANCH  16  17
ATOM     17  C   UNL     1      10.393  11.613  14.840  1.00  0.00     0.000 C 
BRANCH  17  18
ATOM     18  C   UNL     1       9.211  11.975  15.755  1.00  0.00    -0.000 C 
BRANCH  18  19
ATOM     19  C   UNL     1       9.583  11.921  17.245  1.00  0.00    -0.000 C 
BRANCH  19  20
ATOM     20  C   UNL     1      11.108  11.904  17.429  1.00  0.00    -0.000 C 
BRANCH  20  21
ATOM     21  C   UNL     1      11.526  11.940  18.908  1.00  0.00    -0.000 C 
BRANCH  21  22
ATOM     22  C   UNL     1      10.353  12.275  19.848  1.00  0.00    -0.000 C 
BRANCH  22  23
ATOM     23  C   UNL     1       9.940  11.083  20.725  1.00  0.00    -0.000 C 
BRANCH  23  24
ATOM     24  C   UNL     1      10.941   9.917  20.642  1.00  0.00    -0.000 C 
BRANCH  24  25
ATOM     25  C   UNL     1      10.249   8.549  20.530  1.00  0.00    -0.003 C 
ATOM     26  C   UNL     1       9.800   8.229  19.104  1.00  0.00     0.004 C 
ENDBRANCH  24  25
ENDBRANCH  23  24
ENDBRANCH  22  23
ENDBRANCH  21  22
ENDBRANCH  20  21
ENDBRANCH  19  20
ENDBRANCH  18  19
ENDBRANCH  17  18
ENDBRANCH  16  17
ENDBRANCH  15  16
ENDBRANCH   1  15
TORSDOF 22
ENDMDL
MODEL 9
REMARK VINA RESULT:    -3.848      2.788      4.014
REMARK INTER + INTRA:         -11.688
REMARK INTER:                  -9.089
REMARK INTRA:                  -2.599
REMARK UNBOUND:                -2.891
REMARK SMILES CCCCCCCCCCCCCCCCCCCCCCCC(=O)[O-]
REMARK SMILES IDX 13 1 14 2 15 3 16 4 17 5 18 6 19 7 20 8 21 9 22 10 23 11
REMARK SMILES IDX 24 12 25 13 26 14 12 15 11 16 10 17 9 18 8 19 7 20 6 21 5 22
REMARK SMILES IDX 4 23 3 24 2 25 1 26
REMARK H PARENT
REMARK Flexibility Score: inf
ROOT
ATOM      1  C   UNL     1      14.762  11.982  14.546  1.00  0.00     0.000 C 
ENDROOT
BRANCH   1   2
ATOM      2  C   UNL     1      16.160  11.347  14.707  1.00  0.00     0.000 C 
BRANCH   2   3
ATOM      3  C   UNL     1      17.300  12.367  14.538  1.00  0.00     0.000 C 
BRANCH   3   4
ATOM      4  C   UNL     1      18.613  11.913  15.195  1.00  0.00     0.000 C 
BRANCH   4   5
ATOM      5  C   UNL     1      18.992  12.725  16.453  1.00  0.00     0.000 C 
BRANCH   5   6
ATOM      6  C   UNL     1      18.756  11.927  17.749  1.00  0.00     0.000 C 
BRANCH   6   7
ATOM      7  C   UNL     1      17.886  12.686  18.762  1.00  0.00     0.000 C 
BRANCH   7   8
ATOM      8  C   UNL     1      16.565  11.958  19.070  1.00  0.00     0.000 C 
BRANCH   8   9
ATOM      9  C   UNL     1      15.471  12.254  18.033  1.00  0.00     0.000 C 
BRANCH   9  10
ATOM     10  C   UNL     1      14.120  11.614  18.399  1.00  0.00     0.006 C 
BRANCH  10  11
ATOM     11  C   UNL     1      12.940  12.334  17.732  1.00  0.00     0.053 C 
BRANCH  11  12
ATOM     12  C   UNL     1      11.687  12.215  18.545  1.00  0.00     0.041 C 
ATOM     13  O   UNL     1      11.284  11.086  18.930  1.00  0.00    -0.550 OA
ATOM     14  O   UNL     1      10.984  13.357  18.910  1.00  0.00    -0.550 OA
ENDBRANCH  11  12
ENDBRANCH  10  11
ENDBRANCH   9  10
ENDBRANCH   8   9
ENDBRANCH   7   8
ENDBRANCH   6   7
ENDBRANCH   5   6
ENDBRANCH   4   5
ENDBRANCH   3   4
ENDBRANCH   2   3
ENDBRANCH   1   2
BRANCH   1  15
ATOM     15  C   UNL     1      13.684  11.010  14.029  1.00  0.00     0.000 C 
BRANCH  15  16
ATOM     16  C   UNL     1      12.601  11.642  13.138  1.00  0.00     0.000 C 
BRANCH  16  17
ATOM     17  C   UNL     1      11.214  11.655  13.803  1.00  0.00     0.000 C 
BRANCH  17  18
ATOM     18  C   UNL     1      10.090  12.011  12.815  1.00  0.00    -0.000 C 
BRANCH  18  19
ATOM     19  C   UNL     1       9.314  13.267  13.237  1.00  0.00    -0.000 C 
BRANCH  19  20
ATOM     20  C   UNL     1       9.367  14.340  12.137  1.00  0.00    -0.000 C 
BRANCH  20  21
ATOM     21  C   UNL     1      10.702  15.103  12.120  1.00  0.00    -0.000 C 
BRANCH  21  22
ATOM     22  C   UNL     1      11.408  15.033  10.754  1.00  0.00    -0.000 C 
BRANCH  22  23
ATOM     23  C   UNL     1      10.436  14.734   9.601  1.00  0.00    -0.000 C 
BRANCH  23  24
ATOM     24  C   UNL     1      10.869  13.517   8.766  1.00  0.00    -0.000 C 
BRANCH  24  25
ATOM     25  C   UNL     1      11.577  12.443   9.608  1.00  0.00    -0.003 C 
ATOM     26  C   UNL     1      12.932  12.035   9.027  1.00  0.00     0.004 C 
ENDBRANCH  24  25
ENDBRANCH  23  24
ENDBRANCH  22  23
ENDBRANCH  21  22
ENDBRANCH  20  21
ENDBRANCH  19  20
ENDBRANCH  18  19
ENDBRANCH  17  18
ENDBRANCH  16  17
ENDBRANCH  15  16
ENDBRANCH   1  15
TORSDOF 22
ENDMDL
