MODEL 1
REMARK VINA RESULT:    -5.357      0.000      0.000
REMARK INTER + INTRA:          -7.998
REMARK INTER:                  -7.235
REMARK INTRA:                  -0.762
REMARK UNBOUND:                -0.762
REMARK SMILES CC(=O)CCC=C(C)CCC=C(C)C
REMARK SMILES IDX 7 1 6 2 8 3 9 4 10 5 11 6 13 7 12 8 14 9 5 10 4 11 2 12 3 13
REMARK SMILES IDX 1 14
REMARK H PARENT
REMARK Flexibility Score: inf
ROOT
ATOM      1  C   UNL     1      -9.541  17.830   9.417  1.00  0.00    -0.077 C 
ATOM      2  C   UNL     1      -9.566  17.568  10.742  1.00  0.00    -0.028 C 
ATOM      3  C   UNL     1      -8.971  16.786   8.489  1.00  0.00     0.039 C 
ENDROOT
BRANCH   1   4
ATOM      4  C   UNL     1     -10.080  19.121   8.824  1.00  0.00     0.034 C 
BRANCH   4   5
ATOM      5  C   UNL     1      -9.577  19.351   7.391  1.00  0.00     0.032 C 
BRANCH   5   6
ATOM      6  C   UNL     1     -10.698  19.744   6.457  1.00  0.00    -0.028 C 
ATOM      7  C   UNL     1     -10.740  17.521   5.302  1.00  0.00     0.039 C 
ATOM      8  C   UNL     1     -11.250  18.924   5.536  1.00  0.00    -0.080 C 
ATOM      9  C   UNL     1     -12.398  19.443   4.710  1.00  0.00     0.039 C 
ENDBRANCH   5   6
ENDBRANCH   4   5
ENDBRANCH   1   4
BRANCH   2  10
ATOM     10  C   UNL     1     -10.077  18.537  11.781  1.00  0.00     0.035 C 
BRANCH  10  11
ATOM     11  C   UNL     1     -11.375  18.032  12.419  1.00  0.00     0.079 C 
BRANCH  11  12
ATOM     12  C   UNL     1     -11.145  16.734  13.143  1.00  0.00     0.130 C 
ATOM     13  O   UNL     1     -10.383  16.699  14.097  1.00  0.00    -0.300 OA
ATOM     14  C   UNL     1     -11.863  15.489  12.718  1.00  0.00     0.087 C 
ENDBRANCH  11  12
ENDBRANCH  10  11
ENDBRANCH   2  10
TORSDOF 6
ENDMDL
MODEL 2
REMARK VINA RESULT:    -5.328      2.761      6.211
REMARK INTER + INTRA:          -7.960
REMARK INTER:                  -7.207
REMARK INTRA:                  -0.753
REMARK UNBOUND:                -0.762
REMARK SMILES CC(=O)CCC=C(C)CCC=C(C)C
REMARK SMILES IDX 7 1 6 2 8 3 9 4 10 5 11 6 13 7 12 8 14 9 5 10 4 11 2 12 3 13
REMARK SMILES IDX 1 14
REMARK H PARENT
REMARK Flexibility Score: inf
ROOT
ATOM      1  C   UNL     1     -10.055  16.554   6.978  1.00  0.00    -0.077 C 
ATOM      2  C   UNL     1     -10.381  16.733   5.679  1.00  0.00    -0.028 C 
ATOM      3  C   UNL     1     -10.173  15.170   7.564  1.00  0.00     0.039 C 
ENDROOT
BRANCH   1   4
ATOM      4  C   UNL     1      -9.558  17.685   7.863  1.00  0.00     0.034 C 
BRANCH   4   5
ATOM      5  C   UNL     1      -9.110  17.181   9.243  1.00  0.00     0.032 C 
BRANCH   5   6
ATOM      6  C   UNL     1      -9.767  17.950  10.365  1.00  0.00    -0.028 C 
ATOM      7  C   UNL     1     -10.436  15.886  11.616  1.00  0.00     0.039 C 
ATOM      8  C   UNL     1     -10.339  17.384  11.450  1.00  0.00    -0.080 C 
ATOM      9  C   UNL     1     -10.909  18.287  12.513  1.00  0.00     0.039 C 
ENDBRANCH   5   6
ENDBRANCH   4   5
ENDBRANCH   1   4
BRANCH   2  10
ATOM     10  C   UNL     1     -10.340  18.071   4.979  1.00  0.00     0.035 C 
BRANCH  10  11
ATOM     11  C   UNL     1     -11.751  18.635   4.781  1.00  0.00     0.079 C 
BRANCH  11  12
ATOM     12  C   UNL     1     -11.992  19.804   5.697  1.00  0.00     0.130 C 
ATOM     13  O   UNL     1     -13.134  20.182   5.910  1.00  0.00    -0.300 OA
ATOM     14  C   UNL     1     -10.843  20.492   6.370  1.00  0.00     0.087 C 
ENDBRANCH  11  12
ENDBRANCH  10  11
ENDBRANCH   2  10
TORSDOF 6
ENDMDL
MODEL 3
REMARK VINA RESULT:    -5.173      2.737      6.097
REMARK INTER + INTRA:          -7.750
REMARK INTER:                  -6.939
REMARK INTRA:                  -0.811
REMARK UNBOUND:                -0.762
REMARK SMILES CC(=O)CCC=C(C)CCC=C(C)C
REMARK SMILES IDX 7 1 6 2 8 3 9 4 10 5 11 6 13 7 12 8 14 9 5 10 4 11 2 12 3 13
REMARK SMILES IDX 1 14
REMARK H PARENT
REMARK Flexibility Score: inf
ROOT
ATOM      1  C   UNL     1      -8.683  17.598   8.098  1.00  0.00    -0.077 C 
ATOM      2  C   UNL     1      -9.075  18.791   7.599  1.00  0.00    -0.028 C 
ATOM      3  C   UNL     1      -7.232  17.209   7.975  1.00  0.00     0.039 C 
ENDROOT
BRANCH   1   4
ATOM      4  C   UNL     1      -9.641  16.644   8.793  1.00  0.00     0.034 C 
BRANCH   4   5
ATOM      5  C   UNL     1      -9.135  16.232  10.183  1.00  0.00     0.032 C 
BRANCH   5   6
ATOM      6  C   UNL     1     -10.202  16.390  11.241  1.00  0.00    -0.028 C 
ATOM      7  C   UNL     1      -9.689  18.810  11.637  1.00  0.00     0.039 C 
ATOM      8  C   UNL     1     -10.482  17.547  11.880  1.00  0.00    -0.080 C 
ATOM      9  C   UNL     1     -11.612  17.561  12.876  1.00  0.00     0.039 C 
ENDBRANCH   5   6
ENDBRANCH   4   5
ENDBRANCH   1   4
BRANCH   2  10
ATOM     10  C   UNL     1     -10.501  19.286   7.626  1.00  0.00     0.035 C 
BRANCH  10  11
ATOM     11  C   UNL     1     -10.783  20.228   6.451  1.00  0.00     0.079 C 
BRANCH  11  12
ATOM     12  C   UNL     1     -11.991  19.774   5.680  1.00  0.00     0.130 C 
ATOM     13  O   UNL     1     -13.089  20.246   5.937  1.00  0.00    -0.300 OA
ATOM     14  C   UNL     1     -11.856  18.764   4.580  1.00  0.00     0.087 C 
ENDBRANCH  11  12
ENDBRANCH  10  11
ENDBRANCH   2  10
TORSDOF 6
ENDMDL
MODEL 4
REMARK VINA RESULT:    -5.114      2.605      6.221
REMARK INTER + INTRA:          -7.671
REMARK INTER:                  -7.019
REMARK INTRA:                  -0.651
REMARK UNBOUND:                -0.762
REMARK SMILES CC(=O)CCC=C(C)CCC=C(C)C
REMARK SMILES IDX 7 1 6 2 8 3 9 4 10 5 11 6 13 7 12 8 14 9 5 10 4 11 2 12 3 13
REMARK SMILES IDX 1 14
REMARK H PARENT
REMARK Flexibility Score: inf
ROOT
ATOM      1  C   UNL     1      -9.522  18.064   8.749  1.00  0.00    -0.077 C 
ATOM      2  C   UNL     1      -9.526  18.759   7.591  1.00  0.00    -0.028 C 
ATOM      3  C   UNL     1      -9.013  16.644   8.732  1.00  0.00     0.039 C 
ENDROOT
BRANCH   1   4
ATOM      4  C   UNL     1      -9.988  18.659  10.067  1.00  0.00     0.034 C 
BRANCH   4   5
ATOM      5  C   UNL     1      -9.583  17.790  11.267  1.00  0.00     0.032 C 
BRANCH   5   6
ATOM      6  C   UNL     1     -10.781  17.148  11.927  1.00  0.00    -0.028 C 
ATOM      7  C   UNL     1      -9.930  14.817  11.589  1.00  0.00     0.039 C 
ATOM      8  C   UNL     1     -10.936  15.818  12.106  1.00  0.00    -0.080 C 
ATOM      9  C   UNL     1     -12.164  15.330  12.830  1.00  0.00     0.039 C 
ENDBRANCH   5   6
ENDBRANCH   4   5
ENDBRANCH   1   4
BRANCH   2  10
ATOM     10  C   UNL     1     -10.039  20.174   7.462  1.00  0.00     0.035 C 
BRANCH  10  11
ATOM     11  C   UNL     1     -10.443  20.487   6.018  1.00  0.00     0.079 C 
BRANCH  11  12
ATOM     12  C   UNL     1     -11.757  19.839   5.678  1.00  0.00     0.130 C 
ATOM     13  O   UNL     1     -12.784  20.232   6.211  1.00  0.00    -0.300 OA
ATOM     14  C   UNL     1     -11.819  18.731   4.670  1.00  0.00     0.087 C 
ENDBRANCH  11  12
ENDBRANCH  10  11
ENDBRANCH   2  10
TORSDOF 6
ENDMDL
MODEL 5
REMARK VINA RESULT:    -5.001      2.733      4.745
REMARK INTER + INTRA:          -7.517
REMARK INTER:                  -6.481
REMARK INTRA:                  -1.036
REMARK UNBOUND:                -0.762
REMARK SMILES CC(=O)CCC=C(C)CCC=C(C)C
REMARK SMILES IDX 7 1 6 2 8 3 9 4 10 5 11 6 13 7 12 8 14 9 5 10 4 11 2 12 3 13
REMARK SMILES IDX 1 14
REMARK H PARENT
REMARK Flexibility Score: inf
ROOT
ATOM      1  C   UNL     1     -11.042  19.317   5.469  1.00  0.00    -0.077 C 
ATOM      2  C   UNL     1     -11.000  20.059   6.598  1.00  0.00    -0.028 C 
ATOM      3  C   UNL     1     -12.272  19.399   4.602  1.00  0.00     0.039 C 
ENDROOT
BRANCH   1   4
ATOM      4  C   UNL     1      -9.894  18.423   5.031  1.00  0.00     0.034 C 
BRANCH   4   5
ATOM      5  C   UNL     1     -10.368  17.001   4.694  1.00  0.00     0.032 C 
BRANCH   5   6
ATOM      6  C   UNL     1     -10.330  16.094   5.901  1.00  0.00    -0.028 C 
ATOM      7  C   UNL     1      -9.695  14.069   4.570  1.00  0.00     0.039 C 
ATOM      8  C   UNL     1     -10.001  14.784   5.865  1.00  0.00    -0.080 C 
ATOM      9  C   UNL     1      -9.956  14.019   7.163  1.00  0.00     0.039 C 
ENDBRANCH   5   6
ENDBRANCH   4   5
ENDBRANCH   1   4
BRANCH   2  10
ATOM     10  C   UNL     1      -9.845  20.045   7.570  1.00  0.00     0.035 C 
BRANCH  10  11
ATOM     11  C   UNL     1     -10.117  19.093   8.740  1.00  0.00     0.079 C 
BRANCH  11  12
ATOM     12  C   UNL     1      -9.067  18.018   8.809  1.00  0.00     0.130 C 
ATOM     13  O   UNL     1      -7.987  18.188   8.264  1.00  0.00    -0.300 OA
ATOM     14  C   UNL     1      -9.327  16.749   9.564  1.00  0.00     0.087 C 
ENDBRANCH  11  12
ENDBRANCH  10  11
ENDBRANCH   2  10
TORSDOF 6
ENDMDL
MODEL 6
REMARK VINA RESULT:    -4.998      1.785      2.317
REMARK INTER + INTRA:          -7.513
REMARK INTER:                  -6.927
REMARK INTRA:                  -0.586
REMARK UNBOUND:                -0.762
REMARK SMILES CC(=O)CCC=C(C)CCC=C(C)C
REMARK SMILES IDX 7 1 6 2 8 3 9 4 10 5 11 6 13 7 12 8 14 9 5 10 4 11 2 12 3 13
REMARK SMILES IDX 1 14
REMARK H PARENT
REMARK Flexibility Score: inf
ROOT
ATOM      1  C   UNL     1      -9.642  17.870   9.077  1.00  0.00    -0.077 C 
ATOM      2  C   UNL     1      -9.603  17.556  10.390  1.00  0.00    -0.028 C 
ATOM      3  C   UNL     1      -9.362  16.784   8.069  1.00  0.00     0.039 C 
ENDROOT
BRANCH   1   4
ATOM      4  C   UNL     1      -9.976  19.265   8.576  1.00  0.00     0.034 C 
BRANCH   4   5
ATOM      5  C   UNL     1      -9.629  19.443   7.090  1.00  0.00     0.032 C 
BRANCH   5   6
ATOM      6  C   UNL     1     -10.848  19.770   6.262  1.00  0.00    -0.028 C 
ATOM      7  C   UNL     1     -10.676  17.689   4.878  1.00  0.00     0.039 C 
ATOM      8  C   UNL     1     -11.347  18.979   5.287  1.00  0.00    -0.080 C 
ATOM      9  C   UNL     1     -12.605  19.417   4.581  1.00  0.00     0.039 C 
ENDBRANCH   5   6
ENDBRANCH   4   5
ENDBRANCH   1   4
BRANCH   2  10
ATOM     10  C   UNL     1      -9.831  18.553  11.500  1.00  0.00     0.035 C 
BRANCH  10  11
ATOM     11  C   UNL     1      -9.129  18.116  12.791  1.00  0.00     0.079 C 
BRANCH  11  12
ATOM     12  C   UNL     1      -8.305  19.239  13.358  1.00  0.00     0.130 C 
ATOM     13  O   UNL     1      -8.261  20.313  12.778  1.00  0.00    -0.300 OA
ATOM     14  C   UNL     1      -7.557  19.057  14.644  1.00  0.00     0.087 C 
ENDBRANCH  11  12
ENDBRANCH  10  11
ENDBRANCH   2  10
TORSDOF 6
ENDMDL
MODEL 7
REMARK VINA RESULT:    -4.935      2.868      4.818
REMARK INTER + INTRA:          -7.428
REMARK INTER:                  -6.004
REMARK INTRA:                  -1.423
REMARK UNBOUND:                -0.762
REMARK SMILES CC(=O)CCC=C(C)CCC=C(C)C
REMARK SMILES IDX 7 1 6 2 8 3 9 4 10 5 11 6 13 7 12 8 14 9 5 10 4 11 2 12 3 13
REMARK SMILES IDX 1 14
REMARK H PARENT
REMARK Flexibility Score: inf
ROOT
ATOM      1  C   UNL     1     -11.323  18.767   5.335  1.00  0.00    -0.077 C 
ATOM      2  C   UNL     1     -10.643  17.632   5.064  1.00  0.00    -0.028 C 
ATOM      3  C   UNL     1     -12.300  19.281   4.308  1.00  0.00     0.039 C 
ENDROOT
BRANCH   1   4
ATOM      4  C   UNL     1     -11.159  19.533   6.637  1.00  0.00     0.034 C 
BRANCH   4   5
ATOM      5  C   UNL     1     -10.319  20.806   6.454  1.00  0.00     0.032 C 
BRANCH   5   6
ATOM      6  C   UNL     1      -8.872  20.586   6.827  1.00  0.00    -0.028 C 
ATOM      7  C   UNL     1      -8.117  20.369   4.448  1.00  0.00     0.039 C 
ATOM      8  C   UNL     1      -7.869  20.418   5.938  1.00  0.00    -0.080 C 
ATOM      9  C   UNL     1      -6.465  20.261   6.462  1.00  0.00     0.039 C 
ENDBRANCH   5   6
ENDBRANCH   4   5
ENDBRANCH   1   4
BRANCH   2  10
ATOM     10  C   UNL     1      -9.613  17.028   5.989  1.00  0.00     0.035 C 
BRANCH  10  11
ATOM     11  C   UNL     1     -10.231  15.937   6.869  1.00  0.00     0.079 C 
BRANCH  11  12
ATOM     12  C   UNL     1      -9.699  16.017   8.274  1.00  0.00     0.130 C 
ATOM     13  O   UNL     1      -9.516  14.992   8.914  1.00  0.00    -0.300 OA
ATOM     14  C   UNL     1      -9.368  17.344   8.886  1.00  0.00     0.087 C 
ENDBRANCH  11  12
ENDBRANCH  10  11
ENDBRANCH   2  10
TORSDOF 6
ENDMDL
MODEL 8
REMARK VINA RESULT:    -4.760      3.249      5.927
REMARK INTER + INTRA:          -7.192
REMARK INTER:                  -5.769
REMARK INTRA:                  -1.424
REMARK UNBOUND:                -0.762
REMARK SMILES CC(=O)CCC=C(C)CCC=C(C)C
REMARK SMILES IDX 7 1 6 2 8 3 9 4 10 5 11 6 13 7 12 8 14 9 5 10 4 11 2 12 3 13
REMARK SMILES IDX 1 14
REMARK H PARENT
REMARK Flexibility Score: inf
ROOT
ATOM      1  C   UNL     1     -10.016  16.504   5.818  1.00  0.00    -0.077 C 
ATOM      2  C   UNL     1     -11.088  17.147   5.305  1.00  0.00    -0.028 C 
ATOM      3  C   UNL     1     -10.203  15.103   6.342  1.00  0.00     0.039 C 
ENDROOT
BRANCH   1   4
ATOM      4  C   UNL     1      -8.631  17.127   5.868  1.00  0.00     0.034 C 
BRANCH   4   5
ATOM      5  C   UNL     1      -8.035  17.092   7.283  1.00  0.00     0.032 C 
BRANCH   5   6
ATOM      6  C   UNL     1      -8.760  18.025   8.223  1.00  0.00    -0.028 C 
ATOM      7  C   UNL     1      -9.493  16.184   9.755  1.00  0.00     0.039 C 
ATOM      8  C   UNL     1      -9.393  17.636   9.352  1.00  0.00    -0.080 C 
ATOM      9  C   UNL     1     -10.029  18.692  10.218  1.00  0.00     0.039 C 
ENDBRANCH   5   6
ENDBRANCH   4   5
ENDBRANCH   1   4
BRANCH   2  10
ATOM     10  C   UNL     1     -11.047  18.562   4.779  1.00  0.00     0.035 C 
BRANCH  10  11
ATOM     11  C   UNL     1     -11.346  19.575   5.888  1.00  0.00     0.079 C 
BRANCH  11  12
ATOM     12  C   UNL     1     -10.203  20.539   6.054  1.00  0.00     0.130 C 
ATOM     13  O   UNL     1      -9.391  20.679   5.152  1.00  0.00    -0.300 OA
ATOM     14  C   UNL     1     -10.067  21.348   7.308  1.00  0.00     0.087 C 
ENDBRANCH  11  12
ENDBRANCH  10  11
ENDBRANCH   2  10
TORSDOF 6
ENDMDL
MODEL 9
REMARK VINA RESULT:    -4.751      4.004      6.477
REMARK INTER + INTRA:          -7.180
REMARK INTER:                  -5.894
REMARK INTRA:                  -1.286
REMARK UNBOUND:                -0.762
REMARK SMILES CC(=O)CCC=C(C)CCC=C(C)C
REMARK SMILES IDX 7 1 6 2 8 3 9 4 10 5 11 6 13 7 12 8 14 9 5 10 4 11 2 12 3 13
REMARK SMILES IDX 1 14
REMARK H PARENT
REMARK Flexibility Score: inf
ROOT
ATOM      1  C   UNL     1     -11.403  19.757   5.704  1.00  0.00    -0.077 C 
ATOM      2  C   UNL     1     -10.705  20.480   6.607  1.00  0.00    -0.028 C 
ATOM      3  C   UNL     1     -12.905  19.888   5.686  1.00  0.00     0.039 C 
ENDROOT
BRANCH   1   4
ATOM      4  C   UNL     1     -10.736  18.835   4.697  1.00  0.00     0.034 C 
BRANCH   4   5
ATOM      5  C   UNL     1     -10.718  17.376   5.175  1.00  0.00     0.032 C 
BRANCH   5   6
ATOM      6  C   UNL     1      -9.318  16.901   5.484  1.00  0.00    -0.028 C 
ATOM      7  C   UNL     1      -9.652  16.996   7.965  1.00  0.00     0.039 C 
ATOM      8  C   UNL     1      -8.836  16.697   6.730  1.00  0.00    -0.080 C 
ATOM      9  C   UNL     1      -7.432  16.170   6.878  1.00  0.00     0.039 C 
ENDBRANCH   5   6
ENDBRANCH   4   5
ENDBRANCH   1   4
BRANCH   2  10
ATOM     10  C   UNL     1      -9.204  20.417   6.755  1.00  0.00     0.035 C 
BRANCH  10  11
ATOM     11  C   UNL     1      -8.510  21.351   5.758  1.00  0.00     0.079 C 
BRANCH  11  12
ATOM     12  C   UNL     1      -7.249  20.726   5.227  1.00  0.00     0.130 C 
ATOM     13  O   UNL     1      -6.199  20.865   5.836  1.00  0.00    -0.300 OA
ATOM     14  C   UNL     1      -7.276  19.912   3.969  1.00  0.00     0.087 C 
ENDBRANCH  11  12
ENDBRANCH  10  11
ENDBRANCH   2  10
TORSDOF 6
ENDMDL
