MODEL 1
REMARK VINA RESULT:    -3.495      0.000      0.000
REMARK INTER + INTRA:          -4.521
REMARK INTER:                  -4.210
REMARK INTRA:                  -0.311
REMARK UNBOUND:                -0.311
REMARK SMILES O=c1c(O)c(-c2ccc(O)c(O)c2)oc2cc(O)cc(O)c12
REMARK SMILES IDX 5 1 3 2 2 3 1 4 22 5 20 6 19 7 17 8 16 9 15 10 14 11 6 12
REMARK SMILES IDX 7 13 8 14 9 15 13 16 11 17 10 18 12 20 4 22 21 24 18 26
REMARK H PARENT 10 19 12 21 4 23 21 25 18 27
REMARK Flexibility Score: inf
ROOT
ATOM      1  C   UNL     1     -23.777 -19.085 -13.096  1.00  0.00     0.180 A 
ATOM      2  C   UNL     1     -22.423 -18.950 -12.749  1.00  0.00     0.208 A 
ATOM      3  C   UNL     1     -21.737 -17.781 -13.118  1.00  0.00     0.238 A 
ATOM      4  O   UNL     1     -20.546 -17.636 -12.740  1.00  0.00    -0.285 OA
ATOM      5  C   UNL     1     -22.399 -16.787 -13.879  1.00  0.00     0.111 A 
ATOM      6  C   UNL     1     -21.789 -15.583 -14.346  1.00  0.00     0.134 A 
ATOM      7  C   UNL     1     -22.572 -14.621 -14.999  1.00  0.00     0.093 A 
ATOM      8  C   UNL     1     -23.923 -14.847 -15.258  1.00  0.00     0.123 A 
ATOM      9  C   UNL     1     -24.516 -16.043 -14.853  1.00  0.00     0.094 A 
ATOM     10  C   UNL     1     -23.771 -17.005 -14.166  1.00  0.00     0.146 A 
ATOM     11  O   UNL     1     -24.380 -18.120 -13.781  1.00  0.00    -0.452 OA
ENDROOT
BRANCH   1  12
ATOM     12  C   UNL     1     -24.571 -20.280 -12.730  1.00  0.00     0.025 A 
ATOM     13  C   UNL     1     -25.141 -20.364 -11.450  1.00  0.00     0.016 A 
ATOM     14  C   UNL     1     -25.877 -21.491 -11.076  1.00  0.00     0.051 A 
ATOM     15  C   UNL     1     -26.040 -22.557 -11.967  1.00  0.00     0.157 A 
ATOM     16  C   UNL     1     -24.719 -21.361 -13.617  1.00  0.00     0.062 A 
ATOM     17  C   UNL     1     -25.455 -22.495 -13.243  1.00  0.00     0.158 A 
BRANCH  15  18
ATOM     18  O   UNL     1     -26.782 -23.667 -11.566  1.00  0.00    -0.504 OA
ATOM     19  H   UNL     1     -27.006 -24.422 -12.202  1.00  0.00     0.293 HD
ENDBRANCH  15  18
BRANCH  17  20
ATOM     20  O   UNL     1     -25.603 -23.559 -14.129  1.00  0.00    -0.504 OA
ATOM     21  H   UNL     1     -25.023 -23.645 -14.957  1.00  0.00     0.293 HD
ENDBRANCH  17  20
ENDBRANCH   1  12
BRANCH   2  22
ATOM     22  O   UNL     1     -21.767 -19.978 -12.065  1.00  0.00    -0.502 OA
ATOM     23  H   UNL     1     -21.017 -20.517 -12.482  1.00  0.00     0.293 HD
ENDBRANCH   2  22
BRANCH   6  24
ATOM     24  O   UNL     1     -20.427 -15.293 -14.220  1.00  0.00    -0.507 OA
ATOM     25  H   UNL     1     -19.692 -15.737 -14.749  1.00  0.00     0.293 HD
ENDBRANCH   6  24
BRANCH   8  26
ATOM     26  O   UNL     1     -24.666 -13.875 -15.924  1.00  0.00    -0.508 OA
ATOM     27  H   UNL     1     -24.221 -13.085 -16.377  1.00  0.00     0.293 HD
ENDBRANCH   8  26
TORSDOF 6
ENDMDL
MODEL 2
REMARK VINA RESULT:    -2.151      1.705      3.177
REMARK INTER + INTRA:          -2.902
REMARK INTER:                  -3.063
REMARK INTRA:                   0.161
REMARK UNBOUND:                -0.311
REMARK SMILES O=c1c(O)c(-c2ccc(O)c(O)c2)oc2cc(O)cc(O)c12
REMARK SMILES IDX 5 1 3 2 2 3 1 4 22 5 20 6 19 7 17 8 16 9 15 10 14 11 6 12
REMARK SMILES IDX 7 13 8 14 9 15 13 16 11 17 10 18 12 20 4 22 21 24 18 26
REMARK H PARENT 10 19 12 21 4 23 21 25 18 27
REMARK Flexibility Score: inf
ROOT
ATOM      1  C   UNL     1     -23.223 -18.692 -13.456  1.00  0.00     0.180 A 
ATOM      2  C   UNL     1     -24.292 -18.137 -14.180  1.00  0.00     0.208 A 
ATOM      3  C   UNL     1     -24.198 -16.808 -14.622  1.00  0.00     0.238 A 
ATOM      4  O   UNL     1     -25.126 -16.342 -15.333  1.00  0.00    -0.285 OA
ATOM      5  C   UNL     1     -23.063 -16.032 -14.286  1.00  0.00     0.111 A 
ATOM      6  C   UNL     1     -22.882 -14.661 -14.642  1.00  0.00     0.134 A 
ATOM      7  C   UNL     1     -21.669 -14.025 -14.347  1.00  0.00     0.093 A 
ATOM      8  C   UNL     1     -20.658 -14.688 -13.654  1.00  0.00     0.123 A 
ATOM      9  C   UNL     1     -20.844 -16.012 -13.253  1.00  0.00     0.094 A 
ATOM     10  C   UNL     1     -22.028 -16.685 -13.567  1.00  0.00     0.146 A 
ATOM     11  O   UNL     1     -22.156 -17.950 -13.185  1.00  0.00    -0.452 OA
ENDROOT
BRANCH   1  12
ATOM     12  C   UNL     1     -23.242 -20.090 -12.970  1.00  0.00     0.025 A 
ATOM     13  C   UNL     1     -22.080 -20.872 -13.074  1.00  0.00     0.016 A 
ATOM     14  C   UNL     1     -22.081 -22.201 -12.640  1.00  0.00     0.051 A 
ATOM     15  C   UNL     1     -23.242 -22.772 -12.111  1.00  0.00     0.157 A 
ATOM     16  C   UNL     1     -24.414 -20.673 -12.456  1.00  0.00     0.062 A 
ATOM     17  C   UNL     1     -24.417 -22.006 -12.023  1.00  0.00     0.158 A 
BRANCH  15  18
ATOM     18  O   UNL     1     -23.211 -24.099 -11.684  1.00  0.00    -0.504 OA
ATOM     19  H   UNL     1     -22.446 -24.721 -11.918  1.00  0.00     0.293 HD
ENDBRANCH  15  18
BRANCH  17  20
ATOM     20  O   UNL     1     -25.582 -22.574 -11.510  1.00  0.00    -0.504 OA
ATOM     21  H   UNL     1     -25.971 -22.277 -10.622  1.00  0.00     0.293 HD
ENDBRANCH  17  20
ENDBRANCH   1  12
BRANCH   2  22
ATOM     22  O   UNL     1     -25.438 -18.896 -14.435  1.00  0.00    -0.502 OA
ATOM     23  H   UNL     1     -26.366 -18.492 -14.451  1.00  0.00     0.293 HD
ENDBRANCH   2  22
BRANCH   6  24
ATOM     24  O   UNL     1     -23.860 -13.875 -15.259  1.00  0.00    -0.507 OA
ATOM     25  H   UNL     1     -24.715 -13.568 -14.819  1.00  0.00     0.293 HD
ENDBRANCH   6  24
BRANCH   8  26
ATOM     26  O   UNL     1     -19.471 -14.019 -13.362  1.00  0.00    -0.508 OA
ATOM     27  H   UNL     1     -18.829 -13.736 -14.093  1.00  0.00     0.293 HD
ENDBRANCH   8  26
TORSDOF 6
ENDMDL
MODEL 3
REMARK VINA RESULT:    -1.101      1.317      1.781
REMARK INTER + INTRA:          -1.638
REMARK INTER:                  -1.740
REMARK INTRA:                   0.102
REMARK UNBOUND:                -0.311
REMARK SMILES O=c1c(O)c(-c2ccc(O)c(O)c2)oc2cc(O)cc(O)c12
REMARK SMILES IDX 5 1 3 2 2 3 1 4 22 5 20 6 19 7 17 8 16 9 15 10 14 11 6 12
REMARK SMILES IDX 7 13 8 14 9 15 13 16 11 17 10 18 12 20 4 22 21 24 18 26
REMARK H PARENT 10 19 12 21 4 23 21 25 18 27
REMARK Flexibility Score: inf
ROOT
ATOM      1  C   UNL     1     -22.831 -18.610 -13.180  1.00  0.00     0.180 A 
ATOM      2  C   UNL     1     -21.531 -18.116 -12.980  1.00  0.00     0.208 A 
ATOM      3  C   UNL     1     -21.223 -16.815 -13.410  1.00  0.00     0.238 A 
ATOM      4  O   UNL     1     -20.079 -16.353 -13.161  1.00  0.00    -0.285 OA
ATOM      5  C   UNL     1     -22.201 -16.046 -14.084  1.00  0.00     0.111 A 
ATOM      6  C   UNL     1     -21.985 -14.733 -14.603  1.00  0.00     0.134 A 
ATOM      7  C   UNL     1     -23.059 -14.024 -15.158  1.00  0.00     0.093 A 
ATOM      8  C   UNL     1     -24.322 -14.603 -15.271  1.00  0.00     0.123 A 
ATOM      9  C   UNL     1     -24.532 -15.906 -14.817  1.00  0.00     0.094 A 
ATOM     10  C   UNL     1     -23.490 -16.623 -14.224  1.00  0.00     0.146 A 
ATOM     11  O   UNL     1     -23.737 -17.852 -13.786  1.00  0.00    -0.452 OA
ENDROOT
BRANCH   1  12
ATOM     12  C   UNL     1     -23.236 -19.964 -12.741  1.00  0.00     0.025 A 
ATOM     13  C   UNL     1     -22.403 -21.059 -13.023  1.00  0.00     0.016 A 
ATOM     14  C   UNL     1     -22.776 -22.349 -12.636  1.00  0.00     0.051 A 
ATOM     15  C   UNL     1     -23.990 -22.568 -11.978  1.00  0.00     0.157 A 
ATOM     16  C   UNL     1     -24.466 -20.190 -12.097  1.00  0.00     0.062 A 
ATOM     17  C   UNL     1     -24.843 -21.484 -11.711  1.00  0.00     0.158 A 
BRANCH  15  18
ATOM     18  O   UNL     1     -24.333 -23.866 -11.603  1.00  0.00    -0.504 OA
ATOM     19  H   UNL     1     -25.294 -24.186 -11.589  1.00  0.00     0.293 HD
ENDBRANCH  15  18
BRANCH  17  20
ATOM     20  O   UNL     1     -26.061 -21.697 -11.068  1.00  0.00    -0.504 OA
ATOM     21  H   UNL     1     -26.692 -22.434 -11.359  1.00  0.00     0.293 HD
ENDBRANCH  17  20
ENDBRANCH   1  12
BRANCH   2  22
ATOM     22  O   UNL     1     -20.557 -18.921 -12.381  1.00  0.00    -0.502 OA
ATOM     23  H   UNL     1     -19.573 -18.679 -12.387  1.00  0.00     0.293 HD
ENDBRANCH   2  22
BRANCH   6  24
ATOM     24  O   UNL     1     -20.743 -14.091 -14.623  1.00  0.00    -0.507 OA
ATOM     25  H   UNL     1     -20.269 -13.776 -15.457  1.00  0.00     0.293 HD
ENDBRANCH   6  24
BRANCH   8  26
ATOM     26  O   UNL     1     -25.363 -13.875 -15.844  1.00  0.00    -0.508 OA
ATOM     27  H   UNL     1     -26.207 -13.660 -15.327  1.00  0.00     0.293 HD
ENDBRANCH   8  26
TORSDOF 6
ENDMDL
MODEL 4
REMARK VINA RESULT:    -0.797      1.475      6.929
REMARK INTER + INTRA:          -1.272
REMARK INTER:                  -1.035
REMARK INTRA:                  -0.237
REMARK UNBOUND:                -0.311
REMARK SMILES O=c1c(O)c(-c2ccc(O)c(O)c2)oc2cc(O)cc(O)c12
REMARK SMILES IDX 5 1 3 2 2 3 1 4 22 5 20 6 19 7 17 8 16 9 15 10 14 11 6 12
REMARK SMILES IDX 7 13 8 14 9 15 13 16 11 17 10 18 12 20 4 22 21 24 18 26
REMARK H PARENT 10 19 12 21 4 23 21 25 18 27
REMARK Flexibility Score: inf
ROOT
ATOM      1  C   UNL     1     -23.665 -19.103 -13.071  1.00  0.00     0.180 A 
ATOM      2  C   UNL     1     -24.127 -19.361 -11.771  1.00  0.00     0.208 A 
ATOM      3  C   UNL     1     -24.802 -20.566 -11.514  1.00  0.00     0.238 A 
ATOM      4  O   UNL     1     -25.147 -20.824 -10.332  1.00  0.00    -0.285 OA
ATOM      5  C   UNL     1     -25.056 -21.470 -12.573  1.00  0.00     0.111 A 
ATOM      6  C   UNL     1     -25.770 -22.700 -12.437  1.00  0.00     0.134 A 
ATOM      7  C   UNL     1     -25.868 -23.567 -13.533  1.00  0.00     0.093 A 
ATOM      8  C   UNL     1     -25.335 -23.221 -14.774  1.00  0.00     0.123 A 
ATOM      9  C   UNL     1     -24.682 -21.999 -14.933  1.00  0.00     0.094 A 
ATOM     10  C   UNL     1     -24.535 -21.130 -13.848  1.00  0.00     0.146 A 
ATOM     11  O   UNL     1     -23.888 -19.986 -14.037  1.00  0.00    -0.452 OA
ENDROOT
BRANCH   1  12
ATOM     12  C   UNL     1     -22.932 -17.864 -13.417  1.00  0.00     0.025 A 
ATOM     13  C   UNL     1     -21.614 -17.692 -12.964  1.00  0.00     0.016 A 
ATOM     14  C   UNL     1     -20.911 -16.521 -13.261  1.00  0.00     0.051 A 
ATOM     15  C   UNL     1     -21.517 -15.500 -13.999  1.00  0.00     0.157 A 
ATOM     16  C   UNL     1     -23.546 -16.827 -14.142  1.00  0.00     0.062 A 
ATOM     17  C   UNL     1     -22.843 -15.650 -14.439  1.00  0.00     0.158 A 
BRANCH  15  18
ATOM     18  O   UNL     1     -20.789 -14.345 -14.282  1.00  0.00    -0.504 OA
ATOM     19  H   UNL     1     -21.235 -13.489 -14.589  1.00  0.00     0.293 HD
ENDBRANCH  15  18
BRANCH  17  20
ATOM     20  O   UNL     1     -23.456 -14.630 -15.163  1.00  0.00    -0.504 OA
ATOM     21  H   UNL     1     -23.288 -13.653 -14.951  1.00  0.00     0.293 HD
ENDBRANCH  17  20
ENDBRANCH   1  12
BRANCH   2  22
ATOM     22  O   UNL     1     -23.934 -18.420 -10.755  1.00  0.00    -0.502 OA
ATOM     23  H   UNL     1     -23.018 -18.204 -10.380  1.00  0.00     0.293 HD
ENDBRANCH   2  22
BRANCH   6  24
ATOM     24  O   UNL     1     -26.419 -23.104 -11.266  1.00  0.00    -0.507 OA
ATOM     25  H   UNL     1     -26.917 -22.489 -10.640  1.00  0.00     0.293 HD
ENDBRANCH   6  24
BRANCH   8  26
ATOM     26  O   UNL     1     -25.466 -24.101 -15.847  1.00  0.00    -0.508 OA
ATOM     27  H   UNL     1     -26.345 -24.564 -16.048  1.00  0.00     0.293 HD
ENDBRANCH   8  26
TORSDOF 6
ENDMDL
