MODEL 1
REMARK VINA RESULT:    -4.301      0.000      0.000
REMARK INTER + INTRA:          -6.840
REMARK INTER:                  -6.313
REMARK INTRA:                  -0.527
REMARK UNBOUND:                -0.527
REMARK SMILES O=C([O-])CCCCCCCC(=O)[O-]
REMARK SMILES IDX 7 1 6 2 5 3 4 4 2 5 1 6 3 7 8 8 9 9 10 10 11 11 12 12 13 13
REMARK H PARENT
REMARK Flexibility Score: inf
ROOT
ATOM      1  C   UNL     1     -10.802   4.840   7.498  1.00  0.00     0.000 C 
ENDROOT
BRANCH   1   2
ATOM      2  C   UNL     1      -9.879   5.293   6.354  1.00  0.00     0.000 C 
BRANCH   2   3
ATOM      3  C   UNL     1     -10.402   6.549   5.631  1.00  0.00     0.006 C 
BRANCH   3   4
ATOM      4  C   UNL     1      -9.324   7.338   4.870  1.00  0.00     0.053 C 
BRANCH   4   5
ATOM      5  C   UNL     1      -9.151   8.722   5.414  1.00  0.00     0.041 C 
ATOM      6  O   UNL     1      -9.991   9.620   5.141  1.00  0.00    -0.550 OA
ATOM      7  O   UNL     1      -8.044   9.031   6.194  1.00  0.00    -0.550 OA
ENDBRANCH   4   5
ENDBRANCH   3   4
ENDBRANCH   2   3
ENDBRANCH   1   2
BRANCH   1   8
ATOM      8  C   UNL     1     -11.280   3.384   7.343  1.00  0.00     0.000 C 
BRANCH   8   9
ATOM      9  C   UNL     1     -12.674   3.216   6.711  1.00  0.00     0.006 C 
BRANCH   9  10
ATOM     10  C   UNL     1     -12.652   3.312   5.180  1.00  0.00     0.053 C 
BRANCH  10  11
ATOM     11  C   UNL     1     -13.470   4.477   4.719  1.00  0.00     0.041 C 
ATOM     12  O   UNL     1     -13.863   4.543   3.526  1.00  0.00    -0.550 OA
ATOM     13  O   UNL     1     -13.756   5.516   5.596  1.00  0.00    -0.550 OA
ENDBRANCH  10  11
ENDBRANCH   9  10
ENDBRANCH   8   9
ENDBRANCH   1   8
TORSDOF 8
ENDMDL
MODEL 2
REMARK VINA RESULT:    -4.282      1.677      2.715
REMARK INTER + INTRA:          -6.812
REMARK INTER:                  -6.549
REMARK INTRA:                  -0.263
REMARK UNBOUND:                -0.527
REMARK SMILES O=C([O-])CCCCCCCC(=O)[O-]
REMARK SMILES IDX 7 1 6 2 5 3 4 4 2 5 1 6 3 7 8 8 9 9 10 10 11 11 12 12 13 13
REMARK H PARENT
REMARK Flexibility Score: inf
ROOT
ATOM      1  C   UNL     1     -10.491   6.535   5.581  1.00  0.00     0.000 C 
ENDROOT
BRANCH   1   2
ATOM      2  C   UNL     1      -9.344   7.339   4.948  1.00  0.00     0.000 C 
BRANCH   2   3
ATOM      3  C   UNL     1      -8.872   8.505   5.838  1.00  0.00     0.006 C 
BRANCH   3   4
ATOM      4  C   UNL     1      -7.863   9.449   5.166  1.00  0.00     0.053 C 
BRANCH   4   5
ATOM      5  C   UNL     1      -7.072  10.233   6.167  1.00  0.00     0.041 C 
ATOM      6  O   UNL     1      -5.879  10.553   5.922  1.00  0.00    -0.550 OA
ATOM      7  O   UNL     1      -7.641  10.582   7.386  1.00  0.00    -0.550 OA
ENDBRANCH   4   5
ENDBRANCH   3   4
ENDBRANCH   2   3
ENDBRANCH   1   2
BRANCH   1   8
ATOM      8  C   UNL     1     -10.042   5.155   6.099  1.00  0.00     0.000 C 
BRANCH   8   9
ATOM      9  C   UNL     1     -10.735   4.683   7.391  1.00  0.00     0.006 C 
BRANCH   9  10
ATOM     10  C   UNL     1     -11.199   3.223   7.322  1.00  0.00     0.053 C 
BRANCH  10  11
ATOM     11  C   UNL     1     -12.249   3.058   6.269  1.00  0.00     0.041 C 
ATOM     12  O   UNL     1     -12.025   2.346   5.256  1.00  0.00    -0.550 OA
ATOM     13  O   UNL     1     -13.458   3.733   6.382  1.00  0.00    -0.550 OA
ENDBRANCH  10  11
ENDBRANCH   9  10
ENDBRANCH   8   9
ENDBRANCH   1   8
TORSDOF 8
ENDMDL
MODEL 3
REMARK VINA RESULT:    -4.277      1.033      5.860
REMARK INTER + INTRA:          -6.805
REMARK INTER:                  -6.413
REMARK INTRA:                  -0.392
REMARK UNBOUND:                -0.527
REMARK SMILES O=C([O-])CCCCCCCC(=O)[O-]
REMARK SMILES IDX 7 1 6 2 5 3 4 4 2 5 1 6 3 7 8 8 9 9 10 10 11 11 12 12 13 13
REMARK H PARENT
REMARK Flexibility Score: inf
ROOT
ATOM      1  C   UNL     1      -9.784   5.379   6.439  1.00  0.00     0.000 C 
ENDROOT
BRANCH   1   2
ATOM      2  C   UNL     1     -10.834   4.790   7.396  1.00  0.00     0.000 C 
BRANCH   2   3
ATOM      3  C   UNL     1     -11.284   3.375   6.987  1.00  0.00     0.006 C 
BRANCH   3   4
ATOM      4  C   UNL     1     -12.685   3.311   6.357  1.00  0.00     0.053 C 
BRANCH   4   5
ATOM      5  C   UNL     1     -12.668   3.683   4.907  1.00  0.00     0.041 C 
ATOM      6  O   UNL     1     -11.737   3.279   4.160  1.00  0.00    -0.550 OA
ATOM      7  O   UNL     1     -13.661   4.502   4.385  1.00  0.00    -0.550 OA
ENDBRANCH   4   5
ENDBRANCH   3   4
ENDBRANCH   2   3
ENDBRANCH   1   2
BRANCH   1   8
ATOM      8  C   UNL     1     -10.365   6.450   5.496  1.00  0.00     0.000 C 
BRANCH   8   9
ATOM      9  C   UNL     1      -9.335   7.426   4.900  1.00  0.00     0.006 C 
BRANCH   9  10
ATOM     10  C   UNL     1      -9.645   8.894   5.222  1.00  0.00     0.053 C 
BRANCH  10  11
ATOM     11  C   UNL     1      -8.406   9.603   5.669  1.00  0.00     0.041 C 
ATOM     12  O   UNL     1      -7.600  10.068   4.822  1.00  0.00    -0.550 OA
ATOM     13  O   UNL     1      -8.116   9.707   7.024  1.00  0.00    -0.550 OA
ENDBRANCH  10  11
ENDBRANCH   9  10
ENDBRANCH   8   9
ENDBRANCH   1   8
TORSDOF 8
ENDMDL
MODEL 4
REMARK VINA RESULT:    -4.165      1.671      6.603
REMARK INTER + INTRA:          -6.640
REMARK INTER:                  -6.355
REMARK INTRA:                  -0.286
REMARK UNBOUND:                -0.527
REMARK SMILES O=C([O-])CCCCCCCC(=O)[O-]
REMARK SMILES IDX 7 1 6 2 5 3 4 4 2 5 1 6 3 7 8 8 9 9 10 10 11 11 12 12 13 13
REMARK H PARENT
REMARK Flexibility Score: inf
ROOT
ATOM      1  C   UNL     1     -10.460   6.545   5.556  1.00  0.00     0.000 C 
ENDROOT
BRANCH   1   2
ATOM      2  C   UNL     1      -9.893   5.275   6.213  1.00  0.00     0.000 C 
BRANCH   2   3
ATOM      3  C   UNL     1     -10.711   4.826   7.439  1.00  0.00     0.006 C 
BRANCH   3   4
ATOM      4  C   UNL     1     -11.234   3.382   7.359  1.00  0.00     0.053 C 
BRANCH   4   5
ATOM      5  C   UNL     1     -12.232   3.206   6.257  1.00  0.00     0.041 C 
ATOM      6  O   UNL     1     -11.963   2.469   5.271  1.00  0.00    -0.550 OA
ATOM      7  O   UNL     1     -13.446   3.880   6.300  1.00  0.00    -0.550 OA
ENDBRANCH   4   5
ENDBRANCH   3   4
ENDBRANCH   2   3
ENDBRANCH   1   2
BRANCH   1   8
ATOM      8  C   UNL     1      -9.372   7.420   4.904  1.00  0.00     0.000 C 
BRANCH   8   9
ATOM      9  C   UNL     1      -8.639   8.375   5.863  1.00  0.00     0.006 C 
BRANCH   9  10
ATOM     10  C   UNL     1      -8.287   9.720   5.214  1.00  0.00     0.053 C 
BRANCH  10  11
ATOM     11  C   UNL     1      -7.310  10.470   6.065  1.00  0.00     0.041 C 
ATOM     12  O   UNL     1      -6.082  10.209   6.000  1.00  0.00    -0.550 OA
ATOM     13  O   UNL     1      -7.764  11.424   6.968  1.00  0.00    -0.550 OA
ENDBRANCH  10  11
ENDBRANCH   9  10
ENDBRANCH   8   9
ENDBRANCH   1   8
TORSDOF 8
ENDMDL
MODEL 5
REMARK VINA RESULT:    -4.149      1.819      6.717
REMARK INTER + INTRA:          -6.616
REMARK INTER:                  -6.322
REMARK INTRA:                  -0.295
REMARK UNBOUND:                -0.527
REMARK SMILES O=C([O-])CCCCCCCC(=O)[O-]
REMARK SMILES IDX 7 1 6 2 5 3 4 4 2 5 1 6 3 7 8 8 9 9 10 10 11 11 12 12 13 13
REMARK H PARENT
REMARK Flexibility Score: inf
ROOT
ATOM      1  C   UNL     1      -9.529   6.497   4.900  1.00  0.00     0.000 C 
ENDROOT
BRANCH   1   2
ATOM      2  C   UNL     1      -9.733   5.926   6.314  1.00  0.00     0.000 C 
BRANCH   2   3
ATOM      3  C   UNL     1     -10.626   4.672   6.325  1.00  0.00     0.006 C 
BRANCH   3   4
ATOM      4  C   UNL     1     -12.049   4.900   5.788  1.00  0.00     0.053 C 
BRANCH   4   5
ATOM      5  C   UNL     1     -12.318   4.102   4.551  1.00  0.00     0.041 C 
ATOM      6  O   UNL     1     -11.491   3.236   4.162  1.00  0.00    -0.550 OA
ATOM      7  O   UNL     1     -13.468   4.337   3.806  1.00  0.00    -0.550 OA
ENDBRANCH   4   5
ENDBRANCH   3   4
ENDBRANCH   2   3
ENDBRANCH   1   2
BRANCH   1   8
ATOM      8  C   UNL     1      -9.483   8.037   4.875  1.00  0.00     0.000 C 
BRANCH   8   9
ATOM      9  C   UNL     1      -8.438   8.676   5.808  1.00  0.00     0.006 C 
BRANCH   9  10
ATOM     10  C   UNL     1      -7.906  10.016   5.282  1.00  0.00     0.053 C 
BRANCH  10  11
ATOM     11  C   UNL     1      -6.913  10.595   6.240  1.00  0.00     0.041 C 
ATOM     12  O   UNL     1      -7.305  11.173   7.287  1.00  0.00    -0.550 OA
ATOM     13  O   UNL     1      -5.555  10.539   5.952  1.00  0.00    -0.550 OA
ENDBRANCH  10  11
ENDBRANCH   9  10
ENDBRANCH   8   9
ENDBRANCH   1   8
TORSDOF 8
ENDMDL
MODEL 6
REMARK VINA RESULT:    -4.070      2.484      6.582
REMARK INTER + INTRA:          -6.501
REMARK INTER:                  -6.233
REMARK INTRA:                  -0.267
REMARK UNBOUND:                -0.527
REMARK SMILES O=C([O-])CCCCCCCC(=O)[O-]
REMARK SMILES IDX 7 1 6 2 5 3 4 4 2 5 1 6 3 7 8 8 9 9 10 10 11 11 12 12 13 13
REMARK H PARENT
REMARK Flexibility Score: inf
ROOT
ATOM      1  C   UNL     1      -9.722   6.637   5.722  1.00  0.00     0.000 C 
ENDROOT
BRANCH   1   2
ATOM      2  C   UNL     1     -10.013   5.364   4.909  1.00  0.00     0.000 C 
BRANCH   2   3
ATOM      3  C   UNL     1     -11.198   4.557   5.474  1.00  0.00     0.006 C 
BRANCH   3   4
ATOM      4  C   UNL     1     -11.764   5.101   6.796  1.00  0.00     0.053 C 
BRANCH   4   5
ATOM      5  C   UNL     1     -11.377   4.252   7.967  1.00  0.00     0.041 C 
ATOM      6  O   UNL     1     -11.291   3.002   7.841  1.00  0.00    -0.550 OA
ATOM      7  O   UNL     1     -11.144   4.836   9.205  1.00  0.00    -0.550 OA
ENDBRANCH   4   5
ENDBRANCH   3   4
ENDBRANCH   2   3
ENDBRANCH   1   2
BRANCH   1   8
ATOM      8  C   UNL     1      -9.279   7.822   4.841  1.00  0.00     0.000 C 
BRANCH   8   9
ATOM      9  C   UNL     1      -8.967   9.123   5.604  1.00  0.00     0.006 C 
BRANCH   9  10
ATOM     10  C   UNL     1      -7.723   9.846   5.069  1.00  0.00     0.053 C 
BRANCH  10  11
ATOM     11  C   UNL     1      -6.926  10.418   6.199  1.00  0.00     0.041 C 
ATOM     12  O   UNL     1      -7.472  10.638   7.311  1.00  0.00    -0.550 OA
ATOM     13  O   UNL     1      -5.592  10.754   6.008  1.00  0.00    -0.550 OA
ENDBRANCH  10  11
ENDBRANCH   9  10
ENDBRANCH   8   9
ENDBRANCH   1   8
TORSDOF 8
ENDMDL
MODEL 7
REMARK VINA RESULT:    -4.042      2.679      3.834
REMARK INTER + INTRA:          -6.460
REMARK INTER:                  -6.201
REMARK INTRA:                  -0.258
REMARK UNBOUND:                -0.527
REMARK SMILES O=C([O-])CCCCCCCC(=O)[O-]
REMARK SMILES IDX 7 1 6 2 5 3 4 4 2 5 1 6 3 7 8 8 9 9 10 10 11 11 12 12 13 13
REMARK H PARENT
REMARK Flexibility Score: inf
ROOT
ATOM      1  C   UNL     1      -9.357   7.447   5.053  1.00  0.00     0.000 C 
ENDROOT
BRANCH   1   2
ATOM      2  C   UNL     1     -10.074   8.808   5.032  1.00  0.00     0.000 C 
BRANCH   2   3
ATOM      3  C   UNL     1      -9.159   9.968   5.467  1.00  0.00     0.006 C 
BRANCH   3   4
ATOM      4  C   UNL     1      -7.664   9.734   5.196  1.00  0.00     0.053 C 
BRANCH   4   5
ATOM      5  C   UNL     1      -6.793  10.497   6.145  1.00  0.00     0.041 C 
ATOM      6  O   UNL     1      -5.571  10.664   5.889  1.00  0.00    -0.550 OA
ATOM      7  O   UNL     1      -7.322  10.998   7.328  1.00  0.00    -0.550 OA
ENDBRANCH   4   5
ENDBRANCH   3   4
ENDBRANCH   2   3
ENDBRANCH   1   2
BRANCH   1   8
ATOM      8  C   UNL     1     -10.316   6.267   5.305  1.00  0.00     0.000 C 
BRANCH   8   9
ATOM      9  C   UNL     1      -9.884   5.298   6.420  1.00  0.00     0.006 C 
BRANCH   9  10
ATOM     10  C   UNL     1     -10.896   4.170   6.659  1.00  0.00     0.053 C 
BRANCH  10  11
ATOM     11  C   UNL     1     -11.275   4.106   8.105  1.00  0.00     0.041 C 
ATOM     12  O   UNL     1     -10.908   5.012   8.897  1.00  0.00    -0.550 OA
ATOM     13  O   UNL     1     -11.991   3.018   8.588  1.00  0.00    -0.550 OA
ENDBRANCH  10  11
ENDBRANCH   9  10
ENDBRANCH   8   9
ENDBRANCH   1   8
TORSDOF 8
ENDMDL
MODEL 8
REMARK VINA RESULT:    -3.968      2.289      2.938
REMARK INTER + INTRA:          -6.350
REMARK INTER:                  -5.899
REMARK INTRA:                  -0.451
REMARK UNBOUND:                -0.527
REMARK SMILES O=C([O-])CCCCCCCC(=O)[O-]
REMARK SMILES IDX 7 1 6 2 5 3 4 4 2 5 1 6 3 7 8 8 9 9 10 10 11 11 12 12 13 13
REMARK H PARENT
REMARK Flexibility Score: inf
ROOT
ATOM      1  C   UNL     1     -10.504   4.913   4.857  1.00  0.00     0.000 C 
ENDROOT
BRANCH   1   2
ATOM      2  C   UNL     1      -9.778   5.231   6.174  1.00  0.00     0.000 C 
BRANCH   2   3
ATOM      3  C   UNL     1      -9.338   6.704   6.270  1.00  0.00     0.006 C 
BRANCH   3   4
ATOM      4  C   UNL     1      -9.559   7.518   4.985  1.00  0.00     0.053 C 
BRANCH   4   5
ATOM      5  C   UNL     1      -9.064   8.924   5.117  1.00  0.00     0.041 C 
ATOM      6  O   UNL     1      -7.834   9.152   5.266  1.00  0.00    -0.550 OA
ATOM      7  O   UNL     1      -9.962   9.984   5.108  1.00  0.00    -0.550 OA
ENDBRANCH   4   5
ENDBRANCH   3   4
ENDBRANCH   2   3
ENDBRANCH   1   2
BRANCH   1   8
ATOM      8  C   UNL     1     -11.943   4.404   5.072  1.00  0.00     0.000 C 
BRANCH   8   9
ATOM      9  C   UNL     1     -12.442   4.449   6.528  1.00  0.00     0.006 C 
BRANCH   9  10
ATOM     10  C   UNL     1     -12.559   3.058   7.164  1.00  0.00     0.053 C 
BRANCH  10  11
ATOM     11  C   UNL     1     -12.038   3.080   8.566  1.00  0.00     0.041 C 
ATOM     12  O   UNL     1     -12.242   2.104   9.334  1.00  0.00    -0.550 OA
ATOM     13  O   UNL     1     -11.370   4.202   9.042  1.00  0.00    -0.550 OA
ENDBRANCH  10  11
ENDBRANCH   9  10
ENDBRANCH   8   9
ENDBRANCH   1   8
TORSDOF 8
ENDMDL
MODEL 9
REMARK VINA RESULT:    -3.940      2.347      5.890
REMARK INTER + INTRA:          -6.309
REMARK INTER:                  -5.913
REMARK INTRA:                  -0.396
REMARK UNBOUND:                -0.527
REMARK SMILES O=C([O-])CCCCCCCC(=O)[O-]
REMARK SMILES IDX 7 1 6 2 5 3 4 4 2 5 1 6 3 7 8 8 9 9 10 10 11 11 12 12 13 13
REMARK H PARENT
REMARK Flexibility Score: inf
ROOT
ATOM      1  C   UNL     1     -11.788   5.925   5.648  1.00  0.00     0.000 C 
ENDROOT
BRANCH   1   2
ATOM      2  C   UNL     1     -12.607   4.680   5.269  1.00  0.00     0.000 C 
BRANCH   2   3
ATOM      3  C   UNL     1     -13.091   3.890   6.500  1.00  0.00     0.006 C 
BRANCH   3   4
ATOM      4  C   UNL     1     -12.005   3.035   7.174  1.00  0.00     0.053 C 
BRANCH   4   5
ATOM      5  C   UNL     1     -11.717   3.489   8.571  1.00  0.00     0.041 C 
ATOM      6  O   UNL     1     -12.127   2.815   9.553  1.00  0.00    -0.550 OA
ATOM      7  O   UNL     1     -11.025   4.674   8.791  1.00  0.00    -0.550 OA
ENDBRANCH   4   5
ENDBRANCH   3   4
ENDBRANCH   2   3
ENDBRANCH   1   2
BRANCH   1   8
ATOM      8  C   UNL     1     -10.293   5.788   5.303  1.00  0.00     0.000 C 
BRANCH   8   9
ATOM      9  C   UNL     1      -9.386   6.896   5.869  1.00  0.00     0.006 C 
BRANCH   9  10
ATOM     10  C   UNL     1      -9.180   8.059   4.890  1.00  0.00     0.053 C 
BRANCH  10  11
ATOM     11  C   UNL     1      -8.324   9.118   5.510  1.00  0.00     0.041 C 
ATOM     12  O   UNL     1      -8.166   9.156   6.757  1.00  0.00    -0.550 OA
ATOM     13  O   UNL     1      -7.739  10.094   4.712  1.00  0.00    -0.550 OA
ENDBRANCH  10  11
ENDBRANCH   9  10
ENDBRANCH   8   9
ENDBRANCH   1   8
TORSDOF 8
ENDMDL
