MODEL 1
REMARK VINA RESULT:    -3.763      0.000      0.000
REMARK INTER + INTRA:          -4.504
REMARK INTER:                  -4.423
REMARK INTRA:                  -0.081
REMARK UNBOUND:                -0.081
REMARK SMILES O=C([O-])CCC(=O)[O-]
REMARK SMILES IDX 4 1 2 2 1 3 3 4 5 5 6 6 7 7 8 8
REMARK H PARENT
REMARK Flexibility Score: inf
ROOT
ATOM      1  C   UNL     1      14.229  37.580  25.182  1.00  0.00     0.059 C 
ENDROOT
BRANCH   1   2
ATOM      2  C   UNL     1      14.349  39.048  24.912  1.00  0.00     0.042 C 
ATOM      3  O   UNL     1      13.338  39.795  24.995  1.00  0.00    -0.550 OA
ATOM      4  O   UNL     1      15.587  39.599  24.606  1.00  0.00    -0.550 OA
ENDBRANCH   1   2
BRANCH   1   5
ATOM      5  C   UNL     1      13.117  37.283  26.193  1.00  0.00     0.059 C 
BRANCH   5   6
ATOM      6  C   UNL     1      13.670  36.770  27.487  1.00  0.00     0.042 C 
ATOM      7  O   UNL     1      14.890  36.919  27.759  1.00  0.00    -0.550 OA
ATOM      8  O   UNL     1      12.829  36.162  28.411  1.00  0.00    -0.550 OA
ENDBRANCH   5   6
ENDBRANCH   1   5
TORSDOF 3
ENDMDL
MODEL 2
REMARK VINA RESULT:    -3.757      0.115      3.919
REMARK INTER + INTRA:          -4.497
REMARK INTER:                  -4.417
REMARK INTRA:                  -0.080
REMARK UNBOUND:                -0.081
REMARK SMILES O=C([O-])CCC(=O)[O-]
REMARK SMILES IDX 4 1 2 2 1 3 3 4 5 5 6 6 7 7 8 8
REMARK H PARENT
REMARK Flexibility Score: inf
ROOT
ATOM      1  C   UNL     1      13.112  37.236  26.186  1.00  0.00     0.059 C 
ENDROOT
BRANCH   1   2
ATOM      2  C   UNL     1      13.698  36.767  27.483  1.00  0.00     0.042 C 
ATOM      3  O   UNL     1      14.917  36.957  27.735  1.00  0.00    -0.550 OA
ATOM      4  O   UNL     1      12.887  36.155  28.430  1.00  0.00    -0.550 OA
ENDBRANCH   1   2
BRANCH   1   5
ATOM      5  C   UNL     1      14.203  37.585  25.169  1.00  0.00     0.059 C 
BRANCH   5   6
ATOM      6  C   UNL     1      14.307  39.064  24.957  1.00  0.00     0.042 C 
ATOM      7  O   UNL     1      15.391  39.576  24.573  1.00  0.00    -0.550 OA
ATOM      8  O   UNL     1      13.193  39.874  25.148  1.00  0.00    -0.550 OA
ENDBRANCH   5   6
ENDBRANCH   1   5
TORSDOF 3
ENDMDL
MODEL 3
REMARK VINA RESULT:    -3.686      0.919      3.945
REMARK INTER + INTRA:          -4.414
REMARK INTER:                  -4.308
REMARK INTRA:                  -0.106
REMARK UNBOUND:                -0.081
REMARK SMILES O=C([O-])CCC(=O)[O-]
REMARK SMILES IDX 4 1 2 2 1 3 3 4 5 5 6 6 7 7 8 8
REMARK H PARENT
REMARK Flexibility Score: inf
ROOT
ATOM      1  C   UNL     1      14.448  37.115  26.453  1.00  0.00     0.059 C 
ENDROOT
BRANCH   1   2
ATOM      2  C   UNL     1      13.337  36.724  27.379  1.00  0.00     0.042 C 
ATOM      3  O   UNL     1      12.217  36.379  26.917  1.00  0.00    -0.550 OA
ATOM      4  O   UNL     1      13.552  36.703  28.751  1.00  0.00    -0.550 OA
ENDBRANCH   1   2
BRANCH   1   5
ATOM      5  C   UNL     1      13.910  37.628  25.113  1.00  0.00     0.059 C 
BRANCH   5   6
ATOM      6  C   UNL     1      13.951  39.124  25.039  1.00  0.00     0.042 C 
ATOM      7  O   UNL     1      13.047  39.812  25.582  1.00  0.00    -0.550 OA
ATOM      8  O   UNL     1      15.010  39.760  24.403  1.00  0.00    -0.550 OA
ENDBRANCH   5   6
ENDBRANCH   1   5
TORSDOF 3
ENDMDL
MODEL 4
REMARK VINA RESULT:    -3.435      1.719      4.094
REMARK INTER + INTRA:          -4.119
REMARK INTER:                  -4.025
REMARK INTRA:                  -0.094
REMARK UNBOUND:                -0.081
REMARK SMILES O=C([O-])CCC(=O)[O-]
REMARK SMILES IDX 4 1 2 2 1 3 3 4 5 5 6 6 7 7 8 8
REMARK H PARENT
REMARK Flexibility Score: inf
ROOT
ATOM      1  C   UNL     1      12.907  36.296  27.837  1.00  0.00     0.059 C 
ENDROOT
BRANCH   1   2
ATOM      2  C   UNL     1      12.750  37.046  29.125  1.00  0.00     0.042 C 
ATOM      3  O   UNL     1      13.686  37.063  29.968  1.00  0.00    -0.550 OA
ATOM      4  O   UNL     1      11.585  37.758  29.376  1.00  0.00    -0.550 OA
ENDBRANCH   1   2
BRANCH   1   5
ATOM      5  C   UNL     1      12.740  37.217  26.625  1.00  0.00     0.059 C 
BRANCH   5   6
ATOM      6  C   UNL     1      14.040  37.432  25.912  1.00  0.00     0.042 C 
ATOM      7  O   UNL     1      14.066  37.534  24.658  1.00  0.00    -0.550 OA
ATOM      8  O   UNL     1      15.218  37.559  26.638  1.00  0.00    -0.550 OA
ENDBRANCH   5   6
ENDBRANCH   1   5
TORSDOF 3
ENDMDL
MODEL 5
REMARK VINA RESULT:    -3.370      1.643      2.113
REMARK INTER + INTRA:          -4.042
REMARK INTER:                  -4.003
REMARK INTRA:                  -0.039
REMARK UNBOUND:                -0.081
REMARK SMILES O=C([O-])CCC(=O)[O-]
REMARK SMILES IDX 4 1 2 2 1 3 3 4 5 5 6 6 7 7 8 8
REMARK H PARENT
REMARK Flexibility Score: inf
ROOT
ATOM      1  C   UNL     1      14.297  36.807  26.953  1.00  0.00     0.059 C 
ENDROOT
BRANCH   1   2
ATOM      2  C   UNL     1      14.623  37.649  25.757  1.00  0.00     0.042 C 
ATOM      3  O   UNL     1      13.961  37.525  24.693  1.00  0.00    -0.550 OA
ATOM      4  O   UNL     1      15.633  38.600  25.831  1.00  0.00    -0.550 OA
ENDBRANCH   1   2
BRANCH   1   5
ATOM      5  C   UNL     1      12.805  36.868  27.295  1.00  0.00     0.059 C 
BRANCH   5   6
ATOM      6  C   UNL     1      12.584  37.162  28.747  1.00  0.00     0.042 C 
ATOM      7  O   UNL     1      11.481  37.626  29.140  1.00  0.00    -0.550 OA
ATOM      8  O   UNL     1      13.583  36.887  29.672  1.00  0.00    -0.550 OA
ENDBRANCH   5   6
ENDBRANCH   1   5
TORSDOF 3
ENDMDL
MODEL 6
REMARK VINA RESULT:    -3.325      2.083      2.672
REMARK INTER + INTRA:          -3.989
REMARK INTER:                  -3.879
REMARK INTRA:                  -0.110
REMARK UNBOUND:                -0.081
REMARK SMILES O=C([O-])CCC(=O)[O-]
REMARK SMILES IDX 4 1 2 2 1 3 3 4 5 5 6 6 7 7 8 8
REMARK H PARENT
REMARK Flexibility Score: inf
ROOT
ATOM      1  C   UNL     1      14.358  36.796  27.147  1.00  0.00     0.059 C 
ENDROOT
BRANCH   1   2
ATOM      2  C   UNL     1      13.686  37.707  26.166  1.00  0.00     0.042 C 
ATOM      3  O   UNL     1      12.902  38.607  26.569  1.00  0.00    -0.550 OA
ATOM      4  O   UNL     1      13.957  37.587  24.809  1.00  0.00    -0.550 OA
ENDBRANCH   1   2
BRANCH   1   5
ATOM      5  C   UNL     1      15.464  37.520  27.922  1.00  0.00     0.059 C 
BRANCH   5   6
ATOM      6  C   UNL     1      15.099  37.700  29.364  1.00  0.00     0.042 C 
ATOM      7  O   UNL     1      14.035  37.201  29.817  1.00  0.00    -0.550 OA
ATOM      8  O   UNL     1      15.954  38.386  30.217  1.00  0.00    -0.550 OA
ENDBRANCH   5   6
ENDBRANCH   1   5
TORSDOF 3
ENDMDL
MODEL 7
REMARK VINA RESULT:    -3.319     19.637     20.237
REMARK INTER + INTRA:          -3.982
REMARK INTER:                  -3.991
REMARK INTRA:                   0.009
REMARK UNBOUND:                -0.081
REMARK SMILES O=C([O-])CCC(=O)[O-]
REMARK SMILES IDX 4 1 2 2 1 3 3 4 5 5 6 6 7 7 8 8
REMARK H PARENT
REMARK Flexibility Score: inf
ROOT
ATOM      1  C   UNL     1       7.360  25.207  13.773  1.00  0.00     0.059 C 
ENDROOT
BRANCH   1   2
ATOM      2  C   UNL     1       7.767  23.771  13.901  1.00  0.00     0.042 C 
ATOM      3  O   UNL     1       6.985  22.854  13.533  1.00  0.00    -0.550 OA
ATOM      4  O   UNL     1       9.026  23.446  14.389  1.00  0.00    -0.550 OA
ENDBRANCH   1   2
BRANCH   1   5
ATOM      5  C   UNL     1       6.923  25.543  12.344  1.00  0.00     0.059 C 
BRANCH   5   6
ATOM      6  C   UNL     1       8.071  25.471  11.384  1.00  0.00     0.042 C 
ATOM      7  O   UNL     1       8.404  24.369  10.875  1.00  0.00    -0.550 OA
ATOM      8  O   UNL     1       8.749  26.628  11.022  1.00  0.00    -0.550 OA
ENDBRANCH   5   6
ENDBRANCH   1   5
TORSDOF 3
ENDMDL
MODEL 8
REMARK VINA RESULT:    -3.266      1.733      3.525
REMARK INTER + INTRA:          -3.920
REMARK INTER:                  -3.813
REMARK INTRA:                  -0.106
REMARK UNBOUND:                -0.081
REMARK SMILES O=C([O-])CCC(=O)[O-]
REMARK SMILES IDX 4 1 2 2 1 3 3 4 5 5 6 6 7 7 8 8
REMARK H PARENT
REMARK Flexibility Score: inf
ROOT
ATOM      1  C   UNL     1      14.768  36.852  27.437  1.00  0.00     0.059 C 
ENDROOT
BRANCH   1   2
ATOM      2  C   UNL     1      15.068  37.801  28.557  1.00  0.00     0.042 C 
ATOM      3  O   UNL     1      14.183  38.598  28.968  1.00  0.00    -0.550 OA
ATOM      4  O   UNL     1      16.313  37.777  29.174  1.00  0.00    -0.550 OA
ENDBRANCH   1   2
BRANCH   1   5
ATOM      5  C   UNL     1      13.418  37.161  26.783  1.00  0.00     0.059 C 
BRANCH   5   6
ATOM      6  C   UNL     1      13.582  37.993  25.548  1.00  0.00     0.042 C 
ATOM      7  O   UNL     1      14.105  37.500  24.515  1.00  0.00    -0.550 OA
ATOM      8  O   UNL     1      13.121  39.304  25.527  1.00  0.00    -0.550 OA
ENDBRANCH   5   6
ENDBRANCH   1   5
TORSDOF 3
ENDMDL
MODEL 9
REMARK VINA RESULT:    -3.235     18.890     19.541
REMARK INTER + INTRA:          -3.883
REMARK INTER:                  -3.758
REMARK INTRA:                  -0.125
REMARK UNBOUND:                -0.081
REMARK SMILES O=C([O-])CCC(=O)[O-]
REMARK SMILES IDX 4 1 2 2 1 3 3 4 5 5 6 6 7 7 8 8
REMARK H PARENT
REMARK Flexibility Score: inf
ROOT
ATOM      1  C   UNL     1      15.994  20.628  16.809  1.00  0.00     0.059 C 
ENDROOT
BRANCH   1   2
ATOM      2  C   UNL     1      17.415  20.154  16.813  1.00  0.00     0.042 C 
ATOM      3  O   UNL     1      18.002  19.898  15.728  1.00  0.00    -0.550 OA
ATOM      4  O   UNL     1      18.104  20.034  18.012  1.00  0.00    -0.550 OA
ENDBRANCH   1   2
BRANCH   1   5
ATOM      5  C   UNL     1      15.891  22.104  17.205  1.00  0.00     0.059 C 
BRANCH   5   6
ATOM      6  C   UNL     1      16.030  23.005  16.017  1.00  0.00     0.042 C 
ATOM      7  O   UNL     1      15.020  23.308  15.329  1.00  0.00    -0.550 OA
ATOM      8  O   UNL     1      17.270  23.542  15.692  1.00  0.00    -0.550 OA
ENDBRANCH   5   6
ENDBRANCH   1   5
TORSDOF 3
ENDMDL
