MODEL 1
REMARK VINA RESULT:    -7.970      0.000      0.000
REMARK INTER + INTRA:         -12.038
REMARK INTER:                 -11.697
REMARK INTRA:                  -0.341
REMARK UNBOUND:                -0.341
REMARK SMILES O=c1c(O[C@H]2O[C@H](CO)[C@H](O)[C@H](O)[C@H]2O)c(-c2ccc(O)c(O)c2)oc2cc(O)cc(O)c12
REMARK SMILES IDX 4 1 3 2 16 3 25 4 2 5 26 6 1 7 33 8 27 9 31 10 28 11 30 12
REMARK SMILES IDX 17 13 18 14 19 15 20 16 24 17 22 18 21 19 23 21 32 23 29 25
REMARK SMILES IDX 5 27 14 28 6 29 12 30 7 31 10 32 15 33 13 35 8 37 9 38 11 40
REMARK H PARENT 21 20 23 22 32 24 29 26 15 34 13 36 9 39 11 41
REMARK Flexibility Score: inf
ROOT
ATOM      1  O   UNL     1       4.575  -5.249  36.653  1.00  0.00    -0.454 OA
ENDROOT
BRANCH   1   2
ATOM      2  C   UNL     1       3.691  -4.738  37.626  1.00  0.00     0.214 A 
ATOM      3  C   UNL     1       3.745  -3.359  37.910  1.00  0.00     0.180 A 
ATOM      4  O   UNL     1       2.971  -2.837  38.855  1.00  0.00    -0.452 OA
ATOM      5  C   UNL     1       2.776  -5.535  38.355  1.00  0.00     0.239 A 
ATOM      6  C   UNL     1       2.100  -3.547  39.559  1.00  0.00     0.146 A 
ATOM      7  O   UNL     1       2.695  -6.773  38.140  1.00  0.00    -0.285 OA
ATOM      8  C   UNL     1       1.957  -4.935  39.336  1.00  0.00     0.111 A 
ATOM      9  C   UNL     1       1.323  -2.902  40.527  1.00  0.00     0.094 A 
ATOM     10  C   UNL     1       1.012  -5.661  40.104  1.00  0.00     0.134 A 
ATOM     11  C   UNL     1       0.392  -3.623  41.281  1.00  0.00     0.123 A 
ATOM     12  C   UNL     1       0.240  -4.995  41.069  1.00  0.00     0.093 A 
BRANCH   3  13
ATOM     13  C   UNL     1       4.672  -2.453  37.196  1.00  0.00     0.025 A 
ATOM     14  C   UNL     1       5.856  -2.967  36.651  1.00  0.00     0.016 A 
ATOM     15  C   UNL     1       6.744  -2.126  35.976  1.00  0.00     0.051 A 
ATOM     16  C   UNL     1       6.474  -0.759  35.844  1.00  0.00     0.157 A 
ATOM     17  C   UNL     1       4.411  -1.077  37.091  1.00  0.00     0.062 A 
ATOM     18  C   UNL     1       5.293  -0.227  36.415  1.00  0.00     0.158 A 
BRANCH  16  19
ATOM     19  O   UNL     1       7.397   0.025  35.150  1.00  0.00    -0.504 OA
ATOM     20  H   UNL     1       7.214   0.967  34.834  1.00  0.00     0.293 HD
ENDBRANCH  16  19
BRANCH  18  21
ATOM     21  O   UNL     1       4.962   1.128  36.336  1.00  0.00    -0.504 OA
ATOM     22  H   UNL     1       5.530   1.822  35.874  1.00  0.00     0.293 HD
ENDBRANCH  18  21
ENDBRANCH   3  13
BRANCH  10  23
ATOM     23  O   UNL     1       0.834  -7.032  39.919  1.00  0.00    -0.507 OA
ATOM     24  H   UNL     1       1.481  -7.583  39.367  1.00  0.00     0.293 HD
ENDBRANCH  10  23
BRANCH  11  25
ATOM     25  O   UNL     1      -0.386  -2.987  42.245  1.00  0.00    -0.508 OA
ATOM     26  H   UNL     1      -1.331  -2.683  42.045  1.00  0.00     0.293 HD
ENDBRANCH  11  25
ENDBRANCH   1   2
BRANCH   1  27
ATOM     27  C   UNL     1       4.355  -6.346  35.761  1.00  0.00     0.339 C 
ATOM     28  C   UNL     1       5.543  -7.330  35.826  1.00  0.00     0.214 C 
ATOM     29  O   UNL     1       4.128  -5.904  34.430  1.00  0.00    -0.332 OA
ATOM     30  C   UNL     1       6.800  -6.692  35.208  1.00  0.00     0.180 C 
ATOM     31  C   UNL     1       5.246  -5.200  33.914  1.00  0.00     0.179 C 
ATOM     32  C   UNL     1       6.476  -6.130  33.813  1.00  0.00     0.177 C 
BRANCH  28  33
ATOM     33  O   UNL     1       5.804  -7.685  37.160  1.00  0.00    -0.384 OA
ATOM     34  H   UNL     1       6.547  -7.103  37.469  1.00  0.00     0.211 HD
ENDBRANCH  28  33
BRANCH  30  35
ATOM     35  O   UNL     1       7.830  -7.642  35.108  1.00  0.00    -0.387 OA
ATOM     36  H   UNL     1       7.960  -7.826  34.140  1.00  0.00     0.211 HD
ENDBRANCH  30  35
BRANCH  31  37
ATOM     37  C   UNL     1       4.864  -4.615  32.545  1.00  0.00     0.191 C 
BRANCH  37  38
ATOM     38  O   UNL     1       5.991  -4.117  31.875  1.00  0.00    -0.394 OA
ATOM     39  H   UNL     1       5.898  -4.388  30.924  1.00  0.00     0.210 HD
ENDBRANCH  37  38
ENDBRANCH  31  37
BRANCH  32  40
ATOM     40  O   UNL     1       6.206  -7.179  32.915  1.00  0.00    -0.387 OA
ATOM     41  H   UNL     1       6.874  -7.892  33.094  1.00  0.00     0.211 HD
ENDBRANCH  32  40
ENDBRANCH   1  27
TORSDOF 12
ENDMDL
MODEL 2
REMARK VINA RESULT:    -7.727      2.113      7.266
REMARK INTER + INTRA:         -11.681
REMARK INTER:                 -11.147
REMARK INTRA:                  -0.534
REMARK UNBOUND:                -0.341
REMARK SMILES O=c1c(O[C@H]2O[C@H](CO)[C@H](O)[C@H](O)[C@H]2O)c(-c2ccc(O)c(O)c2)oc2cc(O)cc(O)c12
REMARK SMILES IDX 4 1 3 2 16 3 25 4 2 5 26 6 1 7 33 8 27 9 31 10 28 11 30 12
REMARK SMILES IDX 17 13 18 14 19 15 20 16 24 17 22 18 21 19 23 21 32 23 29 25
REMARK SMILES IDX 5 27 14 28 6 29 12 30 7 31 10 32 15 33 13 35 8 37 9 38 11 40
REMARK H PARENT 21 20 23 22 32 24 29 26 15 34 13 36 9 39 11 41
REMARK Flexibility Score: inf
ROOT
ATOM      1  O   UNL     1       2.733  -4.206  38.208  1.00  0.00    -0.454 OA
ENDROOT
BRANCH   1   2
ATOM      2  C   UNL     1       3.743  -3.481  37.542  1.00  0.00     0.214 A 
ATOM      3  C   UNL     1       4.773  -4.208  36.912  1.00  0.00     0.180 A 
ATOM      4  O   UNL     1       5.777  -3.574  36.316  1.00  0.00    -0.452 OA
ATOM      5  C   UNL     1       3.800  -2.068  37.496  1.00  0.00     0.239 A 
ATOM      6  C   UNL     1       5.866  -2.253  36.249  1.00  0.00     0.146 A 
ATOM      7  O   UNL     1       2.905  -1.375  38.048  1.00  0.00    -0.285 OA
ATOM      8  C   UNL     1       4.873  -1.434  36.833  1.00  0.00     0.111 A 
ATOM      9  C   UNL     1       6.958  -1.679  35.590  1.00  0.00     0.094 A 
ATOM     10  C   UNL     1       5.000  -0.026  36.737  1.00  0.00     0.134 A 
ATOM     11  C   UNL     1       7.077  -0.289  35.498  1.00  0.00     0.123 A 
ATOM     12  C   UNL     1       6.102   0.531  36.070  1.00  0.00     0.093 A 
BRANCH   3  13
ATOM     13  C   UNL     1       4.793  -5.688  36.912  1.00  0.00     0.025 A 
ATOM     14  C   UNL     1       5.498  -6.370  35.912  1.00  0.00     0.016 A 
ATOM     15  C   UNL     1       5.526  -7.766  35.896  1.00  0.00     0.051 A 
ATOM     16  C   UNL     1       4.842  -8.506  36.867  1.00  0.00     0.157 A 
ATOM     17  C   UNL     1       4.081  -6.427  37.871  1.00  0.00     0.062 A 
ATOM     18  C   UNL     1       4.104  -7.826  37.865  1.00  0.00     0.158 A 
BRANCH  16  19
ATOM     19  O   UNL     1       4.916  -9.899  36.800  1.00  0.00    -0.504 OA
ATOM     20  H   UNL     1       4.429 -10.521  37.429  1.00  0.00     0.293 HD
ENDBRANCH  16  19
BRANCH  18  21
ATOM     21  O   UNL     1       3.386  -8.494  38.859  1.00  0.00    -0.504 OA
ATOM     22  H   UNL     1       3.416  -9.493  39.002  1.00  0.00     0.293 HD
ENDBRANCH  18  21
ENDBRANCH   3  13
BRANCH  10  23
ATOM     23  O   UNL     1       4.044   0.823  37.297  1.00  0.00    -0.507 OA
ATOM     24  H   UNL     1       3.057   0.594  37.287  1.00  0.00     0.293 HD
ENDBRANCH  10  23
BRANCH  11  25
ATOM     25  O   UNL     1       8.161   0.288  34.842  1.00  0.00    -0.508 OA
ATOM     26  H   UNL     1       8.174   0.394  33.835  1.00  0.00     0.293 HD
ENDBRANCH  11  25
ENDBRANCH   1   2
BRANCH   1  27
ATOM     27  C   UNL     1       1.356  -3.847  38.362  1.00  0.00     0.339 C 
ATOM     28  C   UNL     1       1.041  -3.570  39.848  1.00  0.00     0.214 C 
ATOM     29  O   UNL     1       0.492  -4.843  37.832  1.00  0.00    -0.332 OA
ATOM     30  C   UNL     1       1.101  -4.876  40.660  1.00  0.00     0.180 C 
ATOM     31  C   UNL     1       0.650  -6.084  38.502  1.00  0.00     0.179 C 
ATOM     32  C   UNL     1       0.238  -5.956  39.986  1.00  0.00     0.177 C 
BRANCH  28  33
ATOM     33  O   UNL     1       1.963  -2.648  40.372  1.00  0.00    -0.384 OA
ATOM     34  H   UNL     1       2.500  -3.136  41.050  1.00  0.00     0.211 HD
ENDBRANCH  28  33
BRANCH  30  35
ATOM     35  O   UNL     1       0.647  -4.656  41.970  1.00  0.00    -0.387 OA
ATOM     36  H   UNL     1       0.192  -5.489  42.262  1.00  0.00     0.211 HD
ENDBRANCH  30  35
BRANCH  31  37
ATOM     37  C   UNL     1      -0.190  -7.142  37.770  1.00  0.00     0.191 C 
BRANCH  37  38
ATOM     38  O   UNL     1       0.573  -8.284  37.484  1.00  0.00    -0.394 OA
ATOM     39  H   UNL     1       1.520  -8.046  37.669  1.00  0.00     0.210 HD
ENDBRANCH  37  38
ENDBRANCH  31  37
BRANCH  32  40
ATOM     40  O   UNL     1      -1.125  -5.617  40.075  1.00  0.00    -0.387 OA
ATOM     41  H   UNL     1      -1.603  -6.425  40.400  1.00  0.00     0.211 HD
ENDBRANCH  32  40
ENDBRANCH   1  27
TORSDOF 12
ENDMDL
MODEL 3
REMARK VINA RESULT:    -7.696      1.821      7.191
REMARK INTER + INTRA:         -11.636
REMARK INTER:                 -10.024
REMARK INTRA:                  -1.613
REMARK UNBOUND:                -0.341
REMARK SMILES O=c1c(O[C@H]2O[C@H](CO)[C@H](O)[C@H](O)[C@H]2O)c(-c2ccc(O)c(O)c2)oc2cc(O)cc(O)c12
REMARK SMILES IDX 4 1 3 2 16 3 25 4 2 5 26 6 1 7 33 8 27 9 31 10 28 11 30 12
REMARK SMILES IDX 17 13 18 14 19 15 20 16 24 17 22 18 21 19 23 21 32 23 29 25
REMARK SMILES IDX 5 27 14 28 6 29 12 30 7 31 10 32 15 33 13 35 8 37 9 38 11 40
REMARK H PARENT 21 20 23 22 32 24 29 26 15 34 13 36 9 39 11 41
REMARK Flexibility Score: inf
ROOT
ATOM      1  O   UNL     1       2.769  -4.777  37.503  1.00  0.00    -0.454 OA
ENDROOT
BRANCH   1   2
ATOM      2  C   UNL     1       3.780  -3.928  37.009  1.00  0.00     0.214 A 
ATOM      3  C   UNL     1       4.852  -4.514  36.306  1.00  0.00     0.180 A 
ATOM      4  O   UNL     1       5.857  -3.766  35.865  1.00  0.00    -0.452 OA
ATOM      5  C   UNL     1       3.798  -2.526  37.204  1.00  0.00     0.239 A 
ATOM      6  C   UNL     1       5.911  -2.451  36.026  1.00  0.00     0.146 A 
ATOM      7  O   UNL     1       2.866  -1.957  37.830  1.00  0.00    -0.285 OA
ATOM      8  C   UNL     1       4.875  -1.765  36.701  1.00  0.00     0.111 A 
ATOM      9  C   UNL     1       7.009  -1.750  35.517  1.00  0.00     0.094 A 
ATOM     10  C   UNL     1       4.965  -0.359  36.849  1.00  0.00     0.134 A 
ATOM     11  C   UNL     1       7.091  -0.362  35.666  1.00  0.00     0.123 A 
ATOM     12  C   UNL     1       6.074   0.327  36.329  1.00  0.00     0.093 A 
BRANCH   3  13
ATOM     13  C   UNL     1       4.914  -5.972  36.057  1.00  0.00     0.025 A 
ATOM     14  C   UNL     1       5.570  -6.802  36.975  1.00  0.00     0.016 A 
ATOM     15  C   UNL     1       5.639  -8.179  36.755  1.00  0.00     0.051 A 
ATOM     16  C   UNL     1       5.069  -8.751  35.612  1.00  0.00     0.157 A 
ATOM     17  C   UNL     1       4.365  -6.537  34.894  1.00  0.00     0.062 A 
ATOM     18  C   UNL     1       4.427  -7.916  34.666  1.00  0.00     0.158 A 
BRANCH  16  19
ATOM     19  O   UNL     1       5.165 -10.135  35.455  1.00  0.00    -0.504 OA
ATOM     20  H   UNL     1       5.663 -10.741  36.091  1.00  0.00     0.293 HD
ENDBRANCH  16  19
BRANCH  18  21
ATOM     21  O   UNL     1       3.846  -8.410  33.496  1.00  0.00    -0.504 OA
ATOM     22  H   UNL     1       3.613  -7.840  32.697  1.00  0.00     0.293 HD
ENDBRANCH  18  21
ENDBRANCH   3  13
BRANCH  10  23
ATOM     23  O   UNL     1       3.967   0.361  37.506  1.00  0.00    -0.507 OA
ATOM     24  H   UNL     1       4.168   1.225  37.997  1.00  0.00     0.293 HD
ENDBRANCH  10  23
BRANCH  11  25
ATOM     25  O   UNL     1       8.181   0.343  35.160  1.00  0.00    -0.508 OA
ATOM     26  H   UNL     1       9.047  -0.124  34.921  1.00  0.00     0.293 HD
ENDBRANCH  11  25
ENDBRANCH   1   2
BRANCH   1  27
ATOM     27  C   UNL     1       2.762  -5.505  38.735  1.00  0.00     0.339 C 
ATOM     28  C   UNL     1       1.801  -6.709  38.637  1.00  0.00     0.214 C 
ATOM     29  O   UNL     1       2.427  -4.670  39.835  1.00  0.00    -0.332 OA
ATOM     30  C   UNL     1       0.342  -6.225  38.570  1.00  0.00     0.180 C 
ATOM     31  C   UNL     1       1.126  -4.121  39.699  1.00  0.00     0.179 C 
ATOM     32  C   UNL     1       0.059  -5.239  39.716  1.00  0.00     0.177 C 
BRANCH  28  33
ATOM     33  O   UNL     1       2.097  -7.470  37.494  1.00  0.00    -0.384 OA
ATOM     34  H   UNL     1       1.481  -8.249  37.503  1.00  0.00     0.211 HD
ENDBRANCH  28  33
BRANCH  30  35
ATOM     35  O   UNL     1      -0.538  -7.317  38.656  1.00  0.00    -0.387 OA
ATOM     36  H   UNL     1      -1.086  -7.312  37.828  1.00  0.00     0.211 HD
ENDBRANCH  30  35
BRANCH  31  37
ATOM     37  C   UNL     1       0.903  -3.109  40.833  1.00  0.00     0.191 C 
BRANCH  37  38
ATOM     38  O   UNL     1       1.465  -3.564  42.035  1.00  0.00    -0.394 OA
ATOM     39  H   UNL     1       2.281  -3.020  42.191  1.00  0.00     0.210 HD
ENDBRANCH  37  38
ENDBRANCH  31  37
BRANCH  32  40
ATOM     40  O   UNL     1       0.090  -5.908  40.954  1.00  0.00    -0.387 OA
ATOM     41  H   UNL     1      -0.531  -5.425  41.559  1.00  0.00     0.211 HD
ENDBRANCH  32  40
ENDBRANCH   1  27
TORSDOF 12
ENDMDL
MODEL 4
REMARK VINA RESULT:    -7.658      2.375      4.438
REMARK INTER + INTRA:         -11.581
REMARK INTER:                 -10.261
REMARK INTRA:                  -1.320
REMARK UNBOUND:                -0.341
REMARK SMILES O=c1c(O[C@H]2O[C@H](CO)[C@H](O)[C@H](O)[C@H]2O)c(-c2ccc(O)c(O)c2)oc2cc(O)cc(O)c12
REMARK SMILES IDX 4 1 3 2 16 3 25 4 2 5 26 6 1 7 33 8 27 9 31 10 28 11 30 12
REMARK SMILES IDX 17 13 18 14 19 15 20 16 24 17 22 18 21 19 23 21 32 23 29 25
REMARK SMILES IDX 5 27 14 28 6 29 12 30 7 31 10 32 15 33 13 35 8 37 9 38 11 40
REMARK H PARENT 21 20 23 22 32 24 29 26 15 34 13 36 9 39 11 41
REMARK Flexibility Score: inf
ROOT
ATOM      1  O   UNL     1       2.778  -6.487  37.248  1.00  0.00    -0.454 OA
ENDROOT
BRANCH   1   2
ATOM      2  C   UNL     1       2.764  -5.265  37.953  1.00  0.00     0.214 A 
ATOM      3  C   UNL     1       3.419  -4.159  37.374  1.00  0.00     0.180 A 
ATOM      4  O   UNL     1       3.481  -3.000  38.020  1.00  0.00    -0.452 OA
ATOM      5  C   UNL     1       2.157  -5.092  39.220  1.00  0.00     0.239 A 
ATOM      6  C   UNL     1       2.925  -2.797  39.206  1.00  0.00     0.146 A 
ATOM      7  O   UNL     1       1.564  -6.052  39.779  1.00  0.00    -0.285 OA
ATOM      8  C   UNL     1       2.227  -3.837  39.862  1.00  0.00     0.111 A 
ATOM      9  C   UNL     1       3.037  -1.536  39.800  1.00  0.00     0.094 A 
ATOM     10  C   UNL     1       1.642  -3.581  41.127  1.00  0.00     0.134 A 
ATOM     11  C   UNL     1       2.456  -1.289  41.048  1.00  0.00     0.123 A 
ATOM     12  C   UNL     1       1.763  -2.308  41.706  1.00  0.00     0.093 A 
BRANCH   3  13
ATOM     13  C   UNL     1       4.081  -4.252  36.053  1.00  0.00     0.025 A 
ATOM     14  C   UNL     1       5.470  -4.094  35.964  1.00  0.00     0.016 A 
ATOM     15  C   UNL     1       6.111  -4.176  34.726  1.00  0.00     0.051 A 
ATOM     16  C   UNL     1       5.377  -4.404  33.555  1.00  0.00     0.157 A 
ATOM     17  C   UNL     1       3.338  -4.452  34.878  1.00  0.00     0.062 A 
ATOM     18  C   UNL     1       3.971  -4.538  33.633  1.00  0.00     0.158 A 
BRANCH  16  19
ATOM     19  O   UNL     1       6.078  -4.484  32.350  1.00  0.00    -0.504 OA
ATOM     20  H   UNL     1       5.653  -4.372  31.441  1.00  0.00     0.293 HD
ENDBRANCH  16  19
BRANCH  18  21
ATOM     21  O   UNL     1       3.170  -4.753  32.508  1.00  0.00    -0.504 OA
ATOM     22  H   UNL     1       3.146  -4.140  31.708  1.00  0.00     0.293 HD
ENDBRANCH  18  21
ENDBRANCH   3  13
BRANCH  10  23
ATOM     23  O   UNL     1       0.943  -4.576  41.811  1.00  0.00    -0.507 OA
ATOM     24  H   UNL     1       0.755  -5.479  41.392  1.00  0.00     0.293 HD
ENDBRANCH  10  23
BRANCH  11  25
ATOM     25  O   UNL     1       2.562  -0.036  41.645  1.00  0.00    -0.508 OA
ATOM     26  H   UNL     1       3.045   0.091  42.526  1.00  0.00     0.293 HD
ENDBRANCH  11  25
ENDBRANCH   1   2
BRANCH   1  27
ATOM     27  C   UNL     1       3.506  -7.675  37.574  1.00  0.00     0.339 C 
ATOM     28  C   UNL     1       3.989  -8.373  36.284  1.00  0.00     0.214 C 
ATOM     29  O   UNL     1       2.736  -8.558  38.377  1.00  0.00    -0.332 OA
ATOM     30  C   UNL     1       2.793  -8.959  35.513  1.00  0.00     0.180 C 
ATOM     31  C   UNL     1       1.564  -8.991  37.705  1.00  0.00     0.179 C 
ATOM     32  C   UNL     1       1.929  -9.818  36.452  1.00  0.00     0.177 C 
BRANCH  28  33
ATOM     33  O   UNL     1       4.672  -7.458  35.467  1.00  0.00    -0.384 OA
ATOM     34  H   UNL     1       5.121  -7.988  34.758  1.00  0.00     0.211 HD
ENDBRANCH  28  33
BRANCH  30  35
ATOM     35  O   UNL     1       3.243  -9.741  34.437  1.00  0.00    -0.387 OA
ATOM     36  H   UNL     1       4.076  -9.317  34.100  1.00  0.00     0.211 HD
ENDBRANCH  30  35
BRANCH  31  37
ATOM     37  C   UNL     1       0.709  -9.802  38.691  1.00  0.00     0.191 C 
BRANCH  37  38
ATOM     38  O   UNL     1       1.483 -10.757  39.366  1.00  0.00    -0.394 OA
ATOM     39  H   UNL     1       2.346 -10.318  39.586  1.00  0.00     0.210 HD
ENDBRANCH  37  38
ENDBRANCH  31  37
BRANCH  32  40
ATOM     40  O   UNL     1       2.628 -10.977  36.835  1.00  0.00    -0.387 OA
ATOM     41  H   UNL     1       2.170 -11.746  36.405  1.00  0.00     0.211 HD
ENDBRANCH  32  40
ENDBRANCH   1  27
TORSDOF 12
ENDMDL
MODEL 5
REMARK VINA RESULT:    -7.564      2.454      3.822
REMARK INTER + INTRA:         -11.442
REMARK INTER:                 -10.047
REMARK INTRA:                  -1.395
REMARK UNBOUND:                -0.341
REMARK SMILES O=c1c(O[C@H]2O[C@H](CO)[C@H](O)[C@H](O)[C@H]2O)c(-c2ccc(O)c(O)c2)oc2cc(O)cc(O)c12
REMARK SMILES IDX 4 1 3 2 16 3 25 4 2 5 26 6 1 7 33 8 27 9 31 10 28 11 30 12
REMARK SMILES IDX 17 13 18 14 19 15 20 16 24 17 22 18 21 19 23 21 32 23 29 25
REMARK SMILES IDX 5 27 14 28 6 29 12 30 7 31 10 32 15 33 13 35 8 37 9 38 11 40
REMARK H PARENT 21 20 23 22 32 24 29 26 15 34 13 36 9 39 11 41
REMARK Flexibility Score: inf
ROOT
ATOM      1  O   UNL     1       2.623  -6.494  37.244  1.00  0.00    -0.454 OA
ENDROOT
BRANCH   1   2
ATOM      2  C   UNL     1       2.648  -5.282  37.965  1.00  0.00     0.214 A 
ATOM      3  C   UNL     1       3.359  -4.198  37.414  1.00  0.00     0.180 A 
ATOM      4  O   UNL     1       3.458  -3.051  38.077  1.00  0.00    -0.452 OA
ATOM      5  C   UNL     1       2.027  -5.101  39.224  1.00  0.00     0.239 A 
ATOM      6  C   UNL     1       2.891  -2.841  39.257  1.00  0.00     0.146 A 
ATOM      7  O   UNL     1       1.385  -6.043  39.760  1.00  0.00    -0.285 OA
ATOM      8  C   UNL     1       2.139  -3.859  39.886  1.00  0.00     0.111 A 
ATOM      9  C   UNL     1       3.045  -1.594  39.871  1.00  0.00     0.094 A 
ATOM     10  C   UNL     1       1.544  -3.596  41.144  1.00  0.00     0.134 A 
ATOM     11  C   UNL     1       2.454  -1.340  41.113  1.00  0.00     0.123 A 
ATOM     12  C   UNL     1       1.708  -2.338  41.744  1.00  0.00     0.093 A 
BRANCH   3  13
ATOM     13  C   UNL     1       4.039  -4.299  36.103  1.00  0.00     0.025 A 
ATOM     14  C   UNL     1       5.433  -4.179  36.036  1.00  0.00     0.016 A 
ATOM     15  C   UNL     1       6.091  -4.271  34.808  1.00  0.00     0.051 A 
ATOM     16  C   UNL     1       5.371  -4.471  33.625  1.00  0.00     0.157 A 
ATOM     17  C   UNL     1       3.310  -4.471  34.915  1.00  0.00     0.062 A 
ATOM     18  C   UNL     1       3.960  -4.567  33.679  1.00  0.00     0.158 A 
BRANCH  16  19
ATOM     19  O   UNL     1       6.088  -4.562  32.431  1.00  0.00    -0.504 OA
ATOM     20  H   UNL     1       6.169  -3.810  31.762  1.00  0.00     0.293 HD
ENDBRANCH  16  19
BRANCH  18  21
ATOM     21  O   UNL     1       3.172  -4.753  32.541  1.00  0.00    -0.504 OA
ATOM     22  H   UNL     1       3.478  -4.545  31.603  1.00  0.00     0.293 HD
ENDBRANCH  18  21
ENDBRANCH   3  13
BRANCH  10  23
ATOM     23  O   UNL     1       0.792  -4.570  41.803  1.00  0.00    -0.507 OA
ATOM     24  H   UNL     1       1.086  -4.961  42.690  1.00  0.00     0.293 HD
ENDBRANCH  10  23
BRANCH  11  25
ATOM     25  O   UNL     1       2.603  -0.100  41.729  1.00  0.00    -0.508 OA
ATOM     26  H   UNL     1       2.451   0.017  42.724  1.00  0.00     0.293 HD
ENDBRANCH  11  25
ENDBRANCH   1   2
BRANCH   1  27
ATOM     27  C   UNL     1       1.535  -7.415  37.118  1.00  0.00     0.339 C 
ATOM     28  C   UNL     1       1.987  -8.831  37.534  1.00  0.00     0.214 C 
ATOM     29  O   UNL     1       0.997  -7.414  35.804  1.00  0.00    -0.332 OA
ATOM     30  C   UNL     1       2.979  -9.400  36.505  1.00  0.00     0.180 C 
ATOM     31  C   UNL     1       1.960  -7.814  34.842  1.00  0.00     0.179 C 
ATOM     32  C   UNL     1       2.397  -9.276  35.086  1.00  0.00     0.177 C 
BRANCH  28  33
ATOM     33  O   UNL     1       2.595  -8.792  38.800  1.00  0.00    -0.384 OA
ATOM     34  H   UNL     1       3.481  -8.360  38.677  1.00  0.00     0.211 HD
ENDBRANCH  28  33
BRANCH  30  35
ATOM     35  O   UNL     1       3.255 -10.748  36.787  1.00  0.00    -0.387 OA
ATOM     36  H   UNL     1       2.382 -11.222  36.812  1.00  0.00     0.211 HD
ENDBRANCH  30  35
BRANCH  31  37
ATOM     37  C   UNL     1       1.356  -7.630  33.441  1.00  0.00     0.191 C 
BRANCH  37  38
ATOM     38  O   UNL     1       2.356  -7.592  32.459  1.00  0.00    -0.394 OA
ATOM     39  H   UNL     1       2.125  -6.846  31.847  1.00  0.00     0.210 HD
ENDBRANCH  37  38
ENDBRANCH  31  37
BRANCH  32  40
ATOM     40  O   UNL     1       1.292 -10.135  34.935  1.00  0.00    -0.387 OA
ATOM     41  H   UNL     1       1.516 -10.768  34.204  1.00  0.00     0.211 HD
ENDBRANCH  32  40
ENDBRANCH   1  27
TORSDOF 12
ENDMDL
MODEL 6
REMARK VINA RESULT:    -7.552      2.018      6.393
REMARK INTER + INTRA:         -11.425
REMARK INTER:                 -11.217
REMARK INTRA:                  -0.208
REMARK UNBOUND:                -0.341
REMARK SMILES O=c1c(O[C@H]2O[C@H](CO)[C@H](O)[C@H](O)[C@H]2O)c(-c2ccc(O)c(O)c2)oc2cc(O)cc(O)c12
REMARK SMILES IDX 4 1 3 2 16 3 25 4 2 5 26 6 1 7 33 8 27 9 31 10 28 11 30 12
REMARK SMILES IDX 17 13 18 14 19 15 20 16 24 17 22 18 21 19 23 21 32 23 29 25
REMARK SMILES IDX 5 27 14 28 6 29 12 30 7 31 10 32 15 33 13 35 8 37 9 38 11 40
REMARK H PARENT 21 20 23 22 32 24 29 26 15 34 13 36 9 39 11 41
REMARK Flexibility Score: inf
ROOT
ATOM      1  O   UNL     1       2.711  -3.856  37.669  1.00  0.00    -0.454 OA
ENDROOT
BRANCH   1   2
ATOM      2  C   UNL     1       3.614  -4.835  37.206  1.00  0.00     0.214 A 
ATOM      3  C   UNL     1       4.827  -4.400  36.636  1.00  0.00     0.180 A 
ATOM      4  O   UNL     1       5.690  -5.279  36.137  1.00  0.00    -0.452 OA
ATOM      5  C   UNL     1       3.360  -6.227  37.253  1.00  0.00     0.239 A 
ATOM      6  C   UNL     1       5.490  -6.589  36.162  1.00  0.00     0.146 A 
ATOM      7  O   UNL     1       2.288  -6.663  37.748  1.00  0.00    -0.285 OA
ATOM      8  C   UNL     1       4.313  -7.128  36.730  1.00  0.00     0.111 A 
ATOM      9  C   UNL     1       6.464  -7.434  35.619  1.00  0.00     0.094 A 
ATOM     10  C   UNL     1       4.138  -8.534  36.744  1.00  0.00     0.134 A 
ATOM     11  C   UNL     1       6.285  -8.820  35.636  1.00  0.00     0.123 A 
ATOM     12  C   UNL     1       5.127  -9.365  36.196  1.00  0.00     0.093 A 
BRANCH   3  13
ATOM     13  C   UNL     1       5.173  -2.964  36.546  1.00  0.00     0.025 A 
ATOM     14  C   UNL     1       6.402  -2.582  35.990  1.00  0.00     0.016 A 
ATOM     15  C   UNL     1       6.745  -1.232  35.899  1.00  0.00     0.051 A 
ATOM     16  C   UNL     1       5.878  -0.240  36.371  1.00  0.00     0.157 A 
ATOM     17  C   UNL     1       4.313  -1.974  37.047  1.00  0.00     0.062 A 
ATOM     18  C   UNL     1       4.647  -0.617  36.959  1.00  0.00     0.158 A 
BRANCH  16  19
ATOM     19  O   UNL     1       6.276   1.092  36.243  1.00  0.00    -0.504 OA
ATOM     20  H   UNL     1       7.111   1.387  35.756  1.00  0.00     0.293 HD
ENDBRANCH  16  19
BRANCH  18  21
ATOM     21  O   UNL     1       3.735   0.313  37.464  1.00  0.00    -0.504 OA
ATOM     22  H   UNL     1       3.470   1.160  36.985  1.00  0.00     0.293 HD
ENDBRANCH  18  21
ENDBRANCH   3  13
BRANCH  10  23
ATOM     23  O   UNL     1       2.993  -9.111  37.295  1.00  0.00    -0.507 OA
ATOM     24  H   UNL     1       2.617  -8.804  38.184  1.00  0.00     0.293 HD
ENDBRANCH  10  23
BRANCH  11  25
ATOM     25  O   UNL     1       7.251  -9.667  35.099  1.00  0.00    -0.508 OA
ATOM     26  H   UNL     1       8.052  -9.304  34.595  1.00  0.00     0.293 HD
ENDBRANCH  11  25
ENDBRANCH   1   2
BRANCH   1  27
ATOM     27  C   UNL     1       1.500  -4.060  38.404  1.00  0.00     0.339 C 
ATOM     28  C   UNL     1       0.304  -3.456  37.637  1.00  0.00     0.214 C 
ATOM     29  O   UNL     1       1.588  -3.527  39.718  1.00  0.00    -0.332 OA
ATOM     30  C   UNL     1       0.393  -1.920  37.631  1.00  0.00     0.180 C 
ATOM     31  C   UNL     1       1.803  -2.125  39.702  1.00  0.00     0.179 C 
ATOM     32  C   UNL     1       0.598  -1.398  39.063  1.00  0.00     0.177 C 
BRANCH  28  33
ATOM     33  O   UNL     1       0.289  -3.931  36.315  1.00  0.00    -0.384 OA
ATOM     34  H   UNL     1       1.193  -3.760  35.940  1.00  0.00     0.211 HD
ENDBRANCH  28  33
BRANCH  30  35
ATOM     35  O   UNL     1      -0.779  -1.366  37.089  1.00  0.00    -0.387 OA
ATOM     36  H   UNL     1      -0.593  -0.405  36.921  1.00  0.00     0.211 HD
ENDBRANCH  30  35
BRANCH  31  37
ATOM     37  C   UNL     1       2.051  -1.654  41.143  1.00  0.00     0.191 C 
BRANCH  37  38
ATOM     38  O   UNL     1       1.188  -2.298  42.042  1.00  0.00    -0.394 OA
ATOM     39  H   UNL     1       1.145  -1.726  42.853  1.00  0.00     0.210 HD
ENDBRANCH  37  38
ENDBRANCH  31  37
BRANCH  32  40
ATOM     40  O   UNL     1      -0.557  -1.622  39.835  1.00  0.00    -0.387 OA
ATOM     41  H   UNL     1      -0.809  -0.751  40.239  1.00  0.00     0.211 HD
ENDBRANCH  32  40
ENDBRANCH   1  27
TORSDOF 12
ENDMDL
MODEL 7
REMARK VINA RESULT:    -7.539      2.128      6.668
REMARK INTER + INTRA:         -11.405
REMARK INTER:                  -9.497
REMARK INTRA:                  -1.908
REMARK UNBOUND:                -0.341
REMARK SMILES O=c1c(O[C@H]2O[C@H](CO)[C@H](O)[C@H](O)[C@H]2O)c(-c2ccc(O)c(O)c2)oc2cc(O)cc(O)c12
REMARK SMILES IDX 4 1 3 2 16 3 25 4 2 5 26 6 1 7 33 8 27 9 31 10 28 11 30 12
REMARK SMILES IDX 17 13 18 14 19 15 20 16 24 17 22 18 21 19 23 21 32 23 29 25
REMARK SMILES IDX 5 27 14 28 6 29 12 30 7 31 10 32 15 33 13 35 8 37 9 38 11 40
REMARK H PARENT 21 20 23 22 32 24 29 26 15 34 13 36 9 39 11 41
REMARK Flexibility Score: inf
ROOT
ATOM      1  O   UNL     1       2.949  -4.904  37.362  1.00  0.00    -0.454 OA
ENDROOT
BRANCH   1   2
ATOM      2  C   UNL     1       3.736  -3.762  37.109  1.00  0.00     0.214 A 
ATOM      3  C   UNL     1       3.375  -2.556  37.741  1.00  0.00     0.180 A 
ATOM      4  O   UNL     1       4.051  -1.439  37.495  1.00  0.00    -0.452 OA
ATOM      5  C   UNL     1       4.848  -3.750  36.233  1.00  0.00     0.239 A 
ATOM      6  C   UNL     1       5.098  -1.385  36.683  1.00  0.00     0.146 A 
ATOM      7  O   UNL     1       5.205  -4.801  35.641  1.00  0.00    -0.285 OA
ATOM      8  C   UNL     1       5.552  -2.545  36.016  1.00  0.00     0.111 A 
ATOM      9  C   UNL     1       5.749  -0.161  36.497  1.00  0.00     0.094 A 
ATOM     10  C   UNL     1       6.677  -2.449  35.160  1.00  0.00     0.134 A 
ATOM     11  C   UNL     1       6.860  -0.074  35.652  1.00  0.00     0.123 A 
ATOM     12  C   UNL     1       7.319  -1.214  34.988  1.00  0.00     0.093 A 
BRANCH   3  13
ATOM     13  C   UNL     1       2.226  -2.479  38.671  1.00  0.00     0.025 A 
ATOM     14  C   UNL     1       0.923  -2.433  38.158  1.00  0.00     0.016 A 
ATOM     15  C   UNL     1      -0.172  -2.359  39.021  1.00  0.00     0.051 A 
ATOM     16  C   UNL     1       0.012  -2.315  40.408  1.00  0.00     0.157 A 
ATOM     17  C   UNL     1       2.417  -2.406  40.061  1.00  0.00     0.062 A 
ATOM     18  C   UNL     1       1.325  -2.333  40.934  1.00  0.00     0.158 A 
BRANCH  16  19
ATOM     19  O   UNL     1      -1.125  -2.250  41.216  1.00  0.00    -0.504 OA
ATOM     20  H   UNL     1      -1.167  -1.749  42.092  1.00  0.00     0.293 HD
ENDBRANCH  16  19
BRANCH  18  21
ATOM     21  O   UNL     1       1.590  -2.279  42.304  1.00  0.00    -0.504 OA
ATOM     22  H   UNL     1       1.288  -2.980  42.965  1.00  0.00     0.293 HD
ENDBRANCH  18  21
ENDBRANCH   3  13
BRANCH  10  23
ATOM     23  O   UNL     1       7.162  -3.568  34.481  1.00  0.00    -0.507 OA
ATOM     24  H   UNL     1       8.030  -3.539  33.960  1.00  0.00     0.293 HD
ENDBRANCH  10  23
BRANCH  11  25
ATOM     25  O   UNL     1       7.514   1.141  35.463  1.00  0.00    -0.508 OA
ATOM     26  H   UNL     1       8.286   1.423  36.056  1.00  0.00     0.293 HD
ENDBRANCH  11  25
ENDBRANCH   1   2
BRANCH   1  27
ATOM     27  C   UNL     1       3.186  -5.933  38.329  1.00  0.00     0.339 C 
ATOM     28  C   UNL     1       3.224  -7.313  37.638  1.00  0.00     0.214 C 
ATOM     29  O   UNL     1       2.220  -5.908  39.370  1.00  0.00    -0.332 OA
ATOM     30  C   UNL     1       1.823  -7.698  37.133  1.00  0.00     0.180 C 
ATOM     31  C   UNL     1       0.909  -6.132  38.875  1.00  0.00     0.179 C 
ATOM     32  C   UNL     1       0.794  -7.548  38.266  1.00  0.00     0.177 C 
BRANCH  28  33
ATOM     33  O   UNL     1       4.122  -7.288  36.558  1.00  0.00    -0.384 OA
ATOM     34  H   UNL     1       4.723  -6.511  36.705  1.00  0.00     0.211 HD
ENDBRANCH  28  33
BRANCH  30  35
ATOM     35  O   UNL     1       1.820  -9.021  36.663  1.00  0.00    -0.387 OA
ATOM     36  H   UNL     1       0.911  -9.385  36.829  1.00  0.00     0.211 HD
ENDBRANCH  30  35
BRANCH  31  37
ATOM     37  C   UNL     1      -0.088  -5.926  40.025  1.00  0.00     0.191 C 
BRANCH  37  38
ATOM     38  O   UNL     1       0.576  -5.643  41.227  1.00  0.00    -0.394 OA
ATOM     39  H   UNL     1       0.266  -4.746  41.518  1.00  0.00     0.210 HD
ENDBRANCH  37  38
ENDBRANCH  31  37
BRANCH  32  40
ATOM     40  O   UNL     1       1.022  -8.515  39.263  1.00  0.00    -0.387 OA
ATOM     41  H   UNL     1       1.708  -8.141  39.876  1.00  0.00     0.211 HD
ENDBRANCH  32  40
ENDBRANCH   1  27
TORSDOF 12
ENDMDL
MODEL 8
REMARK VINA RESULT:    -7.396      2.131      5.154
REMARK INTER + INTRA:         -11.196
REMARK INTER:                  -9.203
REMARK INTRA:                  -1.993
REMARK UNBOUND:                -0.341
REMARK SMILES O=c1c(O[C@H]2O[C@H](CO)[C@H](O)[C@H](O)[C@H]2O)c(-c2ccc(O)c(O)c2)oc2cc(O)cc(O)c12
REMARK SMILES IDX 4 1 3 2 16 3 25 4 2 5 26 6 1 7 33 8 27 9 31 10 28 11 30 12
REMARK SMILES IDX 17 13 18 14 19 15 20 16 24 17 22 18 21 19 23 21 32 23 29 25
REMARK SMILES IDX 5 27 14 28 6 29 12 30 7 31 10 32 15 33 13 35 8 37 9 38 11 40
REMARK H PARENT 21 20 23 22 32 24 29 26 15 34 13 36 9 39 11 41
REMARK Flexibility Score: inf
ROOT
ATOM      1  O   UNL     1       4.115  -5.177  36.080  1.00  0.00    -0.454 OA
ENDROOT
BRANCH   1   2
ATOM      2  C   UNL     1       3.308  -5.166  37.237  1.00  0.00     0.214 A 
ATOM      3  C   UNL     1       2.512  -6.299  37.499  1.00  0.00     0.180 A 
ATOM      4  O   UNL     1       1.695  -6.319  38.546  1.00  0.00    -0.452 OA
ATOM      5  C   UNL     1       3.228  -4.073  38.131  1.00  0.00     0.239 A 
ATOM      6  C   UNL     1       1.591  -5.317  39.408  1.00  0.00     0.146 A 
ATOM      7  O   UNL     1       3.915  -3.036  37.936  1.00  0.00    -0.285 OA
ATOM      8  C   UNL     1       2.362  -4.144  39.244  1.00  0.00     0.111 A 
ATOM      9  C   UNL     1       0.708  -5.438  40.486  1.00  0.00     0.094 A 
ATOM     10  C   UNL     1       2.227  -3.096  40.189  1.00  0.00     0.134 A 
ATOM     11  C   UNL     1       0.581  -4.402  41.415  1.00  0.00     0.123 A 
ATOM     12  C   UNL     1       1.338  -3.237  41.265  1.00  0.00     0.093 A 
BRANCH   3  13
ATOM     13  C   UNL     1       2.534  -7.486  36.615  1.00  0.00     0.025 A 
ATOM     14  C   UNL     1       1.717  -7.515  35.477  1.00  0.00     0.016 A 
ATOM     15  C   UNL     1       1.723  -8.628  34.634  1.00  0.00     0.051 A 
ATOM     16  C   UNL     1       2.533  -9.735  34.916  1.00  0.00     0.157 A 
ATOM     17  C   UNL     1       3.325  -8.606  36.918  1.00  0.00     0.062 A 
ATOM     18  C   UNL     1       3.341  -9.725  36.077  1.00  0.00     0.158 A 
BRANCH  16  19
ATOM     19  O   UNL     1       2.499 -10.812  34.028  1.00  0.00    -0.504 OA
ATOM     20  H   UNL     1       3.310 -11.358  33.772  1.00  0.00     0.293 HD
ENDBRANCH  16  19
BRANCH  18  21
ATOM     21  O   UNL     1       4.164 -10.796  36.433  1.00  0.00    -0.504 OA
ATOM     22  H   UNL     1       5.138 -10.866  36.181  1.00  0.00     0.293 HD
ENDBRANCH  18  21
ENDBRANCH   3  13
BRANCH  10  23
ATOM     23  O   UNL     1       2.968  -1.919  40.069  1.00  0.00    -0.507 OA
ATOM     24  H   UNL     1       3.324  -1.429  40.881  1.00  0.00     0.293 HD
ENDBRANCH  10  23
BRANCH  11  25
ATOM     25  O   UNL     1      -0.296  -4.516  42.491  1.00  0.00    -0.508 OA
ATOM     26  H   UNL     1      -0.035  -5.013  43.335  1.00  0.00     0.293 HD
ENDBRANCH  11  25
ENDBRANCH   1   2
BRANCH   1  27
ATOM     27  C   UNL     1       5.451  -5.673  35.950  1.00  0.00     0.339 C 
ATOM     28  C   UNL     1       6.387  -4.554  35.447  1.00  0.00     0.214 C 
ATOM     29  O   UNL     1       5.507  -6.810  35.099  1.00  0.00    -0.332 OA
ATOM     30  C   UNL     1       6.059  -4.198  33.986  1.00  0.00     0.180 C 
ATOM     31  C   UNL     1       5.076  -6.502  33.783  1.00  0.00     0.179 C 
ATOM     32  C   UNL     1       6.024  -5.473  33.127  1.00  0.00     0.177 C 
BRANCH  28  33
ATOM     33  O   UNL     1       6.249  -3.410  36.251  1.00  0.00    -0.384 OA
ATOM     34  H   UNL     1       6.449  -3.691  37.182  1.00  0.00     0.211 HD
ENDBRANCH  28  33
BRANCH  30  35
ATOM     35  O   UNL     1       7.018  -3.308  33.474  1.00  0.00    -0.387 OA
ATOM     36  H   UNL     1       7.435  -3.753  32.690  1.00  0.00     0.211 HD
ENDBRANCH  30  35
BRANCH  31  37
ATOM     37  C   UNL     1       5.009  -7.807  32.975  1.00  0.00     0.191 C 
BRANCH  37  38
ATOM     38  O   UNL     1       5.915  -8.756  33.470  1.00  0.00    -0.394 OA
ATOM     39  H   UNL     1       5.945  -9.493  32.805  1.00  0.00     0.210 HD
ENDBRANCH  37  38
ENDBRANCH  31  37
BRANCH  32  40
ATOM     40  O   UNL     1       7.315  -6.020  33.013  1.00  0.00    -0.387 OA
ATOM     41  H   UNL     1       7.618  -5.854  32.082  1.00  0.00     0.211 HD
ENDBRANCH  32  40
ENDBRANCH   1  27
TORSDOF 12
ENDMDL
MODEL 9
REMARK VINA RESULT:    -7.349      1.643      7.132
REMARK INTER + INTRA:         -11.127
REMARK INTER:                  -9.503
REMARK INTRA:                  -1.624
REMARK UNBOUND:                -0.341
REMARK SMILES O=c1c(O[C@H]2O[C@H](CO)[C@H](O)[C@H](O)[C@H]2O)c(-c2ccc(O)c(O)c2)oc2cc(O)cc(O)c12
REMARK SMILES IDX 4 1 3 2 16 3 25 4 2 5 26 6 1 7 33 8 27 9 31 10 28 11 30 12
REMARK SMILES IDX 17 13 18 14 19 15 20 16 24 17 22 18 21 19 23 21 32 23 29 25
REMARK SMILES IDX 5 27 14 28 6 29 12 30 7 31 10 32 15 33 13 35 8 37 9 38 11 40
REMARK H PARENT 21 20 23 22 32 24 29 26 15 34 13 36 9 39 11 41
REMARK Flexibility Score: inf
ROOT
ATOM      1  O   UNL     1       3.055  -4.701  37.093  1.00  0.00    -0.454 OA
ENDROOT
BRANCH   1   2
ATOM      2  C   UNL     1       4.050  -3.816  36.631  1.00  0.00     0.214 A 
ATOM      3  C   UNL     1       5.065  -4.334  35.801  1.00  0.00     0.180 A 
ATOM      4  O   UNL     1       6.055  -3.554  35.382  1.00  0.00    -0.452 OA
ATOM      5  C   UNL     1       4.108  -2.445  36.978  1.00  0.00     0.239 A 
ATOM      6  C   UNL     1       6.145  -2.266  35.683  1.00  0.00     0.146 A 
ATOM      7  O   UNL     1       3.228  -1.937  37.721  1.00  0.00    -0.285 OA
ATOM      8  C   UNL     1       5.167  -1.646  36.493  1.00  0.00     0.111 A 
ATOM      9  C   UNL     1       7.222  -1.527  35.184  1.00  0.00     0.094 A 
ATOM     10  C   UNL     1       5.294  -0.266  36.789  1.00  0.00     0.134 A 
ATOM     11  C   UNL     1       7.341  -0.165  35.479  1.00  0.00     0.123 A 
ATOM     12  C   UNL     1       6.381   0.459  36.278  1.00  0.00     0.093 A 
BRANCH   3  13
ATOM     13  C   UNL     1       5.082  -5.756  35.390  1.00  0.00     0.025 A 
ATOM     14  C   UNL     1       4.379  -6.153  34.246  1.00  0.00     0.016 A 
ATOM     15  C   UNL     1       4.383  -7.491  33.844  1.00  0.00     0.051 A 
ATOM     16  C   UNL     1       5.076  -8.457  34.584  1.00  0.00     0.157 A 
ATOM     17  C   UNL     1       5.755  -6.726  36.151  1.00  0.00     0.062 A 
ATOM     18  C   UNL     1       5.767  -8.069  35.756  1.00  0.00     0.158 A 
BRANCH  16  19
ATOM     19  O   UNL     1       5.048  -9.775  34.124  1.00  0.00    -0.504 OA
ATOM     20  H   UNL     1       5.872 -10.340  33.979  1.00  0.00     0.293 HD
ENDBRANCH  16  19
BRANCH  18  21
ATOM     21  O   UNL     1       6.469  -8.976  36.553  1.00  0.00    -0.504 OA
ATOM     22  H   UNL     1       6.407  -9.010  37.559  1.00  0.00     0.293 HD
ENDBRANCH  18  21
ENDBRANCH   3  13
BRANCH  10  23
ATOM     23  O   UNL     1       4.352   0.389  37.584  1.00  0.00    -0.507 OA
ATOM     24  H   UNL     1       3.787   1.149  37.223  1.00  0.00     0.293 HD
ENDBRANCH  10  23
BRANCH  11  25
ATOM     25  O   UNL     1       8.411   0.577  34.985  1.00  0.00    -0.508 OA
ATOM     26  H   UNL     1       8.636   0.586  33.997  1.00  0.00     0.293 HD
ENDBRANCH  11  25
ENDBRANCH   1   2
BRANCH   1  27
ATOM     27  C   UNL     1       3.067  -5.483  38.291  1.00  0.00     0.339 C 
ATOM     28  C   UNL     1       2.134  -6.704  38.141  1.00  0.00     0.214 C 
ATOM     29  O   UNL     1       2.716  -4.707  39.428  1.00  0.00    -0.332 OA
ATOM     30  C   UNL     1       0.664  -6.251  38.096  1.00  0.00     0.180 C 
ATOM     31  C   UNL     1       1.402  -4.182  39.318  1.00  0.00     0.179 C 
ATOM     32  C   UNL     1       0.361  -5.324  39.286  1.00  0.00     0.177 C 
BRANCH  28  33
ATOM     33  O   UNL     1       2.444  -7.406  36.964  1.00  0.00    -0.384 OA
ATOM     34  H   UNL     1       1.593  -7.517  36.465  1.00  0.00     0.211 HD
ENDBRANCH  28  33
BRANCH  30  35
ATOM     35  O   UNL     1      -0.191  -7.364  38.135  1.00  0.00    -0.387 OA
ATOM     36  H   UNL     1       0.216  -8.019  38.762  1.00  0.00     0.211 HD
ENDBRANCH  30  35
BRANCH  31  37
ATOM     37  C   UNL     1       1.160  -3.227  40.497  1.00  0.00     0.191 C 
BRANCH  37  38
ATOM     38  O   UNL     1       1.763  -3.705  41.669  1.00  0.00    -0.394 OA
ATOM     39  H   UNL     1       1.026  -3.936  42.294  1.00  0.00     0.210 HD
ENDBRANCH  37  38
ENDBRANCH  31  37
BRANCH  32  40
ATOM     40  O   UNL     1       0.410  -6.046  40.492  1.00  0.00    -0.387 OA
ATOM     41  H   UNL     1      -0.278  -6.759  40.431  1.00  0.00     0.211 HD
ENDBRANCH  32  40
ENDBRANCH   1  27
TORSDOF 12
ENDMDL
