MODEL 1
REMARK VINA RESULT:    -5.887      0.000      0.000
REMARK INTER + INTRA:          -7.406
REMARK INTER:                  -7.091
REMARK INTRA:                  -0.315
REMARK UNBOUND:                -0.315
REMARK SMILES O=c1c(O)c(-c2ccc(O)c(O)c2)oc2cc(O)cc(O)c12
REMARK SMILES IDX 5 1 3 2 2 3 1 4 22 5 20 6 19 7 17 8 16 9 15 10 14 11 6 12
REMARK SMILES IDX 7 13 8 14 9 15 13 16 11 17 10 18 12 20 4 22 21 24 18 26
REMARK H PARENT 10 19 12 21 4 23 21 25 18 27
REMARK Flexibility Score: inf
ROOT
ATOM      1  C   UNL     1      14.366   5.396  19.655  1.00  0.00     0.180 A 
ATOM      2  C   UNL     1      15.592   6.068  19.517  1.00  0.00     0.208 A 
ATOM      3  C   UNL     1      16.064   6.849  20.583  1.00  0.00     0.238 A 
ATOM      4  O   UNL     1      17.125   7.509  20.426  1.00  0.00    -0.285 OA
ATOM      5  C   UNL     1      15.334   6.903  21.796  1.00  0.00     0.111 A 
ATOM      6  C   UNL     1      15.741   7.627  22.958  1.00  0.00     0.134 A 
ATOM      7  C   UNL     1      14.884   7.694  24.064  1.00  0.00     0.093 A 
ATOM      8  C   UNL     1      13.668   7.014  24.076  1.00  0.00     0.123 A 
ATOM      9  C   UNL     1      13.285   6.258  22.967  1.00  0.00     0.094 A 
ATOM     10  C   UNL     1      14.099   6.203  21.834  1.00  0.00     0.146 A 
ATOM     11  O   UNL     1      13.687   5.491  20.792  1.00  0.00    -0.452 OA
ENDROOT
BRANCH   1  12
ATOM     12  C   UNL     1      13.797   4.566  18.570  1.00  0.00     0.025 A 
ATOM     13  C   UNL     1      13.920   3.168  18.633  1.00  0.00     0.016 A 
ATOM     14  C   UNL     1      13.372   2.362  17.631  1.00  0.00     0.051 A 
ATOM     15  C   UNL     1      12.679   2.942  16.561  1.00  0.00     0.157 A 
ATOM     16  C   UNL     1      13.081   5.141  17.504  1.00  0.00     0.062 A 
ATOM     17  C   UNL     1      12.530   4.333  16.499  1.00  0.00     0.158 A 
BRANCH  15  18
ATOM     18  O   UNL     1      12.132   2.143  15.558  1.00  0.00    -0.504 OA
ATOM     19  H   UNL     1      12.407   2.247  14.589  1.00  0.00     0.293 HD
ENDBRANCH  15  18
BRANCH  17  20
ATOM     20  O   UNL     1      11.827   4.906  15.440  1.00  0.00    -0.504 OA
ATOM     21  H   UNL     1      12.301   5.404  14.696  1.00  0.00     0.293 HD
ENDBRANCH  17  20
ENDBRANCH   1  12
BRANCH   2  22
ATOM     22  O   UNL     1      16.336   5.942  18.341  1.00  0.00    -0.502 OA
ATOM     23  H   UNL     1      16.761   5.067  18.057  1.00  0.00     0.293 HD
ENDBRANCH   2  22
BRANCH   6  24
ATOM     24  O   UNL     1      16.974   8.270  23.088  1.00  0.00    -0.507 OA
ATOM     25  H   UNL     1      17.261   9.081  22.562  1.00  0.00     0.293 HD
ENDBRANCH   6  24
BRANCH   8  26
ATOM     26  O   UNL     1      12.848   7.089  25.201  1.00  0.00    -0.508 OA
ATOM     27  H   UNL     1      12.075   6.449  25.337  1.00  0.00     0.293 HD
ENDBRANCH   8  26
TORSDOF 6
ENDMDL
MODEL 2
REMARK VINA RESULT:    -5.882      1.650      7.016
REMARK INTER + INTRA:          -7.401
REMARK INTER:                  -7.099
REMARK INTRA:                  -0.302
REMARK UNBOUND:                -0.315
REMARK SMILES O=c1c(O)c(-c2ccc(O)c(O)c2)oc2cc(O)cc(O)c12
REMARK SMILES IDX 5 1 3 2 2 3 1 4 22 5 20 6 19 7 17 8 16 9 15 10 14 11 6 12
REMARK SMILES IDX 7 13 8 14 9 15 13 16 11 17 10 18 12 20 4 22 21 24 18 26
REMARK H PARENT 10 19 12 21 4 23 21 25 18 27
REMARK Flexibility Score: inf
ROOT
ATOM      1  C   UNL     1      13.497   5.854  20.059  1.00  0.00     0.180 A 
ATOM      2  C   UNL     1      12.952   6.769  19.142  1.00  0.00     0.208 A 
ATOM      3  C   UNL     1      12.621   6.325  17.852  1.00  0.00     0.238 A 
ATOM      4  O   UNL     1      12.205   7.165  17.013  1.00  0.00    -0.285 OA
ATOM      5  C   UNL     1      12.787   4.960  17.512  1.00  0.00     0.111 A 
ATOM      6  C   UNL     1      12.442   4.390  16.248  1.00  0.00     0.134 A 
ATOM      7  C   UNL     1      12.749   3.049  15.989  1.00  0.00     0.093 A 
ATOM      8  C   UNL     1      13.328   2.240  16.966  1.00  0.00     0.123 A 
ATOM      9  C   UNL     1      13.618   2.772  18.224  1.00  0.00     0.094 A 
ATOM     10  C   UNL     1      13.360   4.116  18.499  1.00  0.00     0.146 A 
ATOM     11  O   UNL     1      13.671   4.587  19.701  1.00  0.00    -0.452 OA
ENDROOT
BRANCH   1  12
ATOM     12  C   UNL     1      13.884   6.251  21.432  1.00  0.00     0.025 A 
ATOM     13  C   UNL     1      15.119   6.882  21.645  1.00  0.00     0.016 A 
ATOM     14  C   UNL     1      15.497   7.286  22.929  1.00  0.00     0.051 A 
ATOM     15  C   UNL     1      14.637   7.079  24.014  1.00  0.00     0.157 A 
ATOM     16  C   UNL     1      13.014   6.064  22.522  1.00  0.00     0.062 A 
ATOM     17  C   UNL     1      13.392   6.470  23.811  1.00  0.00     0.158 A 
BRANCH  15  18
ATOM     18  O   UNL     1      15.009   7.478  25.297  1.00  0.00    -0.504 OA
ATOM     19  H   UNL     1      14.322   7.620  26.028  1.00  0.00     0.293 HD
ENDBRANCH  15  18
BRANCH  17  20
ATOM     20  O   UNL     1      12.532   6.278  24.891  1.00  0.00    -0.504 OA
ATOM     21  H   UNL     1      12.448   5.378  25.348  1.00  0.00     0.293 HD
ENDBRANCH  17  20
ENDBRANCH   1  12
BRANCH   2  22
ATOM     22  O   UNL     1      12.725   8.095  19.521  1.00  0.00    -0.502 OA
ATOM     23  H   UNL     1      13.317   8.580  20.186  1.00  0.00     0.293 HD
ENDBRANCH   2  22
BRANCH   6  24
ATOM     24  O   UNL     1      11.781   5.083  15.231  1.00  0.00    -0.507 OA
ATOM     25  H   UNL     1      10.817   4.945  14.969  1.00  0.00     0.293 HD
ENDBRANCH   6  24
BRANCH   8  26
ATOM     26  O   UNL     1      13.604   0.905  16.679  1.00  0.00    -0.508 OA
ATOM     27  H   UNL     1      13.029   0.371  16.038  1.00  0.00     0.293 HD
ENDBRANCH   8  26
TORSDOF 6
ENDMDL
MODEL 3
REMARK VINA RESULT:    -5.674      5.391      6.923
REMARK INTER + INTRA:          -7.150
REMARK INTER:                  -6.851
REMARK INTRA:                  -0.299
REMARK UNBOUND:                -0.315
REMARK SMILES O=c1c(O)c(-c2ccc(O)c(O)c2)oc2cc(O)cc(O)c12
REMARK SMILES IDX 5 1 3 2 2 3 1 4 22 5 20 6 19 7 17 8 16 9 15 10 14 11 6 12
REMARK SMILES IDX 7 13 8 14 9 15 13 16 11 17 10 18 12 20 4 22 21 24 18 26
REMARK H PARENT 10 19 12 21 4 23 21 25 18 27
REMARK Flexibility Score: inf
ROOT
ATOM      1  C   UNL     1       9.887   7.934  19.271  1.00  0.00     0.180 A 
ATOM      2  C   UNL     1      10.589   7.728  18.070  1.00  0.00     0.208 A 
ATOM      3  C   UNL     1      11.584   6.739  18.024  1.00  0.00     0.238 A 
ATOM      4  O   UNL     1      12.259   6.611  16.970  1.00  0.00    -0.285 OA
ATOM      5  C   UNL     1      11.828   5.930  19.162  1.00  0.00     0.111 A 
ATOM      6  C   UNL     1      12.782   4.869  19.214  1.00  0.00     0.134 A 
ATOM      7  C   UNL     1      13.011   4.206  20.426  1.00  0.00     0.093 A 
ATOM      8  C   UNL     1      12.279   4.522  21.570  1.00  0.00     0.123 A 
ATOM      9  C   UNL     1      11.306   5.521  21.516  1.00  0.00     0.094 A 
ATOM     10  C   UNL     1      11.081   6.225  20.332  1.00  0.00     0.146 A 
ATOM     11  O   UNL     1      10.160   7.183  20.330  1.00  0.00    -0.452 OA
ENDROOT
BRANCH   1  12
ATOM     12  C   UNL     1       8.835   8.967  19.400  1.00  0.00     0.025 A 
ATOM     13  C   UNL     1       7.486   8.579  19.410  1.00  0.00     0.016 A 
ATOM     14  C   UNL     1       6.474   9.534  19.553  1.00  0.00     0.051 A 
ATOM     15  C   UNL     1       6.800  10.888  19.704  1.00  0.00     0.157 A 
ATOM     16  C   UNL     1       9.157  10.325  19.573  1.00  0.00     0.062 A 
ATOM     17  C   UNL     1       8.143  11.284  19.718  1.00  0.00     0.158 A 
BRANCH  15  18
ATOM     18  O   UNL     1       5.795  11.844  19.845  1.00  0.00    -0.504 OA
ATOM     19  H   UNL     1       4.829  11.579  19.990  1.00  0.00     0.293 HD
ENDBRANCH  15  18
BRANCH  17  20
ATOM     20  O   UNL     1       8.464  12.631  19.883  1.00  0.00    -0.504 OA
ATOM     21  H   UNL     1       8.801  13.194  19.111  1.00  0.00     0.293 HD
ENDBRANCH  17  20
ENDBRANCH   1  12
BRANCH   2  22
ATOM     22  O   UNL     1      10.281   8.484  16.936  1.00  0.00    -0.502 OA
ATOM     23  H   UNL     1      10.827   9.291  16.655  1.00  0.00     0.293 HD
ENDBRANCH   2  22
BRANCH   6  24
ATOM     24  O   UNL     1      13.506   4.411  18.110  1.00  0.00    -0.507 OA
ATOM     25  H   UNL     1      14.474   4.128  18.131  1.00  0.00     0.293 HD
ENDBRANCH   6  24
BRANCH   8  26
ATOM     26  O   UNL     1      12.523   3.830  22.755  1.00  0.00    -0.508 OA
ATOM     27  H   UNL     1      11.765   3.463  23.319  1.00  0.00     0.293 HD
ENDBRANCH   8  26
TORSDOF 6
ENDMDL
MODEL 4
REMARK VINA RESULT:    -5.597      9.925     11.887
REMARK INTER + INTRA:          -7.057
REMARK INTER:                  -6.735
REMARK INTRA:                  -0.322
REMARK UNBOUND:                -0.315
REMARK SMILES O=c1c(O)c(-c2ccc(O)c(O)c2)oc2cc(O)cc(O)c12
REMARK SMILES IDX 5 1 3 2 2 3 1 4 22 5 20 6 19 7 17 8 16 9 15 10 14 11 6 12
REMARK SMILES IDX 7 13 8 14 9 15 13 16 11 17 10 18 12 20 4 22 21 24 18 26
REMARK H PARENT 10 19 12 21 4 23 21 25 18 27
REMARK Flexibility Score: inf
ROOT
ATOM      1  C   UNL     1       8.638  14.029  20.905  1.00  0.00     0.180 A 
ATOM      2  C   UNL     1       8.346  13.024  19.966  1.00  0.00     0.208 A 
ATOM      3  C   UNL     1       7.073  12.434  19.974  1.00  0.00     0.238 A 
ATOM      4  O   UNL     1       6.843  11.483  19.182  1.00  0.00    -0.285 OA
ATOM      5  C   UNL     1       6.088  12.893  20.883  1.00  0.00     0.111 A 
ATOM      6  C   UNL     1       4.750  12.398  20.950  1.00  0.00     0.134 A 
ATOM      7  C   UNL     1       3.895  12.854  21.960  1.00  0.00     0.093 A 
ATOM      8  C   UNL     1       4.306  13.831  22.866  1.00  0.00     0.123 A 
ATOM      9  C   UNL     1       5.593  14.362  22.775  1.00  0.00     0.094 A 
ATOM     10  C   UNL     1       6.482  13.900  21.803  1.00  0.00     0.146 A 
ATOM     11  O   UNL     1       7.705  14.416  21.766  1.00  0.00    -0.452 OA
ENDROOT
BRANCH   1  12
ATOM     12  C   UNL     1       9.962  14.687  20.967  1.00  0.00     0.025 A 
ATOM     13  C   UNL     1      10.982  14.114  21.744  1.00  0.00     0.016 A 
ATOM     14  C   UNL     1      12.247  14.706  21.801  1.00  0.00     0.051 A 
ATOM     15  C   UNL     1      12.515  15.869  21.068  1.00  0.00     0.157 A 
ATOM     16  C   UNL     1      10.242  15.844  20.216  1.00  0.00     0.062 A 
ATOM     17  C   UNL     1      11.513  16.437  20.272  1.00  0.00     0.158 A 
BRANCH  15  18
ATOM     18  O   UNL     1      13.774  16.464  21.123  1.00  0.00    -0.504 OA
ATOM     19  H   UNL     1      14.526  16.062  21.670  1.00  0.00     0.293 HD
ENDBRANCH  15  18
BRANCH  17  20
ATOM     20  O   UNL     1      11.786  17.587  19.533  1.00  0.00    -0.504 OA
ATOM     21  H   UNL     1      12.727  17.813  19.232  1.00  0.00     0.293 HD
ENDBRANCH  17  20
ENDBRANCH   1  12
BRANCH   2  22
ATOM     22  O   UNL     1       9.307  12.637  19.028  1.00  0.00    -0.502 OA
ATOM     23  H   UNL     1       9.310  11.719  18.599  1.00  0.00     0.293 HD
ENDBRANCH   2  22
BRANCH   6  24
ATOM     24  O   UNL     1       4.206  11.485  20.042  1.00  0.00    -0.507 OA
ATOM     25  H   UNL     1       4.437  10.504  20.000  1.00  0.00     0.293 HD
ENDBRANCH   6  24
BRANCH   8  26
ATOM     26  O   UNL     1       3.422  14.274  23.848  1.00  0.00    -0.508 OA
ATOM     27  H   UNL     1       2.600  14.818  23.615  1.00  0.00     0.293 HD
ENDBRANCH   8  26
TORSDOF 6
ENDMDL
MODEL 5
REMARK VINA RESULT:    -5.465     15.277     16.220
REMARK INTER + INTRA:          -6.898
REMARK INTER:                  -6.612
REMARK INTRA:                  -0.286
REMARK UNBOUND:                -0.315
REMARK SMILES O=c1c(O)c(-c2ccc(O)c(O)c2)oc2cc(O)cc(O)c12
REMARK SMILES IDX 5 1 3 2 2 3 1 4 22 5 20 6 19 7 17 8 16 9 15 10 14 11 6 12
REMARK SMILES IDX 7 13 8 14 9 15 13 16 11 17 10 18 12 20 4 22 21 24 18 26
REMARK H PARENT 10 19 12 21 4 23 21 25 18 27
REMARK Flexibility Score: inf
ROOT
ATOM      1  C   UNL     1       6.833  17.178  28.326  1.00  0.00     0.180 A 
ATOM      2  C   UNL     1       7.945  17.661  27.615  1.00  0.00     0.208 A 
ATOM      3  C   UNL     1       9.228  17.485  28.156  1.00  0.00     0.238 A 
ATOM      4  O   UNL     1      10.212  17.986  27.553  1.00  0.00    -0.285 OA
ATOM      5  C   UNL     1       9.389  16.778  29.373  1.00  0.00     0.111 A 
ATOM      6  C   UNL     1      10.647  16.501  29.992  1.00  0.00     0.134 A 
ATOM      7  C   UNL     1      10.677  15.885  31.249  1.00  0.00     0.093 A 
ATOM      8  C   UNL     1       9.502  15.480  31.881  1.00  0.00     0.123 A 
ATOM      9  C   UNL     1       8.271  15.696  31.261  1.00  0.00     0.094 A 
ATOM     10  C   UNL     1       8.206  16.342  30.025  1.00  0.00     0.146 A 
ATOM     11  O   UNL     1       7.013  16.547  29.480  1.00  0.00    -0.452 OA
ENDROOT
BRANCH   1  12
ATOM     12  C   UNL     1       5.449  17.339  27.826  1.00  0.00     0.025 A 
ATOM     13  C   UNL     1       4.804  18.577  27.970  1.00  0.00     0.016 A 
ATOM     14  C   UNL     1       3.505  18.761  27.486  1.00  0.00     0.051 A 
ATOM     15  C   UNL     1       2.840  17.713  26.838  1.00  0.00     0.157 A 
ATOM     16  C   UNL     1       4.785  16.296  27.155  1.00  0.00     0.062 A 
ATOM     17  C   UNL     1       3.482  16.479  26.668  1.00  0.00     0.158 A 
BRANCH  15  18
ATOM     18  O   UNL     1       1.544  17.889  26.355  1.00  0.00    -0.504 OA
ATOM     19  H   UNL     1       0.960  17.100  26.104  1.00  0.00     0.293 HD
ENDBRANCH  15  18
BRANCH  17  20
ATOM     20  O   UNL     1       2.823  15.443  26.009  1.00  0.00    -0.504 OA
ATOM     21  H   UNL     1       2.752  15.416  24.999  1.00  0.00     0.293 HD
ENDBRANCH  17  20
ENDBRANCH   1  12
BRANCH   2  22
ATOM     22  O   UNL     1       7.772  18.289  26.379  1.00  0.00    -0.502 OA
ATOM     23  H   UNL     1       7.657  17.771  25.516  1.00  0.00     0.293 HD
ENDBRANCH   2  22
BRANCH   6  24
ATOM     24  O   UNL     1      11.885  16.783  29.409  1.00  0.00    -0.507 OA
ATOM     25  H   UNL     1      12.261  16.317  28.597  1.00  0.00     0.293 HD
ENDBRANCH   6  24
BRANCH   8  26
ATOM     26  O   UNL     1       9.571  14.855  33.125  1.00  0.00    -0.508 OA
ATOM     27  H   UNL     1       9.706  13.854  33.208  1.00  0.00     0.293 HD
ENDBRANCH   8  26
TORSDOF 6
ENDMDL
MODEL 6
REMARK VINA RESULT:    -5.462      1.457      3.207
REMARK INTER + INTRA:          -6.894
REMARK INTER:                  -6.645
REMARK INTRA:                  -0.249
REMARK UNBOUND:                -0.315
REMARK SMILES O=c1c(O)c(-c2ccc(O)c(O)c2)oc2cc(O)cc(O)c12
REMARK SMILES IDX 5 1 3 2 2 3 1 4 22 5 20 6 19 7 17 8 16 9 15 10 14 11 6 12
REMARK SMILES IDX 7 13 8 14 9 15 13 16 11 17 10 18 12 20 4 22 21 24 18 26
REMARK H PARENT 10 19 12 21 4 23 21 25 18 27
REMARK Flexibility Score: inf
ROOT
ATOM      1  C   UNL     1      13.487   5.581  20.509  1.00  0.00     0.180 A 
ATOM      2  C   UNL     1      12.852   5.187  21.699  1.00  0.00     0.208 A 
ATOM      3  C   UNL     1      13.198   5.825  22.900  1.00  0.00     0.238 A 
ATOM      4  O   UNL     1      12.682   5.417  23.972  1.00  0.00    -0.285 OA
ATOM      5  C   UNL     1      14.135   6.888  22.889  1.00  0.00     0.111 A 
ATOM      6  C   UNL     1      14.527   7.637  24.040  1.00  0.00     0.134 A 
ATOM      7  C   UNL     1      15.541   8.597  23.926  1.00  0.00     0.093 A 
ATOM      8  C   UNL     1      16.131   8.880  22.696  1.00  0.00     0.123 A 
ATOM      9  C   UNL     1      15.716   8.193  21.554  1.00  0.00     0.094 A 
ATOM     10  C   UNL     1      14.735   7.204  21.641  1.00  0.00     0.146 A 
ATOM     11  O   UNL     1      14.385   6.559  20.535  1.00  0.00    -0.452 OA
ENDROOT
BRANCH   1  12
ATOM     12  C   UNL     1      13.185   4.945  19.207  1.00  0.00     0.025 A 
ATOM     13  C   UNL     1      12.517   5.684  18.217  1.00  0.00     0.016 A 
ATOM     14  C   UNL     1      12.239   5.112  16.972  1.00  0.00     0.051 A 
ATOM     15  C   UNL     1      12.641   3.799  16.694  1.00  0.00     0.157 A 
ATOM     16  C   UNL     1      13.605   3.635  18.915  1.00  0.00     0.062 A 
ATOM     17  C   UNL     1      13.328   3.060  17.665  1.00  0.00     0.158 A 
BRANCH  15  18
ATOM     18  O   UNL     1      12.366   3.224  15.454  1.00  0.00    -0.504 OA
ATOM     19  H   UNL     1      12.360   2.219  15.327  1.00  0.00     0.293 HD
ENDBRANCH  15  18
BRANCH  17  20
ATOM     20  O   UNL     1      13.739   1.759  17.381  1.00  0.00    -0.504 OA
ATOM     21  H   UNL     1      14.595   1.573  16.872  1.00  0.00     0.293 HD
ENDBRANCH  17  20
ENDBRANCH   1  12
BRANCH   2  22
ATOM     22  O   UNL     1      11.875   4.188  21.677  1.00  0.00    -0.502 OA
ATOM     23  H   UNL     1      10.916   4.370  21.405  1.00  0.00     0.293 HD
ENDBRANCH   2  22
BRANCH   6  24
ATOM     24  O   UNL     1      13.943   7.498  25.302  1.00  0.00    -0.507 OA
ATOM     25  H   UNL     1      14.048   6.694  25.902  1.00  0.00     0.293 HD
ENDBRANCH   6  24
BRANCH   8  26
ATOM     26  O   UNL     1      17.125   9.853  22.617  1.00  0.00    -0.508 OA
ATOM     27  H   UNL     1      16.921  10.795  22.304  1.00  0.00     0.293 HD
ENDBRANCH   8  26
TORSDOF 6
ENDMDL
MODEL 7
REMARK VINA RESULT:    -5.451     15.385     17.575
REMARK INTER + INTRA:          -6.880
REMARK INTER:                  -6.587
REMARK INTRA:                  -0.293
REMARK UNBOUND:                -0.315
REMARK SMILES O=c1c(O)c(-c2ccc(O)c(O)c2)oc2cc(O)cc(O)c12
REMARK SMILES IDX 5 1 3 2 2 3 1 4 22 5 20 6 19 7 17 8 16 9 15 10 14 11 6 12
REMARK SMILES IDX 7 13 8 14 9 15 13 16 11 17 10 18 12 20 4 22 21 24 18 26
REMARK H PARENT 10 19 12 21 4 23 21 25 18 27
REMARK Flexibility Score: inf
ROOT
ATOM      1  C   UNL     1       4.242  16.428  27.373  1.00  0.00     0.180 A 
ATOM      2  C   UNL     1       3.195  17.359  27.263  1.00  0.00     0.208 A 
ATOM      3  C   UNL     1       1.876  16.892  27.148  1.00  0.00     0.238 A 
ATOM      4  O   UNL     1       0.952  17.728  26.974  1.00  0.00    -0.285 OA
ATOM      5  C   UNL     1       1.614  15.500  27.200  1.00  0.00     0.111 A 
ATOM      6  C   UNL     1       0.313  14.916  27.139  1.00  0.00     0.134 A 
ATOM      7  C   UNL     1       0.183  13.522  27.094  1.00  0.00     0.093 A 
ATOM      8  C   UNL     1       1.300  12.692  27.172  1.00  0.00     0.123 A 
ATOM      9  C   UNL     1       2.573  13.252  27.288  1.00  0.00     0.094 A 
ATOM     10  C   UNL     1       2.738  14.638  27.297  1.00  0.00     0.146 A 
ATOM     11  O   UNL     1       3.968  15.129  27.387  1.00  0.00    -0.452 OA
ENDROOT
BRANCH   1  12
ATOM     12  C   UNL     1       5.657  16.845  27.484  1.00  0.00     0.025 A 
ATOM     13  C   UNL     1       6.358  17.222  26.327  1.00  0.00     0.016 A 
ATOM     14  C   UNL     1       7.689  17.640  26.408  1.00  0.00     0.051 A 
ATOM     15  C   UNL     1       8.333  17.703  27.650  1.00  0.00     0.157 A 
ATOM     16  C   UNL     1       6.302  16.930  28.731  1.00  0.00     0.062 A 
ATOM     17  C   UNL     1       7.638  17.351  28.814  1.00  0.00     0.158 A 
BRANCH  15  18
ATOM     18  O   UNL     1       9.661  18.118  27.738  1.00  0.00    -0.504 OA
ATOM     19  H   UNL     1      10.372  17.533  28.162  1.00  0.00     0.293 HD
ENDBRANCH  15  18
BRANCH  17  20
ATOM     20  O   UNL     1       8.277  17.428  30.051  1.00  0.00    -0.504 OA
ATOM     21  H   UNL     1       7.778  17.264  30.917  1.00  0.00     0.293 HD
ENDBRANCH  17  20
ENDBRANCH   1  12
BRANCH   2  22
ATOM     22  O   UNL     1       3.466  18.730  27.289  1.00  0.00    -0.502 OA
ATOM     23  H   UNL     1       4.203  19.128  27.860  1.00  0.00     0.293 HD
ENDBRANCH   2  22
BRANCH   6  24
ATOM     24  O   UNL     1      -0.877  15.650  27.145  1.00  0.00    -0.507 OA
ATOM     25  H   UNL     1      -1.451  15.827  26.335  1.00  0.00     0.293 HD
ENDBRANCH   6  24
BRANCH   8  26
ATOM     26  O   UNL     1       1.132  11.309  27.141  1.00  0.00    -0.508 OA
ATOM     27  H   UNL     1       1.830  10.699  26.730  1.00  0.00     0.293 HD
ENDBRANCH   8  26
TORSDOF 6
ENDMDL
MODEL 8
REMARK VINA RESULT:    -5.374      1.782      6.483
REMARK INTER + INTRA:          -6.789
REMARK INTER:                  -6.655
REMARK INTRA:                  -0.134
REMARK UNBOUND:                -0.315
REMARK SMILES O=c1c(O)c(-c2ccc(O)c(O)c2)oc2cc(O)cc(O)c12
REMARK SMILES IDX 5 1 3 2 2 3 1 4 22 5 20 6 19 7 17 8 16 9 15 10 14 11 6 12
REMARK SMILES IDX 7 13 8 14 9 15 13 16 11 17 10 18 12 20 4 22 21 24 18 26
REMARK H PARENT 10 19 12 21 4 23 21 25 18 27
REMARK Flexibility Score: inf
ROOT
ATOM      1  C   UNL     1      13.944   5.937  20.078  1.00  0.00     0.180 A 
ATOM      2  C   UNL     1      15.294   6.122  19.732  1.00  0.00     0.208 A 
ATOM      3  C   UNL     1      15.672   6.023  18.384  1.00  0.00     0.238 A 
ATOM      4  O   UNL     1      16.892   6.114  18.090  1.00  0.00    -0.285 OA
ATOM      5  C   UNL     1      14.688   5.796  17.391  1.00  0.00     0.111 A 
ATOM      6  C   UNL     1      14.950   5.722  15.989  1.00  0.00     0.134 A 
ATOM      7  C   UNL     1      13.913   5.387  15.109  1.00  0.00     0.093 A 
ATOM      8  C   UNL     1      12.613   5.187  15.570  1.00  0.00     0.123 A 
ATOM      9  C   UNL     1      12.334   5.311  16.932  1.00  0.00     0.094 A 
ATOM     10  C   UNL     1      13.354   5.605  17.839  1.00  0.00     0.146 A 
ATOM     11  O   UNL     1      13.049   5.693  19.128  1.00  0.00    -0.452 OA
ENDROOT
BRANCH   1  12
ATOM     12  C   UNL     1      13.473   6.012  21.479  1.00  0.00     0.025 A 
ATOM     13  C   UNL     1      13.578   7.225  22.178  1.00  0.00     0.016 A 
ATOM     14  C   UNL     1      13.120   7.327  23.495  1.00  0.00     0.051 A 
ATOM     15  C   UNL     1      12.536   6.222  24.125  1.00  0.00     0.157 A 
ATOM     16  C   UNL     1      12.866   4.911  22.109  1.00  0.00     0.062 A 
ATOM     17  C   UNL     1      12.404   5.012  23.430  1.00  0.00     0.158 A 
BRANCH  15  18
ATOM     18  O   UNL     1      12.079   6.317  25.438  1.00  0.00    -0.504 OA
ATOM     19  H   UNL     1      12.622   5.960  26.215  1.00  0.00     0.293 HD
ENDBRANCH  15  18
BRANCH  17  20
ATOM     20  O   UNL     1      11.810   3.918  24.056  1.00  0.00    -0.504 OA
ATOM     21  H   UNL     1      12.285   3.401  24.785  1.00  0.00     0.293 HD
ENDBRANCH  17  20
ENDBRANCH   1  12
BRANCH   2  22
ATOM     22  O   UNL     1      16.238   6.420  20.718  1.00  0.00    -0.502 OA
ATOM     23  H   UNL     1      16.970   5.772  20.986  1.00  0.00     0.293 HD
ENDBRANCH   2  22
BRANCH   6  24
ATOM     24  O   UNL     1      16.193   5.990  15.409  1.00  0.00    -0.507 OA
ATOM     25  H   UNL     1      17.049   6.141  15.922  1.00  0.00     0.293 HD
ENDBRANCH   6  24
BRANCH   8  26
ATOM     26  O   UNL     1      11.602   4.872  14.664  1.00  0.00    -0.508 OA
ATOM     27  H   UNL     1      11.298   5.533  13.959  1.00  0.00     0.293 HD
ENDBRANCH   8  26
TORSDOF 6
ENDMDL
