MODEL 1
REMARK VINA RESULT:    -6.801      0.000      0.000
REMARK INTER + INTRA:          -7.397
REMARK INTER:                  -7.397
REMARK INTRA:                   0.000
REMARK UNBOUND:                 0.000
REMARK SMILES Cc1cc(O)c2c(c1)C(=O)c1cc(O)cc(O)c1C2=O
REMARK SMILES IDX 1 1 2 2 8 3 7 4 6 5 4 6 3 7 19 8 20 9 18 10 11 11 9 12 10 13
REMARK SMILES IDX 12 14 13 15 15 16 16 17 5 18 17 20 14 22
REMARK H PARENT 5 19 17 21 14 23
REMARK Flexibility Score: inf
ROOT
ATOM      1  C   UNL     1      40.356 -62.846 324.613  1.00  0.00     0.044 C 
ATOM      2  C   UNL     1      40.009 -61.418 324.914  1.00  0.00    -0.047 A 
ATOM      3  C   UNL     1      38.696 -60.964 324.757  1.00  0.00     0.016 A 
ATOM      4  C   UNL     1      38.364 -59.623 325.013  1.00  0.00     0.038 A 
ATOM      5  C   UNL     1      39.365 -58.717 325.433  1.00  0.00     0.076 A 
ATOM      6  C   UNL     1      40.713 -59.163 325.493  1.00  0.00     0.127 A 
ATOM      7  C   UNL     1      41.012 -60.509 325.260  1.00  0.00     0.050 A 
ATOM      8  C   UNL     1      38.953 -57.347 325.847  1.00  0.00     0.201 C 
ATOM      9  O   UNL     1      39.696 -56.661 326.598  1.00  0.00    -0.288 OA
ATOM     10  C   UNL     1      37.612 -56.826 325.472  1.00  0.00     0.076 A 
ATOM     11  C   UNL     1      36.636 -57.724 324.989  1.00  0.00     0.041 A 
ATOM     12  C   UNL     1      36.969 -59.157 324.828  1.00  0.00     0.194 C 
ATOM     13  O   UNL     1      36.064 -59.980 324.517  1.00  0.00    -0.289 OA
ATOM     14  C   UNL     1      35.352 -57.251 324.666  1.00  0.00     0.059 A 
ATOM     15  C   UNL     1      35.036 -55.898 324.812  1.00  0.00     0.120 A 
ATOM     16  C   UNL     1      36.000 -55.006 325.281  1.00  0.00     0.093 A 
ATOM     17  C   UNL     1      37.285 -55.456 325.611  1.00  0.00     0.131 A 
ENDROOT
BRANCH   6  18
ATOM     18  O   UNL     1      41.788 -58.305 325.741  1.00  0.00    -0.507 OA
ATOM     19  H   UNL     1      41.976 -57.472 325.200  1.00  0.00     0.293 HD
ENDBRANCH   6  18
BRANCH  17  20
ATOM     20  O   UNL     1      38.234 -54.540 326.066  1.00  0.00    -0.507 OA
ATOM     21  H   UNL     1      38.391 -54.382 327.054  1.00  0.00     0.293 HD
ENDBRANCH  17  20
BRANCH  15  22
ATOM     22  O   UNL     1      33.764 -55.426 324.491  1.00  0.00    -0.508 OA
ATOM     23  H   UNL     1      32.946 -56.020 324.562  1.00  0.00     0.293 HD
ENDBRANCH  15  22
TORSDOF 3
ENDMDL
MODEL 2
REMARK VINA RESULT:    -6.772     10.005     11.924
REMARK INTER + INTRA:          -7.366
REMARK INTER:                  -7.366
REMARK INTRA:                   0.000
REMARK UNBOUND:                 0.000
REMARK SMILES Cc1cc(O)c2c(c1)C(=O)c1cc(O)cc(O)c1C2=O
REMARK SMILES IDX 1 1 2 2 8 3 7 4 6 5 4 6 3 7 19 8 20 9 18 10 11 11 9 12 10 13
REMARK SMILES IDX 12 14 13 15 15 16 16 17 5 18 17 20 14 22
REMARK H PARENT 5 19 17 21 14 23
REMARK Flexibility Score: inf
ROOT
ATOM      1  C   UNL     1      44.157 -68.351 328.465  1.00  0.00     0.044 C 
ATOM      2  C   UNL     1      44.902 -67.357 329.307  1.00  0.00    -0.047 A 
ATOM      3  C   UNL     1      44.740 -65.986 329.087  1.00  0.00     0.016 A 
ATOM      4  C   UNL     1      45.451 -65.047 329.853  1.00  0.00     0.038 A 
ATOM      5  C   UNL     1      46.342 -65.487 330.858  1.00  0.00     0.076 A 
ATOM      6  C   UNL     1      46.575 -66.881 331.008  1.00  0.00     0.127 A 
ATOM      7  C   UNL     1      45.834 -67.795 330.252  1.00  0.00     0.050 A 
ATOM      8  C   UNL     1      46.957 -64.469 331.756  1.00  0.00     0.201 C 
ATOM      9  O   UNL     1      47.402 -64.806 332.885  1.00  0.00    -0.288 OA
ATOM     10  C   UNL     1      46.945 -63.033 331.373  1.00  0.00     0.076 A 
ATOM     11  C   UNL     1      46.103 -62.608 330.323  1.00  0.00     0.041 A 
ATOM     12  C   UNL     1      45.276 -63.597 329.595  1.00  0.00     0.194 C 
ATOM     13  O   UNL     1      44.433 -63.205 328.743  1.00  0.00    -0.289 OA
ATOM     14  C   UNL     1      46.053 -61.247 329.975  1.00  0.00     0.059 A 
ATOM     15  C   UNL     1      46.836 -60.311 330.657  1.00  0.00     0.120 A 
ATOM     16  C   UNL     1      47.675 -60.727 331.690  1.00  0.00     0.093 A 
ATOM     17  C   UNL     1      47.738 -62.079 332.054  1.00  0.00     0.131 A 
ENDROOT
BRANCH   6  18
ATOM     18  O   UNL     1      47.551 -67.403 331.860  1.00  0.00    -0.507 OA
ATOM     19  H   UNL     1      47.402 -67.571 332.846  1.00  0.00     0.293 HD
ENDBRANCH   6  18
BRANCH  17  20
ATOM     20  O   UNL     1      48.595 -62.470 333.083  1.00  0.00    -0.507 OA
ATOM     21  H   UNL     1      48.679 -63.439 333.368  1.00  0.00     0.293 HD
ENDBRANCH  17  20
BRANCH  15  22
ATOM     22  O   UNL     1      46.789 -58.960 330.314  1.00  0.00    -0.508 OA
ATOM     23  H   UNL     1      47.282 -58.260 330.855  1.00  0.00     0.293 HD
ENDBRANCH  15  22
TORSDOF 3
ENDMDL
MODEL 3
REMARK VINA RESULT:    -6.653      1.649      5.625
REMARK INTER + INTRA:          -7.236
REMARK INTER:                  -7.236
REMARK INTRA:                   0.000
REMARK UNBOUND:                 0.000
REMARK SMILES Cc1cc(O)c2c(c1)C(=O)c1cc(O)cc(O)c1C2=O
REMARK SMILES IDX 1 1 2 2 8 3 7 4 6 5 4 6 3 7 19 8 20 9 18 10 11 11 9 12 10 13
REMARK SMILES IDX 12 14 13 15 15 16 16 17 5 18 17 20 14 22
REMARK H PARENT 5 19 17 21 14 23
REMARK Flexibility Score: inf
ROOT
ATOM      1  C   UNL     1      34.763 -55.874 324.762  1.00  0.00     0.044 C 
ATOM      2  C   UNL     1      36.069 -56.553 325.053  1.00  0.00    -0.047 A 
ATOM      3  C   UNL     1      36.231 -57.915 324.780  1.00  0.00     0.016 A 
ATOM      4  C   UNL     1      37.442 -58.566 325.071  1.00  0.00     0.038 A 
ATOM      5  C   UNL     1      38.511 -57.842 325.647  1.00  0.00     0.076 A 
ATOM      6  C   UNL     1      38.304 -56.485 326.012  1.00  0.00     0.127 A 
ATOM      7  C   UNL     1      37.100 -55.853 325.687  1.00  0.00     0.050 A 
ATOM      8  C   UNL     1      39.828 -58.522 325.795  1.00  0.00     0.201 C 
ATOM      9  O   UNL     1      40.884 -57.843 325.899  1.00  0.00    -0.288 OA
ATOM     10  C   UNL     1      39.918 -60.004 325.705  1.00  0.00     0.076 A 
ATOM     11  C   UNL     1      38.821 -60.729 325.192  1.00  0.00     0.041 A 
ATOM     12  C   UNL     1      37.590 -60.014 324.787  1.00  0.00     0.194 C 
ATOM     13  O   UNL     1      36.659 -60.643 324.214  1.00  0.00    -0.289 OA
ATOM     14  C   UNL     1      38.906 -62.126 325.066  1.00  0.00     0.059 A 
ATOM     15  C   UNL     1      40.065 -62.805 325.452  1.00  0.00     0.120 A 
ATOM     16  C   UNL     1      41.148 -62.093 325.967  1.00  0.00     0.093 A 
ATOM     17  C   UNL     1      41.086 -60.699 326.099  1.00  0.00     0.131 A 
ENDROOT
BRANCH   6  18
ATOM     18  O   UNL     1      39.243 -55.738 326.728  1.00  0.00    -0.507 OA
ATOM     19  H   UNL     1      39.044 -55.288 327.612  1.00  0.00     0.293 HD
ENDBRANCH   6  18
BRANCH  17  20
ATOM     20  O   UNL     1      42.178 -60.014 326.629  1.00  0.00    -0.507 OA
ATOM     21  H   UNL     1      42.976 -59.758 326.058  1.00  0.00     0.293 HD
ENDBRANCH  17  20
BRANCH  15  22
ATOM     22  O   UNL     1      40.152 -64.191 325.330  1.00  0.00    -0.508 OA
ATOM     23  H   UNL     1      41.025 -64.682 325.483  1.00  0.00     0.293 HD
ENDBRANCH  15  22
TORSDOF 3
ENDMDL
MODEL 4
REMARK VINA RESULT:    -6.488      8.782     12.884
REMARK INTER + INTRA:          -7.057
REMARK INTER:                  -7.057
REMARK INTRA:                   0.000
REMARK UNBOUND:                 0.000
REMARK SMILES Cc1cc(O)c2c(c1)C(=O)c1cc(O)cc(O)c1C2=O
REMARK SMILES IDX 1 1 2 2 8 3 7 4 6 5 4 6 3 7 19 8 20 9 18 10 11 11 9 12 10 13
REMARK SMILES IDX 12 14 13 15 15 16 16 17 5 18 17 20 14 22
REMARK H PARENT 5 19 17 21 14 23
REMARK Flexibility Score: inf
ROOT
ATOM      1  C   UNL     1      44.471 -60.481 331.856  1.00  0.00     0.044 C 
ATOM      2  C   UNL     1      44.683 -61.682 330.981  1.00  0.00    -0.047 A 
ATOM      3  C   UNL     1      45.491 -62.737 331.416  1.00  0.00     0.016 A 
ATOM      4  C   UNL     1      45.715 -63.855 330.596  1.00  0.00     0.038 A 
ATOM      5  C   UNL     1      45.121 -63.919 329.314  1.00  0.00     0.076 A 
ATOM      6  C   UNL     1      44.384 -62.800 328.842  1.00  0.00     0.127 A 
ATOM      7  C   UNL     1      44.152 -61.711 329.688  1.00  0.00     0.050 A 
ATOM      8  C   UNL     1      45.249 -65.183 328.536  1.00  0.00     0.201 C 
ATOM      9  O   UNL     1      44.427 -65.449 327.619  1.00  0.00    -0.288 OA
ATOM     10  C   UNL     1      46.275 -66.191 328.913  1.00  0.00     0.076 A 
ATOM     11  C   UNL     1      46.915 -66.084 330.167  1.00  0.00     0.041 A 
ATOM     12  C   UNL     1      46.586 -64.958 331.069  1.00  0.00     0.194 C 
ATOM     13  O   UNL     1      47.062 -64.929 332.237  1.00  0.00    -0.289 OA
ATOM     14  C   UNL     1      47.859 -67.051 330.553  1.00  0.00     0.059 A 
ATOM     15  C   UNL     1      48.176 -68.114 329.702  1.00  0.00     0.120 A 
ATOM     16  C   UNL     1      47.551 -68.219 328.459  1.00  0.00     0.093 A 
ATOM     17  C   UNL     1      46.605 -67.267 328.056  1.00  0.00     0.131 A 
ENDROOT
BRANCH   6  18
ATOM     18  O   UNL     1      43.897 -62.705 327.535  1.00  0.00    -0.507 OA
ATOM     19  H   UNL     1      43.678 -63.507 326.960  1.00  0.00     0.293 HD
ENDBRANCH   6  18
BRANCH  17  20
ATOM     20  O   UNL     1      46.006 -67.389 326.803  1.00  0.00    -0.507 OA
ATOM     21  H   UNL     1      45.367 -66.687 326.446  1.00  0.00     0.293 HD
ENDBRANCH  17  20
BRANCH  15  22
ATOM     22  O   UNL     1      49.113 -69.074 330.081  1.00  0.00    -0.508 OA
ATOM     23  H   UNL     1      48.936 -70.064 329.959  1.00  0.00     0.293 HD
ENDBRANCH  15  22
TORSDOF 3
ENDMDL
MODEL 5
REMARK VINA RESULT:    -6.487      9.334     12.388
REMARK INTER + INTRA:          -7.055
REMARK INTER:                  -7.055
REMARK INTRA:                   0.000
REMARK UNBOUND:                 0.000
REMARK SMILES Cc1cc(O)c2c(c1)C(=O)c1cc(O)cc(O)c1C2=O
REMARK SMILES IDX 1 1 2 2 8 3 7 4 6 5 4 6 3 7 19 8 20 9 18 10 11 11 9 12 10 13
REMARK SMILES IDX 12 14 13 15 15 16 16 17 5 18 17 20 14 22
REMARK H PARENT 5 19 17 21 14 23
REMARK Flexibility Score: inf
ROOT
ATOM      1  C   UNL     1      48.283 -60.982 335.909  1.00  0.00     0.044 C 
ATOM      2  C   UNL     1      47.918 -61.876 334.761  1.00  0.00    -0.047 A 
ATOM      3  C   UNL     1      47.267 -61.353 333.640  1.00  0.00     0.016 A 
ATOM      4  C   UNL     1      46.900 -62.186 332.569  1.00  0.00     0.038 A 
ATOM      5  C   UNL     1      47.189 -63.569 332.621  1.00  0.00     0.076 A 
ATOM      6  C   UNL     1      47.760 -64.108 333.805  1.00  0.00     0.127 A 
ATOM      7  C   UNL     1      48.142 -63.254 334.845  1.00  0.00     0.050 A 
ATOM      8  C   UNL     1      46.930 -64.393 331.407  1.00  0.00     0.201 C 
ATOM      9  O   UNL     1      47.530 -65.489 331.245  1.00  0.00    -0.288 OA
ATOM     10  C   UNL     1      46.052 -63.874 330.325  1.00  0.00     0.076 A 
ATOM     11  C   UNL     1      45.710 -62.505 330.316  1.00  0.00     0.041 A 
ATOM     12  C   UNL     1      46.197 -61.616 331.395  1.00  0.00     0.194 C 
ATOM     13  O   UNL     1      45.998 -60.372 331.321  1.00  0.00    -0.289 OA
ATOM     14  C   UNL     1      44.911 -61.992 329.279  1.00  0.00     0.059 A 
ATOM     15  C   UNL     1      44.446 -62.829 328.261  1.00  0.00     0.120 A 
ATOM     16  C   UNL     1      44.775 -64.185 328.271  1.00  0.00     0.093 A 
ATOM     17  C   UNL     1      45.572 -64.716 329.294  1.00  0.00     0.131 A 
ENDROOT
BRANCH   6  18
ATOM     18  O   UNL     1      47.934 -65.479 334.011  1.00  0.00    -0.507 OA
ATOM     19  H   UNL     1      48.821 -65.953 333.911  1.00  0.00     0.293 HD
ENDBRANCH   6  18
BRANCH  17  20
ATOM     20  O   UNL     1      45.875 -66.077 329.287  1.00  0.00    -0.507 OA
ATOM     21  H   UNL     1      45.180 -66.779 329.513  1.00  0.00     0.293 HD
ENDBRANCH  17  20
BRANCH  15  22
ATOM     22  O   UNL     1      43.653 -62.324 327.232  1.00  0.00    -0.508 OA
ATOM     23  H   UNL     1      43.469 -62.862 326.393  1.00  0.00     0.293 HD
ENDBRANCH  15  22
TORSDOF 3
ENDMDL
MODEL 6
REMARK VINA RESULT:    -6.420     10.212     12.737
REMARK INTER + INTRA:          -6.983
REMARK INTER:                  -6.983
REMARK INTRA:                   0.000
REMARK UNBOUND:                 0.000
REMARK SMILES Cc1cc(O)c2c(c1)C(=O)c1cc(O)cc(O)c1C2=O
REMARK SMILES IDX 1 1 2 2 8 3 7 4 6 5 4 6 3 7 19 8 20 9 18 10 11 11 9 12 10 13
REMARK SMILES IDX 12 14 13 15 15 16 16 17 5 18 17 20 14 22
REMARK H PARENT 5 19 17 21 14 23
REMARK Flexibility Score: inf
ROOT
ATOM      1  C   UNL     1      46.259 -59.744 330.744  1.00  0.00     0.044 C 
ATOM      2  C   UNL     1      46.314 -61.219 331.013  1.00  0.00    -0.047 A 
ATOM      3  C   UNL     1      45.773 -62.123 330.094  1.00  0.00     0.016 A 
ATOM      4  C   UNL     1      45.798 -63.505 330.346  1.00  0.00     0.038 A 
ATOM      5  C   UNL     1      46.374 -63.993 331.542  1.00  0.00     0.076 A 
ATOM      6  C   UNL     1      46.830 -63.063 332.514  1.00  0.00     0.127 A 
ATOM      7  C   UNL     1      46.820 -61.694 332.227  1.00  0.00     0.050 A 
ATOM      8  C   UNL     1      46.526 -65.466 331.706  1.00  0.00     0.201 C 
ATOM      9  O   UNL     1      47.374 -65.930 332.513  1.00  0.00    -0.288 OA
ATOM     10  C   UNL     1      45.761 -66.397 330.834  1.00  0.00     0.076 A 
ATOM     11  C   UNL     1      45.131 -65.893 329.677  1.00  0.00     0.041 A 
ATOM     12  C   UNL     1      45.207 -64.448 329.366  1.00  0.00     0.194 C 
ATOM     13  O   UNL     1      44.752 -64.017 328.271  1.00  0.00    -0.289 OA
ATOM     14  C   UNL     1      44.436 -66.768 328.824  1.00  0.00     0.059 A 
ATOM     15  C   UNL     1      44.358 -68.133 329.116  1.00  0.00     0.120 A 
ATOM     16  C   UNL     1      44.973 -68.633 330.263  1.00  0.00     0.093 A 
ATOM     17  C   UNL     1      45.673 -67.779 331.126  1.00  0.00     0.131 A 
ENDROOT
BRANCH   6  18
ATOM     18  O   UNL     1      47.265 -63.443 333.786  1.00  0.00    -0.507 OA
ATOM     19  H   UNL     1      46.640 -63.674 334.546  1.00  0.00     0.293 HD
ENDBRANCH   6  18
BRANCH  17  20
ATOM     20  O   UNL     1      46.267 -68.304 332.273  1.00  0.00    -0.507 OA
ATOM     21  H   UNL     1      46.381 -67.753 333.116  1.00  0.00     0.293 HD
ENDBRANCH  17  20
BRANCH  15  22
ATOM     22  O   UNL     1      43.669 -69.002 328.272  1.00  0.00    -0.508 OA
ATOM     23  H   UNL     1      42.668 -69.135 328.353  1.00  0.00     0.293 HD
ENDBRANCH  15  22
TORSDOF 3
ENDMDL
MODEL 7
REMARK VINA RESULT:    -6.418      9.501     11.901
REMARK INTER + INTRA:          -6.981
REMARK INTER:                  -6.981
REMARK INTRA:                   0.000
REMARK UNBOUND:                 0.000
REMARK SMILES Cc1cc(O)c2c(c1)C(=O)c1cc(O)cc(O)c1C2=O
REMARK SMILES IDX 1 1 2 2 8 3 7 4 6 5 4 6 3 7 19 8 20 9 18 10 11 11 9 12 10 13
REMARK SMILES IDX 12 14 13 15 15 16 16 17 5 18 17 20 14 22
REMARK H PARENT 5 19 17 21 14 23
REMARK Flexibility Score: inf
ROOT
ATOM      1  C   UNL     1      48.552 -61.214 332.549  1.00  0.00     0.044 C 
ATOM      2  C   UNL     1      47.657 -61.797 331.495  1.00  0.00    -0.047 A 
ATOM      3  C   UNL     1      47.654 -63.175 331.258  1.00  0.00     0.016 A 
ATOM      4  C   UNL     1      46.838 -63.728 330.257  1.00  0.00     0.038 A 
ATOM      5  C   UNL     1      46.010 -62.888 329.478  1.00  0.00     0.076 A 
ATOM      6  C   UNL     1      46.094 -61.481 329.659  1.00  0.00     0.127 A 
ATOM      7  C   UNL     1      46.893 -60.957 330.680  1.00  0.00     0.050 A 
ATOM      8  C   UNL     1      45.043 -63.520 328.537  1.00  0.00     0.201 C 
ATOM      9  O   UNL     1      44.030 -62.882 328.145  1.00  0.00    -0.288 OA
ATOM     10  C   UNL     1      45.205 -64.946 328.147  1.00  0.00     0.076 A 
ATOM     11  C   UNL     1      46.085 -65.765 328.886  1.00  0.00     0.041 A 
ATOM     12  C   UNL     1      46.858 -65.190 330.010  1.00  0.00     0.194 C 
ATOM     13  O   UNL     1      47.547 -65.946 330.749  1.00  0.00    -0.289 OA
ATOM     14  C   UNL     1      46.220 -67.124 328.552  1.00  0.00     0.059 A 
ATOM     15  C   UNL     1      45.495 -67.669 327.489  1.00  0.00     0.120 A 
ATOM     16  C   UNL     1      44.631 -66.861 326.750  1.00  0.00     0.093 A 
ATOM     17  C   UNL     1      44.480 -65.504 327.068  1.00  0.00     0.131 A 
ENDROOT
BRANCH   6  18
ATOM     18  O   UNL     1      45.438 -60.566 328.831  1.00  0.00    -0.507 OA
ATOM     19  H   UNL     1      45.271 -59.602 329.083  1.00  0.00     0.293 HD
ENDBRANCH   6  18
BRANCH  17  20
ATOM     20  O   UNL     1      43.619 -64.716 326.305  1.00  0.00    -0.507 OA
ATOM     21  H   UNL     1      43.783 -64.546 325.319  1.00  0.00     0.293 HD
ENDBRANCH  17  20
BRANCH  15  22
ATOM     22  O   UNL     1      45.628 -69.016 327.154  1.00  0.00    -0.508 OA
ATOM     23  H   UNL     1      45.212 -69.746 327.721  1.00  0.00     0.293 HD
ENDBRANCH  15  22
TORSDOF 3
ENDMDL
MODEL 8
REMARK VINA RESULT:    -6.384      1.143      3.424
REMARK INTER + INTRA:          -6.944
REMARK INTER:                  -6.944
REMARK INTRA:                   0.000
REMARK UNBOUND:                 0.000
REMARK SMILES Cc1cc(O)c2c(c1)C(=O)c1cc(O)cc(O)c1C2=O
REMARK SMILES IDX 1 1 2 2 8 3 7 4 6 5 4 6 3 7 19 8 20 9 18 10 11 11 9 12 10 13
REMARK SMILES IDX 12 14 13 15 15 16 16 17 5 18 17 20 14 22
REMARK H PARENT 5 19 17 21 14 23
REMARK Flexibility Score: inf
ROOT
ATOM      1  C   UNL     1      40.161 -62.149 325.439  1.00  0.00     0.044 C 
ATOM      2  C   UNL     1      39.176 -61.037 325.225  1.00  0.00    -0.047 A 
ATOM      3  C   UNL     1      39.456 -59.749 325.691  1.00  0.00     0.016 A 
ATOM      4  C   UNL     1      38.531 -58.706 325.517  1.00  0.00     0.038 A 
ATOM      5  C   UNL     1      37.301 -58.956 324.866  1.00  0.00     0.076 A 
ATOM      6  C   UNL     1      36.983 -60.287 324.486  1.00  0.00     0.127 A 
ATOM      7  C   UNL     1      37.932 -61.302 324.645  1.00  0.00     0.050 A 
ATOM      8  C   UNL     1      36.414 -57.799 324.558  1.00  0.00     0.201 C 
ATOM      9  O   UNL     1      35.548 -57.889 323.648  1.00  0.00    -0.288 OA
ATOM     10  C   UNL     1      36.623 -56.495 325.242  1.00  0.00     0.076 A 
ATOM     11  C   UNL     1      37.825 -56.275 325.948  1.00  0.00     0.041 A 
ATOM     12  C   UNL     1      38.840 -57.349 326.030  1.00  0.00     0.194 C 
ATOM     13  O   UNL     1      39.964 -57.112 326.552  1.00  0.00    -0.289 OA
ATOM     14  C   UNL     1      38.052 -55.034 326.568  1.00  0.00     0.059 A 
ATOM     15  C   UNL     1      37.095 -54.018 326.497  1.00  0.00     0.120 A 
ATOM     16  C   UNL     1      35.902 -54.235 325.807  1.00  0.00     0.093 A 
ATOM     17  C   UNL     1      35.656 -55.464 325.180  1.00  0.00     0.131 A 
ENDROOT
BRANCH   6  18
ATOM     18  O   UNL     1      35.732 -60.658 323.985  1.00  0.00    -0.507 OA
ATOM     19  H   UNL     1      34.856 -60.360 324.390  1.00  0.00     0.293 HD
ENDBRANCH   6  18
BRANCH  17  20
ATOM     20  O   UNL     1      34.450 -55.658 324.508  1.00  0.00    -0.507 OA
ATOM     21  H   UNL     1      33.965 -54.895 324.050  1.00  0.00     0.293 HD
ENDBRANCH  17  20
BRANCH  15  22
ATOM     22  O   UNL     1      37.317 -52.787 327.112  1.00  0.00    -0.508 OA
ATOM     23  H   UNL     1      38.210 -52.558 327.532  1.00  0.00     0.293 HD
ENDBRANCH  15  22
TORSDOF 3
ENDMDL
MODEL 9
REMARK VINA RESULT:    -6.350     10.118     13.274
REMARK INTER + INTRA:          -6.907
REMARK INTER:                  -6.907
REMARK INTRA:                   0.000
REMARK UNBOUND:                 0.000
REMARK SMILES Cc1cc(O)c2c(c1)C(=O)c1cc(O)cc(O)c1C2=O
REMARK SMILES IDX 1 1 2 2 8 3 7 4 6 5 4 6 3 7 19 8 20 9 18 10 11 11 9 12 10 13
REMARK SMILES IDX 12 14 13 15 15 16 16 17 5 18 17 20 14 22
REMARK H PARENT 5 19 17 21 14 23
REMARK Flexibility Score: inf
ROOT
ATOM      1  C   UNL     1      43.947 -62.203 328.123  1.00  0.00     0.044 C 
ATOM      2  C   UNL     1      44.788 -62.787 329.220  1.00  0.00    -0.047 A 
ATOM      3  C   UNL     1      44.841 -62.167 330.472  1.00  0.00     0.016 A 
ATOM      4  C   UNL     1      45.644 -62.691 331.499  1.00  0.00     0.038 A 
ATOM      5  C   UNL     1      46.410 -63.857 331.269  1.00  0.00     0.076 A 
ATOM      6  C   UNL     1      46.427 -64.422 329.966  1.00  0.00     0.127 A 
ATOM      7  C   UNL     1      45.598 -63.898 328.969  1.00  0.00     0.050 A 
ATOM      8  C   UNL     1      47.124 -64.475 332.422  1.00  0.00     0.201 C 
ATOM      9  O   UNL     1      47.458 -65.688 332.384  1.00  0.00    -0.288 OA
ATOM     10  C   UNL     1      47.343 -63.695 333.669  1.00  0.00     0.076 A 
ATOM     11  C   UNL     1      46.626 -62.495 333.864  1.00  0.00     0.041 A 
ATOM     12  C   UNL     1      45.699 -62.012 332.816  1.00  0.00     0.194 C 
ATOM     13  O   UNL     1      44.966 -61.010 333.040  1.00  0.00    -0.289 OA
ATOM     14  C   UNL     1      46.795 -61.767 335.054  1.00  0.00     0.059 A 
ATOM     15  C   UNL     1      47.673 -62.218 336.044  1.00  0.00     0.120 A 
ATOM     16  C   UNL     1      48.389 -63.398 335.852  1.00  0.00     0.093 A 
ATOM     17  C   UNL     1      48.234 -64.141 334.673  1.00  0.00     0.131 A 
ENDROOT
BRANCH   6  18
ATOM     18  O   UNL     1      47.273 -65.473 329.603  1.00  0.00    -0.507 OA
ATOM     19  H   UNL     1      47.003 -66.219 328.975  1.00  0.00     0.293 HD
ENDBRANCH   6  18
BRANCH  17  20
ATOM     20  O   UNL     1      48.973 -65.311 334.501  1.00  0.00    -0.507 OA
ATOM     21  H   UNL     1      48.804 -66.136 335.065  1.00  0.00     0.293 HD
ENDBRANCH  17  20
BRANCH  15  22
ATOM     22  O   UNL     1      47.843 -61.497 337.225  1.00  0.00    -0.508 OA
ATOM     23  H   UNL     1      47.055 -61.095 337.719  1.00  0.00     0.293 HD
ENDBRANCH  15  22
TORSDOF 3
ENDMDL
