MODEL 1
REMARK VINA RESULT:    -4.429      0.000      0.000
REMARK INTER + INTRA:          -5.797
REMARK INTER:                  -6.500
REMARK INTRA:                   0.703
REMARK UNBOUND:                 0.703
REMARK SMILES C=C1CC=CC(C)(C)CC=C(C)CCC1
REMARK SMILES IDX 2 1 1 2 15 3 14 4 13 5 11 6 12 7 10 8 3 10 4 11 5 12 6 13
REMARK SMILES IDX 7 14 8 15 9 16
REMARK H PARENT
REMARK Flexibility Score: 60.00
ROOT
ATOM      1  C   UNL     1     -49.386 -50.787  16.418  1.00  0.00    -0.074 C 
ATOM      2  C   UNL     1     -50.420 -51.078  15.611  1.00  0.00     0.008 C 
ENDROOT
BRANCH   1   3
ATOM      3  C   UNL     1     -48.013 -50.553  15.809  1.00  0.00     0.031 C 
BRANCH   3   4
ATOM      4  C   UNL     1     -47.622 -49.057  15.729  1.00  0.00     0.009 C 
BRANCH   4   5
ATOM      5  C   UNL     1     -47.111 -48.472  17.069  1.00  0.00     0.030 C 
BRANCH   5   6
ATOM      6  C   UNL     1     -48.004 -47.356  17.592  1.00  0.00    -0.077 C 
ATOM      7  C   UNL     1     -48.194 -46.120  16.750  1.00  0.00     0.039 C 
ATOM      8  C   UNL     1     -48.617 -47.406  18.800  1.00  0.00    -0.027 CG0
ATOM      9  G   UNL     1     -48.539 -48.578  19.760  1.00  0.00     0.000 G0
ENDBRANCH   5   6
ENDBRANCH   4   5
ENDBRANCH   3   4
ENDBRANCH   1   3
BRANCH   1  10
ATOM     10  C   UNL     1     -49.518 -50.973  17.917  1.00  0.00     0.057 C 
BRANCH  10  11
ATOM     11  C   UNL     1     -50.751 -50.361  18.559  1.00  0.00    -0.026 C 
ATOM     12  C   UNL     1     -50.882 -49.618  19.689  1.00  0.00    -0.024 C 
BRANCH  12  13
ATOM     13  C   UNL     1     -49.833 -48.891  20.548  1.00  0.00    -0.014 C 
ATOM     14  C   UNL     1     -50.491 -47.628  21.145  1.00  0.00     0.016 C 
ATOM     15  C   UNL     1     -49.478 -49.826  21.732  1.00  0.00     0.016 C 
BRANCH  13  16
ATOM     16  C   UNL     1     -48.521 -48.578  19.770  1.00  0.00     0.038 CG0
ATOM     17  G   UNL     1     -48.632 -47.404  18.816  1.00  0.00     0.000 G0
ENDBRANCH  13  16
ENDBRANCH  12  13
ENDBRANCH  10  11
ENDBRANCH   1  10
TORSDOF 0
ENDMDL
MODEL 2
REMARK VINA RESULT:    -4.185      9.624     12.278
REMARK INTER + INTRA:          -5.438
REMARK INTER:                  -5.842
REMARK INTRA:                   0.404
REMARK UNBOUND:                 0.703
REMARK SMILES C=C1CC=CC(C)(C)CC=C(C)CCC1
REMARK SMILES IDX 2 1 1 2 15 3 14 4 13 5 11 6 12 7 10 8 3 10 4 11 5 12 6 13
REMARK SMILES IDX 7 14 8 15 9 16
REMARK H PARENT
REMARK Flexibility Score: 60.00
ROOT
ATOM      1  C   UNL     1     -40.406 -47.457  28.432  1.00  0.00    -0.074 C 
ATOM      2  C   UNL     1     -39.360 -46.660  28.708  1.00  0.00     0.008 C 
ENDROOT
BRANCH   1   3
ATOM      3  C   UNL     1     -40.314 -48.940  28.758  1.00  0.00     0.031 C 
BRANCH   3   4
ATOM      4  C   UNL     1     -41.167 -49.355  29.980  1.00  0.00     0.009 C 
BRANCH   4   5
ATOM      5  C   UNL     1     -42.301 -50.355  29.641  1.00  0.00     0.030 C 
BRANCH   5   6
ATOM      6  C   UNL     1     -43.643 -49.666  29.447  1.00  0.00    -0.077 C 
ATOM      7  C   UNL     1     -44.392 -49.175  30.660  1.00  0.00     0.039 C 
ATOM      8  C   UNL     1     -44.217 -49.497  28.230  1.00  0.00    -0.027 CG0
ATOM      9  G   UNL     1     -43.594 -49.922  26.915  1.00  0.00     0.000 G0
ENDBRANCH   5   6
ENDBRANCH   4   5
ENDBRANCH   3   4
ENDBRANCH   1   3
BRANCH   1  10
ATOM     10  C   UNL     1     -41.534 -46.952  27.554  1.00  0.00     0.057 C 
BRANCH  10  11
ATOM     11  C   UNL     1     -41.499 -47.398  26.103  1.00  0.00    -0.026 C 
ATOM     12  C   UNL     1     -42.299 -48.262  25.424  1.00  0.00    -0.024 C 
BRANCH  12  13
ATOM     13  C   UNL     1     -43.671 -48.860  25.779  1.00  0.00    -0.014 C 
ATOM     14  C   UNL     1     -44.631 -47.699  26.118  1.00  0.00     0.016 C 
ATOM     15  C   UNL     1     -44.219 -49.550  24.504  1.00  0.00     0.016 C 
BRANCH  13  16
ATOM     16  C   UNL     1     -43.594 -49.929  26.910  1.00  0.00     0.038 CG0
ATOM     17  G   UNL     1     -44.205 -49.484  28.225  1.00  0.00     0.000 G0
ENDBRANCH  13  16
ENDBRANCH  12  13
ENDBRANCH  10  11
ENDBRANCH   1  10
TORSDOF 0
ENDMDL
MODEL 3
REMARK VINA RESULT:    -4.134      9.754     11.679
REMARK INTER + INTRA:          -5.364
REMARK INTER:                  -5.658
REMARK INTRA:                   0.294
REMARK UNBOUND:                 0.703
REMARK SMILES C=C1CC=CC(C)(C)CC=C(C)CCC1
REMARK SMILES IDX 2 1 1 2 15 3 14 4 13 5 11 6 12 7 10 8 3 10 4 11 5 12 6 13
REMARK SMILES IDX 7 14 8 15 9 16
REMARK H PARENT
REMARK Flexibility Score: 60.00
ROOT
ATOM      1  C   UNL     1     -44.159 -49.519  25.680  1.00  0.00    -0.074 C 
ATOM      2  C   UNL     1     -44.005 -50.023  24.444  1.00  0.00     0.008 C 
ENDROOT
BRANCH   1   3
ATOM      3  C   UNL     1     -44.125 -48.012  25.876  1.00  0.00     0.031 C 
BRANCH   3   4
ATOM      4  C   UNL     1     -42.781 -47.367  25.458  1.00  0.00     0.009 C 
BRANCH   4   5
ATOM      5  C   UNL     1     -41.540 -48.049  26.086  1.00  0.00     0.030 C 
BRANCH   5   6
ATOM      6  C   UNL     1     -41.193 -47.476  27.452  1.00  0.00    -0.077 C 
ATOM      7  C   UNL     1     -41.048 -45.983  27.601  1.00  0.00     0.039 C 
ATOM      8  C   UNL     1     -40.977 -48.250  28.544  1.00  0.00    -0.027 CG0
ATOM      9  G   UNL     1     -41.094 -49.762  28.568  1.00  0.00     0.000 G0
ENDBRANCH   5   6
ENDBRANCH   4   5
ENDBRANCH   3   4
ENDBRANCH   1   3
BRANCH   1  10
ATOM     10  C   UNL     1     -44.076 -50.432  26.888  1.00  0.00     0.057 C 
BRANCH  10  11
ATOM     11  C   UNL     1     -44.287 -49.771  28.239  1.00  0.00    -0.026 C 
ATOM     12  C   UNL     1     -43.548 -49.831  29.377  1.00  0.00    -0.024 C 
BRANCH  12  13
ATOM     13  C   UNL     1     -42.113 -50.330  29.626  1.00  0.00    -0.014 C 
ATOM     14  C   UNL     1     -41.731 -49.991  31.083  1.00  0.00     0.016 C 
ATOM     15  C   UNL     1     -42.134 -51.874  29.505  1.00  0.00     0.016 C 
BRANCH  13  16
ATOM     16  C   UNL     1     -41.090 -49.778  28.589  1.00  0.00     0.038 CG0
ATOM     17  G   UNL     1     -40.978 -48.265  28.574  1.00  0.00     0.000 G0
ENDBRANCH  13  16
ENDBRANCH  12  13
ENDBRANCH  10  11
ENDBRANCH   1  10
TORSDOF 0
ENDMDL
MODEL 4
REMARK VINA RESULT:    -4.121     10.456     12.784
REMARK INTER + INTRA:          -5.345
REMARK INTER:                  -6.081
REMARK INTRA:                   0.736
REMARK UNBOUND:                 0.703
REMARK SMILES C=C1CC=CC(C)(C)CC=C(C)CCC1
REMARK SMILES IDX 2 1 1 2 15 3 14 4 13 5 11 6 12 7 10 8 3 10 4 11 5 12 6 13
REMARK SMILES IDX 7 14 8 15 9 16
REMARK H PARENT
REMARK Flexibility Score: 60.00
ROOT
ATOM      1  C   UNL     1     -39.832 -47.616  28.081  1.00  0.00    -0.074 C 
ATOM      2  C   UNL     1     -38.922 -46.843  28.696  1.00  0.00     0.008 C 
ENDROOT
BRANCH   1   3
ATOM      3  C   UNL     1     -40.805 -46.979  27.101  1.00  0.00     0.031 C 
BRANCH   3   4
ATOM      4  C   UNL     1     -42.082 -46.422  27.775  1.00  0.00     0.009 C 
BRANCH   4   5
ATOM      5  C   UNL     1     -43.389 -47.102  27.297  1.00  0.00     0.030 C 
BRANCH   5   6
ATOM      6  C   UNL     1     -43.153 -48.517  26.789  1.00  0.00    -0.077 C 
ATOM      7  C   UNL     1     -42.758 -48.718  25.348  1.00  0.00     0.039 C 
ATOM      8  C   UNL     1     -43.312 -49.616  27.566  1.00  0.00    -0.027 CG0
ATOM      9  G   UNL     1     -43.693 -49.588  29.034  1.00  0.00     0.000 G0
ENDBRANCH   5   6
ENDBRANCH   4   5
ENDBRANCH   3   4
ENDBRANCH   1   3
BRANCH   1  10
ATOM     10  C   UNL     1     -40.078 -49.031  28.566  1.00  0.00     0.057 C 
BRANCH  10  11
ATOM     11  C   UNL     1     -40.484 -49.176  30.022  1.00  0.00    -0.026 C 
ATOM     12  C   UNL     1     -41.633 -49.643  30.577  1.00  0.00    -0.024 C 
BRANCH  12  13
ATOM     13  C   UNL     1     -42.793 -50.451  29.970  1.00  0.00    -0.014 C 
ATOM     14  C   UNL     1     -42.200 -51.685  29.257  1.00  0.00     0.016 C 
ATOM     15  C   UNL     1     -43.657 -50.973  31.146  1.00  0.00     0.016 C 
BRANCH  13  16
ATOM     16  C   UNL     1     -43.708 -49.598  29.041  1.00  0.00     0.038 CG0
ATOM     17  G   UNL     1     -43.311 -49.637  27.578  1.00  0.00     0.000 G0
ENDBRANCH  13  16
ENDBRANCH  12  13
ENDBRANCH  10  11
ENDBRANCH   1  10
TORSDOF 0
ENDMDL
MODEL 5
REMARK VINA RESULT:    -4.038     10.331     12.820
REMARK INTER + INTRA:          -5.223
REMARK INTER:                  -5.736
REMARK INTRA:                   0.513
REMARK UNBOUND:                 0.703
REMARK SMILES C=C1CC=CC(C)(C)CC=C(C)CCC1
REMARK SMILES IDX 2 1 1 2 15 3 14 4 13 5 11 6 12 7 10 8 3 10 4 11 5 12 6 13
REMARK SMILES IDX 7 14 8 15 9 16
REMARK H PARENT
REMARK Flexibility Score: 60.00
ROOT
ATOM      1  C   UNL     1     -40.687 -48.736  28.548  1.00  0.00    -0.074 C 
ATOM      2  C   UNL     1     -39.814 -47.738  28.765  1.00  0.00     0.008 C 
ENDROOT
BRANCH   1   3
ATOM      3  C   UNL     1     -41.456 -48.777  27.237  1.00  0.00     0.031 C 
BRANCH   3   4
ATOM      4  C   UNL     1     -42.577 -47.714  27.148  1.00  0.00     0.009 C 
BRANCH   4   5
ATOM      5  C   UNL     1     -43.405 -47.567  28.449  1.00  0.00     0.030 C 
BRANCH   5   6
ATOM      6  C   UNL     1     -44.707 -48.352  28.398  1.00  0.00    -0.077 C 
ATOM      7  C   UNL     1     -45.607 -48.194  27.199  1.00  0.00     0.039 C 
ATOM      8  C   UNL     1     -45.116 -49.169  29.400  1.00  0.00    -0.027 CG0
ATOM      9  G   UNL     1     -44.327 -49.446  30.665  1.00  0.00     0.000 G0
ENDBRANCH   5   6
ENDBRANCH   4   5
ENDBRANCH   3   4
ENDBRANCH   1   3
BRANCH   1  10
ATOM     10  C   UNL     1     -41.112 -49.634  29.694  1.00  0.00     0.057 C 
BRANCH  10  11
ATOM     11  C   UNL     1     -41.855 -50.900  29.308  1.00  0.00    -0.026 C 
ATOM     12  C   UNL     1     -42.940 -51.495  29.870  1.00  0.00    -0.024 C 
BRANCH  12  13
ATOM     13  C   UNL     1     -43.968 -50.968  30.887  1.00  0.00    -0.014 C 
ATOM     14  C   UNL     1     -45.210 -51.884  30.835  1.00  0.00     0.016 C 
ATOM     15  C   UNL     1     -43.343 -51.123  32.297  1.00  0.00     0.016 C 
BRANCH  13  16
ATOM     16  C   UNL     1     -44.317 -49.465  30.676  1.00  0.00     0.038 CG0
ATOM     17  G   UNL     1     -45.107 -49.184  29.413  1.00  0.00     0.000 G0
ENDBRANCH  13  16
ENDBRANCH  12  13
ENDBRANCH  10  11
ENDBRANCH   1  10
TORSDOF 0
ENDMDL
MODEL 6
REMARK VINA RESULT:    -4.032      2.927      5.667
REMARK INTER + INTRA:          -5.214
REMARK INTER:                  -5.676
REMARK INTRA:                   0.462
REMARK UNBOUND:                 0.703
REMARK SMILES C=C1CC=CC(C)(C)CC=C(C)CCC1
REMARK SMILES IDX 2 1 1 2 15 3 14 4 13 5 11 6 12 7 10 8 3 10 4 11 5 12 6 13
REMARK SMILES IDX 7 14 8 15 9 16
REMARK H PARENT
REMARK Flexibility Score: 60.00
ROOT
ATOM      1  C   UNL     1     -53.689 -47.423  21.857  1.00  0.00    -0.074 C 
ATOM      2  C   UNL     1     -54.854 -46.754  21.876  1.00  0.00     0.008 C 
ENDROOT
BRANCH   1   3
ATOM      3  C   UNL     1     -53.699 -48.922  21.598  1.00  0.00     0.031 C 
BRANCH   3   4
ATOM      4  C   UNL     1     -52.930 -49.330  20.318  1.00  0.00     0.009 C 
BRANCH   4   5
ATOM      5  C   UNL     1     -51.732 -50.275  20.584  1.00  0.00     0.030 C 
BRANCH   5   6
ATOM      6  C   UNL     1     -50.409 -49.528  20.651  1.00  0.00    -0.077 C 
ATOM      7  C   UNL     1     -49.700 -49.181  19.367  1.00  0.00     0.039 C 
ATOM      8  C   UNL     1     -49.815 -49.182  21.821  1.00  0.00    -0.027 CG0
ATOM      9  G   UNL     1     -50.398 -49.445  23.196  1.00  0.00     0.000 G0
ENDBRANCH   5   6
ENDBRANCH   4   5
ENDBRANCH   3   4
ENDBRANCH   1   3
BRANCH   1  10
ATOM     10  C   UNL     1     -52.425 -46.761  22.369  1.00  0.00     0.057 C 
BRANCH  10  11
ATOM     11  C   UNL     1     -52.217 -46.793  23.872  1.00  0.00    -0.026 C 
ATOM     12  C   UNL     1     -51.348 -47.513  24.629  1.00  0.00    -0.024 C 
BRANCH  12  13
ATOM     13  C   UNL     1     -50.091 -48.311  24.241  1.00  0.00    -0.014 C 
ATOM     14  C   UNL     1     -49.020 -47.315  23.747  1.00  0.00     0.016 C 
ATOM     15  C   UNL     1     -49.544 -48.968  25.534  1.00  0.00     0.016 C 
BRANCH  13  16
ATOM     16  C   UNL     1     -50.384 -49.443  23.211  1.00  0.00     0.038 CG0
ATOM     17  G   UNL     1     -49.821 -49.181  21.827  1.00  0.00     0.000 G0
ENDBRANCH  13  16
ENDBRANCH  12  13
ENDBRANCH  10  11
ENDBRANCH   1  10
TORSDOF 0
ENDMDL
MODEL 7
REMARK VINA RESULT:    -3.956      3.232      4.663
REMARK INTER + INTRA:          -5.103
REMARK INTER:                  -5.512
REMARK INTRA:                   0.409
REMARK UNBOUND:                 0.703
REMARK SMILES C=C1CC=CC(C)(C)CC=C(C)CCC1
REMARK SMILES IDX 2 1 1 2 15 3 14 4 13 5 11 6 12 7 10 8 3 10 4 11 5 12 6 13
REMARK SMILES IDX 7 14 8 15 9 16
REMARK H PARENT
REMARK Flexibility Score: 60.00
ROOT
ATOM      1  C   UNL     1     -52.068 -49.901  19.381  1.00  0.00    -0.074 C 
ATOM      2  C   UNL     1     -52.213 -50.390  18.138  1.00  0.00     0.008 C 
ENDROOT
BRANCH   1   3
ATOM      3  C   UNL     1     -51.011 -50.502  20.295  1.00  0.00     0.031 C 
BRANCH   3   4
ATOM      4  C   UNL     1     -49.601 -49.899  20.085  1.00  0.00     0.009 C 
BRANCH   4   5
ATOM      5  C   UNL     1     -49.389 -48.542  20.801  1.00  0.00     0.030 C 
BRANCH   5   6
ATOM      6  C   UNL     1     -49.538 -48.654  22.311  1.00  0.00    -0.077 C 
ATOM      7  C   UNL     1     -48.640 -49.602  23.064  1.00  0.00     0.039 C 
ATOM      8  C   UNL     1     -50.467 -47.961  23.014  1.00  0.00    -0.027 CG0
ATOM      9  G   UNL     1     -51.436 -46.961  22.413  1.00  0.00     0.000 G0
ENDBRANCH   5   6
ENDBRANCH   4   5
ENDBRANCH   3   4
ENDBRANCH   1   3
BRANCH   1  10
ATOM     10  C   UNL     1     -53.121 -48.977  19.961  1.00  0.00     0.057 C 
BRANCH  10  11
ATOM     11  C   UNL     1     -53.597 -49.306  21.365  1.00  0.00    -0.026 C 
ATOM     12  C   UNL     1     -53.415 -48.644  22.537  1.00  0.00    -0.024 C 
BRANCH  12  13
ATOM     13  C   UNL     1     -52.934 -47.211  22.825  1.00  0.00    -0.014 C 
ATOM     14  C   UNL     1     -53.916 -46.228  22.151  1.00  0.00     0.016 C 
ATOM     15  C   UNL     1     -53.041 -46.987  24.355  1.00  0.00     0.016 C 
BRANCH  13  16
ATOM     16  C   UNL     1     -51.454 -46.970  22.404  1.00  0.00     0.038 CG0
ATOM     17  G   UNL     1     -50.472 -47.959  23.001  1.00  0.00     0.000 G0
ENDBRANCH  13  16
ENDBRANCH  12  13
ENDBRANCH  10  11
ENDBRANCH   1  10
TORSDOF 0
ENDMDL
MODEL 8
REMARK VINA RESULT:    -3.942      9.768     12.410
REMARK INTER + INTRA:          -5.082
REMARK INTER:                  -5.421
REMARK INTRA:                   0.339
REMARK UNBOUND:                 0.703
REMARK SMILES C=C1CC=CC(C)(C)CC=C(C)CCC1
REMARK SMILES IDX 2 1 1 2 15 3 14 4 13 5 11 6 12 7 10 8 3 10 4 11 5 12 6 13
REMARK SMILES IDX 7 14 8 15 9 16
REMARK H PARENT
REMARK Flexibility Score: 60.00
ROOT
ATOM      1  C   UNL     1     -42.264 -50.220  29.921  1.00  0.00    -0.074 C 
ATOM      2  C   UNL     1     -42.199 -51.394  29.272  1.00  0.00     0.008 C 
ENDROOT
BRANCH   1   3
ATOM      3  C   UNL     1     -43.595 -49.764  30.499  1.00  0.00     0.031 C 
BRANCH   3   4
ATOM      4  C   UNL     1     -44.797 -50.037  29.563  1.00  0.00     0.009 C 
BRANCH   4   5
ATOM      5  C   UNL     1     -45.077 -48.893  28.556  1.00  0.00     0.030 C 
BRANCH   5   6
ATOM      6  C   UNL     1     -44.452 -49.154  27.194  1.00  0.00    -0.077 C 
ATOM      7  C   UNL     1     -44.976 -50.293  26.357  1.00  0.00     0.039 C 
ATOM      8  C   UNL     1     -43.418 -48.426  26.705  1.00  0.00    -0.027 CG0
ATOM      9  G   UNL     1     -42.783 -47.244  27.412  1.00  0.00     0.000 G0
ENDBRANCH   5   6
ENDBRANCH   4   5
ENDBRANCH   3   4
ENDBRANCH   1   3
BRANCH   1  10
ATOM     10  C   UNL     1     -41.112 -49.238  29.830  1.00  0.00     0.057 C 
BRANCH  10  11
ATOM     11  C   UNL     1     -40.346 -49.229  28.519  1.00  0.00    -0.026 C 
ATOM     12  C   UNL     1     -40.485 -48.443  27.420  1.00  0.00    -0.024 C 
BRANCH  12  13
ATOM     13  C   UNL     1     -41.241 -47.118  27.213  1.00  0.00    -0.014 C 
ATOM     14  C   UNL     1     -40.599 -46.050  28.123  1.00  0.00     0.016 C 
ATOM     15  C   UNL     1     -41.002 -46.675  25.748  1.00  0.00     0.016 C 
BRANCH  13  16
ATOM     16  C   UNL     1     -42.777 -47.254  27.433  1.00  0.00     0.038 CG0
ATOM     17  G   UNL     1     -43.405 -48.426  26.703  1.00  0.00     0.000 G0
ENDBRANCH  13  16
ENDBRANCH  12  13
ENDBRANCH  10  11
ENDBRANCH   1  10
TORSDOF 0
ENDMDL
MODEL 9
REMARK VINA RESULT:    -3.899      9.067     11.532
REMARK INTER + INTRA:          -5.019
REMARK INTER:                  -5.440
REMARK INTRA:                   0.421
REMARK UNBOUND:                 0.703
REMARK SMILES C=C1CC=CC(C)(C)CC=C(C)CCC1
REMARK SMILES IDX 2 1 1 2 15 3 14 4 13 5 11 6 12 7 10 8 3 10 4 11 5 12 6 13
REMARK SMILES IDX 7 14 8 15 9 16
REMARK H PARENT
REMARK Flexibility Score: 60.00
ROOT
ATOM      1  C   UNL     1     -43.937 -50.174  29.411  1.00  0.00    -0.074 C 
ATOM      2  C   UNL     1     -44.320 -51.049  30.356  1.00  0.00     0.008 C 
ENDROOT
BRANCH   1   3
ATOM      3  C   UNL     1     -42.884 -49.130  29.750  1.00  0.00     0.031 C 
BRANCH   3   4
ATOM      4  C   UNL     1     -41.434 -49.637  29.569  1.00  0.00     0.009 C 
BRANCH   4   5
ATOM      5  C   UNL     1     -40.925 -49.567  28.107  1.00  0.00     0.030 C 
BRANCH   5   6
ATOM      6  C   UNL     1     -40.944 -48.149  27.555  1.00  0.00    -0.077 C 
ATOM      7  C   UNL     1     -40.162 -47.078  28.271  1.00  0.00     0.039 C 
ATOM      8  C   UNL     1     -41.660 -47.793  26.460  1.00  0.00    -0.027 CG0
ATOM      9  G   UNL     1     -42.487 -48.748  25.621  1.00  0.00     0.000 G0
ENDBRANCH   5   6
ENDBRANCH   4   5
ENDBRANCH   3   4
ENDBRANCH   1   3
BRANCH   1  10
ATOM     10  C   UNL     1     -44.739 -50.040  28.131  1.00  0.00     0.057 C 
BRANCH  10  11
ATOM     11  C   UNL     1     -45.110 -48.625  27.722  1.00  0.00    -0.026 C 
ATOM     12  C   UNL     1     -44.697 -47.873  26.669  1.00  0.00    -0.024 C 
BRANCH  12  13
ATOM     13  C   UNL     1     -43.956 -48.261  25.378  1.00  0.00    -0.014 C 
ATOM     14  C   UNL     1     -44.812 -49.302  24.625  1.00  0.00     0.016 C 
ATOM     15  C   UNL     1     -43.887 -46.995  24.487  1.00  0.00     0.016 C 
BRANCH  13  16
ATOM     16  C   UNL     1     -42.499 -48.749  25.636  1.00  0.00     0.038 CG0
ATOM     17  G   UNL     1     -41.665 -47.796  26.470  1.00  0.00     0.000 G0
ENDBRANCH  13  16
ENDBRANCH  12  13
ENDBRANCH  10  11
ENDBRANCH   1  10
TORSDOF 0
ENDMDL
