MODEL 1
REMARK VINA RESULT:    -7.451      0.000      0.000
REMARK INTER + INTRA:          -8.105
REMARK INTER:                  -8.105
REMARK INTRA:                   0.000
REMARK UNBOUND:                 0.000
REMARK SMILES Cc1cc(O)c2c(c1)C(=O)c1cc(O)cc(O)c1C2=O
REMARK SMILES IDX 1 1 2 2 8 3 7 4 6 5 4 6 3 7 19 8 20 9 18 10 11 11 9 12 10 13
REMARK SMILES IDX 12 14 13 15 15 16 16 17 5 18 17 20 14 22
REMARK H PARENT 5 19 17 21 14 23
REMARK Flexibility Score: inf
ROOT
ATOM      1  C   UNL     1     -17.594  12.569  -3.004  1.00  0.00     0.044 C 
ATOM      2  C   UNL     1     -16.743  11.625  -3.801  1.00  0.00    -0.047 A 
ATOM      3  C   UNL     1     -16.624  10.286  -3.413  1.00  0.00     0.016 A 
ATOM      4  C   UNL     1     -15.852   9.387  -4.169  1.00  0.00     0.038 A 
ATOM      5  C   UNL     1     -15.188   9.837  -5.332  1.00  0.00     0.076 A 
ATOM      6  C   UNL     1     -15.382  11.174  -5.766  1.00  0.00     0.127 A 
ATOM      7  C   UNL     1     -16.137  12.054  -4.986  1.00  0.00     0.050 A 
ATOM      8  C   UNL     1     -14.265   8.898  -6.020  1.00  0.00     0.201 C 
ATOM      9  O   UNL     1     -13.268   9.347  -6.647  1.00  0.00    -0.288 OA
ATOM     10  C   UNL     1     -14.410   7.435  -5.813  1.00  0.00     0.076 A 
ATOM     11  C   UNL     1     -15.077   6.989  -4.649  1.00  0.00     0.041 A 
ATOM     12  C   UNL     1     -15.738   7.969  -3.755  1.00  0.00     0.194 C 
ATOM     13  O   UNL     1     -16.224   7.591  -2.653  1.00  0.00    -0.289 OA
ATOM     14  C   UNL     1     -15.115   5.617  -4.347  1.00  0.00     0.059 A 
ATOM     15  C   UNL     1     -14.511   4.687  -5.197  1.00  0.00     0.120 A 
ATOM     16  C   UNL     1     -13.887   5.119  -6.366  1.00  0.00     0.093 A 
ATOM     17  C   UNL     1     -13.853   6.477  -6.700  1.00  0.00     0.131 A 
ENDROOT
BRANCH   6  18
ATOM     18  O   UNL     1     -14.875  11.655  -6.975  1.00  0.00    -0.507 OA
ATOM     19  H   UNL     1     -13.964  11.410  -7.336  1.00  0.00     0.293 HD
ENDBRANCH   6  18
BRANCH  17  20
ATOM     20  O   UNL     1     -13.291   6.824  -7.931  1.00  0.00    -0.507 OA
ATOM     21  H   UNL     1     -12.836   6.163  -8.544  1.00  0.00     0.293 HD
ENDBRANCH  17  20
BRANCH  15  22
ATOM     22  O   UNL     1     -14.534   3.327  -4.895  1.00  0.00    -0.508 OA
ATOM     23  H   UNL     1     -13.859   2.684  -5.293  1.00  0.00     0.293 HD
ENDBRANCH  15  22
TORSDOF 3
ENDMDL
MODEL 2
REMARK VINA RESULT:    -6.093      2.233      4.343
REMARK INTER + INTRA:          -6.627
REMARK INTER:                  -6.627
REMARK INTRA:                   0.000
REMARK UNBOUND:                 0.000
REMARK SMILES Cc1cc(O)c2c(c1)C(=O)c1cc(O)cc(O)c1C2=O
REMARK SMILES IDX 1 1 2 2 8 3 7 4 6 5 4 6 3 7 19 8 20 9 18 10 11 11 9 12 10 13
REMARK SMILES IDX 12 14 13 15 15 16 16 17 5 18 17 20 14 22
REMARK H PARENT 5 19 17 21 14 23
REMARK Flexibility Score: inf
ROOT
ATOM      1  C   UNL     1     -14.550  10.894  -6.106  1.00  0.00     0.044 C 
ATOM      2  C   UNL     1     -14.595   9.450  -5.702  1.00  0.00    -0.047 A 
ATOM      3  C   UNL     1     -14.380   8.446  -6.653  1.00  0.00     0.016 A 
ATOM      4  C   UNL     1     -14.392   7.092  -6.279  1.00  0.00     0.038 A 
ATOM      5  C   UNL     1     -14.624   6.736  -4.932  1.00  0.00     0.076 A 
ATOM      6  C   UNL     1     -14.757   7.761  -3.959  1.00  0.00     0.127 A 
ATOM      7  C   UNL     1     -14.762   9.101  -4.358  1.00  0.00     0.050 A 
ATOM      8  C   UNL     1     -14.778   5.296  -4.602  1.00  0.00     0.201 C 
ATOM      9  O   UNL     1     -15.511   4.949  -3.638  1.00  0.00    -0.288 OA
ATOM     10  C   UNL     1     -14.222   4.266  -5.517  1.00  0.00     0.076 A 
ATOM     11  C   UNL     1     -13.989   4.626  -6.864  1.00  0.00     0.041 A 
ATOM     12  C   UNL     1     -14.156   6.035  -7.291  1.00  0.00     0.194 C 
ATOM     13  O   UNL     1     -14.072   6.338  -8.514  1.00  0.00    -0.289 OA
ATOM     14  C   UNL     1     -13.595   3.646  -7.791  1.00  0.00     0.059 A 
ATOM     15  C   UNL     1     -13.417   2.320  -7.389  1.00  0.00     0.120 A 
ATOM     16  C   UNL     1     -13.607   1.969  -6.053  1.00  0.00     0.093 A 
ATOM     17  C   UNL     1     -13.979   2.929  -5.107  1.00  0.00     0.131 A 
ENDROOT
BRANCH   6  18
ATOM     18  O   UNL     1     -14.850   7.495  -2.591  1.00  0.00    -0.507 OA
ATOM     19  H   UNL     1     -15.522   7.937  -1.981  1.00  0.00     0.293 HD
ENDBRANCH   6  18
BRANCH  17  20
ATOM     20  O   UNL     1     -14.061   2.521  -3.773  1.00  0.00    -0.507 OA
ATOM     21  H   UNL     1     -14.659   1.772  -3.453  1.00  0.00     0.293 HD
ENDBRANCH  17  20
BRANCH  15  22
ATOM     22  O   UNL     1     -13.039   1.343  -8.308  1.00  0.00    -0.508 OA
ATOM     23  H   UNL     1     -13.269   0.366  -8.167  1.00  0.00     0.293 HD
ENDBRANCH  15  22
TORSDOF 3
ENDMDL
MODEL 3
REMARK VINA RESULT:    -6.085      1.437      5.549
REMARK INTER + INTRA:          -6.618
REMARK INTER:                  -6.618
REMARK INTRA:                   0.000
REMARK UNBOUND:                 0.000
REMARK SMILES Cc1cc(O)c2c(c1)C(=O)c1cc(O)cc(O)c1C2=O
REMARK SMILES IDX 1 1 2 2 8 3 7 4 6 5 4 6 3 7 19 8 20 9 18 10 11 11 9 12 10 13
REMARK SMILES IDX 12 14 13 15 15 16 16 17 5 18 17 20 14 22
REMARK H PARENT 5 19 17 21 14 23
REMARK Flexibility Score: inf
ROOT
ATOM      1  C   UNL     1     -13.720   2.792  -4.673  1.00  0.00     0.044 C 
ATOM      2  C   UNL     1     -14.120   4.177  -5.091  1.00  0.00    -0.047 A 
ATOM      3  C   UNL     1     -14.792   5.016  -4.196  1.00  0.00     0.016 A 
ATOM      4  C   UNL     1     -15.146   6.324  -4.568  1.00  0.00     0.038 A 
ATOM      5  C   UNL     1     -14.822   6.799  -5.859  1.00  0.00     0.076 A 
ATOM      6  C   UNL     1     -14.067   5.973  -6.731  1.00  0.00     0.127 A 
ATOM      7  C   UNL     1     -13.745   4.668  -6.346  1.00  0.00     0.050 A 
ATOM      8  C   UNL     1     -15.342   8.130  -6.268  1.00  0.00     0.201 C 
ATOM      9  O   UNL     1     -15.594   8.358  -7.481  1.00  0.00    -0.288 OA
ATOM     10  C   UNL     1     -15.737   9.118  -5.232  1.00  0.00     0.076 A 
ATOM     11  C   UNL     1     -16.058   8.639  -3.942  1.00  0.00     0.041 A 
ATOM     12  C   UNL     1     -15.850   7.209  -3.611  1.00  0.00     0.194 C 
ATOM     13  O   UNL     1     -16.251   6.752  -2.505  1.00  0.00    -0.289 OA
ATOM     14  C   UNL     1     -16.568   9.523  -2.975  1.00  0.00     0.059 A 
ATOM     15  C   UNL     1     -16.747  10.876  -3.275  1.00  0.00     0.120 A 
ATOM     16  C   UNL     1     -16.394  11.359  -4.534  1.00  0.00     0.093 A 
ATOM     17  C   UNL     1     -15.866  10.505  -5.507  1.00  0.00     0.131 A 
ENDROOT
BRANCH   6  18
ATOM     18  O   UNL     1     -13.590   6.417  -7.966  1.00  0.00    -0.507 OA
ATOM     19  H   UNL     1     -14.174   6.849  -8.669  1.00  0.00     0.293 HD
ENDBRANCH   6  18
BRANCH  17  20
ATOM     20  O   UNL     1     -15.451  11.078  -6.711  1.00  0.00    -0.507 OA
ATOM     21  H   UNL     1     -15.016  11.988  -6.777  1.00  0.00     0.293 HD
ENDBRANCH  17  20
BRANCH  15  22
ATOM     22  O   UNL     1     -17.265  11.752  -2.324  1.00  0.00    -0.508 OA
ATOM     23  H   UNL     1     -16.972  11.716  -1.354  1.00  0.00     0.293 HD
ENDBRANCH  15  22
TORSDOF 3
ENDMDL
MODEL 4
REMARK VINA RESULT:    -5.856      4.194      7.092
REMARK INTER + INTRA:          -6.369
REMARK INTER:                  -6.369
REMARK INTRA:                   0.000
REMARK UNBOUND:                 0.000
REMARK SMILES Cc1cc(O)c2c(c1)C(=O)c1cc(O)cc(O)c1C2=O
REMARK SMILES IDX 1 1 2 2 8 3 7 4 6 5 4 6 3 7 19 8 20 9 18 10 11 11 9 12 10 13
REMARK SMILES IDX 12 14 13 15 15 16 16 17 5 18 17 20 14 22
REMARK H PARENT 5 19 17 21 14 23
REMARK Flexibility Score: inf
ROOT
ATOM      1  C   UNL     1     -13.841   6.842  -4.701  1.00  0.00     0.044 C 
ATOM      2  C   UNL     1     -13.764   5.487  -5.342  1.00  0.00    -0.047 A 
ATOM      3  C   UNL     1     -13.638   4.340  -4.551  1.00  0.00     0.016 A 
ATOM      4  C   UNL     1     -13.593   3.066  -5.139  1.00  0.00     0.038 A 
ATOM      5  C   UNL     1     -13.674   2.936  -6.544  1.00  0.00     0.076 A 
ATOM      6  C   UNL     1     -13.886   4.096  -7.334  1.00  0.00     0.127 A 
ATOM      7  C   UNL     1     -13.907   5.355  -6.727  1.00  0.00     0.050 A 
ATOM      8  C   UNL     1     -13.473   1.590  -7.138  1.00  0.00     0.201 C 
ATOM      9  O   UNL     1     -12.976   1.481  -8.291  1.00  0.00    -0.288 OA
ATOM     10  C   UNL     1     -13.683   0.377  -6.306  1.00  0.00     0.076 A 
ATOM     11  C   UNL     1     -13.603   0.510  -4.901  1.00  0.00     0.041 A 
ATOM     12  C   UNL     1     -13.468   1.855  -4.293  1.00  0.00     0.194 C 
ATOM     13  O   UNL     1     -13.270   1.970  -3.052  1.00  0.00    -0.289 OA
ATOM     14  C   UNL     1     -13.658  -0.633  -4.086  1.00  0.00     0.059 A 
ATOM     15  C   UNL     1     -13.806  -1.902  -4.653  1.00  0.00     0.120 A 
ATOM     16  C   UNL     1     -13.925  -2.034  -6.036  1.00  0.00     0.093 A 
ATOM     17  C   UNL     1     -13.894  -0.909  -6.868  1.00  0.00     0.131 A 
ENDROOT
BRANCH   6  18
ATOM     18  O   UNL     1     -14.114   4.040  -8.710  1.00  0.00    -0.507 OA
ATOM     19  H   UNL     1     -14.430   4.828  -9.258  1.00  0.00     0.293 HD
ENDBRANCH   6  18
BRANCH  17  20
ATOM     20  O   UNL     1     -14.111  -1.111  -8.233  1.00  0.00    -0.507 OA
ATOM     21  H   UNL     1     -13.667  -0.562  -8.957  1.00  0.00     0.293 HD
ENDBRANCH  17  20
BRANCH  15  22
ATOM     22  O   UNL     1     -13.848  -3.039  -3.850  1.00  0.00    -0.508 OA
ATOM     23  H   UNL     1     -13.312  -3.102  -2.992  1.00  0.00     0.293 HD
ENDBRANCH  15  22
TORSDOF 3
ENDMDL
MODEL 5
REMARK VINA RESULT:    -5.585      1.366      3.230
REMARK INTER + INTRA:          -6.075
REMARK INTER:                  -6.075
REMARK INTRA:                   0.000
REMARK UNBOUND:                 0.000
REMARK SMILES Cc1cc(O)c2c(c1)C(=O)c1cc(O)cc(O)c1C2=O
REMARK SMILES IDX 1 1 2 2 8 3 7 4 6 5 4 6 3 7 19 8 20 9 18 10 11 11 9 12 10 13
REMARK SMILES IDX 12 14 13 15 15 16 16 17 5 18 17 20 14 22
REMARK H PARENT 5 19 17 21 14 23
REMARK Flexibility Score: inf
ROOT
ATOM      1  C   UNL     1     -14.714  13.125  -4.506  1.00  0.00     0.044 C 
ATOM      2  C   UNL     1     -15.053  11.663  -4.491  1.00  0.00    -0.047 A 
ATOM      3  C   UNL     1     -14.441  10.789  -5.396  1.00  0.00     0.016 A 
ATOM      4  C   UNL     1     -14.731   9.415  -5.372  1.00  0.00     0.038 A 
ATOM      5  C   UNL     1     -15.651   8.907  -4.426  1.00  0.00     0.076 A 
ATOM      6  C   UNL     1     -16.203   9.785  -3.458  1.00  0.00     0.127 A 
ATOM      7  C   UNL     1     -15.915  11.152  -3.516  1.00  0.00     0.050 A 
ATOM      8  C   UNL     1     -16.044   7.478  -4.527  1.00  0.00     0.201 C 
ATOM      9  O   UNL     1     -17.191   7.116  -4.152  1.00  0.00    -0.288 OA
ATOM     10  C   UNL     1     -15.161   6.518  -5.238  1.00  0.00     0.076 A 
ATOM     11  C   UNL     1     -14.242   7.029  -6.181  1.00  0.00     0.041 A 
ATOM     12  C   UNL     1     -14.072   8.494  -6.328  1.00  0.00     0.194 C 
ATOM     13  O   UNL     1     -13.348   8.957  -7.253  1.00  0.00    -0.289 OA
ATOM     14  C   UNL     1     -13.487   6.146  -6.972  1.00  0.00     0.059 A 
ATOM     15  C   UNL     1     -13.628   4.764  -6.823  1.00  0.00     0.120 A 
ATOM     16  C   UNL     1     -14.505   4.255  -5.866  1.00  0.00     0.093 A 
ATOM     17  C   UNL     1     -15.252   5.113  -5.053  1.00  0.00     0.131 A 
ENDROOT
BRANCH   6  18
ATOM     18  O   UNL     1     -17.008   9.339  -2.408  1.00  0.00    -0.507 OA
ATOM     19  H   UNL     1     -17.348   9.940  -1.670  1.00  0.00     0.293 HD
ENDBRANCH   6  18
BRANCH  17  20
ATOM     20  O   UNL     1     -16.039   4.532  -4.056  1.00  0.00    -0.507 OA
ATOM     21  H   UNL     1     -15.669   3.941  -3.324  1.00  0.00     0.293 HD
ENDBRANCH  17  20
BRANCH  15  22
ATOM     22  O   UNL     1     -12.892   3.885  -7.615  1.00  0.00    -0.508 OA
ATOM     23  H   UNL     1     -11.933   4.084  -7.878  1.00  0.00     0.293 HD
ENDBRANCH  15  22
TORSDOF 3
ENDMDL
MODEL 6
REMARK VINA RESULT:    -5.472      1.622      3.599
REMARK INTER + INTRA:          -5.952
REMARK INTER:                  -5.952
REMARK INTRA:                   0.000
REMARK UNBOUND:                 0.000
REMARK SMILES Cc1cc(O)c2c(c1)C(=O)c1cc(O)cc(O)c1C2=O
REMARK SMILES IDX 1 1 2 2 8 3 7 4 6 5 4 6 3 7 19 8 20 9 18 10 11 11 9 12 10 13
REMARK SMILES IDX 12 14 13 15 15 16 16 17 5 18 17 20 14 22
REMARK H PARENT 5 19 17 21 14 23
REMARK Flexibility Score: inf
ROOT
ATOM      1  C   UNL     1     -12.875  12.851  -8.034  1.00  0.00     0.044 C 
ATOM      2  C   UNL     1     -13.646  11.941  -7.122  1.00  0.00    -0.047 A 
ATOM      3  C   UNL     1     -13.533  10.553  -7.253  1.00  0.00     0.016 A 
ATOM      4  C   UNL     1     -14.228   9.693  -6.387  1.00  0.00     0.038 A 
ATOM      5  C   UNL     1     -15.052  10.232  -5.373  1.00  0.00     0.076 A 
ATOM      6  C   UNL     1     -15.095  11.639  -5.193  1.00  0.00     0.127 A 
ATOM      7  C   UNL     1     -14.411  12.474  -6.080  1.00  0.00     0.050 A 
ATOM      8  C   UNL     1     -15.886   9.297  -4.574  1.00  0.00     0.201 C 
ATOM      9  O   UNL     1     -16.989   9.686  -4.106  1.00  0.00    -0.288 OA
ATOM     10  C   UNL     1     -15.510   7.863  -4.488  1.00  0.00     0.076 A 
ATOM     11  C   UNL     1     -14.684   7.327  -5.503  1.00  0.00     0.041 A 
ATOM     12  C   UNL     1     -14.097   8.224  -6.527  1.00  0.00     0.194 C 
ATOM     13  O   UNL     1     -13.464   7.736  -7.504  1.00  0.00    -0.289 OA
ATOM     14  C   UNL     1     -14.419   5.948  -5.533  1.00  0.00     0.059 A 
ATOM     15  C   UNL     1     -14.954   5.101  -4.558  1.00  0.00     0.120 A 
ATOM     16  C   UNL     1     -15.736   5.631  -3.533  1.00  0.00     0.093 A 
ATOM     17  C   UNL     1     -15.998   7.003  -3.469  1.00  0.00     0.131 A 
ENDROOT
BRANCH   6  18
ATOM     18  O   UNL     1     -15.773  12.243  -4.131  1.00  0.00    -0.507 OA
ATOM     19  H   UNL     1     -16.753  12.091  -3.935  1.00  0.00     0.293 HD
ENDBRANCH   6  18
BRANCH  17  20
ATOM     20  O   UNL     1     -16.711   7.472  -2.364  1.00  0.00    -0.507 OA
ATOM     21  H   UNL     1     -17.443   6.946  -1.906  1.00  0.00     0.293 HD
ENDBRANCH  17  20
BRANCH  15  22
ATOM     22  O   UNL     1     -14.704   3.731  -4.592  1.00  0.00    -0.508 OA
ATOM     23  H   UNL     1     -15.035   3.151  -5.355  1.00  0.00     0.293 HD
ENDBRANCH  15  22
TORSDOF 3
ENDMDL
MODEL 7
REMARK VINA RESULT:    -5.314      1.892      5.909
REMARK INTER + INTRA:          -5.780
REMARK INTER:                  -5.780
REMARK INTRA:                   0.000
REMARK UNBOUND:                 0.000
REMARK SMILES Cc1cc(O)c2c(c1)C(=O)c1cc(O)cc(O)c1C2=O
REMARK SMILES IDX 1 1 2 2 8 3 7 4 6 5 4 6 3 7 19 8 20 9 18 10 11 11 9 12 10 13
REMARK SMILES IDX 12 14 13 15 15 16 16 17 5 18 17 20 14 22
REMARK H PARENT 5 19 17 21 14 23
REMARK Flexibility Score: inf
ROOT
ATOM      1  C   UNL     1     -15.119   4.090  -4.610  1.00  0.00     0.044 C 
ATOM      2  C   UNL     1     -15.226   5.582  -4.490  1.00  0.00    -0.047 A 
ATOM      3  C   UNL     1     -14.510   6.411  -5.360  1.00  0.00     0.016 A 
ATOM      4  C   UNL     1     -14.625   7.809  -5.274  1.00  0.00     0.038 A 
ATOM      5  C   UNL     1     -15.470   8.387  -4.300  1.00  0.00     0.076 A 
ATOM      6  C   UNL     1     -16.257   7.539  -3.478  1.00  0.00     0.127 A 
ATOM      7  C   UNL     1     -16.110   6.152  -3.568  1.00  0.00     0.050 A 
ATOM      8  C   UNL     1     -15.452   9.863  -4.141  1.00  0.00     0.201 C 
ATOM      9  O   UNL     1     -15.688  10.375  -3.014  1.00  0.00    -0.288 OA
ATOM     10  C   UNL     1     -14.975  10.720  -5.256  1.00  0.00     0.076 A 
ATOM     11  C   UNL     1     -14.131  10.139  -6.230  1.00  0.00     0.041 A 
ATOM     12  C   UNL     1     -13.869   8.680  -6.204  1.00  0.00     0.194 C 
ATOM     13  O   UNL     1     -13.020   8.177  -6.992  1.00  0.00    -0.289 OA
ATOM     14  C   UNL     1     -13.548  10.946  -7.222  1.00  0.00     0.059 A 
ATOM     15  C   UNL     1     -13.808  12.318  -7.263  1.00  0.00     0.120 A 
ATOM     16  C   UNL     1     -14.671  12.888  -6.329  1.00  0.00     0.093 A 
ATOM     17  C   UNL     1     -15.280  12.104  -5.344  1.00  0.00     0.131 A 
ENDROOT
BRANCH   6  18
ATOM     18  O   UNL     1     -17.216   8.030  -2.589  1.00  0.00    -0.507 OA
ATOM     19  H   UNL     1     -16.989   8.473  -1.710  1.00  0.00     0.293 HD
ENDBRANCH   6  18
BRANCH  17  20
ATOM     20  O   UNL     1     -16.202  12.728  -4.501  1.00  0.00    -0.507 OA
ATOM     21  H   UNL     1     -16.958  13.311  -4.833  1.00  0.00     0.293 HD
ENDBRANCH  17  20
BRANCH  15  22
ATOM     22  O   UNL     1     -13.222  13.124  -8.237  1.00  0.00    -0.508 OA
ATOM     23  H   UNL     1     -13.643  13.241  -9.152  1.00  0.00     0.293 HD
ENDBRANCH  15  22
TORSDOF 3
ENDMDL
MODEL 8
REMARK VINA RESULT:    -5.244      1.138      6.311
REMARK INTER + INTRA:          -5.704
REMARK INTER:                  -5.704
REMARK INTRA:                   0.000
REMARK UNBOUND:                 0.000
REMARK SMILES Cc1cc(O)c2c(c1)C(=O)c1cc(O)cc(O)c1C2=O
REMARK SMILES IDX 1 1 2 2 8 3 7 4 6 5 4 6 3 7 19 8 20 9 18 10 11 11 9 12 10 13
REMARK SMILES IDX 12 14 13 15 15 16 16 17 5 18 17 20 14 22
REMARK H PARENT 5 19 17 21 14 23
REMARK Flexibility Score: inf
ROOT
ATOM      1  C   UNL     1     -13.241   3.611  -7.477  1.00  0.00     0.044 C 
ATOM      2  C   UNL     1     -13.791   4.661  -6.557  1.00  0.00    -0.047 A 
ATOM      3  C   UNL     1     -13.629   6.017  -6.862  1.00  0.00     0.016 A 
ATOM      4  C   UNL     1     -14.165   7.008  -6.022  1.00  0.00     0.038 A 
ATOM      5  C   UNL     1     -14.873   6.636  -4.857  1.00  0.00     0.076 A 
ATOM      6  C   UNL     1     -15.105   5.259  -4.600  1.00  0.00     0.127 A 
ATOM      7  C   UNL     1     -14.545   4.292  -5.439  1.00  0.00     0.050 A 
ATOM      8  C   UNL     1     -15.294   7.707  -3.918  1.00  0.00     0.201 C 
ATOM      9  O   UNL     1     -15.388   7.460  -2.687  1.00  0.00    -0.288 OA
ATOM     10  C   UNL     1     -15.423   9.105  -4.404  1.00  0.00     0.076 A 
ATOM     11  C   UNL     1     -14.715   9.474  -5.570  1.00  0.00     0.041 A 
ATOM     12  C   UNL     1     -13.997   8.442  -6.356  1.00  0.00     0.194 C 
ATOM     13  O   UNL     1     -13.262   8.784  -7.324  1.00  0.00    -0.289 OA
ATOM     14  C   UNL     1     -14.699  10.817  -5.983  1.00  0.00     0.059 A 
ATOM     15  C   UNL     1     -15.392  11.790  -5.258  1.00  0.00     0.120 A 
ATOM     16  C   UNL     1     -16.124  11.424  -4.130  1.00  0.00     0.093 A 
ATOM     17  C   UNL     1     -16.172  10.091  -3.709  1.00  0.00     0.131 A 
ENDROOT
BRANCH   6  18
ATOM     18  O   UNL     1     -15.910   4.814  -3.549  1.00  0.00    -0.507 OA
ATOM     19  H   UNL     1     -15.609   4.137  -2.863  1.00  0.00     0.293 HD
ENDBRANCH   6  18
BRANCH  17  20
ATOM     20  O   UNL     1     -16.999   9.786  -2.625  1.00  0.00    -0.507 OA
ATOM     21  H   UNL     1     -17.341   8.856  -2.427  1.00  0.00     0.293 HD
ENDBRANCH  17  20
BRANCH  15  22
ATOM     22  O   UNL     1     -15.368  13.125  -5.656  1.00  0.00    -0.508 OA
ATOM     23  H   UNL     1     -15.221  13.387  -6.625  1.00  0.00     0.293 HD
ENDBRANCH  15  22
TORSDOF 3
ENDMDL
MODEL 9
REMARK VINA RESULT:    -5.214      2.210      5.940
REMARK INTER + INTRA:          -5.671
REMARK INTER:                  -5.671
REMARK INTRA:                   0.000
REMARK UNBOUND:                 0.000
REMARK SMILES Cc1cc(O)c2c(c1)C(=O)c1cc(O)cc(O)c1C2=O
REMARK SMILES IDX 1 1 2 2 8 3 7 4 6 5 4 6 3 7 19 8 20 9 18 10 11 11 9 12 10 13
REMARK SMILES IDX 12 14 13 15 15 16 16 17 5 18 17 20 14 22
REMARK H PARENT 5 19 17 21 14 23
REMARK Flexibility Score: inf
ROOT
ATOM      1  C   UNL     1     -13.825   3.525  -6.223  1.00  0.00     0.044 C 
ATOM      2  C   UNL     1     -14.596   4.796  -6.020  1.00  0.00    -0.047 A 
ATOM      3  C   UNL     1     -13.982   5.902  -5.421  1.00  0.00     0.016 A 
ATOM      4  C   UNL     1     -14.686   7.106  -5.251  1.00  0.00     0.038 A 
ATOM      5  C   UNL     1     -16.027   7.204  -5.687  1.00  0.00     0.076 A 
ATOM      6  C   UNL     1     -16.614   6.107  -6.369  1.00  0.00     0.127 A 
ATOM      7  C   UNL     1     -15.901   4.913  -6.507  1.00  0.00     0.050 A 
ATOM      8  C   UNL     1     -16.784   8.439  -5.357  1.00  0.00     0.201 C 
ATOM      9  O   UNL     1     -18.031   8.384  -5.188  1.00  0.00    -0.288 OA
ATOM     10  C   UNL     1     -16.051   9.693  -5.045  1.00  0.00     0.076 A 
ATOM     11  C   UNL     1     -14.709   9.591  -4.611  1.00  0.00     0.041 A 
ATOM     12  C   UNL     1     -14.027   8.275  -4.623  1.00  0.00     0.194 C 
ATOM     13  O   UNL     1     -12.875   8.157  -4.120  1.00  0.00    -0.289 OA
ATOM     14  C   UNL     1     -14.026  10.739  -4.175  1.00  0.00     0.059 A 
ATOM     15  C   UNL     1     -14.658  11.986  -4.181  1.00  0.00     0.120 A 
ATOM     16  C   UNL     1     -15.968  12.097  -4.646  1.00  0.00     0.093 A 
ATOM     17  C   UNL     1     -16.662  10.973  -5.104  1.00  0.00     0.131 A 
ENDROOT
BRANCH   6  18
ATOM     18  O   UNL     1     -17.882   6.173  -6.951  1.00  0.00    -0.507 OA
ATOM     19  H   UNL     1     -18.163   5.612  -7.743  1.00  0.00     0.293 HD
ENDBRANCH   6  18
BRANCH  17  20
ATOM     20  O   UNL     1     -17.936  11.176  -5.639  1.00  0.00    -0.507 OA
ATOM     21  H   UNL     1     -18.481  12.014  -5.484  1.00  0.00     0.293 HD
ENDBRANCH  17  20
BRANCH  15  22
ATOM     22  O   UNL     1     -13.989  13.124  -3.737  1.00  0.00    -0.508 OA
ATOM     23  H   UNL     1     -13.094  13.063  -3.265  1.00  0.00     0.293 HD
ENDBRANCH  15  22
TORSDOF 3
ENDMDL
