MODEL 1
REMARK VINA RESULT:    -5.096      0.000      0.000
REMARK INTER + INTRA:          -5.854
REMARK INTER:                  -7.181
REMARK INTRA:                   1.327
REMARK UNBOUND:                 1.327
REMARK SMILES CC1=CCC(=C(C)C)C(=O)CC(C)=CCC1
REMARK SMILES IDX 12 1 14 2 13 3 15 4 16 5 2 6 1 7 3 8 11 10 9 11 10 12 5 13
REMARK SMILES IDX 6 14 7 15 8 16 4 17
REMARK H PARENT
REMARK Flexibility Score: 60.00
ROOT
ATOM      1  C   UNL     1      34.622  19.344  24.502  1.00  0.00    -0.070 C 
ATOM      2  C   UNL     1      34.633  20.307  23.550  1.00  0.00    -0.027 C 
ATOM      3  C   UNL     1      35.850  18.474  24.624  1.00  0.00     0.039 C 
ENDROOT
BRANCH   2   4
ATOM      4  C   UNL     1      33.483  21.214  23.184  1.00  0.00     0.032 C 
BRANCH   4   5
ATOM      5  C   UNL     1      33.135  21.156  21.685  1.00  0.00     0.034 C 
BRANCH   5   6
ATOM      6  C   UNL     1      32.234  19.983  21.350  1.00  0.00    -0.077 C 
ATOM      7  C   UNL     1      32.538  19.178  20.112  1.00  0.00     0.039 C 
ATOM      8  C   UNL     1      31.187  19.599  22.114  1.00  0.00    -0.023 CG0
ATOM      9  G   UNL     1      30.748  20.252  23.403  1.00  0.00     0.000 G0
ENDBRANCH   5   6
ENDBRANCH   4   5
ENDBRANCH   2   4
BRANCH   1  10
ATOM     10  C   UNL     1      33.428  19.052  25.396  1.00  0.00     0.111 C 
BRANCH  10  11
ATOM     11  C   UNL     1      32.259  18.522  24.604  1.00  0.00     0.163 C 
ATOM     12  O   UNL     1      32.394  17.417  24.013  1.00  0.00    -0.294 OA
BRANCH  11  13
ATOM     13  C   UNL     1      30.948  19.242  24.550  1.00  0.00    -0.002 C 
ATOM     14  C   UNL     1      29.944  18.975  25.439  1.00  0.00    -0.069 C 
ATOM     15  C   UNL     1      28.636  19.735  25.402  1.00  0.00     0.039 C 
ATOM     16  C   UNL     1      30.077  17.888  26.482  1.00  0.00     0.039 C 
BRANCH  13  17
ATOM     17  C   UNL     1      30.750  20.230  23.415  1.00  0.00     0.066 CG0
ATOM     18  G   UNL     1      31.180  19.605  22.110  1.00  0.00     0.000 G0
ENDBRANCH  13  17
ENDBRANCH  11  13
ENDBRANCH  10  11
ENDBRANCH   1  10
TORSDOF 0
ENDMDL
MODEL 2
REMARK VINA RESULT:    -5.067      2.155      4.698
REMARK INTER + INTRA:          -5.813
REMARK INTER:                  -6.428
REMARK INTRA:                   0.615
REMARK UNBOUND:                 1.327
REMARK SMILES CC1=CCC(=C(C)C)C(=O)CC(C)=CCC1
REMARK SMILES IDX 12 1 14 2 13 3 15 4 16 5 2 6 1 7 3 8 11 10 9 11 10 12 5 13
REMARK SMILES IDX 6 14 7 15 8 16 4 17
REMARK H PARENT
REMARK Flexibility Score: 60.00
ROOT
ATOM      1  C   UNL     1      32.480  21.572  22.891  1.00  0.00    -0.070 C 
ATOM      2  C   UNL     1      31.244  21.049  22.705  1.00  0.00    -0.027 C 
ATOM      3  C   UNL     1      33.122  22.272  21.718  1.00  0.00     0.039 C 
ENDROOT
BRANCH   2   4
ATOM      4  C   UNL     1      30.465  20.222  23.699  1.00  0.00     0.032 C 
BRANCH   4   5
ATOM      5  C   UNL     1      30.935  18.756  23.748  1.00  0.00     0.034 C 
BRANCH   5   6
ATOM      6  C   UNL     1      31.387  18.346  25.136  1.00  0.00    -0.077 C 
ATOM      7  C   UNL     1      30.341  18.192  26.211  1.00  0.00     0.039 C 
ATOM      8  C   UNL     1      32.673  18.083  25.461  1.00  0.00    -0.023 CG0
ATOM      9  G   UNL     1      33.851  18.146  24.519  1.00  0.00     0.000 G0
ENDBRANCH   5   6
ENDBRANCH   4   5
ENDBRANCH   2   4
BRANCH   1  10
ATOM     10  C   UNL     1      33.270  21.432  24.182  1.00  0.00     0.111 C 
BRANCH  10  11
ATOM     11  C   UNL     1      34.488  20.561  23.994  1.00  0.00     0.163 C 
ATOM     12  O   UNL     1      35.345  20.914  23.139  1.00  0.00    -0.294 OA
BRANCH  11  13
ATOM     13  C   UNL     1      34.721  19.338  24.824  1.00  0.00    -0.002 C 
ATOM     14  C   UNL     1      35.717  19.284  25.761  1.00  0.00    -0.069 C 
ATOM     15  C   UNL     1      35.922  18.057  26.622  1.00  0.00     0.039 C 
ATOM     16  C   UNL     1      36.682  20.431  25.958  1.00  0.00     0.039 C 
BRANCH  13  17
ATOM     17  C   UNL     1      33.854  18.129  24.529  1.00  0.00     0.066 CG0
ATOM     18  G   UNL     1      32.680  18.096  25.476  1.00  0.00     0.000 G0
ENDBRANCH  13  17
ENDBRANCH  11  13
ENDBRANCH  10  11
ENDBRANCH   1  10
TORSDOF 0
ENDMDL
MODEL 3
REMARK VINA RESULT:    -5.005      1.683      4.352
REMARK INTER + INTRA:          -5.726
REMARK INTER:                  -6.663
REMARK INTRA:                   0.937
REMARK UNBOUND:                 1.327
REMARK SMILES CC1=CCC(=C(C)C)C(=O)CC(C)=CCC1
REMARK SMILES IDX 12 1 14 2 13 3 15 4 16 5 2 6 1 7 3 8 11 10 9 11 10 12 5 13
REMARK SMILES IDX 6 14 7 15 8 16 4 17
REMARK H PARENT
REMARK Flexibility Score: 60.00
ROOT
ATOM      1  C   UNL     1      34.045  20.230  24.321  1.00  0.00    -0.070 C 
ATOM      2  C   UNL     1      33.269  19.244  24.832  1.00  0.00    -0.027 C 
ATOM      3  C   UNL     1      34.611  21.242  25.287  1.00  0.00     0.039 C 
ENDROOT
BRANCH   2   4
ATOM      4  C   UNL     1      32.520  18.197  24.044  1.00  0.00     0.032 C 
BRANCH   4   5
ATOM      5  C   UNL     1      31.001  18.238  24.297  1.00  0.00     0.034 C 
BRANCH   5   6
ATOM      6  C   UNL     1      30.380  19.546  23.846  1.00  0.00    -0.077 C 
ATOM      7  C   UNL     1      29.625  20.366  24.861  1.00  0.00     0.039 C 
ATOM      8  C   UNL     1      30.487  20.034  22.589  1.00  0.00    -0.023 CG0
ATOM      9  G   UNL     1      31.230  19.381  21.450  1.00  0.00     0.000 G0
ENDBRANCH   5   6
ENDBRANCH   4   5
ENDBRANCH   2   4
BRANCH   1  10
ATOM     10  C   UNL     1      34.316  20.407  22.835  1.00  0.00     0.111 C 
BRANCH  10  11
ATOM     11  C   UNL     1      33.126  20.999  22.122  1.00  0.00     0.163 C 
ATOM     12  O   UNL     1      32.767  22.167  22.433  1.00  0.00    -0.294 OA
BRANCH  11  13
ATOM     13  C   UNL     1      32.407  20.262  21.035  1.00  0.00    -0.002 C 
ATOM     14  C   UNL     1      32.742  20.418  19.718  1.00  0.00    -0.069 C 
ATOM     15  C   UNL     1      32.036  19.640  18.629  1.00  0.00     0.039 C 
ATOM     16  C   UNL     1      33.809  21.397  19.282  1.00  0.00     0.039 C 
BRANCH  13  17
ATOM     17  C   UNL     1      31.237  19.390  21.451  1.00  0.00     0.066 CG0
ATOM     18  G   UNL     1      30.486  20.046  22.584  1.00  0.00     0.000 G0
ENDBRANCH  13  17
ENDBRANCH  11  13
ENDBRANCH  10  11
ENDBRANCH   1  10
TORSDOF 0
ENDMDL
MODEL 4
REMARK VINA RESULT:    -4.736      3.742      6.069
REMARK INTER + INTRA:          -5.347
REMARK INTER:                  -5.994
REMARK INTRA:                   0.647
REMARK UNBOUND:                 1.327
REMARK SMILES CC1=CCC(=C(C)C)C(=O)CC(C)=CCC1
REMARK SMILES IDX 12 1 14 2 13 3 15 4 16 5 2 6 1 7 3 8 11 10 9 11 10 12 5 13
REMARK SMILES IDX 6 14 7 15 8 16 4 17
REMARK H PARENT
REMARK Flexibility Score: 60.00
ROOT
ATOM      1  C   UNL     1      38.151  20.974  26.720  1.00  0.00    -0.070 C 
ATOM      2  C   UNL     1      38.626  19.922  27.428  1.00  0.00    -0.027 C 
ATOM      3  C   UNL     1      39.137  22.046  26.323  1.00  0.00     0.039 C 
ENDROOT
BRANCH   2   4
ATOM      4  C   UNL     1      37.807  18.798  28.016  1.00  0.00     0.032 C 
BRANCH   4   5
ATOM      5  C   UNL     1      38.125  17.435  27.373  1.00  0.00     0.034 C 
BRANCH   5   6
ATOM      6  C   UNL     1      38.277  17.532  25.868  1.00  0.00    -0.077 C 
ATOM      7  C   UNL     1      39.641  17.295  25.271  1.00  0.00     0.039 C 
ATOM      8  C   UNL     1      37.253  17.794  25.024  1.00  0.00    -0.023 CG0
ATOM      9  G   UNL     1      35.816  18.023  25.426  1.00  0.00     0.000 G0
ENDBRANCH   5   6
ENDBRANCH   4   5
ENDBRANCH   2   4
BRANCH   1  10
ATOM     10  C   UNL     1      36.685  21.163  26.368  1.00  0.00     0.111 C 
BRANCH  10  11
ATOM     11  C   UNL     1      36.342  20.509  25.052  1.00  0.00     0.163 C 
ATOM     12  O   UNL     1      36.952  20.897  24.019  1.00  0.00    -0.294 OA
BRANCH  11  13
ATOM     13  C   UNL     1      35.350  19.393  24.958  1.00  0.00    -0.002 C 
ATOM     14  C   UNL     1      34.062  19.608  24.549  1.00  0.00    -0.069 C 
ATOM     15  C   UNL     1      33.076  18.468  24.420  1.00  0.00     0.039 C 
ATOM     16  C   UNL     1      33.551  20.998  24.240  1.00  0.00     0.039 C 
BRANCH  13  17
ATOM     17  C   UNL     1      35.812  18.020  25.408  1.00  0.00     0.066 CG0
ATOM     18  G   UNL     1      37.256  17.812  25.023  1.00  0.00     0.000 G0
ENDBRANCH  13  17
ENDBRANCH  11  13
ENDBRANCH  10  11
ENDBRANCH   1  10
TORSDOF 0
ENDMDL
MODEL 5
REMARK VINA RESULT:    -4.716      5.248      8.240
REMARK INTER + INTRA:          -5.319
REMARK INTER:                  -5.758
REMARK INTRA:                   0.439
REMARK UNBOUND:                 1.327
REMARK SMILES CC1=CCC(=C(C)C)C(=O)CC(C)=CCC1
REMARK SMILES IDX 12 1 14 2 13 3 15 4 16 5 2 6 1 7 3 8 11 10 9 11 10 12 5 13
REMARK SMILES IDX 6 14 7 15 8 16 4 17
REMARK H PARENT
REMARK Flexibility Score: 60.00
ROOT
ATOM      1  C   UNL     1      36.008  19.686  25.054  1.00  0.00    -0.070 C 
ATOM      2  C   UNL     1      35.984  18.331  25.067  1.00  0.00    -0.027 C 
ATOM      3  C   UNL     1      34.686  20.402  24.920  1.00  0.00     0.039 C 
ENDROOT
BRANCH   2   4
ATOM      4  C   UNL     1      37.185  17.417  25.086  1.00  0.00     0.032 C 
BRANCH   4   5
ATOM      5  C   UNL     1      37.885  17.385  26.458  1.00  0.00     0.034 C 
BRANCH   5   6
ATOM      6  C   UNL     1      39.342  17.793  26.368  1.00  0.00    -0.077 C 
ATOM      7  C   UNL     1      40.257  16.987  25.481  1.00  0.00     0.039 C 
ATOM      8  C   UNL     1      39.866  18.858  27.017  1.00  0.00    -0.023 CG0
ATOM      9  G   UNL     1      39.107  19.803  27.917  1.00  0.00     0.000 G0
ENDBRANCH   5   6
ENDBRANCH   4   5
ENDBRANCH   2   4
BRANCH   1  10
ATOM     10  C   UNL     1      37.285  20.509  25.097  1.00  0.00     0.111 C 
BRANCH  10  11
ATOM     11  C   UNL     1      37.487  21.147  26.449  1.00  0.00     0.163 C 
ATOM     12  O   UNL     1      36.496  21.698  27.000  1.00  0.00    -0.294 OA
BRANCH  11  13
ATOM     13  C   UNL     1      38.803  21.093  27.160  1.00  0.00    -0.002 C 
ATOM     14  C   UNL     1      39.706  22.117  27.080  1.00  0.00    -0.069 C 
ATOM     15  C   UNL     1      41.017  22.073  27.833  1.00  0.00     0.039 C 
ATOM     16  C   UNL     1      39.454  23.329  26.210  1.00  0.00     0.039 C 
BRANCH  13  17
ATOM     17  C   UNL     1      39.127  19.817  27.915  1.00  0.00     0.066 CG0
ATOM     18  G   UNL     1      39.858  18.857  27.009  1.00  0.00     0.000 G0
ENDBRANCH  13  17
ENDBRANCH  11  13
ENDBRANCH  10  11
ENDBRANCH   1  10
TORSDOF 0
ENDMDL
MODEL 6
REMARK VINA RESULT:    -4.669      1.466      4.559
REMARK INTER + INTRA:          -5.253
REMARK INTER:                  -6.915
REMARK INTRA:                   1.662
REMARK UNBOUND:                 1.327
REMARK SMILES CC1=CCC(=C(C)C)C(=O)CC(C)=CCC1
REMARK SMILES IDX 12 1 14 2 13 3 15 4 16 5 2 6 1 7 3 8 11 10 9 11 10 12 5 13
REMARK SMILES IDX 6 14 7 15 8 16 4 17
REMARK H PARENT
REMARK Flexibility Score: 60.00
ROOT
ATOM      1  C   UNL     1      30.135  18.890  25.047  1.00  0.00    -0.070 C 
ATOM      2  C   UNL     1      31.031  17.923  25.355  1.00  0.00    -0.027 C 
ATOM      3  C   UNL     1      28.707  18.682  25.491  1.00  0.00     0.039 C 
ENDROOT
BRANCH   2   4
ATOM      4  C   UNL     1      32.476  17.874  24.923  1.00  0.00     0.032 C 
BRANCH   4   5
ATOM      5  C   UNL     1      33.287  19.084  25.423  1.00  0.00     0.034 C 
BRANCH   5   6
ATOM      6  C   UNL     1      34.417  19.447  24.480  1.00  0.00    -0.077 C 
ATOM      7  C   UNL     1      35.729  18.719  24.624  1.00  0.00     0.039 C 
ATOM      8  C   UNL     1      34.308  20.369  23.497  1.00  0.00    -0.023 CG0
ATOM      9  G   UNL     1      33.072  21.173  23.174  1.00  0.00     0.000 G0
ENDBRANCH   5   6
ENDBRANCH   4   5
ENDBRANCH   2   4
BRANCH   1  10
ATOM     10  C   UNL     1      30.473  20.126  24.228  1.00  0.00     0.111 C 
BRANCH  10  11
ATOM     11  C   UNL     1      30.954  19.760  22.846  1.00  0.00     0.163 C 
ATOM     12  O   UNL     1      30.290  18.911  22.191  1.00  0.00    -0.294 OA
BRANCH  11  13
ATOM     13  C   UNL     1      32.152  20.410  22.227  1.00  0.00    -0.002 C 
ATOM     14  C   UNL     1      32.448  20.255  20.900  1.00  0.00    -0.069 C 
ATOM     15  C   UNL     1      33.639  20.947  20.274  1.00  0.00     0.039 C 
ATOM     16  C   UNL     1      31.623  19.360  20.003  1.00  0.00     0.039 C 
BRANCH  13  17
ATOM     17  C   UNL     1      33.069  21.188  23.151  1.00  0.00     0.066 CG0
ATOM     18  G   UNL     1      34.285  20.358  23.485  1.00  0.00     0.000 G0
ENDBRANCH  13  17
ENDBRANCH  11  13
ENDBRANCH  10  11
ENDBRANCH   1  10
TORSDOF 0
ENDMDL
MODEL 7
REMARK VINA RESULT:    -4.661      5.731      8.578
REMARK INTER + INTRA:          -5.242
REMARK INTER:                  -5.624
REMARK INTRA:                   0.382
REMARK UNBOUND:                 1.327
REMARK SMILES CC1=CCC(=C(C)C)C(=O)CC(C)=CCC1
REMARK SMILES IDX 12 1 14 2 13 3 15 4 16 5 2 6 1 7 3 8 11 10 9 11 10 12 5 13
REMARK SMILES IDX 6 14 7 15 8 16 4 17
REMARK H PARENT
REMARK Flexibility Score: 60.00
ROOT
ATOM      1  C   UNL     1      36.497  18.291  26.211  1.00  0.00    -0.070 C 
ATOM      2  C   UNL     1      37.209  17.492  25.381  1.00  0.00    -0.027 C 
ATOM      3  C   UNL     1      35.117  18.708  25.761  1.00  0.00     0.039 C 
ENDROOT
BRANCH   2   4
ATOM      4  C   UNL     1      38.637  17.044  25.579  1.00  0.00     0.032 C 
BRANCH   4   5
ATOM      5  C   UNL     1      39.656  18.031  24.978  1.00  0.00     0.034 C 
BRANCH   5   6
ATOM      6  C   UNL     1      40.810  18.308  25.922  1.00  0.00    -0.077 C 
ATOM      7  C   UNL     1      41.885  17.259  26.063  1.00  0.00     0.039 C 
ATOM      8  C   UNL     1      40.947  19.454  26.626  1.00  0.00    -0.023 CG0
ATOM      9  G   UNL     1      40.000  20.629  26.590  1.00  0.00     0.000 G0
ENDBRANCH   5   6
ENDBRANCH   4   5
ENDBRANCH   2   4
BRANCH   1  10
ATOM     10  C   UNL     1      37.034  18.838  27.524  1.00  0.00     0.111 C 
BRANCH  10  11
ATOM     11  C   UNL     1      37.601  20.226  27.355  1.00  0.00     0.163 C 
ATOM     12  O   UNL     1      36.837  21.132  26.927  1.00  0.00    -0.294 OA
BRANCH  11  13
ATOM     13  C   UNL     1      39.013  20.554  27.728  1.00  0.00    -0.002 C 
ATOM     14  C   UNL     1      39.370  20.829  29.020  1.00  0.00    -0.069 C 
ATOM     15  C   UNL     1      40.805  21.122  29.395  1.00  0.00     0.039 C 
ATOM     16  C   UNL     1      38.344  20.886  30.130  1.00  0.00     0.039 C 
BRANCH  13  17
ATOM     17  C   UNL     1      40.021  20.646  26.598  1.00  0.00     0.066 CG0
ATOM     18  G   UNL     1      40.936  19.446  26.629  1.00  0.00     0.000 G0
ENDBRANCH  13  17
ENDBRANCH  11  13
ENDBRANCH  10  11
ENDBRANCH   1  10
TORSDOF 0
ENDMDL
MODEL 8
REMARK VINA RESULT:    -4.549      5.588      8.832
REMARK INTER + INTRA:          -5.083
REMARK INTER:                  -5.482
REMARK INTRA:                   0.399
REMARK UNBOUND:                 1.327
REMARK SMILES CC1=CCC(=C(C)C)C(=O)CC(C)=CCC1
REMARK SMILES IDX 12 1 14 2 13 3 15 4 16 5 2 6 1 7 3 8 11 10 9 11 10 12 5 13
REMARK SMILES IDX 6 14 7 15 8 16 4 17
REMARK H PARENT
REMARK Flexibility Score: 60.00
ROOT
ATOM      1  C   UNL     1      36.724  20.367  25.231  1.00  0.00    -0.070 C 
ATOM      2  C   UNL     1      36.453  21.122  26.323  1.00  0.00    -0.027 C 
ATOM      3  C   UNL     1      35.551  19.863  24.426  1.00  0.00     0.039 C 
ENDROOT
BRANCH   2   4
ATOM      4  C   UNL     1      37.458  21.638  27.324  1.00  0.00     0.032 C 
BRANCH   4   5
ATOM      5  C   UNL     1      37.668  20.671  28.505  1.00  0.00     0.034 C 
BRANCH   5   6
ATOM      6  C   UNL     1      39.135  20.487  28.841  1.00  0.00    -0.077 C 
ATOM      7  C   UNL     1      39.828  21.567  29.633  1.00  0.00     0.039 C 
ATOM      8  C   UNL     1      39.854  19.396  28.492  1.00  0.00    -0.023 CG0
ATOM      9  G   UNL     1      39.331  18.201  27.733  1.00  0.00     0.000 G0
ENDBRANCH   5   6
ENDBRANCH   4   5
ENDBRANCH   2   4
BRANCH   1  10
ATOM     10  C   UNL     1      38.127  19.949  24.820  1.00  0.00     0.111 C 
BRANCH  10  11
ATOM     11  C   UNL     1      38.468  18.572  25.336  1.00  0.00     0.163 C 
ATOM     12  O   UNL     1      37.766  17.601  24.945  1.00  0.00    -0.294 OA
BRANCH  11  13
ATOM     13  C   UNL     1      39.634  18.333  26.243  1.00  0.00    -0.002 C 
ATOM     14  C   UNL     1      40.902  18.174  25.757  1.00  0.00    -0.069 C 
ATOM     15  C   UNL     1      42.081  17.971  26.683  1.00  0.00     0.039 C 
ATOM     16  C   UNL     1      41.185  18.159  24.271  1.00  0.00     0.039 C 
BRANCH  13  17
ATOM     17  C   UNL     1      39.338  18.198  27.725  1.00  0.00     0.066 CG0
ATOM     18  G   UNL     1      39.860  19.405  28.464  1.00  0.00     0.000 G0
ENDBRANCH  13  17
ENDBRANCH  11  13
ENDBRANCH  10  11
ENDBRANCH   1  10
TORSDOF 0
ENDMDL
MODEL 9
REMARK VINA RESULT:    -4.428      3.832      6.059
REMARK INTER + INTRA:          -4.913
REMARK INTER:                  -5.611
REMARK INTRA:                   0.699
REMARK UNBOUND:                 1.327
REMARK SMILES CC1=CCC(=C(C)C)C(=O)CC(C)=CCC1
REMARK SMILES IDX 12 1 14 2 13 3 15 4 16 5 2 6 1 7 3 8 11 10 9 11 10 12 5 13
REMARK SMILES IDX 6 14 7 15 8 16 4 17
REMARK H PARENT
REMARK Flexibility Score: 60.00
ROOT
ATOM      1  C   UNL     1      38.760  17.900  25.804  1.00  0.00    -0.070 C 
ATOM      2  C   UNL     1      39.532  19.012  25.791  1.00  0.00    -0.027 C 
ATOM      3  C   UNL     1      39.256  16.718  26.602  1.00  0.00     0.039 C 
ENDROOT
BRANCH   2   4
ATOM      4  C   UNL     1      39.284  20.262  24.981  1.00  0.00     0.032 C 
BRANCH   4   5
ATOM      5  C   UNL     1      39.256  21.535  25.849  1.00  0.00     0.034 C 
BRANCH   5   6
ATOM      6  C   UNL     1      38.140  21.503  26.876  1.00  0.00    -0.077 C 
ATOM      7  C   UNL     1      38.474  21.852  28.304  1.00  0.00     0.039 C 
ATOM      8  C   UNL     1      36.855  21.205  26.580  1.00  0.00    -0.023 CG0
ATOM      9  G   UNL     1      36.321  20.867  25.209  1.00  0.00     0.000 G0
ENDBRANCH   5   6
ENDBRANCH   4   5
ENDBRANCH   2   4
BRANCH   1  10
ATOM     10  C   UNL     1      37.469  17.757  25.013  1.00  0.00     0.111 C 
BRANCH  10  11
ATOM     11  C   UNL     1      36.301  18.372  25.744  1.00  0.00     0.163 C 
ATOM     12  O   UNL     1      35.968  17.876  26.854  1.00  0.00    -0.294 OA
BRANCH  11  13
ATOM     13  C   UNL     1      35.576  19.568  25.213  1.00  0.00    -0.002 C 
ATOM     14  C   UNL     1      34.314  19.474  24.696  1.00  0.00    -0.069 C 
ATOM     15  C   UNL     1      33.573  20.695  24.197  1.00  0.00     0.039 C 
ATOM     16  C   UNL     1      33.609  18.142  24.566  1.00  0.00     0.039 C 
BRANCH  13  17
ATOM     17  C   UNL     1      36.333  20.884  25.202  1.00  0.00     0.066 CG0
ATOM     18  G   UNL     1      36.858  21.184  26.585  1.00  0.00     0.000 G0
ENDBRANCH  13  17
ENDBRANCH  11  13
ENDBRANCH  10  11
ENDBRANCH   1  10
TORSDOF 0
ENDMDL
