MODEL 1
REMARK VINA RESULT:    -5.930      0.000      0.000
REMARK INTER + INTRA:         -16.592
REMARK INTER:                 -12.863
REMARK INTRA:                  -3.728
REMARK UNBOUND:                -3.728
REMARK SMILES CCCCCCCCCCCCCCCCCCCCCC(=O)[O-]
REMARK SMILES IDX 12 1 11 2 10 3 9 4 8 5 7 6 6 7 5 8 4 9 3 10 2 11 1 12 13 13
REMARK SMILES IDX 14 14 15 15 16 16 17 17 18 18 19 19 20 20 21 21 22 22 23 23
REMARK SMILES IDX 24 24
REMARK H PARENT
REMARK Flexibility Score: inf
ROOT
ATOM      1  C   UNL     1     -11.214  -2.669  17.331  1.00  0.00     0.000 C 
ENDROOT
BRANCH   1   2
ATOM      2  C   UNL     1     -12.247  -3.565  16.618  1.00  0.00     0.000 C 
BRANCH   2   3
ATOM      3  C   UNL     1     -12.371  -3.341  15.096  1.00  0.00     0.000 C 
BRANCH   3   4
ATOM      4  C   UNL     1     -13.802  -3.077  14.591  1.00  0.00    -0.000 C 
BRANCH   4   5
ATOM      5  C   UNL     1     -13.906  -1.784  13.762  1.00  0.00    -0.000 C 
BRANCH   5   6
ATOM      6  C   UNL     1     -13.174  -1.877  12.413  1.00  0.00    -0.000 C 
BRANCH   6   7
ATOM      7  C   UNL     1     -12.072  -0.823  12.194  1.00  0.00    -0.000 C 
BRANCH   7   8
ATOM      8  C   UNL     1     -10.649  -1.417  12.120  1.00  0.00    -0.000 C 
BRANCH   8   9
ATOM      9  C   UNL     1      -9.708  -0.797  13.168  1.00  0.00    -0.000 C 
BRANCH   9  10
ATOM     10  C   UNL     1      -8.476  -1.668  13.455  1.00  0.00    -0.000 C 
BRANCH  10  11
ATOM     11  C   UNL     1      -8.632  -3.109  12.947  1.00  0.00    -0.003 C 
ATOM     12  C   UNL     1      -7.271  -3.769  12.748  1.00  0.00     0.004 C 
ENDBRANCH  10  11
ENDBRANCH   9  10
ENDBRANCH   8   9
ENDBRANCH   7   8
ENDBRANCH   6   7
ENDBRANCH   5   6
ENDBRANCH   4   5
ENDBRANCH   3   4
ENDBRANCH   2   3
ENDBRANCH   1   2
BRANCH   1  13
ATOM     13  C   UNL     1      -9.817  -2.649  16.687  1.00  0.00     0.000 C 
BRANCH  13  14
ATOM     14  C   UNL     1      -8.940  -3.833  17.136  1.00  0.00     0.000 C 
BRANCH  14  15
ATOM     15  C   UNL     1      -8.628  -4.814  15.994  1.00  0.00     0.000 C 
BRANCH  15  16
ATOM     16  C   UNL     1      -9.570  -6.031  15.894  1.00  0.00     0.000 C 
BRANCH  16  17
ATOM     17  C   UNL     1     -10.106  -6.297  14.471  1.00  0.00     0.000 C 
BRANCH  17  18
ATOM     18  C   UNL     1     -11.564  -6.790  14.478  1.00  0.00     0.000 C 
BRANCH  18  19
ATOM     19  C   UNL     1     -12.270  -6.578  13.130  1.00  0.00     0.000 C 
BRANCH  19  20
ATOM     20  C   UNL     1     -11.528  -5.581  12.223  1.00  0.00     0.006 C 
BRANCH  20  21
ATOM     21  C   UNL     1     -12.405  -5.101  11.059  1.00  0.00     0.053 C 
BRANCH  21  22
ATOM     22  C   UNL     1     -11.866  -5.545   9.733  1.00  0.00     0.041 C 
ATOM     23  O   UNL     1     -10.623  -5.558   9.526  1.00  0.00    -0.550 OA
ATOM     24  O   UNL     1     -12.735  -5.954   8.728  1.00  0.00    -0.550 OA
ENDBRANCH  21  22
ENDBRANCH  20  21
ENDBRANCH  19  20
ENDBRANCH  18  19
ENDBRANCH  17  18
ENDBRANCH  16  17
ENDBRANCH  15  16
ENDBRANCH  14  15
ENDBRANCH  13  14
ENDBRANCH   1  13
TORSDOF 20
ENDMDL
MODEL 2
REMARK VINA RESULT:    -5.782      0.969      3.414
REMARK INTER + INTRA:         -16.270
REMARK INTER:                 -12.440
REMARK INTRA:                  -3.830
REMARK UNBOUND:                -3.728
REMARK SMILES CCCCCCCCCCCCCCCCCCCCCC(=O)[O-]
REMARK SMILES IDX 12 1 11 2 10 3 9 4 8 5 7 6 6 7 5 8 4 9 3 10 2 11 1 12 13 13
REMARK SMILES IDX 14 14 15 15 16 16 17 17 18 18 19 19 20 20 21 21 22 22 23 23
REMARK SMILES IDX 24 24
REMARK H PARENT
REMARK Flexibility Score: inf
ROOT
ATOM      1  C   UNL     1      -9.528  -1.532  12.584  1.00  0.00     0.000 C 
ENDROOT
BRANCH   1   2
ATOM      2  C   UNL     1     -10.927  -1.248  13.165  1.00  0.00     0.000 C 
BRANCH   2   3
ATOM      3  C   UNL     1     -12.066  -1.167  12.127  1.00  0.00     0.000 C 
BRANCH   3   4
ATOM      4  C   UNL     1     -13.298  -2.034  12.442  1.00  0.00    -0.000 C 
BRANCH   4   5
ATOM      5  C   UNL     1     -13.830  -1.807  13.869  1.00  0.00    -0.000 C 
BRANCH   5   6
ATOM      6  C   UNL     1     -14.053  -3.119  14.640  1.00  0.00    -0.000 C 
BRANCH   6   7
ATOM      7  C   UNL     1     -12.770  -3.800  15.152  1.00  0.00    -0.000 C 
BRANCH   7   8
ATOM      8  C   UNL     1     -12.460  -3.508  16.636  1.00  0.00    -0.000 C 
BRANCH   8   9
ATOM      9  C   UNL     1     -10.999  -3.072  16.847  1.00  0.00    -0.000 C 
BRANCH   9  10
ATOM     10  C   UNL     1     -10.052  -3.618  15.768  1.00  0.00    -0.000 C 
BRANCH  10  11
ATOM     11  C   UNL     1      -8.946  -4.517  16.342  1.00  0.00    -0.003 C 
ATOM     12  C   UNL     1      -9.291  -5.992  16.159  1.00  0.00     0.004 C 
ENDBRANCH  10  11
ENDBRANCH   9  10
ENDBRANCH   8   9
ENDBRANCH   7   8
ENDBRANCH   6   7
ENDBRANCH   5   6
ENDBRANCH   4   5
ENDBRANCH   3   4
ENDBRANCH   2   3
ENDBRANCH   1   2
BRANCH   1  13
ATOM     13  C   UNL     1      -8.354  -1.197  13.522  1.00  0.00     0.000 C 
BRANCH  13  14
ATOM     14  C   UNL     1      -7.380  -2.377  13.698  1.00  0.00     0.000 C 
BRANCH  14  15
ATOM     15  C   UNL     1      -7.372  -3.332  12.493  1.00  0.00     0.000 C 
BRANCH  15  16
ATOM     16  C   UNL     1      -7.470  -4.831  12.839  1.00  0.00     0.000 C 
BRANCH  16  17
ATOM     17  C   UNL     1      -8.476  -5.614  11.967  1.00  0.00     0.000 C 
BRANCH  17  18
ATOM     18  C   UNL     1      -9.747  -6.000  12.745  1.00  0.00     0.000 C 
BRANCH  18  19
ATOM     19  C   UNL     1     -10.909  -5.023  12.509  1.00  0.00     0.000 C 
BRANCH  19  20
ATOM     20  C   UNL     1     -12.165  -5.719  11.956  1.00  0.00     0.006 C 
BRANCH  20  21
ATOM     21  C   UNL     1     -12.732  -4.991  10.731  1.00  0.00     0.053 C 
BRANCH  21  22
ATOM     22  C   UNL     1     -12.308  -5.641   9.449  1.00  0.00     0.041 C 
ATOM     23  O   UNL     1     -13.172  -6.109   8.660  1.00  0.00    -0.550 OA
ATOM     24  O   UNL     1     -10.960  -5.723   9.120  1.00  0.00    -0.550 OA
ENDBRANCH  21  22
ENDBRANCH  20  21
ENDBRANCH  19  20
ENDBRANCH  18  19
ENDBRANCH  17  18
ENDBRANCH  16  17
ENDBRANCH  15  16
ENDBRANCH  14  15
ENDBRANCH  13  14
ENDBRANCH   1  13
TORSDOF 20
ENDMDL
MODEL 3
REMARK VINA RESULT:    -5.753      2.794      6.243
REMARK INTER + INTRA:         -16.209
REMARK INTER:                 -12.987
REMARK INTRA:                  -3.221
REMARK UNBOUND:                -3.728
REMARK SMILES CCCCCCCCCCCCCCCCCCCCCC(=O)[O-]
REMARK SMILES IDX 12 1 11 2 10 3 9 4 8 5 7 6 6 7 5 8 4 9 3 10 2 11 1 12 13 13
REMARK SMILES IDX 14 14 15 15 16 16 17 17 18 18 19 19 20 20 21 21 22 22 23 23
REMARK SMILES IDX 24 24
REMARK H PARENT
REMARK Flexibility Score: inf
ROOT
ATOM      1  C   UNL     1      -8.554  -1.397  13.269  1.00  0.00     0.000 C 
ENDROOT
BRANCH   1   2
ATOM      2  C   UNL     1      -8.550  -2.938  13.243  1.00  0.00     0.000 C 
BRANCH   2   3
ATOM      3  C   UNL     1      -7.216  -3.585  12.816  1.00  0.00     0.000 C 
BRANCH   3   4
ATOM      4  C   UNL     1      -7.266  -5.111  12.615  1.00  0.00    -0.000 C 
BRANCH   4   5
ATOM      5  C   UNL     1      -8.450  -5.552  11.736  1.00  0.00    -0.000 C 
BRANCH   5   6
ATOM      6  C   UNL     1      -9.393  -6.535  12.450  1.00  0.00    -0.000 C 
BRANCH   6   7
ATOM      7  C   UNL     1     -10.462  -5.880  13.345  1.00  0.00    -0.000 C 
BRANCH   7   8
ATOM      8  C   UNL     1     -11.740  -6.730  13.510  1.00  0.00    -0.000 C 
BRANCH   8   9
ATOM      9  C   UNL     1     -12.860  -6.281  12.555  1.00  0.00    -0.000 C 
BRANCH   9  10
ATOM     10  C   UNL     1     -12.440  -5.114  11.649  1.00  0.00    -0.000 C 
BRANCH  10  11
ATOM     11  C   UNL     1     -12.776  -5.356  10.169  1.00  0.00    -0.003 C 
ATOM     12  C   UNL     1     -11.510  -5.614   9.356  1.00  0.00     0.004 C 
ENDBRANCH  10  11
ENDBRANCH   9  10
ENDBRANCH   8   9
ENDBRANCH   7   8
ENDBRANCH   6   7
ENDBRANCH   5   6
ENDBRANCH   4   5
ENDBRANCH   3   4
ENDBRANCH   2   3
ENDBRANCH   1   2
BRANCH   1  13
ATOM     13  C   UNL     1      -9.893  -0.744  12.885  1.00  0.00     0.000 C 
BRANCH  13  14
ATOM     14  C   UNL     1     -10.856  -1.727  12.192  1.00  0.00     0.000 C 
BRANCH  14  15
ATOM     15  C   UNL     1     -12.315  -1.243  12.204  1.00  0.00     0.000 C 
BRANCH  15  16
ATOM     16  C   UNL     1     -13.207  -1.863  13.298  1.00  0.00     0.000 C 
BRANCH  16  17
ATOM     17  C   UNL     1     -12.487  -2.906  14.181  1.00  0.00     0.000 C 
BRANCH  17  18
ATOM     18  C   UNL     1     -13.294  -3.261  15.443  1.00  0.00     0.000 C 
BRANCH  18  19
ATOM     19  C   UNL     1     -12.434  -3.919  16.533  1.00  0.00     0.000 C 
BRANCH  19  20
ATOM     20  C   UNL     1     -10.928  -3.686  16.321  1.00  0.00     0.006 C 
BRANCH  20  21
ATOM     21  C   UNL     1     -10.369  -2.635  17.288  1.00  0.00     0.053 C 
BRANCH  21  22
ATOM     22  C   UNL     1      -8.924  -2.879  17.604  1.00  0.00     0.041 C 
ATOM     23  O   UNL     1      -8.069  -2.908  16.679  1.00  0.00    -0.550 OA
ATOM     24  O   UNL     1      -8.519  -3.064  18.921  1.00  0.00    -0.550 OA
ENDBRANCH  21  22
ENDBRANCH  20  21
ENDBRANCH  19  20
ENDBRANCH  18  19
ENDBRANCH  17  18
ENDBRANCH  16  17
ENDBRANCH  15  16
ENDBRANCH  14  15
ENDBRANCH  13  14
ENDBRANCH   1  13
TORSDOF 20
ENDMDL
MODEL 4
REMARK VINA RESULT:    -5.703      2.034      5.117
REMARK INTER + INTRA:         -16.100
REMARK INTER:                 -12.562
REMARK INTRA:                  -3.538
REMARK UNBOUND:                -3.728
REMARK SMILES CCCCCCCCCCCCCCCCCCCCCC(=O)[O-]
REMARK SMILES IDX 12 1 11 2 10 3 9 4 8 5 7 6 6 7 5 8 4 9 3 10 2 11 1 12 13 13
REMARK SMILES IDX 14 14 15 15 16 16 17 17 18 18 19 19 20 20 21 21 22 22 23 23
REMARK SMILES IDX 24 24
REMARK H PARENT
REMARK Flexibility Score: inf
ROOT
ATOM      1  C   UNL     1      -8.212  -4.342  13.145  1.00  0.00     0.000 C 
ENDROOT
BRANCH   1   2
ATOM      2  C   UNL     1      -7.713  -4.380  14.603  1.00  0.00     0.000 C 
BRANCH   2   3
ATOM      3  C   UNL     1      -7.291  -3.015  15.189  1.00  0.00     0.000 C 
BRANCH   3   4
ATOM      4  C   UNL     1      -7.316  -2.930  16.726  1.00  0.00    -0.000 C 
BRANCH   4   5
ATOM      5  C   UNL     1      -8.662  -3.380  17.320  1.00  0.00    -0.000 C 
BRANCH   5   6
ATOM      6  C   UNL     1      -9.839  -2.495  16.875  1.00  0.00    -0.000 C 
BRANCH   6   7
ATOM      7  C   UNL     1     -11.228  -2.981  17.329  1.00  0.00    -0.000 C 
BRANCH   7   8
ATOM      8  C   UNL     1     -12.143  -3.424  16.166  1.00  0.00    -0.000 C 
BRANCH   8   9
ATOM      9  C   UNL     1     -11.397  -4.301  15.146  1.00  0.00    -0.000 C 
BRANCH   9  10
ATOM     10  C   UNL     1     -11.608  -5.804  15.383  1.00  0.00    -0.000 C 
BRANCH  10  11
ATOM     11  C   UNL     1     -10.339  -6.633  15.130  1.00  0.00    -0.003 C 
ATOM     12  C   UNL     1     -10.648  -7.860  14.278  1.00  0.00     0.004 C 
ENDBRANCH  10  11
ENDBRANCH   9  10
ENDBRANCH   8   9
ENDBRANCH   7   8
ENDBRANCH   6   7
ENDBRANCH   5   6
ENDBRANCH   4   5
ENDBRANCH   3   4
ENDBRANCH   2   3
ENDBRANCH   1   2
BRANCH   1  13
ATOM     13  C   UNL     1      -7.684  -5.477  12.249  1.00  0.00     0.000 C 
BRANCH  13  14
ATOM     14  C   UNL     1      -8.800  -6.160  11.437  1.00  0.00     0.000 C 
BRANCH  14  15
ATOM     15  C   UNL     1     -10.147  -5.425  11.536  1.00  0.00     0.000 C 
BRANCH  15  16
ATOM     16  C   UNL     1     -10.995  -5.427  10.248  1.00  0.00     0.000 C 
BRANCH  16  17
ATOM     17  C   UNL     1     -12.518  -5.370  10.497  1.00  0.00     0.000 C 
BRANCH  17  18
ATOM     18  C   UNL     1     -12.878  -5.620  11.973  1.00  0.00     0.000 C 
BRANCH  18  19
ATOM     19  C   UNL     1     -13.713  -4.482  12.581  1.00  0.00     0.000 C 
BRANCH  19  20
ATOM     20  C   UNL     1     -13.828  -3.266  11.645  1.00  0.00     0.006 C 
BRANCH  20  21
ATOM     21  C   UNL     1     -13.513  -1.952  12.371  1.00  0.00     0.053 C 
BRANCH  21  22
ATOM     22  C   UNL     1     -12.147  -1.438  12.027  1.00  0.00     0.041 C 
ATOM     23  O   UNL     1     -11.139  -2.180  12.160  1.00  0.00    -0.550 OA
ATOM     24  O   UNL     1     -11.989  -0.141  11.551  1.00  0.00    -0.550 OA
ENDBRANCH  21  22
ENDBRANCH  20  21
ENDBRANCH  19  20
ENDBRANCH  18  19
ENDBRANCH  17  18
ENDBRANCH  16  17
ENDBRANCH  15  16
ENDBRANCH  14  15
ENDBRANCH  13  14
ENDBRANCH   1  13
TORSDOF 20
ENDMDL
MODEL 5
REMARK VINA RESULT:    -5.680      2.730      5.359
REMARK INTER + INTRA:         -16.050
REMARK INTER:                 -12.498
REMARK INTRA:                  -3.552
REMARK UNBOUND:                -3.728
REMARK SMILES CCCCCCCCCCCCCCCCCCCCCC(=O)[O-]
REMARK SMILES IDX 12 1 11 2 10 3 9 4 8 5 7 6 6 7 5 8 4 9 3 10 2 11 1 12 13 13
REMARK SMILES IDX 14 14 15 15 16 16 17 17 18 18 19 19 20 20 21 21 22 22 23 23
REMARK SMILES IDX 24 24
REMARK H PARENT
REMARK Flexibility Score: inf
ROOT
ATOM      1  C   UNL     1     -11.434  -1.129  12.321  1.00  0.00     0.000 C 
ENDROOT
BRANCH   1   2
ATOM      2  C   UNL     1     -12.577  -2.144  12.125  1.00  0.00     0.000 C 
BRANCH   2   3
ATOM      3  C   UNL     1     -13.468  -2.378  13.364  1.00  0.00     0.000 C 
BRANCH   3   4
ATOM      4  C   UNL     1     -14.133  -3.765  13.436  1.00  0.00    -0.000 C 
BRANCH   4   5
ATOM      5  C   UNL     1     -13.593  -4.734  12.368  1.00  0.00    -0.000 C 
BRANCH   5   6
ATOM      6  C   UNL     1     -12.752  -5.875  12.966  1.00  0.00    -0.000 C 
BRANCH   6   7
ATOM      7  C   UNL     1     -11.310  -5.490  13.348  1.00  0.00    -0.000 C 
BRANCH   7   8
ATOM      8  C   UNL     1     -10.232  -6.333  12.631  1.00  0.00    -0.000 C 
BRANCH   8   9
ATOM      9  C   UNL     1      -9.487  -5.524  11.555  1.00  0.00    -0.000 C 
BRANCH   9  10
ATOM     10  C   UNL     1      -9.961  -5.846  10.130  1.00  0.00    -0.000 C 
BRANCH  10  11
ATOM     11  C   UNL     1     -11.197  -5.036   9.713  1.00  0.00    -0.003 C 
ATOM     12  C   UNL     1     -12.259  -5.938   9.092  1.00  0.00     0.004 C 
ENDBRANCH  10  11
ENDBRANCH   9  10
ENDBRANCH   8   9
ENDBRANCH   7   8
ENDBRANCH   6   7
ENDBRANCH   5   6
ENDBRANCH   4   5
ENDBRANCH   3   4
ENDBRANCH   2   3
ENDBRANCH   1   2
BRANCH   1  13
ATOM     13  C   UNL     1     -10.055  -1.750  12.605  1.00  0.00     0.000 C 
BRANCH  13  14
ATOM     14  C   UNL     1      -9.076  -0.753  13.254  1.00  0.00     0.000 C 
BRANCH  14  15
ATOM     15  C   UNL     1      -7.672  -1.343  13.464  1.00  0.00     0.000 C 
BRANCH  15  16
ATOM     16  C   UNL     1      -7.527  -2.838  13.118  1.00  0.00     0.000 C 
BRANCH  16  17
ATOM     17  C   UNL     1      -7.297  -3.749  14.344  1.00  0.00     0.000 C 
BRANCH  17  18
ATOM     18  C   UNL     1      -7.032  -2.943  15.629  1.00  0.00     0.000 C 
BRANCH  18  19
ATOM     19  C   UNL     1      -8.113  -3.158  16.699  1.00  0.00     0.000 C 
BRANCH  19  20
ATOM     20  C   UNL     1      -9.259  -4.062  16.210  1.00  0.00     0.006 C 
BRANCH  20  21
ATOM     21  C   UNL     1     -10.495  -3.250  15.802  1.00  0.00     0.053 C 
BRANCH  21  22
ATOM     22  C   UNL     1     -11.491  -3.149  16.918  1.00  0.00     0.041 C 
ATOM     23  O   UNL     1     -11.184  -2.562  17.989  1.00  0.00    -0.550 OA
ATOM     24  O   UNL     1     -12.761  -3.694  16.771  1.00  0.00    -0.550 OA
ENDBRANCH  21  22
ENDBRANCH  20  21
ENDBRANCH  19  20
ENDBRANCH  18  19
ENDBRANCH  17  18
ENDBRANCH  16  17
ENDBRANCH  15  16
ENDBRANCH  14  15
ENDBRANCH  13  14
ENDBRANCH   1  13
TORSDOF 20
ENDMDL
MODEL 6
REMARK VINA RESULT:    -5.653      2.114      4.595
REMARK INTER + INTRA:         -15.992
REMARK INTER:                 -12.303
REMARK INTRA:                  -3.689
REMARK UNBOUND:                -3.728
REMARK SMILES CCCCCCCCCCCCCCCCCCCCCC(=O)[O-]
REMARK SMILES IDX 12 1 11 2 10 3 9 4 8 5 7 6 6 7 5 8 4 9 3 10 2 11 1 12 13 13
REMARK SMILES IDX 14 14 15 15 16 16 17 17 18 18 19 19 20 20 21 21 22 22 23 23
REMARK SMILES IDX 24 24
REMARK H PARENT
REMARK Flexibility Score: inf
ROOT
ATOM      1  C   UNL     1      -9.722  -2.875  17.682  1.00  0.00     0.000 C 
ENDROOT
BRANCH   1   2
ATOM      2  C   UNL     1     -10.820  -2.706  16.613  1.00  0.00     0.000 C 
BRANCH   2   3
ATOM      3  C   UNL     1     -11.934  -3.773  16.640  1.00  0.00     0.000 C 
BRANCH   3   4
ATOM      4  C   UNL     1     -11.916  -4.765  15.461  1.00  0.00    -0.000 C 
BRANCH   4   5
ATOM      5  C   UNL     1     -11.356  -6.143  15.859  1.00  0.00    -0.000 C 
BRANCH   5   6
ATOM      6  C   UNL     1     -10.514  -6.790  14.746  1.00  0.00    -0.000 C 
BRANCH   6   7
ATOM      7  C   UNL     1     -10.636  -6.121  13.364  1.00  0.00    -0.000 C 
BRANCH   7   8
ATOM      8  C   UNL     1      -9.299  -6.033  12.596  1.00  0.00    -0.000 C 
BRANCH   8   9
ATOM      9  C   UNL     1      -9.510  -5.736  11.101  1.00  0.00    -0.000 C 
BRANCH   9  10
ATOM     10  C   UNL     1     -10.984  -5.504  10.740  1.00  0.00    -0.000 C 
BRANCH  10  11
ATOM     11  C   UNL     1     -11.286  -5.771   9.257  1.00  0.00    -0.003 C 
ATOM     12  C   UNL     1     -12.783  -5.955   9.028  1.00  0.00     0.004 C 
ENDBRANCH  10  11
ENDBRANCH   9  10
ENDBRANCH   8   9
ENDBRANCH   7   8
ENDBRANCH   6   7
ENDBRANCH   5   6
ENDBRANCH   4   5
ENDBRANCH   3   4
ENDBRANCH   2   3
ENDBRANCH   1   2
BRANCH   1  13
ATOM     13  C   UNL     1      -8.306  -3.110  17.127  1.00  0.00     0.000 C 
BRANCH  13  14
ATOM     14  C   UNL     1      -8.299  -4.022  15.886  1.00  0.00     0.000 C 
BRANCH  14  15
ATOM     15  C   UNL     1      -7.129  -3.726  14.933  1.00  0.00     0.000 C 
BRANCH  15  16
ATOM     16  C   UNL     1      -7.523  -3.110  13.576  1.00  0.00     0.000 C 
BRANCH  16  17
ATOM     17  C   UNL     1      -7.618  -1.569  13.588  1.00  0.00     0.000 C 
BRANCH  17  18
ATOM     18  C   UNL     1      -9.038  -1.068  13.267  1.00  0.00     0.000 C 
BRANCH  18  19
ATOM     19  C   UNL     1     -10.029  -2.215  13.013  1.00  0.00     0.000 C 
BRANCH  19  20
ATOM     20  C   UNL     1     -11.480  -1.723  12.872  1.00  0.00     0.006 C 
BRANCH  20  21
ATOM     21  C   UNL     1     -12.423  -2.843  12.411  1.00  0.00     0.053 C 
BRANCH  21  22
ATOM     22  C   UNL     1     -13.732  -2.805  13.139  1.00  0.00     0.041 C 
ATOM     23  O   UNL     1     -13.955  -1.909  13.996  1.00  0.00    -0.550 OA
ATOM     24  O   UNL     1     -14.712  -3.753  12.864  1.00  0.00    -0.550 OA
ENDBRANCH  21  22
ENDBRANCH  20  21
ENDBRANCH  19  20
ENDBRANCH  18  19
ENDBRANCH  17  18
ENDBRANCH  16  17
ENDBRANCH  15  16
ENDBRANCH  14  15
ENDBRANCH  13  14
ENDBRANCH   1  13
TORSDOF 20
ENDMDL
MODEL 7
REMARK VINA RESULT:    -5.642      2.968      5.981
REMARK INTER + INTRA:         -15.967
REMARK INTER:                 -12.399
REMARK INTRA:                  -3.568
REMARK UNBOUND:                -3.728
REMARK SMILES CCCCCCCCCCCCCCCCCCCCCC(=O)[O-]
REMARK SMILES IDX 12 1 11 2 10 3 9 4 8 5 7 6 6 7 5 8 4 9 3 10 2 11 1 12 13 13
REMARK SMILES IDX 14 14 15 15 16 16 17 17 18 18 19 19 20 20 21 21 22 22 23 23
REMARK SMILES IDX 24 24
REMARK H PARENT
REMARK Flexibility Score: inf
ROOT
ATOM      1  C   UNL     1     -11.060  -4.949  10.998  1.00  0.00     0.000 C 
ENDROOT
BRANCH   1   2
ATOM      2  C   UNL     1      -9.901  -5.794  10.433  1.00  0.00     0.000 C 
BRANCH   2   3
ATOM      3  C   UNL     1      -8.712  -6.005  11.395  1.00  0.00     0.000 C 
BRANCH   3   4
ATOM      4  C   UNL     1      -8.741  -5.137  12.667  1.00  0.00    -0.000 C 
BRANCH   4   5
ATOM      5  C   UNL     1      -7.477  -4.272  12.818  1.00  0.00    -0.000 C 
BRANCH   5   6
ATOM      6  C   UNL     1      -7.794  -2.797  13.117  1.00  0.00    -0.000 C 
BRANCH   6   7
ATOM      7  C   UNL     1      -9.293  -2.468  13.256  1.00  0.00    -0.000 C 
BRANCH   7   8
ATOM      8  C   UNL     1      -9.668  -1.055  12.755  1.00  0.00    -0.000 C 
BRANCH   8   9
ATOM      9  C   UNL     1     -11.158  -0.950  12.386  1.00  0.00    -0.000 C 
BRANCH   9  10
ATOM     10  C   UNL     1     -11.997  -2.105  12.953  1.00  0.00    -0.000 C 
BRANCH  10  11
ATOM     11  C   UNL     1     -13.427  -1.681  13.319  1.00  0.00    -0.003 C 
ATOM     12  C   UNL     1     -14.100  -2.729  14.201  1.00  0.00     0.004 C 
ENDBRANCH  10  11
ENDBRANCH   9  10
ENDBRANCH   8   9
ENDBRANCH   7   8
ENDBRANCH   6   7
ENDBRANCH   5   6
ENDBRANCH   4   5
ENDBRANCH   3   4
ENDBRANCH   2   3
ENDBRANCH   1   2
BRANCH   1  13
ATOM     13  C   UNL     1     -12.443  -5.620  10.936  1.00  0.00     0.000 C 
BRANCH  13  14
ATOM     14  C   UNL     1     -12.804  -6.356  12.240  1.00  0.00     0.000 C 
BRANCH  14  15
ATOM     15  C   UNL     1     -12.116  -5.756  13.477  1.00  0.00     0.000 C 
BRANCH  15  16
ATOM     16  C   UNL     1     -11.686  -6.774  14.551  1.00  0.00     0.000 C 
BRANCH  16  17
ATOM     17  C   UNL     1     -11.196  -6.131  15.868  1.00  0.00     0.000 C 
BRANCH  17  18
ATOM     18  C   UNL     1     -10.897  -4.629  15.709  1.00  0.00     0.000 C 
BRANCH  18  19
ATOM     19  C   UNL     1     -11.694  -3.757  16.691  1.00  0.00     0.000 C 
BRANCH  19  20
ATOM     20  C   UNL     1     -10.827  -2.679  17.364  1.00  0.00     0.006 C 
BRANCH  20  21
ATOM     21  C   UNL     1      -9.483  -2.494  16.648  1.00  0.00     0.053 C 
BRANCH  21  22
ATOM     22  C   UNL     1      -8.330  -2.927  17.503  1.00  0.00     0.041 C 
ATOM     23  O   UNL     1      -7.159  -2.915  17.041  1.00  0.00    -0.550 OA
ATOM     24  O   UNL     1      -8.548  -3.334  18.815  1.00  0.00    -0.550 OA
ENDBRANCH  21  22
ENDBRANCH  20  21
ENDBRANCH  19  20
ENDBRANCH  18  19
ENDBRANCH  17  18
ENDBRANCH  16  17
ENDBRANCH  15  16
ENDBRANCH  14  15
ENDBRANCH  13  14
ENDBRANCH   1  13
TORSDOF 20
ENDMDL
MODEL 8
REMARK VINA RESULT:    -5.642      2.635      5.401
REMARK INTER + INTRA:         -15.967
REMARK INTER:                 -12.425
REMARK INTRA:                  -3.541
REMARK UNBOUND:                -3.728
REMARK SMILES CCCCCCCCCCCCCCCCCCCCCC(=O)[O-]
REMARK SMILES IDX 12 1 11 2 10 3 9 4 8 5 7 6 6 7 5 8 4 9 3 10 2 11 1 12 13 13
REMARK SMILES IDX 14 14 15 15 16 16 17 17 18 18 19 19 20 20 21 21 22 22 23 23
REMARK SMILES IDX 24 24
REMARK H PARENT
REMARK Flexibility Score: inf
ROOT
ATOM      1  C   UNL     1     -10.097  -5.734  13.240  1.00  0.00     0.000 C 
ENDROOT
BRANCH   1   2
ATOM      2  C   UNL     1      -9.189  -5.905  12.006  1.00  0.00     0.000 C 
BRANCH   2   3
ATOM      3  C   UNL     1      -9.895  -5.744  10.644  1.00  0.00     0.000 C 
BRANCH   3   4
ATOM      4  C   UNL     1     -11.022  -4.695  10.613  1.00  0.00    -0.000 C 
BRANCH   4   5
ATOM      5  C   UNL     1     -12.374  -5.293  10.185  1.00  0.00    -0.000 C 
BRANCH   5   6
ATOM      6  C   UNL     1     -13.567  -4.663  10.923  1.00  0.00    -0.000 C 
BRANCH   6   7
ATOM      7  C   UNL     1     -13.364  -4.460  12.436  1.00  0.00    -0.000 C 
BRANCH   7   8
ATOM      8  C   UNL     1     -14.160  -3.270  13.016  1.00  0.00    -0.000 C 
BRANCH   8   9
ATOM      9  C   UNL     1     -13.289  -2.011  13.170  1.00  0.00    -0.000 C 
BRANCH   9  10
ATOM     10  C   UNL     1     -11.784  -2.321  13.155  1.00  0.00    -0.000 C 
BRANCH  10  11
ATOM     11  C   UNL     1     -10.961  -1.248  12.427  1.00  0.00    -0.003 C 
ATOM     12  C   UNL     1      -9.539  -1.183  12.977  1.00  0.00     0.004 C 
ENDBRANCH  10  11
ENDBRANCH   9  10
ENDBRANCH   8   9
ENDBRANCH   7   8
ENDBRANCH   6   7
ENDBRANCH   5   6
ENDBRANCH   4   5
ENDBRANCH   3   4
ENDBRANCH   2   3
ENDBRANCH   1   2
BRANCH   1  13
ATOM     13  C   UNL     1     -10.922  -6.978  13.617  1.00  0.00     0.000 C 
BRANCH  13  14
ATOM     14  C   UNL     1     -11.333  -6.990  15.102  1.00  0.00     0.000 C 
BRANCH  14  15
ATOM     15  C   UNL     1     -11.098  -5.640  15.799  1.00  0.00     0.000 C 
BRANCH  15  16
ATOM     16  C   UNL     1     -12.356  -4.770  15.995  1.00  0.00     0.000 C 
BRANCH  16  17
ATOM     17  C   UNL     1     -12.092  -3.439  16.732  1.00  0.00     0.000 C 
BRANCH  17  18
ATOM     18  C   UNL     1     -10.657  -2.926  16.516  1.00  0.00     0.000 C 
BRANCH  18  19
ATOM     19  C   UNL     1      -9.911  -2.675  17.835  1.00  0.00     0.000 C 
BRANCH  19  20
ATOM     20  C   UNL     1      -8.432  -3.096  17.769  1.00  0.00     0.006 C 
BRANCH  20  21
ATOM     21  C   UNL     1      -8.067  -3.695  16.404  1.00  0.00     0.053 C 
BRANCH  21  22
ATOM     22  C   UNL     1      -6.945  -2.948  15.749  1.00  0.00     0.041 C 
ATOM     23  O   UNL     1      -6.054  -2.399  16.450  1.00  0.00    -0.550 OA
ATOM     24  O   UNL     1      -6.877  -2.866  14.362  1.00  0.00    -0.550 OA
ENDBRANCH  21  22
ENDBRANCH  20  21
ENDBRANCH  19  20
ENDBRANCH  18  19
ENDBRANCH  17  18
ENDBRANCH  16  17
ENDBRANCH  15  16
ENDBRANCH  14  15
ENDBRANCH  13  14
ENDBRANCH   1  13
TORSDOF 20
ENDMDL
MODEL 9
REMARK VINA RESULT:    -5.610      3.068      6.227
REMARK INTER + INTRA:         -15.897
REMARK INTER:                 -12.538
REMARK INTRA:                  -3.359
REMARK UNBOUND:                -3.728
REMARK SMILES CCCCCCCCCCCCCCCCCCCCCC(=O)[O-]
REMARK SMILES IDX 12 1 11 2 10 3 9 4 8 5 7 6 6 7 5 8 4 9 3 10 2 11 1 12 13 13
REMARK SMILES IDX 14 14 15 15 16 16 17 17 18 18 19 19 20 20 21 21 22 22 23 23
REMARK SMILES IDX 24 24
REMARK H PARENT
REMARK Flexibility Score: inf
ROOT
ATOM      1  C   UNL     1     -10.966  -1.099  12.701  1.00  0.00     0.000 C 
ENDROOT
BRANCH   1   2
ATOM      2  C   UNL     1      -9.572  -1.727  12.502  1.00  0.00     0.000 C 
BRANCH   2   3
ATOM      3  C   UNL     1      -8.489  -1.247  13.490  1.00  0.00     0.000 C 
BRANCH   3   4
ATOM      4  C   UNL     1      -7.307  -2.216  13.682  1.00  0.00    -0.000 C 
BRANCH   4   5
ATOM      5  C   UNL     1      -7.470  -3.513  12.869  1.00  0.00    -0.000 C 
BRANCH   5   6
ATOM      6  C   UNL     1      -8.060  -4.668  13.697  1.00  0.00    -0.000 C 
BRANCH   6   7
ATOM      7  C   UNL     1      -9.225  -5.421  13.026  1.00  0.00    -0.000 C 
BRANCH   7   8
ATOM      8  C   UNL     1      -8.876  -5.991  11.634  1.00  0.00    -0.000 C 
BRANCH   8   9
ATOM      9  C   UNL     1      -9.923  -5.607  10.574  1.00  0.00    -0.000 C 
BRANCH   9  10
ATOM     10  C   UNL     1     -11.201  -5.013  11.184  1.00  0.00    -0.000 C 
BRANCH  10  11
ATOM     11  C   UNL     1     -12.435  -5.200  10.287  1.00  0.00    -0.003 C 
ATOM     12  C   UNL     1     -12.075  -5.959   9.014  1.00  0.00     0.004 C 
ENDBRANCH  10  11
ENDBRANCH   9  10
ENDBRANCH   8   9
ENDBRANCH   7   8
ENDBRANCH   6   7
ENDBRANCH   5   6
ENDBRANCH   4   5
ENDBRANCH   3   4
ENDBRANCH   2   3
ENDBRANCH   1   2
BRANCH   1  13
ATOM     13  C   UNL     1     -12.055  -1.619  11.746  1.00  0.00     0.000 C 
BRANCH  13  14
ATOM     14  C   UNL     1     -13.478  -1.403  12.294  1.00  0.00     0.000 C 
BRANCH  14  15
ATOM     15  C   UNL     1     -13.640  -1.885  13.745  1.00  0.00     0.000 C 
BRANCH  15  16
ATOM     16  C   UNL     1     -13.957  -3.384  13.912  1.00  0.00     0.000 C 
BRANCH  16  17
ATOM     17  C   UNL     1     -12.727  -4.254  14.253  1.00  0.00     0.000 C 
BRANCH  17  18
ATOM     18  C   UNL     1     -11.686  -3.490  15.092  1.00  0.00     0.000 C 
BRANCH  18  19
ATOM     19  C   UNL     1     -12.052  -3.431  16.583  1.00  0.00     0.000 C 
BRANCH  19  20
ATOM     20  C   UNL     1     -10.918  -2.857  17.449  1.00  0.00     0.006 C 
BRANCH  20  21
ATOM     21  C   UNL     1      -9.608  -2.721  16.662  1.00  0.00     0.053 C 
BRANCH  21  22
ATOM     22  C   UNL     1      -8.408  -2.950  17.530  1.00  0.00     0.041 C 
ATOM     23  O   UNL     1      -8.549  -3.155  18.765  1.00  0.00    -0.550 OA
ATOM     24  O   UNL     1      -7.133  -2.948  16.975  1.00  0.00    -0.550 OA
ENDBRANCH  21  22
ENDBRANCH  20  21
ENDBRANCH  19  20
ENDBRANCH  18  19
ENDBRANCH  17  18
ENDBRANCH  16  17
ENDBRANCH  15  16
ENDBRANCH  14  15
ENDBRANCH  13  14
ENDBRANCH   1  13
TORSDOF 20
ENDMDL
