MODEL 1
REMARK VINA RESULT:    -4.454      0.000      0.000
REMARK INTER + INTRA:         -14.852
REMARK INTER:                 -11.223
REMARK INTRA:                  -3.629
REMARK UNBOUND:                -3.629
REMARK SMILES CCCCCCCCCCCCCCCCCCCCCCCCCCCC(=O)[O-]
REMARK SMILES IDX 15 1 16 2 17 3 18 4 19 5 20 6 21 7 22 8 23 9 24 10 25 11
REMARK SMILES IDX 26 12 27 13 28 14 29 15 30 16 14 17 13 18 12 19 11 20 10 21
REMARK SMILES IDX 9 22 8 23 7 24 6 25 5 26 4 27 3 28 2 29 1 30
REMARK H PARENT
REMARK Flexibility Score: inf
ROOT
ATOM      1  C   UNL     1      12.257  10.886  11.455  1.00  0.00     0.000 C 
ENDROOT
BRANCH   1   2
ATOM      2  C   UNL     1      12.752  11.838  12.558  1.00  0.00     0.000 C 
BRANCH   2   3
ATOM      3  C   UNL     1      12.814  11.164  13.941  1.00  0.00     0.000 C 
BRANCH   3   4
ATOM      4  C   UNL     1      14.231  10.851  14.459  1.00  0.00     0.000 C 
BRANCH   4   5
ATOM      5  C   UNL     1      14.892  11.969  15.286  1.00  0.00     0.000 C 
BRANCH   5   6
ATOM      6  C   UNL     1      14.445  11.964  16.759  1.00  0.00     0.000 C 
BRANCH   6   7
ATOM      7  C   UNL     1      15.448  12.672  17.684  1.00  0.00     0.000 C 
BRANCH   7   8
ATOM      8  C   UNL     1      15.993  11.748  18.788  1.00  0.00     0.000 C 
BRANCH   8   9
ATOM      9  C   UNL     1      17.303  12.271  19.401  1.00  0.00     0.000 C 
BRANCH   9  10
ATOM     10  C   UNL     1      18.312  12.716  18.330  1.00  0.00     0.000 C 
BRANCH  10  11
ATOM     11  C   UNL     1      19.294  11.600  17.939  1.00  0.00     0.000 C 
BRANCH  11  12
ATOM     12  C   UNL     1      19.454  11.426  16.413  1.00  0.00     0.006 C 
BRANCH  12  13
ATOM     13  C   UNL     1      18.994  12.668  15.639  1.00  0.00     0.053 C 
BRANCH  13  14
ATOM     14  C   UNL     1      18.627  12.309  14.234  1.00  0.00     0.041 C 
ATOM     15  O   UNL     1      18.017  11.233  13.992  1.00  0.00    -0.550 OA
ATOM     16  O   UNL     1      18.992  13.145  13.187  1.00  0.00    -0.550 OA
ENDBRANCH  13  14
ENDBRANCH  12  13
ENDBRANCH  11  12
ENDBRANCH  10  11
ENDBRANCH   9  10
ENDBRANCH   8   9
ENDBRANCH   7   8
ENDBRANCH   6   7
ENDBRANCH   5   6
ENDBRANCH   4   5
ENDBRANCH   3   4
ENDBRANCH   2   3
ENDBRANCH   1   2
BRANCH   1  17
ATOM     17  C   UNL     1      11.081  10.005  11.912  1.00  0.00     0.000 C 
BRANCH  17  18
ATOM     18  C   UNL     1       9.687  10.503  11.486  1.00  0.00     0.000 C 
BRANCH  18  19
ATOM     19  C   UNL     1       9.086  11.564  12.432  1.00  0.00     0.000 C 
BRANCH  19  20
ATOM     20  C   UNL     1       8.976  12.948  11.765  1.00  0.00     0.000 C 
BRANCH  20  21
ATOM     21  C   UNL     1       9.428  14.089  12.703  1.00  0.00     0.000 C 
BRANCH  21  22
ATOM     22  C   UNL     1      10.513  14.998  12.094  1.00  0.00    -0.000 C 
BRANCH  22  23
ATOM     23  C   UNL     1      11.079  14.523  10.742  1.00  0.00    -0.000 C 
BRANCH  23  24
ATOM     24  C   UNL     1      11.666  15.635   9.852  1.00  0.00    -0.000 C 
BRANCH  24  25
ATOM     25  C   UNL     1      10.773  15.963   8.643  1.00  0.00    -0.000 C 
BRANCH  25  26
ATOM     26  C   UNL     1       9.658  14.924   8.424  1.00  0.00    -0.000 C 
BRANCH  26  27
ATOM     27  C   UNL     1       9.923  13.901   7.305  1.00  0.00    -0.000 C 
BRANCH  27  28
ATOM     28  C   UNL     1       9.319  12.521   7.597  1.00  0.00    -0.000 C 
BRANCH  28  29
ATOM     29  C   UNL     1      10.352  11.597   8.258  1.00  0.00    -0.003 C 
ATOM     30  C   UNL     1      11.773  12.098   8.017  1.00  0.00     0.004 C 
ENDBRANCH  28  29
ENDBRANCH  27  28
ENDBRANCH  26  27
ENDBRANCH  25  26
ENDBRANCH  24  25
ENDBRANCH  23  24
ENDBRANCH  22  23
ENDBRANCH  21  22
ENDBRANCH  20  21
ENDBRANCH  19  20
ENDBRANCH  18  19
ENDBRANCH  17  18
ENDBRANCH   1  17
TORSDOF 26
ENDMDL
MODEL 2
REMARK VINA RESULT:    -4.207      2.821      4.866
REMARK INTER + INTRA:         -14.230
REMARK INTER:                 -10.398
REMARK INTRA:                  -3.833
REMARK UNBOUND:                -3.629
REMARK SMILES CCCCCCCCCCCCCCCCCCCCCCCCCCCC(=O)[O-]
REMARK SMILES IDX 15 1 16 2 17 3 18 4 19 5 20 6 21 7 22 8 23 9 24 10 25 11
REMARK SMILES IDX 26 12 27 13 28 14 29 15 30 16 14 17 13 18 12 19 11 20 10 21
REMARK SMILES IDX 9 22 8 23 7 24 6 25 5 26 4 27 3 28 2 29 1 30
REMARK H PARENT
REMARK Flexibility Score: inf
ROOT
ATOM      1  C   UNL     1      13.500  11.623  14.294  1.00  0.00     0.000 C 
ENDROOT
BRANCH   1   2
ATOM      2  C   UNL     1      14.889  11.032  14.593  1.00  0.00     0.000 C 
BRANCH   2   3
ATOM      3  C   UNL     1      15.991  12.105  14.653  1.00  0.00     0.000 C 
BRANCH   3   4
ATOM      4  C   UNL     1      17.425  11.591  14.416  1.00  0.00     0.000 C 
BRANCH   4   5
ATOM      5  C   UNL     1      18.548  12.521  14.910  1.00  0.00     0.000 C 
BRANCH   5   6
ATOM      6  C   UNL     1      19.224  12.010  16.194  1.00  0.00     0.000 C 
BRANCH   6   7
ATOM      7  C   UNL     1      18.722  12.730  17.456  1.00  0.00     0.000 C 
BRANCH   7   8
ATOM      8  C   UNL     1      18.192  11.758  18.524  1.00  0.00     0.000 C 
BRANCH   8   9
ATOM      9  C   UNL     1      16.812  12.171  19.064  1.00  0.00     0.000 C 
BRANCH   9  10
ATOM     10  C   UNL     1      15.783  12.375  17.940  1.00  0.00     0.000 C 
BRANCH  10  11
ATOM     11  C   UNL     1      14.396  11.813  18.294  1.00  0.00     0.000 C 
BRANCH  11  12
ATOM     12  C   UNL     1      13.236  12.773  17.952  1.00  0.00     0.006 C 
BRANCH  12  13
ATOM     13  C   UNL     1      11.915  12.025  17.731  1.00  0.00     0.053 C 
BRANCH  13  14
ATOM     14  C   UNL     1      11.106  11.999  18.990  1.00  0.00     0.041 C 
ATOM     15  O   UNL     1      10.746  10.900  19.490  1.00  0.00    -0.550 OA
ATOM     16  O   UNL     1      10.718  13.190  19.589  1.00  0.00    -0.550 OA
ENDBRANCH  13  14
ENDBRANCH  12  13
ENDBRANCH  11  12
ENDBRANCH  10  11
ENDBRANCH   9  10
ENDBRANCH   8   9
ENDBRANCH   7   8
ENDBRANCH   6   7
ENDBRANCH   5   6
ENDBRANCH   4   5
ENDBRANCH   3   4
ENDBRANCH   2   3
ENDBRANCH   1   2
BRANCH   1  17
ATOM     17  C   UNL     1      12.690  10.768  13.303  1.00  0.00     0.000 C 
BRANCH  17  18
ATOM     18  C   UNL     1      11.227  11.210  13.102  1.00  0.00     0.000 C 
BRANCH  18  19
ATOM     19  C   UNL     1      10.484  10.431  11.996  1.00  0.00     0.000 C 
BRANCH  19  20
ATOM     20  C   UNL     1       9.456  11.304  11.253  1.00  0.00     0.000 C 
BRANCH  20  21
ATOM     21  C   UNL     1       9.331  10.925   9.762  1.00  0.00     0.000 C 
BRANCH  21  22
ATOM     22  C   UNL     1       9.886  11.995   8.802  1.00  0.00    -0.000 C 
BRANCH  22  23
ATOM     23  C   UNL     1      11.171  11.594   8.051  1.00  0.00    -0.000 C 
BRANCH  23  24
ATOM     24  C   UNL     1      12.411  12.446   8.378  1.00  0.00    -0.000 C 
BRANCH  24  25
ATOM     25  C   UNL     1      12.968  12.171   9.785  1.00  0.00    -0.000 C 
BRANCH  25  26
ATOM     26  C   UNL     1      12.829  13.379  10.730  1.00  0.00    -0.000 C 
BRANCH  26  27
ATOM     27  C   UNL     1      12.419  14.699  10.054  1.00  0.00    -0.000 C 
BRANCH  27  28
ATOM     28  C   UNL     1      11.184  15.345  10.696  1.00  0.00    -0.000 C 
BRANCH  28  29
ATOM     29  C   UNL     1      10.904  14.742  12.079  1.00  0.00    -0.003 C 
ATOM     30  C   UNL     1       9.410  14.748  12.390  1.00  0.00     0.004 C 
ENDBRANCH  28  29
ENDBRANCH  27  28
ENDBRANCH  26  27
ENDBRANCH  25  26
ENDBRANCH  24  25
ENDBRANCH  23  24
ENDBRANCH  22  23
ENDBRANCH  21  22
ENDBRANCH  20  21
ENDBRANCH  19  20
ENDBRANCH  18  19
ENDBRANCH  17  18
ENDBRANCH   1  17
TORSDOF 26
ENDMDL
MODEL 3
REMARK VINA RESULT:    -4.171      3.563      6.183
REMARK INTER + INTRA:         -14.139
REMARK INTER:                 -10.606
REMARK INTRA:                  -3.533
REMARK UNBOUND:                -3.629
REMARK SMILES CCCCCCCCCCCCCCCCCCCCCCCCCCCC(=O)[O-]
REMARK SMILES IDX 15 1 16 2 17 3 18 4 19 5 20 6 21 7 22 8 23 9 24 10 25 11
REMARK SMILES IDX 26 12 27 13 28 14 29 15 30 16 14 17 13 18 12 19 11 20 10 21
REMARK SMILES IDX 9 22 8 23 7 24 6 25 5 26 4 27 3 28 2 29 1 30
REMARK H PARENT
REMARK Flexibility Score: inf
ROOT
ATOM      1  C   UNL     1      16.773  12.287  14.816  1.00  0.00     0.000 C 
ENDROOT
BRANCH   1   2
ATOM      2  C   UNL     1      18.200  11.790  14.522  1.00  0.00     0.000 C 
BRANCH   2   3
ATOM      3  C   UNL     1      19.225  12.274  15.564  1.00  0.00     0.000 C 
BRANCH   3   4
ATOM      4  C   UNL     1      18.626  12.789  16.888  1.00  0.00     0.000 C 
BRANCH   4   5
ATOM      5  C   UNL     1      18.893  11.904  18.118  1.00  0.00     0.000 C 
BRANCH   5   6
ATOM      6  C   UNL     1      17.628  11.654  18.958  1.00  0.00     0.000 C 
BRANCH   6   7
ATOM      7  C   UNL     1      16.477  12.607  18.595  1.00  0.00     0.000 C 
BRANCH   7   8
ATOM      8  C   UNL     1      15.218  11.862  18.116  1.00  0.00     0.000 C 
BRANCH   8   9
ATOM      9  C   UNL     1      13.998  12.790  17.987  1.00  0.00     0.000 C 
BRANCH   9  10
ATOM     10  C   UNL     1      12.669  12.018  18.038  1.00  0.00     0.000 C 
BRANCH  10  11
ATOM     11  C   UNL     1      11.495  12.889  18.514  1.00  0.00     0.000 C 
BRANCH  11  12
ATOM     12  C   UNL     1      10.516  12.146  19.449  1.00  0.00     0.006 C 
BRANCH  12  13
ATOM     13  C   UNL     1      11.138  10.875  20.042  1.00  0.00     0.053 C 
BRANCH  13  14
ATOM     14  C   UNL     1      10.700  10.685  21.460  1.00  0.00     0.041 C 
ATOM     15  O   UNL     1      10.284   9.562  21.851  1.00  0.00    -0.550 OA
ATOM     16  O   UNL     1      10.715  11.759  22.341  1.00  0.00    -0.550 OA
ENDBRANCH  13  14
ENDBRANCH  12  13
ENDBRANCH  11  12
ENDBRANCH  10  11
ENDBRANCH   9  10
ENDBRANCH   8   9
ENDBRANCH   7   8
ENDBRANCH   6   7
ENDBRANCH   5   6
ENDBRANCH   4   5
ENDBRANCH   3   4
ENDBRANCH   2   3
ENDBRANCH   1   2
BRANCH   1  17
ATOM     17  C   UNL     1      15.707  11.197  14.602  1.00  0.00     0.000 C 
BRANCH  17  18
ATOM     18  C   UNL     1      14.250  11.697  14.621  1.00  0.00     0.000 C 
BRANCH  18  19
ATOM     19  C   UNL     1      13.328  10.975  13.615  1.00  0.00     0.000 C 
BRANCH  19  20
ATOM     20  C   UNL     1      11.897  11.545  13.618  1.00  0.00     0.000 C 
BRANCH  20  21
ATOM     21  C   UNL     1      10.924  10.693  12.775  1.00  0.00     0.000 C 
BRANCH  21  22
ATOM     22  C   UNL     1      11.481  10.303  11.392  1.00  0.00    -0.000 C 
BRANCH  22  23
ATOM     23  C   UNL     1      10.859  11.057  10.201  1.00  0.00    -0.000 C 
BRANCH  23  24
ATOM     24  C   UNL     1      11.846  11.907   9.378  1.00  0.00    -0.000 C 
BRANCH  24  25
ATOM     25  C   UNL     1      13.117  12.271  10.165  1.00  0.00    -0.000 C 
BRANCH  25  26
ATOM     26  C   UNL     1      13.031  13.657  10.832  1.00  0.00    -0.000 C 
BRANCH  26  27
ATOM     27  C   UNL     1      12.447  14.775   9.951  1.00  0.00    -0.000 C 
BRANCH  27  28
ATOM     28  C   UNL     1      11.138  15.354  10.504  1.00  0.00    -0.000 C 
BRANCH  28  29
ATOM     29  C   UNL     1      10.943  14.966  11.976  1.00  0.00    -0.003 C 
ATOM     30  C   UNL     1       9.675  14.138  12.164  1.00  0.00     0.004 C 
ENDBRANCH  28  29
ENDBRANCH  27  28
ENDBRANCH  26  27
ENDBRANCH  25  26
ENDBRANCH  24  25
ENDBRANCH  23  24
ENDBRANCH  22  23
ENDBRANCH  21  22
ENDBRANCH  20  21
ENDBRANCH  19  20
ENDBRANCH  18  19
ENDBRANCH  17  18
ENDBRANCH   1  17
TORSDOF 26
ENDMDL
MODEL 4
REMARK VINA RESULT:    -4.092      3.015      9.309
REMARK INTER + INTRA:         -13.941
REMARK INTER:                 -10.640
REMARK INTRA:                  -3.300
REMARK UNBOUND:                -3.629
REMARK SMILES CCCCCCCCCCCCCCCCCCCCCCCCCCCC(=O)[O-]
REMARK SMILES IDX 15 1 16 2 17 3 18 4 19 5 20 6 21 7 22 8 23 9 24 10 25 11
REMARK SMILES IDX 26 12 27 13 28 14 29 15 30 16 14 17 13 18 12 19 11 20 10 21
REMARK SMILES IDX 9 22 8 23 7 24 6 25 5 26 4 27 3 28 2 29 1 30
REMARK H PARENT
REMARK Flexibility Score: inf
ROOT
ATOM      1  C   UNL     1      13.757  11.960  14.057  1.00  0.00     0.000 C 
ENDROOT
BRANCH   1   2
ATOM      2  C   UNL     1      12.660  11.062  13.459  1.00  0.00     0.000 C 
BRANCH   2   3
ATOM      3  C   UNL     1      11.246  11.637  13.659  1.00  0.00     0.000 C 
BRANCH   3   4
ATOM      4  C   UNL     1      10.199  11.186  12.621  1.00  0.00     0.000 C 
BRANCH   4   5
ATOM      5  C   UNL     1       9.056  12.185  12.364  1.00  0.00     0.000 C 
BRANCH   5   6
ATOM      6  C   UNL     1       9.158  13.447  13.238  1.00  0.00     0.000 C 
BRANCH   6   7
ATOM      7  C   UNL     1       9.359  14.727  12.411  1.00  0.00     0.000 C 
BRANCH   7   8
ATOM      8  C   UNL     1      10.834  14.975  12.047  1.00  0.00     0.000 C 
BRANCH   8   9
ATOM      9  C   UNL     1      11.059  15.061  10.528  1.00  0.00     0.000 C 
BRANCH   9  10
ATOM     10  C   UNL     1      12.497  14.694  10.129  1.00  0.00     0.000 C 
BRANCH  10  11
ATOM     11  C   UNL     1      12.901  13.285  10.593  1.00  0.00     0.000 C 
BRANCH  11  12
ATOM     12  C   UNL     1      12.228  12.153   9.786  1.00  0.00     0.006 C 
BRANCH  12  13
ATOM     13  C   UNL     1      12.244  12.432   8.278  1.00  0.00     0.053 C 
BRANCH  13  14
ATOM     14  C   UNL     1      10.854  12.421   7.724  1.00  0.00     0.041 C 
ATOM     15  O   UNL     1      10.316  13.493   7.337  1.00  0.00    -0.550 OA
ATOM     16  O   UNL     1      10.139  11.232   7.670  1.00  0.00    -0.550 OA
ENDBRANCH  13  14
ENDBRANCH  12  13
ENDBRANCH  11  12
ENDBRANCH  10  11
ENDBRANCH   9  10
ENDBRANCH   8   9
ENDBRANCH   7   8
ENDBRANCH   6   7
ENDBRANCH   5   6
ENDBRANCH   4   5
ENDBRANCH   3   4
ENDBRANCH   2   3
ENDBRANCH   1   2
BRANCH   1  17
ATOM     17  C   UNL     1      14.875  11.157  14.746  1.00  0.00     0.000 C 
BRANCH  17  18
ATOM     18  C   UNL     1      16.140  11.964  15.094  1.00  0.00     0.000 C 
BRANCH  18  19
ATOM     19  C   UNL     1      17.230  11.923  14.002  1.00  0.00     0.000 C 
BRANCH  19  20
ATOM     20  C   UNL     1      18.651  12.015  14.587  1.00  0.00     0.000 C 
BRANCH  20  21
ATOM     21  C   UNL     1      18.676  12.722  15.959  1.00  0.00     0.000 C 
BRANCH  21  22
ATOM     22  C   UNL     1      19.576  12.025  16.999  1.00  0.00    -0.000 C 
BRANCH  22  23
ATOM     23  C   UNL     1      18.856  11.564  18.280  1.00  0.00    -0.000 C 
BRANCH  23  24
ATOM     24  C   UNL     1      17.844  12.571  18.859  1.00  0.00    -0.000 C 
BRANCH  24  25
ATOM     25  C   UNL     1      16.515  11.911  19.265  1.00  0.00    -0.000 C 
BRANCH  25  26
ATOM     26  C   UNL     1      15.417  12.067  18.196  1.00  0.00    -0.000 C 
BRANCH  26  27
ATOM     27  C   UNL     1      14.004  11.648  18.639  1.00  0.00    -0.000 C 
BRANCH  27  28
ATOM     28  C   UNL     1      12.907  12.132  17.682  1.00  0.00    -0.000 C 
BRANCH  28  29
ATOM     29  C   UNL     1      11.564  12.275  18.411  1.00  0.00    -0.003 C 
ATOM     30  C   UNL     1      10.397  11.928  17.490  1.00  0.00     0.004 C 
ENDBRANCH  28  29
ENDBRANCH  27  28
ENDBRANCH  26  27
ENDBRANCH  25  26
ENDBRANCH  24  25
ENDBRANCH  23  24
ENDBRANCH  22  23
ENDBRANCH  21  22
ENDBRANCH  20  21
ENDBRANCH  19  20
ENDBRANCH  18  19
ENDBRANCH  17  18
ENDBRANCH   1  17
TORSDOF 26
ENDMDL
MODEL 5
REMARK VINA RESULT:    -4.062      3.077      5.409
REMARK INTER + INTRA:         -13.865
REMARK INTER:                 -10.216
REMARK INTRA:                  -3.649
REMARK UNBOUND:                -3.629
REMARK SMILES CCCCCCCCCCCCCCCCCCCCCCCCCCCC(=O)[O-]
REMARK SMILES IDX 15 1 16 2 17 3 18 4 19 5 20 6 21 7 22 8 23 9 24 10 25 11
REMARK SMILES IDX 26 12 27 13 28 14 29 15 30 16 14 17 13 18 12 19 11 20 10 21
REMARK SMILES IDX 9 22 8 23 7 24 6 25 5 26 4 27 3 28 2 29 1 30
REMARK H PARENT
REMARK Flexibility Score: inf
ROOT
ATOM      1  C   UNL     1      16.051  11.540  15.026  1.00  0.00     0.000 C 
ENDROOT
BRANCH   1   2
ATOM      2  C   UNL     1      17.203  12.325  14.376  1.00  0.00     0.000 C 
BRANCH   2   3
ATOM      3  C   UNL     1      18.590  11.838  14.836  1.00  0.00     0.000 C 
BRANCH   3   4
ATOM      4  C   UNL     1      19.242  12.669  15.959  1.00  0.00     0.000 C 
BRANCH   4   5
ATOM      5  C   UNL     1      19.896  11.853  17.087  1.00  0.00     0.000 C 
BRANCH   5   6
ATOM      6  C   UNL     1      18.895  11.437  18.180  1.00  0.00     0.000 C 
BRANCH   6   7
ATOM      7  C   UNL     1      17.837  12.517  18.458  1.00  0.00     0.000 C 
BRANCH   7   8
ATOM      8  C   UNL     1      16.484  11.927  18.890  1.00  0.00     0.000 C 
BRANCH   8   9
ATOM      9  C   UNL     1      15.305  12.509  18.092  1.00  0.00     0.000 C 
BRANCH   9  10
ATOM     10  C   UNL     1      14.004  11.719  18.309  1.00  0.00     0.000 C 
BRANCH  10  11
ATOM     11  C   UNL     1      12.794  12.364  17.615  1.00  0.00     0.000 C 
BRANCH  11  12
ATOM     12  C   UNL     1      11.519  12.378  18.485  1.00  0.00     0.006 C 
BRANCH  12  13
ATOM     13  C   UNL     1      10.307  11.801  17.741  1.00  0.00     0.053 C 
BRANCH  13  14
ATOM     14  C   UNL     1       9.773  10.599  18.454  1.00  0.00     0.041 C 
ATOM     15  O   UNL     1       9.249   9.656  17.803  1.00  0.00    -0.550 OA
ATOM     16  O   UNL     1       9.817  10.538  19.841  1.00  0.00    -0.550 OA
ENDBRANCH  13  14
ENDBRANCH  12  13
ENDBRANCH  11  12
ENDBRANCH  10  11
ENDBRANCH   9  10
ENDBRANCH   8   9
ENDBRANCH   7   8
ENDBRANCH   6   7
ENDBRANCH   5   6
ENDBRANCH   4   5
ENDBRANCH   3   4
ENDBRANCH   2   3
ENDBRANCH   1   2
BRANCH   1  17
ATOM     17  C   UNL     1      14.666  12.005  14.542  1.00  0.00     0.000 C 
BRANCH  17  18
ATOM     18  C   UNL     1      13.710  10.874  14.114  1.00  0.00     0.000 C 
BRANCH  18  19
ATOM     19  C   UNL     1      12.314  11.367  13.677  1.00  0.00     0.000 C 
BRANCH  19  20
ATOM     20  C   UNL     1      11.685  10.464  12.600  1.00  0.00     0.000 C 
BRANCH  20  21
ATOM     21  C   UNL     1      10.433  11.100  11.959  1.00  0.00     0.000 C 
BRANCH  21  22
ATOM     22  C   UNL     1      10.015  12.435  12.606  1.00  0.00    -0.000 C 
BRANCH  22  23
ATOM     23  C   UNL     1       9.844  13.610  11.624  1.00  0.00    -0.000 C 
BRANCH  23  24
ATOM     24  C   UNL     1      10.887  14.735  11.762  1.00  0.00    -0.000 C 
BRANCH  24  25
ATOM     25  C   UNL     1      11.931  14.718  10.633  1.00  0.00    -0.000 C 
BRANCH  25  26
ATOM     26  C   UNL     1      13.070  13.712  10.885  1.00  0.00    -0.000 C 
BRANCH  26  27
ATOM     27  C   UNL     1      13.077  12.483   9.959  1.00  0.00    -0.000 C 
BRANCH  27  28
ATOM     28  C   UNL     1      12.330  12.721   8.639  1.00  0.00    -0.000 C 
BRANCH  28  29
ATOM     29  C   UNL     1      11.584  11.457   8.193  1.00  0.00    -0.003 C 
ATOM     30  C   UNL     1      10.082  11.593   8.424  1.00  0.00     0.004 C 
ENDBRANCH  28  29
ENDBRANCH  27  28
ENDBRANCH  26  27
ENDBRANCH  25  26
ENDBRANCH  24  25
ENDBRANCH  23  24
ENDBRANCH  22  23
ENDBRANCH  21  22
ENDBRANCH  20  21
ENDBRANCH  19  20
ENDBRANCH  18  19
ENDBRANCH  17  18
ENDBRANCH   1  17
TORSDOF 26
ENDMDL
MODEL 6
REMARK VINA RESULT:    -4.053      2.888      5.154
REMARK INTER + INTRA:         -13.843
REMARK INTER:                 -10.071
REMARK INTRA:                  -3.772
REMARK UNBOUND:                -3.629
REMARK SMILES CCCCCCCCCCCCCCCCCCCCCCCCCCCC(=O)[O-]
REMARK SMILES IDX 15 1 16 2 17 3 18 4 19 5 20 6 21 7 22 8 23 9 24 10 25 11
REMARK SMILES IDX 26 12 27 13 28 14 29 15 30 16 14 17 13 18 12 19 11 20 10 21
REMARK SMILES IDX 9 22 8 23 7 24 6 25 5 26 4 27 3 28 2 29 1 30
REMARK H PARENT
REMARK Flexibility Score: inf
ROOT
ATOM      1  C   UNL     1      15.009  10.963  14.655  1.00  0.00     0.000 C 
ENDROOT
BRANCH   1   2
ATOM      2  C   UNL     1      16.073  11.982  15.096  1.00  0.00     0.000 C 
BRANCH   2   3
ATOM      3  C   UNL     1      17.344  11.929  14.228  1.00  0.00     0.000 C 
BRANCH   3   4
ATOM      4  C   UNL     1      18.674  12.014  15.002  1.00  0.00     0.000 C 
BRANCH   4   5
ATOM      5  C   UNL     1      18.600  12.731  16.362  1.00  0.00     0.000 C 
BRANCH   5   6
ATOM      6  C   UNL     1      19.218  11.907  17.505  1.00  0.00     0.000 C 
BRANCH   6   7
ATOM      7  C   UNL     1      18.207  11.586  18.618  1.00  0.00     0.000 C 
BRANCH   7   8
ATOM      8  C   UNL     1      17.082  12.632  18.719  1.00  0.00     0.000 C 
BRANCH   8   9
ATOM      9  C   UNL     1      15.686  11.990  18.783  1.00  0.00     0.000 C 
BRANCH   9  10
ATOM     10  C   UNL     1      14.637  12.793  17.998  1.00  0.00     0.000 C 
BRANCH  10  11
ATOM     11  C   UNL     1      13.363  11.983  17.709  1.00  0.00     0.000 C 
BRANCH  11  12
ATOM     12  C   UNL     1      12.105  12.541  18.409  1.00  0.00     0.006 C 
BRANCH  12  13
ATOM     13  C   UNL     1      11.303  11.441  19.116  1.00  0.00     0.053 C 
BRANCH  13  14
ATOM     14  C   UNL     1      10.044  11.140  18.366  1.00  0.00     0.041 C 
ATOM     15  O   UNL     1       9.444  10.046  18.544  1.00  0.00    -0.550 OA
ATOM     16  O   UNL     1       9.553  12.052  17.440  1.00  0.00    -0.550 OA
ENDBRANCH  13  14
ENDBRANCH  12  13
ENDBRANCH  11  12
ENDBRANCH  10  11
ENDBRANCH   9  10
ENDBRANCH   8   9
ENDBRANCH   7   8
ENDBRANCH   6   7
ENDBRANCH   5   6
ENDBRANCH   4   5
ENDBRANCH   3   4
ENDBRANCH   2   3
ENDBRANCH   1   2
BRANCH   1  17
ATOM     17  C   UNL     1      13.669  11.623  14.283  1.00  0.00     0.000 C 
BRANCH  17  18
ATOM     18  C   UNL     1      13.704  12.506  13.020  1.00  0.00     0.000 C 
BRANCH  18  19
ATOM     19  C   UNL     1      12.849  11.964  11.854  1.00  0.00     0.000 C 
BRANCH  19  20
ATOM     20  C   UNL     1      12.186  10.616  12.190  1.00  0.00     0.000 C 
BRANCH  20  21
ATOM     21  C   UNL     1      10.761  10.501  11.609  1.00  0.00     0.000 C 
BRANCH  21  22
ATOM     22  C   UNL     1       9.649  10.829  12.625  1.00  0.00    -0.000 C 
BRANCH  22  23
ATOM     23  C   UNL     1       8.975  12.201  12.433  1.00  0.00    -0.000 C 
BRANCH  23  24
ATOM     24  C   UNL     1       9.645  13.369  13.181  1.00  0.00    -0.000 C 
BRANCH  24  25
ATOM     25  C   UNL     1       9.645  14.674  12.367  1.00  0.00    -0.000 C 
BRANCH  25  26
ATOM     26  C   UNL     1      11.029  15.016  11.784  1.00  0.00    -0.000 C 
BRANCH  26  27
ATOM     27  C   UNL     1      11.101  15.061  10.247  1.00  0.00    -0.000 C 
BRANCH  27  28
ATOM     28  C   UNL     1       9.871  14.440   9.570  1.00  0.00    -0.000 C 
BRANCH  28  29
ATOM     29  C   UNL     1      10.212  13.075   8.957  1.00  0.00    -0.003 C 
ATOM     30  C   UNL     1      11.708  12.954   8.678  1.00  0.00     0.004 C 
ENDBRANCH  28  29
ENDBRANCH  27  28
ENDBRANCH  26  27
ENDBRANCH  25  26
ENDBRANCH  24  25
ENDBRANCH  23  24
ENDBRANCH  22  23
ENDBRANCH  21  22
ENDBRANCH  20  21
ENDBRANCH  19  20
ENDBRANCH  18  19
ENDBRANCH  17  18
ENDBRANCH   1  17
TORSDOF 26
ENDMDL
MODEL 7
REMARK VINA RESULT:    -4.031      2.085      9.312
REMARK INTER + INTRA:         -13.786
REMARK INTER:                 -10.451
REMARK INTRA:                  -3.335
REMARK UNBOUND:                -3.629
REMARK SMILES CCCCCCCCCCCCCCCCCCCCCCCCCCCC(=O)[O-]
REMARK SMILES IDX 15 1 16 2 17 3 18 4 19 5 20 6 21 7 22 8 23 9 24 10 25 11
REMARK SMILES IDX 26 12 27 13 28 14 29 15 30 16 14 17 13 18 12 19 11 20 10 21
REMARK SMILES IDX 9 22 8 23 7 24 6 25 5 26 4 27 3 28 2 29 1 30
REMARK H PARENT
REMARK Flexibility Score: inf
ROOT
ATOM      1  C   UNL     1      12.148  10.491  12.873  1.00  0.00     0.000 C 
ENDROOT
BRANCH   1   2
ATOM      2  C   UNL     1      10.656  10.745  13.148  1.00  0.00     0.000 C 
BRANCH   2   3
ATOM      3  C   UNL     1      10.389  12.142  13.738  1.00  0.00     0.000 C 
BRANCH   3   4
ATOM      4  C   UNL     1       9.145  12.865  13.183  1.00  0.00     0.000 C 
BRANCH   4   5
ATOM      5  C   UNL     1       9.435  14.128  12.353  1.00  0.00     0.000 C 
BRANCH   5   6
ATOM      6  C   UNL     1      10.824  14.102  11.691  1.00  0.00     0.000 C 
BRANCH   6   7
ATOM      7  C   UNL     1      11.121  15.377  10.886  1.00  0.00     0.000 C 
BRANCH   7   8
ATOM      8  C   UNL     1      11.201  15.118   9.371  1.00  0.00     0.000 C 
BRANCH   8   9
ATOM      9  C   UNL     1       9.820  15.149   8.695  1.00  0.00     0.000 C 
BRANCH   9  10
ATOM     10  C   UNL     1       9.581  13.922   7.798  1.00  0.00     0.000 C 
BRANCH  10  11
ATOM     11  C   UNL     1       9.237  12.658   8.602  1.00  0.00     0.000 C 
BRANCH  11  12
ATOM     12  C   UNL     1      10.206  11.483   8.347  1.00  0.00     0.006 C 
BRANCH  12  13
ATOM     13  C   UNL     1      11.150  11.246   9.532  1.00  0.00     0.053 C 
BRANCH  13  14
ATOM     14  C   UNL     1      12.575  11.442   9.119  1.00  0.00     0.041 C 
ATOM     15  O   UNL     1      13.104  10.668   8.278  1.00  0.00    -0.550 OA
ATOM     16  O   UNL     1      13.330  12.457   9.692  1.00  0.00    -0.550 OA
ENDBRANCH  13  14
ENDBRANCH  12  13
ENDBRANCH  11  12
ENDBRANCH  10  11
ENDBRANCH   9  10
ENDBRANCH   8   9
ENDBRANCH   7   8
ENDBRANCH   6   7
ENDBRANCH   5   6
ENDBRANCH   4   5
ENDBRANCH   3   4
ENDBRANCH   2   3
ENDBRANCH   1   2
BRANCH   1  17
ATOM     17  C   UNL     1      12.996  11.773  12.955  1.00  0.00     0.000 C 
BRANCH  17  18
ATOM     18  C   UNL     1      14.217  11.689  13.892  1.00  0.00     0.000 C 
BRANCH  18  19
ATOM     19  C   UNL     1      13.852  11.589  15.388  1.00  0.00     0.000 C 
BRANCH  19  20
ATOM     20  C   UNL     1      15.031  11.965  16.305  1.00  0.00     0.000 C 
BRANCH  20  21
ATOM     21  C   UNL     1      14.579  12.260  17.752  1.00  0.00     0.000 C 
BRANCH  21  22
ATOM     22  C   UNL     1      15.584  11.790  18.822  1.00  0.00    -0.000 C 
BRANCH  22  23
ATOM     23  C   UNL     1      16.879  12.619  18.911  1.00  0.00    -0.000 C 
BRANCH  23  24
ATOM     24  C   UNL     1      18.166  11.802  19.129  1.00  0.00    -0.000 C 
BRANCH  24  25
ATOM     25  C   UNL     1      19.011  11.671  17.851  1.00  0.00    -0.000 C 
BRANCH  25  26
ATOM     26  C   UNL     1      18.965  12.934  16.971  1.00  0.00    -0.000 C 
BRANCH  26  27
ATOM     27  C   UNL     1      19.337  12.719  15.493  1.00  0.00    -0.000 C 
BRANCH  27  28
ATOM     28  C   UNL     1      18.335  11.829  14.744  1.00  0.00    -0.000 C 
BRANCH  28  29
ATOM     29  C   UNL     1      18.085  12.356  13.325  1.00  0.00    -0.003 C 
ATOM     30  C   UNL     1      19.066  13.469  12.969  1.00  0.00     0.004 C 
ENDBRANCH  28  29
ENDBRANCH  27  28
ENDBRANCH  26  27
ENDBRANCH  25  26
ENDBRANCH  24  25
ENDBRANCH  23  24
ENDBRANCH  22  23
ENDBRANCH  21  22
ENDBRANCH  20  21
ENDBRANCH  19  20
ENDBRANCH  18  19
ENDBRANCH  17  18
ENDBRANCH   1  17
TORSDOF 26
ENDMDL
MODEL 8
REMARK VINA RESULT:    -4.014      2.207      5.144
REMARK INTER + INTRA:         -13.745
REMARK INTER:                 -11.262
REMARK INTRA:                  -2.482
REMARK UNBOUND:                -3.629
REMARK SMILES CCCCCCCCCCCCCCCCCCCCCCCCCCCC(=O)[O-]
REMARK SMILES IDX 15 1 16 2 17 3 18 4 19 5 20 6 21 7 22 8 23 9 24 10 25 11
REMARK SMILES IDX 26 12 27 13 28 14 29 15 30 16 14 17 13 18 12 19 11 20 10 21
REMARK SMILES IDX 9 22 8 23 7 24 6 25 5 26 4 27 3 28 2 29 1 30
REMARK H PARENT
REMARK Flexibility Score: inf
ROOT
ATOM      1  C   UNL     1      13.124  13.508  11.012  1.00  0.00     0.000 C 
ENDROOT
BRANCH   1   2
ATOM      2  C   UNL     1      13.760  12.912  12.280  1.00  0.00     0.000 C 
BRANCH   2   3
ATOM      3  C   UNL     1      13.008  11.672  12.797  1.00  0.00     0.000 C 
BRANCH   3   4
ATOM      4  C   UNL     1      13.041  11.470  14.325  1.00  0.00     0.000 C 
BRANCH   4   5
ATOM      5  C   UNL     1      14.431  11.591  14.975  1.00  0.00     0.000 C 
BRANCH   5   6
ATOM      6  C   UNL     1      14.360  11.916  16.477  1.00  0.00     0.000 C 
BRANCH   6   7
ATOM      7  C   UNL     1      15.740  12.215  17.085  1.00  0.00     0.000 C 
BRANCH   7   8
ATOM      8  C   UNL     1      15.741  12.141  18.622  1.00  0.00     0.000 C 
BRANCH   8   9
ATOM      9  C   UNL     1      17.153  11.955  19.202  1.00  0.00     0.000 C 
BRANCH   9  10
ATOM     10  C   UNL     1      18.244  12.519  18.276  1.00  0.00     0.000 C 
BRANCH  10  11
ATOM     11  C   UNL     1      19.154  11.425  17.695  1.00  0.00     0.000 C 
BRANCH  11  12
ATOM     12  C   UNL     1      19.942  11.877  16.447  1.00  0.00     0.006 C 
BRANCH  12  13
ATOM     13  C   UNL     1      19.207  12.974  15.667  1.00  0.00     0.053 C 
BRANCH  13  14
ATOM     14  C   UNL     1      18.608  12.419  14.413  1.00  0.00     0.041 C 
ATOM     15  O   UNL     1      18.179  11.235  14.384  1.00  0.00    -0.550 OA
ATOM     16  O   UNL     1      18.561  13.198  13.264  1.00  0.00    -0.550 OA
ENDBRANCH  13  14
ENDBRANCH  12  13
ENDBRANCH  11  12
ENDBRANCH  10  11
ENDBRANCH   9  10
ENDBRANCH   8   9
ENDBRANCH   7   8
ENDBRANCH   6   7
ENDBRANCH   5   6
ENDBRANCH   4   5
ENDBRANCH   3   4
ENDBRANCH   2   3
ENDBRANCH   1   2
BRANCH   1  17
ATOM     17  C   UNL     1      12.190  12.519  10.294  1.00  0.00     0.000 C 
BRANCH  17  18
ATOM     18  C   UNL     1      11.029  13.166   9.513  1.00  0.00     0.000 C 
BRANCH  18  19
ATOM     19  C   UNL     1      10.906  14.690   9.724  1.00  0.00     0.000 C 
BRANCH  19  20
ATOM     20  C   UNL     1      10.534  15.053  11.174  1.00  0.00     0.000 C 
BRANCH  20  21
ATOM     21  C   UNL     1       9.145  14.514  11.576  1.00  0.00     0.000 C 
BRANCH  21  22
ATOM     22  C   UNL     1       9.115  13.853  12.968  1.00  0.00    -0.000 C 
BRANCH  22  23
ATOM     23  C   UNL     1       9.632  12.403  13.012  1.00  0.00    -0.000 C 
BRANCH  23  24
ATOM     24  C   UNL     1       9.026  11.526  14.125  1.00  0.00    -0.000 C 
BRANCH  24  25
ATOM     25  C   UNL     1       9.487  11.946  15.531  1.00  0.00    -0.000 C 
BRANCH  25  26
ATOM     26  C   UNL     1       9.271  10.846  16.586  1.00  0.00    -0.000 C 
BRANCH  26  27
ATOM     27  C   UNL     1       9.674  11.225  18.022  1.00  0.00    -0.000 C 
BRANCH  27  28
ATOM     28  C   UNL     1      10.847  12.213  18.076  1.00  0.00    -0.000 C 
BRANCH  28  29
ATOM     29  C   UNL     1      10.800  13.054  19.358  1.00  0.00    -0.003 C 
ATOM     30  C   UNL     1      10.303  12.228  20.541  1.00  0.00     0.004 C 
ENDBRANCH  28  29
ENDBRANCH  27  28
ENDBRANCH  26  27
ENDBRANCH  25  26
ENDBRANCH  24  25
ENDBRANCH  23  24
ENDBRANCH  22  23
ENDBRANCH  21  22
ENDBRANCH  20  21
ENDBRANCH  19  20
ENDBRANCH  18  19
ENDBRANCH  17  18
ENDBRANCH   1  17
TORSDOF 26
ENDMDL
MODEL 9
REMARK VINA RESULT:    -3.997      4.019      8.925
REMARK INTER + INTRA:         -13.700
REMARK INTER:                 -10.510
REMARK INTRA:                  -3.190
REMARK UNBOUND:                -3.629
REMARK SMILES CCCCCCCCCCCCCCCCCCCCCCCCCCCC(=O)[O-]
REMARK SMILES IDX 15 1 16 2 17 3 18 4 19 5 20 6 21 7 22 8 23 9 24 10 25 11
REMARK SMILES IDX 26 12 27 13 28 14 29 15 30 16 14 17 13 18 12 19 11 20 10 21
REMARK SMILES IDX 9 22 8 23 7 24 6 25 5 26 4 27 3 28 2 29 1 30
REMARK H PARENT
REMARK Flexibility Score: inf
ROOT
ATOM      1  C   UNL     1      17.721  12.625  18.740  1.00  0.00     0.000 C 
ENDROOT
BRANCH   1   2
ATOM      2  C   UNL     1      18.845  11.619  18.433  1.00  0.00     0.000 C 
BRANCH   2   3
ATOM      3  C   UNL     1      19.557  11.911  17.100  1.00  0.00     0.000 C 
BRANCH   3   4
ATOM      4  C   UNL     1      18.762  12.780  16.105  1.00  0.00     0.000 C 
BRANCH   4   5
ATOM      5  C   UNL     1      18.866  12.354  14.630  1.00  0.00     0.000 C 
BRANCH   5   6
ATOM      6  C   UNL     1      17.495  12.067  13.994  1.00  0.00     0.000 C 
BRANCH   6   7
ATOM      7  C   UNL     1      16.409  11.761  15.039  1.00  0.00     0.000 C 
BRANCH   7   8
ATOM      8  C   UNL     1      15.000  12.159  14.566  1.00  0.00     0.000 C 
BRANCH   8   9
ATOM      9  C   UNL     1      14.085  10.942  14.348  1.00  0.00     0.000 C 
BRANCH   9  10
ATOM     10  C   UNL     1      12.710  11.338  13.786  1.00  0.00     0.000 C 
BRANCH  10  11
ATOM     11  C   UNL     1      12.404  10.667  12.437  1.00  0.00     0.000 C 
BRANCH  11  12
ATOM     12  C   UNL     1      12.347  11.658  11.254  1.00  0.00     0.006 C 
BRANCH  12  13
ATOM     13  C   UNL     1      12.456  13.116  11.717  1.00  0.00     0.053 C 
BRANCH  13  14
ATOM     14  C   UNL     1      11.138  13.812  11.586  1.00  0.00     0.041 C 
ATOM     15  O   UNL     1      10.087  13.148  11.380  1.00  0.00    -0.550 OA
ATOM     16  O   UNL     1      11.076  15.198  11.653  1.00  0.00    -0.550 OA
ENDBRANCH  13  14
ENDBRANCH  12  13
ENDBRANCH  11  12
ENDBRANCH  10  11
ENDBRANCH   9  10
ENDBRANCH   8   9
ENDBRANCH   7   8
ENDBRANCH   6   7
ENDBRANCH   5   6
ENDBRANCH   4   5
ENDBRANCH   3   4
ENDBRANCH   2   3
ENDBRANCH   1   2
BRANCH   1  17
ATOM     17  C   UNL     1      16.335  11.961  18.830  1.00  0.00     0.000 C 
BRANCH  17  18
ATOM     18  C   UNL     1      15.169  12.807  18.285  1.00  0.00     0.000 C 
BRANCH  18  19
ATOM     19  C   UNL     1      13.950  11.975  17.832  1.00  0.00     0.000 C 
BRANCH  19  20
ATOM     20  C   UNL     1      12.617  12.703  18.086  1.00  0.00     0.000 C 
BRANCH  20  21
ATOM     21  C   UNL     1      11.422  11.992  17.415  1.00  0.00     0.000 C 
BRANCH  21  22
ATOM     22  C   UNL     1      10.090  12.172  18.170  1.00  0.00    -0.000 C 
BRANCH  22  23
ATOM     23  C   UNL     1      10.184  12.990  19.471  1.00  0.00    -0.000 C 
BRANCH  23  24
ATOM     24  C   UNL     1       9.643  12.283  20.728  1.00  0.00    -0.000 C 
BRANCH  24  25
ATOM     25  C   UNL     1      10.757  11.653  21.582  1.00  0.00    -0.000 C 
BRANCH  25  26
ATOM     26  C   UNL     1      11.524  10.543  20.841  1.00  0.00    -0.000 C 
BRANCH  26  27
ATOM     27  C   UNL     1      11.080   9.106  21.169  1.00  0.00    -0.000 C 
BRANCH  27  28
ATOM     28  C   UNL     1       9.682   8.772  20.630  1.00  0.00    -0.000 C 
BRANCH  28  29
ATOM     29  C   UNL     1       9.770   8.060  19.274  1.00  0.00    -0.003 C 
ATOM     30  C   UNL     1       9.073   8.866  18.182  1.00  0.00     0.004 C 
ENDBRANCH  28  29
ENDBRANCH  27  28
ENDBRANCH  26  27
ENDBRANCH  25  26
ENDBRANCH  24  25
ENDBRANCH  23  24
ENDBRANCH  22  23
ENDBRANCH  21  22
ENDBRANCH  20  21
ENDBRANCH  19  20
ENDBRANCH  18  19
ENDBRANCH  17  18
ENDBRANCH   1  17
TORSDOF 26
ENDMDL
