MODEL 1
REMARK VINA RESULT:    59.982      0.000      0.000
REMARK INTER + INTRA:          87.040
REMARK INTER:                  84.529
REMARK INTRA:                   2.512
REMARK UNBOUND:                 2.512
REMARK SMILES C[C@@H](CO)CCC(=O)[C@@H](C)[C@H]1C(=O)C[C@H]2[C@@H]3CC=C4C[C@H](O)CC[C@]4(C)[C@@H]3CC[C@]12C
REMARK SMILES IDX 6 1 5 2 2 3 1 4 3 5 4 6 7 8 8 9 9 10 10 11 11 12 12 13 30 14
REMARK SMILES IDX 13 15 14 16 15 17 29 18 31 19 16 20 28 21 27 22 17 23 25 24
REMARK SMILES IDX 18 25 19 26 24 27 26 28 20 29 23 30 21 31 22 32
REMARK H PARENT 4 7 22 33
REMARK Flexibility Score: inf
ROOT
ATOM      1  C   UNL     1     -27.109  31.964  -7.562  1.00  0.00     0.076 C 
ENDROOT
BRANCH   1   2
ATOM      2  C   UNL     1     -26.123  32.724  -8.465  1.00  0.00     0.013 C 
BRANCH   2   3
ATOM      3  C   UNL     1     -24.932  31.850  -8.928  1.00  0.00     0.012 C 
ATOM      4  C   UNL     1     -25.097  31.401 -10.389  1.00  0.00     0.010 C 
BRANCH   3   5
ATOM      5  C   UNL     1     -23.603  32.614  -8.769  1.00  0.00     0.159 C 
BRANCH   5   6
ATOM      6  O   UNL     1     -22.530  31.848  -9.252  1.00  0.00    -0.396 OA
ATOM      7  H   UNL     1     -22.703  30.905  -8.990  1.00  0.00     0.210 HD
ENDBRANCH   5   6
ENDBRANCH   3   5
ENDBRANCH   2   3
ENDBRANCH   1   2
BRANCH   1   8
ATOM      8  C   UNL     1     -26.496  30.667  -7.079  1.00  0.00     0.136 C 
ATOM      9  O   UNL     1     -25.943  30.671  -5.988  1.00  0.00    -0.299 OA
BRANCH   8  10
ATOM     10  C   UNL     1     -26.555  29.354  -7.849  1.00  0.00     0.064 C 
ATOM     11  C   UNL     1     -26.246  29.481  -9.359  1.00  0.00     0.017 C 
BRANCH  10  12
ATOM     12  C   UNL     1     -25.826  28.196  -7.084  1.00  0.00     0.072 C 
ATOM     13  C   UNL     1     -26.521  26.861  -7.148  1.00  0.00     0.137 C 
ATOM     14  C   UNL     1     -24.346  27.819  -7.431  1.00  0.00    -0.019 C 
ATOM     15  O   UNL     1     -27.731  26.722  -7.064  1.00  0.00    -0.299 OA
ATOM     16  C   UNL     1     -25.573  25.709  -7.171  1.00  0.00     0.080 C 
ATOM     17  C   UNL     1     -24.257  26.400  -6.816  1.00  0.00     0.007 C 
ATOM     18  C   UNL     1     -23.263  28.722  -6.761  1.00  0.00     0.008 C 
ATOM     19  C   UNL     1     -24.121  27.785  -8.971  1.00  0.00     0.012 C 
ATOM     20  C   UNL     1     -22.933  25.672  -7.146  1.00  0.00     0.001 C 
ATOM     21  C   UNL     1     -22.067  27.934  -6.155  1.00  0.00     0.005 C 
ATOM     22  C   UNL     1     -21.695  26.626  -6.927  1.00  0.00     0.003 C 
ATOM     23  C   UNL     1     -22.820  24.385  -6.337  1.00  0.00     0.031 C 
ATOM     24  C   UNL     1     -20.358  25.930  -6.395  1.00  0.00    -0.008 C 
ATOM     25  C   UNL     1     -21.516  23.716  -6.614  1.00  0.00    -0.027 C 
ATOM     26  C   UNL     1     -20.363  24.411  -6.609  1.00  0.00    -0.065 C 
ATOM     27  C   UNL     1     -20.119  26.126  -4.863  1.00  0.00     0.014 C 
ATOM     28  C   UNL     1     -19.175  26.567  -7.182  1.00  0.00     0.016 C 
ATOM     29  C   UNL     1     -19.111  23.658  -6.222  1.00  0.00     0.063 C 
ATOM     30  C   UNL     1     -18.891  25.350  -4.318  1.00  0.00     0.033 C 
ATOM     31  C   UNL     1     -18.876  23.854  -4.710  1.00  0.00     0.118 C 
BRANCH  31  32
ATOM     32  O   UNL     1     -19.862  23.176  -3.974  1.00  0.00    -0.393 OA
ATOM     33  H   UNL     1     -20.283  23.847  -3.375  1.00  0.00     0.210 HD
ENDBRANCH  31  32
ENDBRANCH  10  12
ENDBRANCH   8  10
ENDBRANCH   1   8
TORSDOF 8
ENDMDL
MODEL 2
REMARK VINA RESULT:    60.407      1.609      2.722
REMARK INTER + INTRA:          87.639
REMARK INTER:                  87.703
REMARK INTRA:                  -0.064
REMARK UNBOUND:                 2.512
REMARK SMILES C[C@@H](CO)CCC(=O)[C@@H](C)[C@H]1C(=O)C[C@H]2[C@@H]3CC=C4C[C@H](O)CC[C@]4(C)[C@@H]3CC[C@]12C
REMARK SMILES IDX 6 1 5 2 2 3 1 4 3 5 4 6 7 8 8 9 9 10 10 11 11 12 12 13 30 14
REMARK SMILES IDX 13 15 14 16 15 17 29 18 31 19 16 20 28 21 27 22 17 23 25 24
REMARK SMILES IDX 18 25 19 26 24 27 26 28 20 29 23 30 21 31 22 32
REMARK H PARENT 4 7 22 33
REMARK Flexibility Score: inf
ROOT
ATOM      1  C   UNL     1     -27.119  30.550  -5.894  1.00  0.00     0.076 C 
ENDROOT
BRANCH   1   2
ATOM      2  C   UNL     1     -25.858  31.198  -5.300  1.00  0.00     0.013 C 
BRANCH   2   3
ATOM      3  C   UNL     1     -25.909  31.314  -3.757  1.00  0.00     0.012 C 
ATOM      4  C   UNL     1     -25.730  32.770  -3.295  1.00  0.00     0.010 C 
BRANCH   3   5
ATOM      5  C   UNL     1     -27.241  30.760  -3.214  1.00  0.00     0.159 C 
BRANCH   5   6
ATOM      6  O   UNL     1     -28.189  31.788  -3.087  1.00  0.00    -0.396 OA
ATOM      7  H   UNL     1     -28.790  31.540  -2.335  1.00  0.00     0.210 HD
ENDBRANCH   5   6
ENDBRANCH   3   5
ENDBRANCH   2   3
ENDBRANCH   1   2
BRANCH   1   8
ATOM      8  C   UNL     1     -27.045  30.530  -7.406  1.00  0.00     0.136 C 
ATOM      9  O   UNL     1     -27.829  31.236  -8.024  1.00  0.00    -0.299 OA
BRANCH   8  10
ATOM     10  C   UNL     1     -26.034  29.714  -8.201  1.00  0.00     0.064 C 
ATOM     11  C   UNL     1     -25.022  30.558  -9.011  1.00  0.00     0.017 C 
BRANCH  10  12
ATOM     12  C   UNL     1     -25.437  28.538  -7.353  1.00  0.00     0.072 C 
ATOM     13  C   UNL     1     -26.253  27.271  -7.369  1.00  0.00     0.137 C 
ATOM     14  C   UNL     1     -23.991  28.007  -7.633  1.00  0.00    -0.019 C 
ATOM     15  O   UNL     1     -27.472  27.249  -7.316  1.00  0.00    -0.299 OA
ATOM     16  C   UNL     1     -25.417  26.037  -7.300  1.00  0.00     0.080 C 
ATOM     17  C   UNL     1     -24.052  26.622  -6.941  1.00  0.00     0.007 C 
ATOM     18  C   UNL     1     -22.846  28.841  -6.978  1.00  0.00     0.008 C 
ATOM     19  C   UNL     1     -23.729  27.866  -9.161  1.00  0.00     0.012 C 
ATOM     20  C   UNL     1     -22.794  25.757  -7.190  1.00  0.00     0.001 C 
ATOM     21  C   UNL     1     -21.746  27.981  -6.293  1.00  0.00     0.005 C 
ATOM     22  C   UNL     1     -21.478  26.604  -6.983  1.00  0.00     0.003 C 
ATOM     23  C   UNL     1     -22.823  24.512  -6.310  1.00  0.00     0.031 C 
ATOM     24  C   UNL     1     -20.227  25.817  -6.372  1.00  0.00    -0.008 C 
ATOM     25  C   UNL     1     -21.581  23.711  -6.510  1.00  0.00    -0.027 C 
ATOM     26  C   UNL     1     -20.369  24.296  -6.506  1.00  0.00    -0.065 C 
ATOM     27  C   UNL     1     -20.012  26.076  -4.845  1.00  0.00     0.014 C 
ATOM     28  C   UNL     1     -18.969  26.298  -7.154  1.00  0.00     0.016 C 
ATOM     29  C   UNL     1     -19.204  23.454  -6.040  1.00  0.00     0.063 C 
ATOM     30  C   UNL     1     -18.877  25.221  -4.222  1.00  0.00     0.033 C 
ATOM     31  C   UNL     1     -18.992  23.711  -4.534  1.00  0.00     0.118 C 
BRANCH  31  32
ATOM     32  O   UNL     1     -20.057  23.169  -3.794  1.00  0.00    -0.393 OA
ATOM     33  H   UNL     1     -20.874  23.279  -4.347  1.00  0.00     0.210 HD
ENDBRANCH  31  32
ENDBRANCH  10  12
ENDBRANCH   8  10
ENDBRANCH   1   8
TORSDOF 8
ENDMDL
