MODEL 1
REMARK VINA RESULT:    -3.253      0.000      0.000
REMARK INTER + INTRA:          -4.000
REMARK INTER:                  -3.823
REMARK INTRA:                  -0.177
REMARK UNBOUND:                -0.177
REMARK SMILES O=C([O-])CCC(=O)[O-]
REMARK SMILES IDX 4 1 2 2 1 3 3 4 5 5 6 6 7 7 8 8
REMARK H PARENT
REMARK Flexibility Score: inf
ROOT
ATOM      1  C   UNL     1      49.489  26.287  33.187  1.00  0.00     0.059 C 
ENDROOT
BRANCH   1   2
ATOM      2  C   UNL     1      50.853  25.711  32.955  1.00  0.00     0.042 C 
ATOM      3  O   UNL     1      50.982  24.608  32.363  1.00  0.00    -0.550 OA
ATOM      4  O   UNL     1      51.982  26.412  33.358  1.00  0.00    -0.550 OA
ENDBRANCH   1   2
BRANCH   1   5
ATOM      5  C   UNL     1      48.740  25.537  34.293  1.00  0.00     0.059 C 
BRANCH   5   6
ATOM      6  C   UNL     1      49.468  25.607  35.601  1.00  0.00     0.042 C 
ATOM      7  O   UNL     1      49.863  24.552  36.164  1.00  0.00    -0.550 OA
ATOM      8  O   UNL     1      49.747  26.840  36.176  1.00  0.00    -0.550 OA
ENDBRANCH   5   6
ENDBRANCH   1   5
TORSDOF 3
ENDMDL
MODEL 2
REMARK VINA RESULT:    -3.244      0.077      3.171
REMARK INTER + INTRA:          -3.990
REMARK INTER:                  -3.805
REMARK INTRA:                  -0.185
REMARK UNBOUND:                -0.177
REMARK SMILES O=C([O-])CCC(=O)[O-]
REMARK SMILES IDX 4 1 2 2 1 3 3 4 5 5 6 6 7 7 8 8
REMARK H PARENT
REMARK Flexibility Score: inf
ROOT
ATOM      1  C   UNL     1      48.709  25.596  34.323  1.00  0.00     0.059 C 
ENDROOT
BRANCH   1   2
ATOM      2  C   UNL     1      49.432  25.654  35.634  1.00  0.00     0.042 C 
ATOM      3  O   UNL     1      49.792  24.592  36.206  1.00  0.00    -0.550 OA
ATOM      4  O   UNL     1      49.743  26.883  36.203  1.00  0.00    -0.550 OA
ENDBRANCH   1   2
BRANCH   1   5
ATOM      5  C   UNL     1      49.490  26.311  33.215  1.00  0.00     0.059 C 
BRANCH   5   6
ATOM      6  C   UNL     1      50.828  25.677  32.984  1.00  0.00     0.042 C 
ATOM      7  O   UNL     1      50.906  24.539  32.449  1.00  0.00    -0.550 OA
ATOM      8  O   UNL     1      51.989  26.361  33.319  1.00  0.00    -0.550 OA
ENDBRANCH   5   6
ENDBRANCH   1   5
TORSDOF 3
ENDMDL
MODEL 3
REMARK VINA RESULT:    -3.178      1.396      3.445
REMARK INTER + INTRA:          -3.912
REMARK INTER:                  -3.744
REMARK INTRA:                  -0.168
REMARK UNBOUND:                -0.177
REMARK SMILES O=C([O-])CCC(=O)[O-]
REMARK SMILES IDX 4 1 2 2 1 3 3 4 5 5 6 6 7 7 8 8
REMARK H PARENT
REMARK Flexibility Score: inf
ROOT
ATOM      1  C   UNL     1      49.361  26.058  35.669  1.00  0.00     0.059 C 
ENDROOT
BRANCH   1   2
ATOM      2  C   UNL     1      50.006  24.730  35.930  1.00  0.00     0.042 C 
ATOM      3  O   UNL     1      51.123  24.672  36.508  1.00  0.00    -0.550 OA
ATOM      4  O   UNL     1      49.354  23.558  35.570  1.00  0.00    -0.550 OA
ENDBRANCH   1   2
BRANCH   1   5
ATOM      5  C   UNL     1      50.051  26.806  34.524  1.00  0.00     0.059 C 
BRANCH   5   6
ATOM      6  C   UNL     1      49.903  26.080  33.221  1.00  0.00     0.042 C 
ATOM      7  O   UNL     1      48.774  25.984  32.673  1.00  0.00    -0.550 OA
ATOM      8  O   UNL     1      51.020  25.546  32.592  1.00  0.00    -0.550 OA
ENDBRANCH   5   6
ENDBRANCH   1   5
TORSDOF 3
ENDMDL
MODEL 4
REMARK VINA RESULT:    -3.176      1.402      1.916
REMARK INTER + INTRA:          -3.910
REMARK INTER:                  -3.740
REMARK INTRA:                  -0.170
REMARK UNBOUND:                -0.177
REMARK SMILES O=C([O-])CCC(=O)[O-]
REMARK SMILES IDX 4 1 2 2 1 3 3 4 5 5 6 6 7 7 8 8
REMARK H PARENT
REMARK Flexibility Score: inf
ROOT
ATOM      1  C   UNL     1      49.981  26.810  34.528  1.00  0.00     0.059 C 
ENDROOT
BRANCH   1   2
ATOM      2  C   UNL     1      49.860  26.067  33.233  1.00  0.00     0.042 C 
ATOM      3  O   UNL     1      48.732  25.910  32.696  1.00  0.00    -0.550 OA
ATOM      4  O   UNL     1      50.997  25.583  32.599  1.00  0.00    -0.550 OA
ENDBRANCH   1   2
BRANCH   1   5
ATOM      5  C   UNL     1      49.326  26.044  35.682  1.00  0.00     0.059 C 
BRANCH   5   6
ATOM      6  C   UNL     1      49.988  24.719  35.913  1.00  0.00     0.042 C 
ATOM      7  O   UNL     1      51.116  24.663  36.468  1.00  0.00    -0.550 OA
ATOM      8  O   UNL     1      49.339  23.546  35.553  1.00  0.00    -0.550 OA
ENDBRANCH   5   6
ENDBRANCH   1   5
TORSDOF 3
ENDMDL
MODEL 5
REMARK VINA RESULT:    -2.998      1.530      3.105
REMARK INTER + INTRA:          -3.701
REMARK INTER:                  -3.521
REMARK INTRA:                  -0.180
REMARK UNBOUND:                -0.177
REMARK SMILES O=C([O-])CCC(=O)[O-]
REMARK SMILES IDX 4 1 2 2 1 3 3 4 5 5 6 6 7 7 8 8
REMARK H PARENT
REMARK Flexibility Score: inf
ROOT
ATOM      1  C   UNL     1      50.697  26.768  34.267  1.00  0.00     0.059 C 
ENDROOT
BRANCH   1   2
ATOM      2  C   UNL     1      50.410  26.292  35.659  1.00  0.00     0.042 C 
ATOM      3  O   UNL     1      49.443  26.775  36.305  1.00  0.00    -0.550 OA
ATOM      4  O   UNL     1      51.184  25.289  36.226  1.00  0.00    -0.550 OA
ENDBRANCH   1   2
BRANCH   1   5
ATOM      5  C   UNL     1      49.572  26.393  33.298  1.00  0.00     0.059 C 
BRANCH   5   6
ATOM      6  C   UNL     1      49.320  24.916  33.287  1.00  0.00     0.042 C 
ATOM      7  O   UNL     1      50.231  24.120  32.939  1.00  0.00    -0.550 OA
ATOM      8  O   UNL     1      48.092  24.417  33.702  1.00  0.00    -0.550 OA
ENDBRANCH   5   6
ENDBRANCH   1   5
TORSDOF 3
ENDMDL
MODEL 6
REMARK VINA RESULT:    -2.993      1.257      3.237
REMARK INTER + INTRA:          -3.695
REMARK INTER:                  -3.534
REMARK INTRA:                  -0.161
REMARK UNBOUND:                -0.177
REMARK SMILES O=C([O-])CCC(=O)[O-]
REMARK SMILES IDX 4 1 2 2 1 3 3 4 5 5 6 6 7 7 8 8
REMARK H PARENT
REMARK Flexibility Score: inf
ROOT
ATOM      1  C   UNL     1      49.643  26.696  33.607  1.00  0.00     0.059 C 
ENDROOT
BRANCH   1   2
ATOM      2  C   UNL     1      49.126  25.991  34.824  1.00  0.00     0.042 C 
ATOM      3  O   UNL     1      48.479  24.918  34.708  1.00  0.00    -0.550 OA
ATOM      4  O   UNL     1      49.394  26.500  36.089  1.00  0.00    -0.550 OA
ENDBRANCH   1   2
BRANCH   1   5
ATOM      5  C   UNL     1      50.688  25.853  32.868  1.00  0.00     0.059 C 
BRANCH   5   6
ATOM      6  C   UNL     1      51.985  25.799  33.617  1.00  0.00     0.042 C 
ATOM      7  O   UNL     1      52.736  26.809  33.659  1.00  0.00    -0.550 OA
ATOM      8  O   UNL     1      52.343  24.647  34.305  1.00  0.00    -0.550 OA
ENDBRANCH   5   6
ENDBRANCH   1   5
TORSDOF 3
ENDMDL
MODEL 7
REMARK VINA RESULT:    -2.993      1.274      1.791
REMARK INTER + INTRA:          -3.695
REMARK INTER:                  -3.533
REMARK INTRA:                  -0.162
REMARK UNBOUND:                -0.177
REMARK SMILES O=C([O-])CCC(=O)[O-]
REMARK SMILES IDX 4 1 2 2 1 3 3 4 5 5 6 6 7 7 8 8
REMARK H PARENT
REMARK Flexibility Score: inf
ROOT
ATOM      1  C   UNL     1      50.736  25.871  32.871  1.00  0.00     0.059 C 
ENDROOT
BRANCH   1   2
ATOM      2  C   UNL     1      52.032  25.830  33.623  1.00  0.00     0.042 C 
ATOM      3  O   UNL     1      52.769  26.850  33.670  1.00  0.00    -0.550 OA
ATOM      4  O   UNL     1      52.405  24.679  34.304  1.00  0.00    -0.550 OA
ENDBRANCH   1   2
BRANCH   1   5
ATOM      5  C   UNL     1      49.687  26.717  33.598  1.00  0.00     0.059 C 
BRANCH   5   6
ATOM      6  C   UNL     1      49.168  26.023  34.821  1.00  0.00     0.042 C 
ATOM      7  O   UNL     1      48.501  24.961  34.712  1.00  0.00    -0.550 OA
ATOM      8  O   UNL     1      49.457  26.527  36.082  1.00  0.00    -0.550 OA
ENDBRANCH   5   6
ENDBRANCH   1   5
TORSDOF 3
ENDMDL
MODEL 8
REMARK VINA RESULT:    -2.990      1.524      2.147
REMARK INTER + INTRA:          -3.691
REMARK INTER:                  -3.503
REMARK INTRA:                  -0.188
REMARK UNBOUND:                -0.177
REMARK SMILES O=C([O-])CCC(=O)[O-]
REMARK SMILES IDX 4 1 2 2 1 3 3 4 5 5 6 6 7 7 8 8
REMARK H PARENT
REMARK Flexibility Score: inf
ROOT
ATOM      1  C   UNL     1      49.394  26.325  33.270  1.00  0.00     0.059 C 
ENDROOT
BRANCH   1   2
ATOM      2  C   UNL     1      49.270  24.832  33.265  1.00  0.00     0.042 C 
ATOM      3  O   UNL     1      48.194  24.285  33.623  1.00  0.00    -0.550 OA
ATOM      4  O   UNL     1      50.329  24.047  32.827  1.00  0.00    -0.550 OA
ENDBRANCH   1   2
BRANCH   1   5
ATOM      5  C   UNL     1      50.540  26.794  34.172  1.00  0.00     0.059 C 
BRANCH   5   6
ATOM      6  C   UNL     1      50.371  26.307  35.579  1.00  0.00     0.042 C 
ATOM      7  O   UNL     1      49.395  26.698  36.272  1.00  0.00    -0.550 OA
ATOM      8  O   UNL     1      51.268  25.390  36.110  1.00  0.00    -0.550 OA
ENDBRANCH   5   6
ENDBRANCH   1   5
TORSDOF 3
ENDMDL
MODEL 9
REMARK VINA RESULT:    -2.990      1.407      3.325
REMARK INTER + INTRA:          -3.691
REMARK INTER:                  -3.519
REMARK INTRA:                  -0.172
REMARK UNBOUND:                -0.177
REMARK SMILES O=C([O-])CCC(=O)[O-]
REMARK SMILES IDX 4 1 2 2 1 3 3 4 5 5 6 6 7 7 8 8
REMARK H PARENT
REMARK Flexibility Score: inf
ROOT
ATOM      1  C   UNL     1      49.600  24.396  35.495  1.00  0.00     0.059 C 
ENDROOT
BRANCH   1   2
ATOM      2  C   UNL     1      50.225  25.691  35.916  1.00  0.00     0.042 C 
ATOM      3  O   UNL     1      49.504  26.643  36.314  1.00  0.00    -0.550 OA
ATOM      4  O   UNL     1      51.607  25.832  35.907  1.00  0.00    -0.550 OA
ENDBRANCH   1   2
BRANCH   1   5
ATOM      5  C   UNL     1      48.711  24.574  34.260  1.00  0.00     0.059 C 
BRANCH   5   6
ATOM      6  C   UNL     1      49.454  25.224  33.132  1.00  0.00     0.042 C 
ATOM      7  O   UNL     1      49.075  26.337  32.682  1.00  0.00    -0.550 OA
ATOM      8  O   UNL     1      50.589  24.620  32.608  1.00  0.00    -0.550 OA
ENDBRANCH   5   6
ENDBRANCH   1   5
TORSDOF 3
ENDMDL
