MODEL 1
REMARK VINA RESULT:    11.859      0.000      0.000
REMARK INTER + INTRA:          17.510
REMARK INTER:                  18.099
REMARK INTRA:                  -0.589
REMARK UNBOUND:                -0.589
REMARK SMILES CC(=O)CCC=C(C)CCC=C(C)CCC=C(C)C
REMARK SMILES IDX 10 1 11 2 12 3 13 4 14 5 15 6 16 7 18 8 17 9 19 10 9 11 7 12
REMARK SMILES IDX 6 13 8 14 5 15 4 16 2 17 3 18 1 19
REMARK H PARENT
REMARK Flexibility Score: inf
ROOT
ATOM      1  C   UNL     1      34.093   8.731  40.076  1.00  0.00     0.032 C 
ENDROOT
BRANCH   1   2
ATOM      2  C   UNL     1      33.374   7.451  40.425  1.00  0.00    -0.028 C 
ATOM      3  C   UNL     1      33.974   6.418  41.055  1.00  0.00    -0.077 C 
ATOM      4  C   UNL     1      35.426   6.483  41.467  1.00  0.00     0.039 C 
BRANCH   3   5
ATOM      5  C   UNL     1      33.174   5.167  41.356  1.00  0.00     0.034 C 
BRANCH   5   6
ATOM      6  C   UNL     1      31.823   5.161  40.627  1.00  0.00     0.032 C 
BRANCH   6   7
ATOM      7  C   UNL     1      30.684   4.822  41.560  1.00  0.00    -0.028 C 
ATOM      8  C   UNL     1      28.628   5.239  42.872  1.00  0.00     0.039 C 
ATOM      9  C   UNL     1      29.696   5.680  41.905  1.00  0.00    -0.080 C 
ATOM     10  C   UNL     1      29.586   7.060  41.308  1.00  0.00     0.039 C 
ENDBRANCH   6   7
ENDBRANCH   5   6
ENDBRANCH   3   5
ENDBRANCH   1   2
BRANCH   1  11
ATOM     11  C   UNL     1      33.101   9.861  39.770  1.00  0.00     0.034 C 
BRANCH  11  12
ATOM     12  C   UNL     1      33.379  11.069  40.638  1.00  0.00    -0.077 C 
ATOM     13  C   UNL     1      34.276  11.990  40.214  1.00  0.00    -0.028 C 
ATOM     14  C   UNL     1      32.632  11.226  41.942  1.00  0.00     0.039 C 
BRANCH  13  15
ATOM     15  C   UNL     1      34.680  13.209  41.001  1.00  0.00     0.035 C 
BRANCH  15  16
ATOM     16  C   UNL     1      35.215  12.810  42.380  1.00  0.00     0.079 C 
BRANCH  16  17
ATOM     17  C   UNL     1      35.859  13.988  43.063  1.00  0.00     0.130 C 
ATOM     18  O   UNL     1      37.051  13.951  43.330  1.00  0.00    -0.300 OA
ATOM     19  C   UNL     1      35.065  15.207  43.430  1.00  0.00     0.087 C 
ENDBRANCH  16  17
ENDBRANCH  15  16
ENDBRANCH  13  15
ENDBRANCH  11  12
ENDBRANCH   1  11
TORSDOF 9
ENDMDL
MODEL 2
REMARK VINA RESULT:    12.105      2.813      8.258
REMARK INTER + INTRA:          17.885
REMARK INTER:                  18.631
REMARK INTRA:                  -0.746
REMARK UNBOUND:                -0.589
REMARK SMILES CC(=O)CCC=C(C)CCC=C(C)CCC=C(C)C
REMARK SMILES IDX 10 1 11 2 12 3 13 4 14 5 15 6 16 7 18 8 17 9 19 10 9 11 7 12
REMARK SMILES IDX 6 13 8 14 5 15 4 16 2 17 3 18 1 19
REMARK H PARENT
REMARK Flexibility Score: inf
ROOT
ATOM      1  C   UNL     1      33.244   8.816  39.978  1.00  0.00     0.032 C 
ENDROOT
BRANCH   1   2
ATOM      2  C   UNL     1      33.846  10.194  39.852  1.00  0.00    -0.028 C 
ATOM      3  C   UNL     1      33.544  11.209  40.692  1.00  0.00    -0.077 C 
ATOM      4  C   UNL     1      32.575  11.023  41.836  1.00  0.00     0.039 C 
BRANCH   3   5
ATOM      5  C   UNL     1      34.191  12.563  40.481  1.00  0.00     0.034 C 
BRANCH   5   6
ATOM      6  C   UNL     1      35.262  12.858  41.542  1.00  0.00     0.032 C 
BRANCH   6   7
ATOM      7  C   UNL     1      34.903  14.062  42.382  1.00  0.00    -0.028 C 
ATOM      8  C   UNL     1      35.235  15.798  44.113  1.00  0.00     0.039 C 
ATOM      9  C   UNL     1      35.715  14.616  43.311  1.00  0.00    -0.080 C 
ATOM     10  C   UNL     1      37.124  14.129  43.539  1.00  0.00     0.039 C 
ENDBRANCH   6   7
ENDBRANCH   5   6
ENDBRANCH   3   5
ENDBRANCH   1   2
BRANCH   1  11
ATOM     11  C   UNL     1      34.327   7.731  39.937  1.00  0.00     0.034 C 
BRANCH  11  12
ATOM     12  C   UNL     1      33.911   6.526  40.753  1.00  0.00    -0.077 C 
ATOM     13  C   UNL     1      32.612   6.147  40.749  1.00  0.00    -0.028 C 
ATOM     14  C   UNL     1      34.960   5.768  41.532  1.00  0.00     0.039 C 
BRANCH  13  15
ATOM     15  C   UNL     1      32.058   5.000  41.554  1.00  0.00     0.035 C 
BRANCH  15  16
ATOM     16  C   UNL     1      30.610   4.704  41.147  1.00  0.00     0.079 C 
BRANCH  16  17
ATOM     17  C   UNL     1      29.658   5.624  41.863  1.00  0.00     0.130 C 
ATOM     18  O   UNL     1      29.134   5.257  42.905  1.00  0.00    -0.300 OA
ATOM     19  C   UNL     1      29.330   6.985  41.322  1.00  0.00     0.087 C 
ENDBRANCH  16  17
ENDBRANCH  15  16
ENDBRANCH  13  15
ENDBRANCH  11  12
ENDBRANCH   1  11
TORSDOF 9
ENDMDL
MODEL 3
REMARK VINA RESULT:    12.338      4.065      7.533
REMARK INTER + INTRA:          18.240
REMARK INTER:                  19.108
REMARK INTRA:                  -0.868
REMARK UNBOUND:                -0.589
REMARK SMILES CC(=O)CCC=C(C)CCC=C(C)CCC=C(C)C
REMARK SMILES IDX 10 1 11 2 12 3 13 4 14 5 15 6 16 7 18 8 17 9 19 10 9 11 7 12
REMARK SMILES IDX 6 13 8 14 5 15 4 16 2 17 3 18 1 19
REMARK H PARENT
REMARK Flexibility Score: inf
ROOT
ATOM      1  C   UNL     1      34.851  16.431  43.739  1.00  0.00     0.032 C 
ENDROOT
BRANCH   1   2
ATOM      2  C   UNL     1      34.745  15.114  43.012  1.00  0.00    -0.028 C 
ATOM      3  C   UNL     1      35.744  14.205  42.985  1.00  0.00    -0.077 C 
ATOM      4  C   UNL     1      37.051  14.450  43.703  1.00  0.00     0.039 C 
BRANCH   3   5
ATOM      5  C   UNL     1      35.551  12.911  42.219  1.00  0.00     0.034 C 
BRANCH   5   6
ATOM      6  C   UNL     1      34.490  13.050  41.118  1.00  0.00     0.032 C 
BRANCH   6   7
ATOM      7  C   UNL     1      34.289  11.756  40.365  1.00  0.00    -0.028 C 
ATOM      8  C   UNL     1      33.250   9.570  39.852  1.00  0.00     0.039 C 
ATOM      9  C   UNL     1      33.333  10.843  40.653  1.00  0.00    -0.080 C 
ATOM     10  C   UNL     1      32.294  11.078  41.721  1.00  0.00     0.039 C 
ENDBRANCH   6   7
ENDBRANCH   5   6
ENDBRANCH   3   5
ENDBRANCH   1   2
BRANCH   1  11
ATOM     11  C   UNL     1      35.065  17.592  42.758  1.00  0.00     0.034 C 
BRANCH  11  12
ATOM     12  C   UNL     1      33.975  17.616  41.709  1.00  0.00    -0.077 C 
ATOM     13  C   UNL     1      34.279  17.268  40.437  1.00  0.00    -0.028 C 
ATOM     14  C   UNL     1      32.573  18.006  42.115  1.00  0.00     0.039 C 
BRANCH  13  15
ATOM     15  C   UNL     1      33.302  17.296  39.290  1.00  0.00     0.035 C 
BRANCH  15  16
ATOM     16  C   UNL     1      32.886  18.736  38.970  1.00  0.00     0.079 C 
BRANCH  16  17
ATOM     17  C   UNL     1      31.688  18.753  38.059  1.00  0.00     0.130 C 
ATOM     18  O   UNL     1      31.060  19.791  37.909  1.00  0.00    -0.300 OA
ATOM     19  C   UNL     1      31.241  17.518  37.332  1.00  0.00     0.087 C 
ENDBRANCH  16  17
ENDBRANCH  15  16
ENDBRANCH  13  15
ENDBRANCH  11  12
ENDBRANCH   1  11
TORSDOF 9
ENDMDL
MODEL 4
REMARK VINA RESULT:    12.399      4.116      9.662
REMARK INTER + INTRA:          18.333
REMARK INTER:                  18.723
REMARK INTRA:                  -0.389
REMARK UNBOUND:                -0.589
REMARK SMILES CC(=O)CCC=C(C)CCC=C(C)CCC=C(C)C
REMARK SMILES IDX 10 1 11 2 12 3 13 4 14 5 15 6 16 7 18 8 17 9 19 10 9 11 7 12
REMARK SMILES IDX 6 13 8 14 5 15 4 16 2 17 3 18 1 19
REMARK H PARENT
REMARK Flexibility Score: inf
ROOT
ATOM      1  C   UNL     1      34.135  16.278  43.352  1.00  0.00     0.032 C 
ENDROOT
BRANCH   1   2
ATOM      2  C   UNL     1      34.115  16.805  41.938  1.00  0.00    -0.028 C 
ATOM      3  C   UNL     1      34.628  18.006  41.592  1.00  0.00    -0.077 C 
ATOM      4  C   UNL     1      35.275  18.909  42.616  1.00  0.00     0.039 C 
BRANCH   3   5
ATOM      5  C   UNL     1      34.553  18.457  40.148  1.00  0.00     0.034 C 
BRANCH   5   6
ATOM      6  C   UNL     1      33.365  17.822  39.410  1.00  0.00     0.032 C 
BRANCH   6   7
ATOM      7  C   UNL     1      32.424  18.867  38.857  1.00  0.00    -0.028 C 
ATOM      8  C   UNL     1      30.623  19.760  37.414  1.00  0.00     0.039 C 
ATOM      9  C   UNL     1      31.485  18.629  37.913  1.00  0.00    -0.080 C 
ATOM     10  C   UNL     1      31.222  17.246  37.373  1.00  0.00     0.039 C 
ENDBRANCH   6   7
ENDBRANCH   5   6
ENDBRANCH   3   5
ENDBRANCH   1   2
BRANCH   1  11
ATOM     11  C   UNL     1      35.538  15.797  43.746  1.00  0.00     0.034 C 
BRANCH  11  12
ATOM     12  C   UNL     1      35.796  14.404  43.216  1.00  0.00    -0.077 C 
ATOM     13  C   UNL     1      34.943  13.879  42.305  1.00  0.00    -0.028 C 
ATOM     14  C   UNL     1      37.009  13.646  43.700  1.00  0.00     0.039 C 
BRANCH  13  15
ATOM     15  C   UNL     1      35.056  12.489  41.735  1.00  0.00     0.035 C 
BRANCH  15  16
ATOM     16  C   UNL     1      34.044  12.285  40.602  1.00  0.00     0.079 C 
BRANCH  16  17
ATOM     17  C   UNL     1      33.228  11.042  40.836  1.00  0.00     0.130 C 
ATOM     18  O   UNL     1      32.454  10.998  41.781  1.00  0.00    -0.300 OA
ATOM     19  C   UNL     1      33.348   9.848  39.935  1.00  0.00     0.087 C 
ENDBRANCH  16  17
ENDBRANCH  15  16
ENDBRANCH  13  15
ENDBRANCH  11  12
ENDBRANCH   1  11
TORSDOF 9
ENDMDL
MODEL 5
REMARK VINA RESULT:    12.518      2.674      4.983
REMARK INTER + INTRA:          18.514
REMARK INTER:                  19.051
REMARK INTRA:                  -0.537
REMARK UNBOUND:                -0.589
REMARK SMILES CC(=O)CCC=C(C)CCC=C(C)CCC=C(C)C
REMARK SMILES IDX 10 1 11 2 12 3 13 4 14 5 15 6 16 7 18 8 17 9 19 10 9 11 7 12
REMARK SMILES IDX 6 13 8 14 5 15 4 16 2 17 3 18 1 19
REMARK H PARENT
REMARK Flexibility Score: inf
ROOT
ATOM      1  C   UNL     1      34.610  13.111  40.922  1.00  0.00     0.032 C 
ENDROOT
BRANCH   1   2
ATOM      2  C   UNL     1      34.114  11.834  40.289  1.00  0.00    -0.028 C 
ATOM      3  C   UNL     1      33.201  11.028  40.875  1.00  0.00    -0.077 C 
ATOM      4  C   UNL     1      32.601  11.366  42.220  1.00  0.00     0.039 C 
BRANCH   3   5
ATOM      5  C   UNL     1      32.770   9.759  40.169  1.00  0.00     0.034 C 
BRANCH   5   6
ATOM      6  C   UNL     1      33.961   9.016  39.546  1.00  0.00     0.032 C 
BRANCH   6   7
ATOM      7  C   UNL     1      34.925   8.520  40.598  1.00  0.00    -0.028 C 
ATOM      8  C   UNL     1      35.960   6.874  42.128  1.00  0.00     0.039 C 
ATOM      9  C   UNL     1      34.975   7.246  41.050  1.00  0.00    -0.080 C 
ATOM     10  C   UNL     1      34.113   6.153  40.470  1.00  0.00     0.039 C 
ENDBRANCH   6   7
ENDBRANCH   5   6
ENDBRANCH   3   5
ENDBRANCH   1   2
BRANCH   1  11
ATOM     11  C   UNL     1      35.741  12.833  41.921  1.00  0.00     0.034 C 
BRANCH  11  12
ATOM     12  C   UNL     1      35.867  13.965  42.916  1.00  0.00    -0.077 C 
ATOM     13  C   UNL     1      34.849  14.849  43.039  1.00  0.00    -0.028 C 
ATOM     14  C   UNL     1      37.116  14.066  43.761  1.00  0.00     0.039 C 
BRANCH  13  15
ATOM     15  C   UNL     1      34.867  16.046  43.954  1.00  0.00     0.035 C 
BRANCH  15  16
ATOM     16  C   UNL     1      36.053  16.960  43.626  1.00  0.00     0.079 C 
BRANCH  16  17
ATOM     17  C   UNL     1      35.626  18.404  43.618  1.00  0.00     0.130 C 
ATOM     18  O   UNL     1      35.260  18.929  44.659  1.00  0.00    -0.300 OA
ATOM     19  C   UNL     1      35.634  19.214  42.354  1.00  0.00     0.087 C 
ENDBRANCH  16  17
ENDBRANCH  15  16
ENDBRANCH  13  15
ENDBRANCH  11  12
ENDBRANCH   1  11
TORSDOF 9
ENDMDL
MODEL 6
REMARK VINA RESULT:    12.944      3.083      8.922
REMARK INTER + INTRA:          19.166
REMARK INTER:                  19.928
REMARK INTRA:                  -0.762
REMARK UNBOUND:                -0.589
REMARK SMILES CC(=O)CCC=C(C)CCC=C(C)CCC=C(C)C
REMARK SMILES IDX 10 1 11 2 12 3 13 4 14 5 15 6 16 7 18 8 17 9 19 10 9 11 7 12
REMARK SMILES IDX 6 13 8 14 5 15 4 16 2 17 3 18 1 19
REMARK H PARENT
REMARK Flexibility Score: inf
ROOT
ATOM      1  C   UNL     1      34.403  11.879  40.518  1.00  0.00     0.032 C 
ENDROOT
BRANCH   1   2
ATOM      2  C   UNL     1      34.671  12.707  41.751  1.00  0.00    -0.028 C 
ATOM      3  C   UNL     1      35.895  13.189  42.062  1.00  0.00    -0.077 C 
ATOM      4  C   UNL     1      37.091  12.935  41.175  1.00  0.00     0.039 C 
BRANCH   3   5
ATOM      5  C   UNL     1      36.071  14.003  43.328  1.00  0.00     0.034 C 
BRANCH   5   6
ATOM      6  C   UNL     1      34.905  14.977  43.551  1.00  0.00     0.032 C 
BRANCH   6   7
ATOM      7  C   UNL     1      35.393  16.368  43.886  1.00  0.00    -0.028 C 
ATOM      8  C   UNL     1      35.644  18.812  43.597  1.00  0.00     0.039 C 
ATOM      9  C   UNL     1      35.070  17.481  43.188  1.00  0.00    -0.080 C 
ATOM     10  C   UNL     1      34.099  17.452  42.034  1.00  0.00     0.039 C 
ENDBRANCH   6   7
ENDBRANCH   5   6
ENDBRANCH   3   5
ENDBRANCH   1   2
BRANCH   1  11
ATOM     11  C   UNL     1      32.916  11.523  40.400  1.00  0.00     0.034 C 
BRANCH  11  12
ATOM     12  C   UNL     1      32.726  10.024  40.338  1.00  0.00    -0.077 C 
ATOM     13  C   UNL     1      31.542   9.494  40.727  1.00  0.00    -0.028 C 
ATOM     14  C   UNL     1      33.854   9.160  39.822  1.00  0.00     0.039 C 
BRANCH  13  15
ATOM     15  C   UNL     1      31.240   8.019  40.761  1.00  0.00     0.035 C 
BRANCH  15  16
ATOM     16  C   UNL     1      29.775   7.776  41.138  1.00  0.00     0.079 C 
BRANCH  16  17
ATOM     17  C   UNL     1      29.592   6.391  41.701  1.00  0.00     0.130 C 
ATOM     18  O   UNL     1      28.532   6.090  42.229  1.00  0.00    -0.300 OA
ATOM     19  C   UNL     1      30.690   5.370  41.634  1.00  0.00     0.087 C 
ENDBRANCH  16  17
ENDBRANCH  15  16
ENDBRANCH  13  15
ENDBRANCH  11  12
ENDBRANCH   1  11
TORSDOF 9
ENDMDL
MODEL 7
REMARK VINA RESULT:    13.151      1.624      3.191
REMARK INTER + INTRA:          19.481
REMARK INTER:                  19.295
REMARK INTRA:                   0.186
REMARK UNBOUND:                -0.589
REMARK SMILES CC(=O)CCC=C(C)CCC=C(C)CCC=C(C)C
REMARK SMILES IDX 10 1 11 2 12 3 13 4 14 5 15 6 16 7 18 8 17 9 19 10 9 11 7 12
REMARK SMILES IDX 6 13 8 14 5 15 4 16 2 17 3 18 1 19
REMARK H PARENT
REMARK Flexibility Score: inf
ROOT
ATOM      1  C   UNL     1      34.128  11.534  40.185  1.00  0.00     0.032 C 
ENDROOT
BRANCH   1   2
ATOM      2  C   UNL     1      32.861  10.999  40.805  1.00  0.00    -0.028 C 
ATOM      3  C   UNL     1      32.393   9.754  40.565  1.00  0.00    -0.077 C 
ATOM      4  C   UNL     1      33.127   8.799  39.654  1.00  0.00     0.039 C 
BRANCH   3   5
ATOM      5  C   UNL     1      31.105   9.306  41.225  1.00  0.00     0.034 C 
BRANCH   5   6
ATOM      6  C   UNL     1      30.455   8.132  40.478  1.00  0.00     0.032 C 
BRANCH   6   7
ATOM      7  C   UNL     1      29.478   7.382  41.353  1.00  0.00    -0.028 C 
ATOM      8  C   UNL     1      28.573   5.441  42.593  1.00  0.00     0.039 C 
ATOM      9  C   UNL     1      29.632   6.096  41.745  1.00  0.00    -0.080 C 
ATOM     10  C   UNL     1      30.867   5.297  41.411  1.00  0.00     0.039 C 
ENDBRANCH   6   7
ENDBRANCH   5   6
ENDBRANCH   3   5
ENDBRANCH   1   2
BRANCH   1  11
ATOM     11  C   UNL     1      34.349  13.007  40.553  1.00  0.00     0.034 C 
BRANCH  11  12
ATOM     12  C   UNL     1      35.555  13.160  41.453  1.00  0.00    -0.077 C 
ATOM     13  C   UNL     1      35.408  13.776  42.650  1.00  0.00    -0.028 C 
ATOM     14  C   UNL     1      36.885  12.604  41.002  1.00  0.00     0.039 C 
BRANCH  13  15
ATOM     15  C   UNL     1      36.534  14.037  43.617  1.00  0.00     0.035 C 
BRANCH  15  16
ATOM     16  C   UNL     1      36.871  15.531  43.663  1.00  0.00     0.079 C 
BRANCH  16  17
ATOM     17  C   UNL     1      35.614  16.358  43.731  1.00  0.00     0.130 C 
ATOM     18  O   UNL     1      34.530  15.801  43.807  1.00  0.00    -0.300 OA
ATOM     19  C   UNL     1      35.664  17.858  43.701  1.00  0.00     0.087 C 
ENDBRANCH  16  17
ENDBRANCH  15  16
ENDBRANCH  13  15
ENDBRANCH  11  12
ENDBRANCH   1  11
TORSDOF 9
ENDMDL
MODEL 8
REMARK VINA RESULT:    13.489      2.991      8.261
REMARK INTER + INTRA:          19.997
REMARK INTER:                  21.381
REMARK INTRA:                  -1.383
REMARK UNBOUND:                -0.589
REMARK SMILES CC(=O)CCC=C(C)CCC=C(C)CCC=C(C)C
REMARK SMILES IDX 10 1 11 2 12 3 13 4 14 5 15 6 16 7 18 8 17 9 19 10 9 11 7 12
REMARK SMILES IDX 6 13 8 14 5 15 4 16 2 17 3 18 1 19
REMARK H PARENT
REMARK Flexibility Score: inf
ROOT
ATOM      1  C   UNL     1      34.303  13.070  39.885  1.00  0.00     0.032 C 
ENDROOT
BRANCH   1   2
ATOM      2  C   UNL     1      34.641  13.599  41.258  1.00  0.00    -0.028 C 
ATOM      3  C   UNL     1      35.850  13.426  41.836  1.00  0.00    -0.077 C 
ATOM      4  C   UNL     1      36.963  12.690  41.128  1.00  0.00     0.039 C 
BRANCH   3   5
ATOM      5  C   UNL     1      36.095  13.983  43.223  1.00  0.00     0.034 C 
BRANCH   5   6
ATOM      6  C   UNL     1      34.945  14.887  43.690  1.00  0.00     0.032 C 
BRANCH   6   7
ATOM      7  C   UNL     1      35.421  16.288  43.996  1.00  0.00    -0.028 C 
ATOM      8  C   UNL     1      35.652  18.728  43.656  1.00  0.00     0.039 C 
ATOM      9  C   UNL     1      35.089  17.384  43.274  1.00  0.00    -0.080 C 
ATOM     10  C   UNL     1      34.119  17.323  42.122  1.00  0.00     0.039 C 
ENDBRANCH   6   7
ENDBRANCH   5   6
ENDBRANCH   3   5
ENDBRANCH   1   2
BRANCH   1  11
ATOM     11  C   UNL     1      32.974  12.303  39.897  1.00  0.00     0.034 C 
BRANCH  11  12
ATOM     12  C   UNL     1      33.145  10.944  40.541  1.00  0.00    -0.077 C 
ATOM     13  C   UNL     1      33.729   9.950  39.832  1.00  0.00    -0.028 C 
ATOM     14  C   UNL     1      32.680  10.741  41.964  1.00  0.00     0.039 C 
BRANCH  13  15
ATOM     15  C   UNL     1      33.914   8.542  40.335  1.00  0.00     0.035 C 
BRANCH  15  16
ATOM     16  C   UNL     1      35.310   8.365  40.943  1.00  0.00     0.079 C 
BRANCH  16  17
ATOM     17  C   UNL     1      35.476   6.975  41.499  1.00  0.00     0.130 C 
ATOM     18  O   UNL     1      36.410   6.734  42.249  1.00  0.00    -0.300 OA
ATOM     19  C   UNL     1      34.521   5.873  41.144  1.00  0.00     0.087 C 
ENDBRANCH  16  17
ENDBRANCH  15  16
ENDBRANCH  13  15
ENDBRANCH  11  12
ENDBRANCH   1  11
TORSDOF 9
ENDMDL
