MODEL 1
REMARK VINA RESULT:    -4.523      0.000      0.000
REMARK INTER + INTRA:          -7.735
REMARK INTER:                  -6.903
REMARK INTRA:                  -0.832
REMARK UNBOUND:                -0.832
REMARK SMILES O=C([O-])CCCCCCCCC(=O)[O-]
REMARK SMILES IDX 7 1 6 2 5 3 4 4 2 5 1 6 3 7 8 8 9 9 10 10 11 11 12 12 13 13
REMARK SMILES IDX 14 14
REMARK H PARENT
REMARK Flexibility Score: inf
ROOT
ATOM      1  C   UNL     1      98.668  92.678  88.206  1.00  0.00     0.000 C 
ENDROOT
BRANCH   1   2
ATOM      2  C   UNL     1      99.646  91.847  89.051  1.00  0.00     0.000 C 
BRANCH   2   3
ATOM      3  C   UNL     1      98.952  90.689  89.791  1.00  0.00     0.006 C 
BRANCH   3   4
ATOM      4  C   UNL     1      99.957  89.661  90.329  1.00  0.00     0.053 C 
BRANCH   4   5
ATOM      5  C   UNL     1      99.849  89.501  91.815  1.00  0.00     0.041 C 
ATOM      6  O   UNL     1      98.718  89.469  92.368  1.00  0.00    -0.550 OA
ATOM      7  O   UNL     1     100.996  89.359  92.585  1.00  0.00    -0.550 OA
ENDBRANCH   4   5
ENDBRANCH   3   4
ENDBRANCH   2   3
ENDBRANCH   1   2
BRANCH   1   8
ATOM      8  C   UNL     1      98.454  92.094  86.801  1.00  0.00     0.000 C 
BRANCH   8   9
ATOM      9  C   UNL     1      99.784  91.984  86.044  1.00  0.00     0.000 C 
BRANCH   9  10
ATOM     10  C   UNL     1      99.927  90.611  85.376  1.00  0.00     0.006 C 
BRANCH  10  11
ATOM     11  C   UNL     1     100.828  89.690  86.203  1.00  0.00     0.053 C 
BRANCH  11  12
ATOM     12  C   UNL     1     100.152  88.376  86.445  1.00  0.00     0.041 C 
ATOM     13  O   UNL     1     100.718  87.303  86.111  1.00  0.00    -0.550 OA
ATOM     14  O   UNL     1      98.919  88.337  87.083  1.00  0.00    -0.550 OA
ENDBRANCH  11  12
ENDBRANCH  10  11
ENDBRANCH   9  10
ENDBRANCH   8   9
ENDBRANCH   1   8
TORSDOF 9
ENDMDL
MODEL 2
REMARK VINA RESULT:    -4.499      0.893      4.614
REMARK INTER + INTRA:          -7.698
REMARK INTER:                  -6.791
REMARK INTRA:                  -0.907
REMARK UNBOUND:                -0.832
REMARK SMILES O=C([O-])CCCCCCCCC(=O)[O-]
REMARK SMILES IDX 7 1 6 2 5 3 4 4 2 5 1 6 3 7 8 8 9 9 10 10 11 11 12 12 13 13
REMARK SMILES IDX 14 14
REMARK H PARENT
REMARK Flexibility Score: inf
ROOT
ATOM      1  C   UNL     1      98.473  91.939  86.726  1.00  0.00     0.000 C 
ENDROOT
BRANCH   1   2
ATOM      2  C   UNL     1      99.773  91.943  85.906  1.00  0.00     0.000 C 
BRANCH   2   3
ATOM      3  C   UNL     1     100.302  90.525  85.629  1.00  0.00     0.006 C 
BRANCH   3   4
ATOM      4  C   UNL     1      99.287  89.442  86.016  1.00  0.00     0.053 C 
BRANCH   4   5
ATOM      5  C   UNL     1      99.874  88.440  86.963  1.00  0.00     0.041 C 
ATOM      6  O   UNL     1      99.198  87.443  87.329  1.00  0.00    -0.550 OA
ATOM      7  O   UNL     1     101.177  88.591  87.418  1.00  0.00    -0.550 OA
ENDBRANCH   4   5
ENDBRANCH   3   4
ENDBRANCH   2   3
ENDBRANCH   1   2
BRANCH   1   8
ATOM      8  C   UNL     1      98.601  92.722  88.042  1.00  0.00     0.000 C 
BRANCH   8   9
ATOM      9  C   UNL     1      99.562  92.019  89.008  1.00  0.00     0.000 C 
BRANCH   9  10
ATOM     10  C   UNL     1      98.889  90.813  89.675  1.00  0.00     0.006 C 
BRANCH  10  11
ATOM     11  C   UNL     1      99.913  89.963  90.433  1.00  0.00     0.053 C 
BRANCH  11  12
ATOM     12  C   UNL     1      99.477  89.758  91.850  1.00  0.00     0.041 C 
ATOM     13  O   UNL     1      98.962  90.707  92.497  1.00  0.00    -0.550 OA
ATOM     14  O   UNL     1      99.593  88.505  92.438  1.00  0.00    -0.550 OA
ENDBRANCH  11  12
ENDBRANCH  10  11
ENDBRANCH   9  10
ENDBRANCH   8   9
ENDBRANCH   1   8
TORSDOF 9
ENDMDL
MODEL 3
REMARK VINA RESULT:    -4.490      2.231      4.904
REMARK INTER + INTRA:          -7.685
REMARK INTER:                  -6.862
REMARK INTRA:                  -0.823
REMARK UNBOUND:                -0.832
REMARK SMILES O=C([O-])CCCCCCCCC(=O)[O-]
REMARK SMILES IDX 7 1 6 2 5 3 4 4 2 5 1 6 3 7 8 8 9 9 10 10 11 11 12 12 13 13
REMARK SMILES IDX 14 14
REMARK H PARENT
REMARK Flexibility Score: inf
ROOT
ATOM      1  C   UNL     1     100.500  89.458  85.969  1.00  0.00     0.000 C 
ENDROOT
BRANCH   1   2
ATOM      2  C   UNL     1      99.341  89.885  85.055  1.00  0.00     0.000 C 
BRANCH   2   3
ATOM      3  C   UNL     1      98.917  91.347  85.281  1.00  0.00     0.006 C 
BRANCH   3   4
ATOM      4  C   UNL     1      99.872  92.088  86.225  1.00  0.00     0.053 C 
BRANCH   4   5
ATOM      5  C   UNL     1      99.201  92.477  87.506  1.00  0.00     0.041 C 
ATOM      6  O   UNL     1      97.945  92.532  87.572  1.00  0.00    -0.550 OA
ATOM      7  O   UNL     1      99.961  92.750  88.636  1.00  0.00    -0.550 OA
ENDBRANCH   4   5
ENDBRANCH   3   4
ENDBRANCH   2   3
ENDBRANCH   1   2
BRANCH   1   8
ATOM      8  C   UNL     1     100.247  88.108  86.657  1.00  0.00     0.000 C 
BRANCH   8   9
ATOM      9  C   UNL     1     100.541  88.195  88.160  1.00  0.00     0.000 C 
BRANCH   9  10
ATOM     10  C   UNL     1      99.617  89.208  88.846  1.00  0.00     0.006 C 
BRANCH  10  11
ATOM     11  C   UNL     1     100.098  89.517  90.267  1.00  0.00     0.053 C 
BRANCH  11  12
ATOM     12  C   UNL     1      99.036  90.241  91.033  1.00  0.00     0.041 C 
ATOM     13  O   UNL     1      98.023  90.693  90.437  1.00  0.00    -0.550 OA
ATOM     14  O   UNL     1      99.141  90.372  92.412  1.00  0.00    -0.550 OA
ENDBRANCH  11  12
ENDBRANCH  10  11
ENDBRANCH   9  10
ENDBRANCH   8   9
ENDBRANCH   1   8
TORSDOF 9
ENDMDL
MODEL 4
REMARK VINA RESULT:    -4.446      2.199      3.461
REMARK INTER + INTRA:          -7.618
REMARK INTER:                  -6.789
REMARK INTRA:                  -0.829
REMARK UNBOUND:                -0.832
REMARK SMILES O=C([O-])CCCCCCCCC(=O)[O-]
REMARK SMILES IDX 7 1 6 2 5 3 4 4 2 5 1 6 3 7 8 8 9 9 10 10 11 11 12 12 13 13
REMARK SMILES IDX 14 14
REMARK H PARENT
REMARK Flexibility Score: inf
ROOT
ATOM      1  C   UNL     1     100.318  88.036  86.398  1.00  0.00     0.000 C 
ENDROOT
BRANCH   1   2
ATOM      2  C   UNL     1     100.104  87.863  87.910  1.00  0.00     0.000 C 
BRANCH   2   3
ATOM      3  C   UNL     1      99.611  89.153  88.589  1.00  0.00     0.006 C 
BRANCH   3   4
ATOM      4  C   UNL     1     100.191  89.324  89.998  1.00  0.00     0.053 C 
BRANCH   4   5
ATOM      5  C   UNL     1      99.180  89.878  90.955  1.00  0.00     0.041 C 
ATOM      6  O   UNL     1      99.293  89.664  92.190  1.00  0.00    -0.550 OA
ATOM      7  O   UNL     1      98.130  90.656  90.485  1.00  0.00    -0.550 OA
ENDBRANCH   4   5
ENDBRANCH   3   4
ENDBRANCH   2   3
ENDBRANCH   1   2
BRANCH   1   8
ATOM      8  C   UNL     1     100.616  89.491  86.003  1.00  0.00     0.000 C 
BRANCH   8   9
ATOM      9  C   UNL     1      99.606  89.996  84.965  1.00  0.00     0.000 C 
BRANCH   9  10
ATOM     10  C   UNL     1      98.925  91.285  85.440  1.00  0.00     0.006 C 
BRANCH  10  11
ATOM     11  C   UNL     1      99.867  92.110  86.323  1.00  0.00     0.053 C 
BRANCH  11  12
ATOM     12  C   UNL     1      99.174  92.521  87.584  1.00  0.00     0.041 C 
ATOM     13  O   UNL     1      99.845  92.799  88.612  1.00  0.00    -0.550 OA
ATOM     14  O   UNL     1      97.791  92.644  87.609  1.00  0.00    -0.550 OA
ENDBRANCH  11  12
ENDBRANCH  10  11
ENDBRANCH   9  10
ENDBRANCH   8   9
ENDBRANCH   1   8
TORSDOF 9
ENDMDL
MODEL 5
REMARK VINA RESULT:    -4.311      2.095      5.378
REMARK INTER + INTRA:          -7.411
REMARK INTER:                  -6.543
REMARK INTRA:                  -0.867
REMARK UNBOUND:                -0.832
REMARK SMILES O=C([O-])CCCCCCCCC(=O)[O-]
REMARK SMILES IDX 7 1 6 2 5 3 4 4 2 5 1 6 3 7 8 8 9 9 10 10 11 11 12 12 13 13
REMARK SMILES IDX 14 14
REMARK H PARENT
REMARK Flexibility Score: inf
ROOT
ATOM      1  C   UNL     1     100.469  88.244  86.808  1.00  0.00     0.000 C 
ENDROOT
BRANCH   1   2
ATOM      2  C   UNL     1      99.234  88.910  86.182  1.00  0.00     0.000 C 
BRANCH   2   3
ATOM      3  C   UNL     1      99.577  89.731  84.926  1.00  0.00     0.006 C 
BRANCH   3   4
ATOM      4  C   UNL     1      99.246  91.219  85.099  1.00  0.00     0.053 C 
BRANCH   4   5
ATOM      5  C   UNL     1     100.067  91.852  86.181  1.00  0.00     0.041 C 
ATOM      6  O   UNL     1      99.505  92.464  87.126  1.00  0.00    -0.550 OA
ATOM      7  O   UNL     1     101.451  91.741  86.160  1.00  0.00    -0.550 OA
ENDBRANCH   4   5
ENDBRANCH   3   4
ENDBRANCH   2   3
ENDBRANCH   1   2
BRANCH   1   8
ATOM      8  C   UNL     1     100.689  88.660  88.271  1.00  0.00     0.000 C 
BRANCH   8   9
ATOM      9  C   UNL     1      99.422  89.295  88.857  1.00  0.00     0.000 C 
BRANCH   9  10
ATOM     10  C   UNL     1      99.770  90.328  89.936  1.00  0.00     0.006 C 
BRANCH  10  11
ATOM     11  C   UNL     1      99.299  89.861  91.316  1.00  0.00     0.053 C 
BRANCH  11  12
ATOM     12  C   UNL     1     100.302  88.931  91.924  1.00  0.00     0.041 C 
ATOM     13  O   UNL     1      99.932  87.828  92.404  1.00  0.00    -0.550 OA
ATOM     14  O   UNL     1     101.651  89.263  91.916  1.00  0.00    -0.550 OA
ENDBRANCH  11  12
ENDBRANCH  10  11
ENDBRANCH   9  10
ENDBRANCH   8   9
ENDBRANCH   1   8
TORSDOF 9
ENDMDL
MODEL 6
REMARK VINA RESULT:    -4.216      2.167      3.379
REMARK INTER + INTRA:          -7.266
REMARK INTER:                  -6.689
REMARK INTRA:                  -0.577
REMARK UNBOUND:                -0.832
REMARK SMILES O=C([O-])CCCCCCCCC(=O)[O-]
REMARK SMILES IDX 7 1 6 2 5 3 4 4 2 5 1 6 3 7 8 8 9 9 10 10 11 11 12 12 13 13
REMARK SMILES IDX 14 14
REMARK H PARENT
REMARK Flexibility Score: inf
ROOT
ATOM      1  C   UNL     1     100.337  88.746  88.498  1.00  0.00     0.000 C 
ENDROOT
BRANCH   1   2
ATOM      2  C   UNL     1     100.749  88.005  89.780  1.00  0.00     0.000 C 
BRANCH   2   3
ATOM      3  C   UNL     1     100.401  88.792  91.056  1.00  0.00     0.006 C 
BRANCH   3   4
ATOM      4  C   UNL     1      99.630  90.082  90.749  1.00  0.00     0.053 C 
BRANCH   4   5
ATOM      5  C   UNL     1      98.481  90.283  91.689  1.00  0.00     0.041 C 
ATOM      6  O   UNL     1      98.681  90.736  92.846  1.00  0.00    -0.550 OA
ATOM      7  O   UNL     1      97.186  89.997  91.277  1.00  0.00    -0.550 OA
ENDBRANCH   4   5
ENDBRANCH   3   4
ENDBRANCH   2   3
ENDBRANCH   1   2
BRANCH   1   8
ATOM      8  C   UNL     1      99.830  87.796  87.402  1.00  0.00     0.000 C 
BRANCH   8   9
ATOM      9  C   UNL     1     100.110  88.369  86.007  1.00  0.00     0.000 C 
BRANCH   9  10
ATOM     10  C   UNL     1     100.743  89.763  86.100  1.00  0.00     0.006 C 
BRANCH  10  11
ATOM     11  C   UNL     1      99.850  90.817  85.440  1.00  0.00     0.053 C 
BRANCH  11  12
ATOM     12  C   UNL     1      99.246  91.714  86.475  1.00  0.00     0.041 C 
ATOM     13  O   UNL     1      98.033  92.040  86.400  1.00  0.00    -0.550 OA
ATOM     14  O   UNL     1     100.012  92.149  87.549  1.00  0.00    -0.550 OA
ENDBRANCH  11  12
ENDBRANCH  10  11
ENDBRANCH   9  10
ENDBRANCH   8   9
ENDBRANCH   1   8
TORSDOF 9
ENDMDL
MODEL 7
REMARK VINA RESULT:    -4.171      2.366      4.606
REMARK INTER + INTRA:          -7.198
REMARK INTER:                  -6.504
REMARK INTRA:                  -0.694
REMARK UNBOUND:                -0.832
REMARK SMILES O=C([O-])CCCCCCCCC(=O)[O-]
REMARK SMILES IDX 7 1 6 2 5 3 4 4 2 5 1 6 3 7 8 8 9 9 10 10 11 11 12 12 13 13
REMARK SMILES IDX 14 14
REMARK H PARENT
REMARK Flexibility Score: inf
ROOT
ATOM      1  C   UNL     1     100.145  89.549  85.736  1.00  0.00     0.000 C 
ENDROOT
BRANCH   1   2
ATOM      2  C   UNL     1     101.075  90.768  85.638  1.00  0.00     0.000 C 
BRANCH   2   3
ATOM      3  C   UNL     1     100.612  91.940  86.521  1.00  0.00     0.006 C 
BRANCH   3   4
ATOM      4  C   UNL     1      99.117  91.857  86.856  1.00  0.00     0.053 C 
BRANCH   4   5
ATOM      5  C   UNL     1      98.819  92.402  88.219  1.00  0.00     0.041 C 
ATOM      6  O   UNL     1      97.785  93.095  88.412  1.00  0.00    -0.550 OA
ATOM      7  O   UNL     1      99.666  92.121  89.283  1.00  0.00    -0.550 OA
ENDBRANCH   4   5
ENDBRANCH   3   4
ENDBRANCH   2   3
ENDBRANCH   1   2
BRANCH   1   8
ATOM      8  C   UNL     1     100.783  88.376  86.496  1.00  0.00     0.000 C 
BRANCH   8   9
ATOM      9  C   UNL     1      99.911  87.952  87.684  1.00  0.00     0.000 C 
BRANCH   9  10
ATOM     10  C   UNL     1     100.360  88.650  88.974  1.00  0.00     0.006 C 
BRANCH  10  11
ATOM     11  C   UNL     1     101.106  87.678  89.893  1.00  0.00     0.053 C 
BRANCH  11  12
ATOM     12  C   UNL     1     101.423  88.334  91.200  1.00  0.00     0.041 C 
ATOM     13  O   UNL     1     102.303  87.845  91.956  1.00  0.00    -0.550 OA
ATOM     14  O   UNL     1     100.782  89.512  91.560  1.00  0.00    -0.550 OA
ENDBRANCH  11  12
ENDBRANCH  10  11
ENDBRANCH   9  10
ENDBRANCH   8   9
ENDBRANCH   1   8
TORSDOF 9
ENDMDL
MODEL 8
REMARK VINA RESULT:    -4.065     11.055     12.394
REMARK INTER + INTRA:          -7.036
REMARK INTER:                  -6.380
REMARK INTRA:                  -0.656
REMARK UNBOUND:                -0.832
REMARK SMILES O=C([O-])CCCCCCCCC(=O)[O-]
REMARK SMILES IDX 7 1 6 2 5 3 4 4 2 5 1 6 3 7 8 8 9 9 10 10 11 11 12 12 13 13
REMARK SMILES IDX 14 14
REMARK H PARENT
REMARK Flexibility Score: inf
ROOT
ATOM      1  C   UNL     1     104.136  95.581  98.047  1.00  0.00     0.000 C 
ENDROOT
BRANCH   1   2
ATOM      2  C   UNL     1     102.907  95.509  98.966  1.00  0.00     0.000 C 
BRANCH   2   3
ATOM      3  C   UNL     1     101.950  96.698  98.770  1.00  0.00     0.006 C 
BRANCH   3   4
ATOM      4  C   UNL     1     100.649  96.285  98.070  1.00  0.00     0.053 C 
BRANCH   4   5
ATOM      5  C   UNL     1     100.389  97.105  96.844  1.00  0.00     0.041 C 
ATOM      6  O   UNL     1      99.661  96.653  95.922  1.00  0.00    -0.550 OA
ATOM      7  O   UNL     1     100.927  98.381  96.732  1.00  0.00    -0.550 OA
ENDBRANCH   4   5
ENDBRANCH   3   4
ENDBRANCH   2   3
ENDBRANCH   1   2
BRANCH   1   8
ATOM      8  C   UNL     1     104.307  96.961  97.392  1.00  0.00     0.000 C 
BRANCH   8   9
ATOM      9  C   UNL     1     105.597  97.019  96.564  1.00  0.00     0.000 C 
BRANCH   9  10
ATOM     10  C   UNL     1     105.323  97.550  95.152  1.00  0.00     0.006 C 
BRANCH  10  11
ATOM     11  C   UNL     1     103.998  98.317  95.102  1.00  0.00     0.053 C 
BRANCH  11  12
ATOM     12  C   UNL     1     104.246  99.792  95.140  1.00  0.00     0.041 C 
ATOM     13  O   UNL     1     103.443 100.553  95.740  1.00  0.00    -0.550 OA
ATOM     14  O   UNL     1     105.389 100.320  94.553  1.00  0.00    -0.550 OA
ENDBRANCH  11  12
ENDBRANCH  10  11
ENDBRANCH   9  10
ENDBRANCH   8   9
ENDBRANCH   1   8
TORSDOF 9
ENDMDL
MODEL 9
REMARK VINA RESULT:    -4.035      1.499      5.124
REMARK INTER + INTRA:          -6.989
REMARK INTER:                  -6.315
REMARK INTRA:                  -0.674
REMARK UNBOUND:                -0.832
REMARK SMILES O=C([O-])CCCCCCCCC(=O)[O-]
REMARK SMILES IDX 7 1 6 2 5 3 4 4 2 5 1 6 3 7 8 8 9 9 10 10 11 11 12 12 13 13
REMARK SMILES IDX 14 14
REMARK H PARENT
REMARK Flexibility Score: inf
ROOT
ATOM      1  C   UNL     1      98.608  91.959  88.784  1.00  0.00     0.000 C 
ENDROOT
BRANCH   1   2
ATOM      2  C   UNL     1      99.989  92.126  88.131  1.00  0.00     0.000 C 
BRANCH   2   3
ATOM      3  C   UNL     1      99.923  92.110  86.594  1.00  0.00     0.006 C 
BRANCH   3   4
ATOM      4  C   UNL     1     100.853  91.053  85.985  1.00  0.00     0.053 C 
BRANCH   4   5
ATOM      5  C   UNL     1     100.288  89.671  86.116  1.00  0.00     0.041 C 
ATOM      6  O   UNL     1     101.048  88.697  86.358  1.00  0.00    -0.550 OA
ATOM      7  O   UNL     1      98.920  89.464  85.999  1.00  0.00    -0.550 OA
ENDBRANCH   4   5
ENDBRANCH   3   4
ENDBRANCH   2   3
ENDBRANCH   1   2
BRANCH   1   8
ATOM      8  C   UNL     1      98.631  90.998  89.983  1.00  0.00     0.000 C 
BRANCH   8   9
ATOM      9  C   UNL     1      99.621  89.851  89.748  1.00  0.00     0.000 C 
BRANCH   9  10
ATOM     10  C   UNL     1     100.522  89.641  90.971  1.00  0.00     0.006 C 
BRANCH  10  11
ATOM     11  C   UNL     1      99.836  88.752  92.012  1.00  0.00     0.053 C 
BRANCH  11  12
ATOM     12  C   UNL     1     100.609  87.485  92.209  1.00  0.00     0.041 C 
ATOM     13  O   UNL     1     100.661  86.946  93.345  1.00  0.00    -0.550 OA
ATOM     14  O   UNL     1     101.229  86.875  91.127  1.00  0.00    -0.550 OA
ENDBRANCH  11  12
ENDBRANCH  10  11
ENDBRANCH   9  10
ENDBRANCH   8   9
ENDBRANCH   1   8
TORSDOF 9
ENDMDL
