MODEL 1
REMARK VINA RESULT:    -1.908      0.000      0.000
REMARK INTER + INTRA:          -3.562
REMARK INTER:                  -2.800
REMARK INTRA:                  -0.762
REMARK UNBOUND:                -0.762
REMARK SMILES CCCCCC(=O)CCCCC
REMARK SMILES IDX 6 1 7 2 5 3 4 4 3 5 2 6 1 7 8 8 9 9 10 10 11 11 12 12
REMARK H PARENT
REMARK Flexibility Score: inf
ROOT
ATOM      1  C   UNL     1     125.372 111.705 136.717  1.00  0.00     0.132 C 
ATOM      2  O   UNL     1     124.172 111.583 136.521  1.00  0.00    -0.300 OA
ENDROOT
BRANCH   1   3
ATOM      3  C   UNL     1     126.312 111.734 135.539  1.00  0.00     0.075 C 
BRANCH   3   4
ATOM      4  C   UNL     1     126.545 110.325 134.983  1.00  0.00     0.008 C 
BRANCH   4   5
ATOM      5  C   UNL     1     127.122 110.383 133.563  1.00  0.00     0.000 C 
BRANCH   5   6
ATOM      6  C   UNL     1     126.998 109.024 132.865  1.00  0.00    -0.003 C 
ATOM      7  C   UNL     1     126.887 107.890 133.881  1.00  0.00     0.004 C 
ENDBRANCH   5   6
ENDBRANCH   4   5
ENDBRANCH   3   4
ENDBRANCH   1   3
BRANCH   1   8
ATOM      8  C   UNL     1     125.891 111.768 138.133  1.00  0.00     0.075 C 
BRANCH   8   9
ATOM      9  C   UNL     1     125.558 110.504 138.940  1.00  0.00     0.008 C 
BRANCH   9  10
ATOM     10  C   UNL     1     126.421 109.301 138.526  1.00  0.00     0.000 C 
BRANCH  10  11
ATOM     11  C   UNL     1     125.592 108.163 137.913  1.00  0.00    -0.003 C 
ATOM     12  C   UNL     1     126.444 106.959 137.511  1.00  0.00     0.004 C 
ENDBRANCH  10  11
ENDBRANCH   9  10
ENDBRANCH   8   9
ENDBRANCH   1   8
TORSDOF 8
ENDMDL
MODEL 2
REMARK VINA RESULT:    -1.879      1.468      4.108
REMARK INTER + INTRA:          -3.519
REMARK INTER:                  -2.549
REMARK INTRA:                  -0.970
REMARK UNBOUND:                -0.762
REMARK SMILES CCCCCC(=O)CCCCC
REMARK SMILES IDX 6 1 7 2 5 3 4 4 3 5 2 6 1 7 8 8 9 9 10 10 11 11 12 12
REMARK H PARENT
REMARK Flexibility Score: inf
ROOT
ATOM      1  C   UNL     1     125.158 109.266 138.023  1.00  0.00     0.132 C 
ATOM      2  O   UNL     1     124.198 109.860 138.491  1.00  0.00    -0.300 OA
ENDROOT
BRANCH   1   3
ATOM      3  C   UNL     1     126.551 109.714 138.386  1.00  0.00     0.075 C 
BRANCH   3   4
ATOM      4  C   UNL     1     126.642 111.243 138.441  1.00  0.00     0.008 C 
BRANCH   4   5
ATOM      5  C   UNL     1     127.125 111.814 137.102  1.00  0.00     0.000 C 
BRANCH   5   6
ATOM      6  C   UNL     1     126.317 113.057 136.712  1.00  0.00    -0.003 C 
ATOM      7  C   UNL     1     125.288 112.728 135.634  1.00  0.00     0.004 C 
ENDBRANCH   5   6
ENDBRANCH   4   5
ENDBRANCH   3   4
ENDBRANCH   1   3
BRANCH   1   8
ATOM      8  C   UNL     1     124.930 108.134 137.050  1.00  0.00     0.075 C 
BRANCH   8   9
ATOM      9  C   UNL     1     125.960 108.119 135.911  1.00  0.00     0.008 C 
BRANCH   9  10
ATOM     10  C   UNL     1     125.631 109.141 134.811  1.00  0.00     0.000 C 
BRANCH  10  11
ATOM     11  C   UNL     1     126.842 109.461 133.922  1.00  0.00    -0.003 C 
ATOM     12  C   UNL     1     127.125 108.369 132.890  1.00  0.00     0.004 C 
ENDBRANCH  10  11
ENDBRANCH   9  10
ENDBRANCH   8   9
ENDBRANCH   1   8
TORSDOF 8
ENDMDL
MODEL 3
REMARK VINA RESULT:    -1.843      1.393      1.762
REMARK INTER + INTRA:          -3.467
REMARK INTER:                  -2.575
REMARK INTRA:                  -0.893
REMARK UNBOUND:                -0.762
REMARK SMILES CCCCCC(=O)CCCCC
REMARK SMILES IDX 6 1 7 2 5 3 4 4 3 5 2 6 1 7 8 8 9 9 10 10 11 11 12 12
REMARK H PARENT
REMARK Flexibility Score: inf
ROOT
ATOM      1  C   UNL     1     125.663 113.142 136.081  1.00  0.00     0.132 C 
ATOM      2  O   UNL     1     124.482 113.392 136.272  1.00  0.00    -0.300 OA
ENDROOT
BRANCH   1   3
ATOM      3  C   UNL     1     126.135 112.833 134.682  1.00  0.00     0.075 C 
BRANCH   3   4
ATOM      4  C   UNL     1     127.123 111.661 134.679  1.00  0.00     0.008 C 
BRANCH   4   5
ATOM      5  C   UNL     1     126.383 110.318 134.652  1.00  0.00     0.000 C 
BRANCH   5   6
ATOM      6  C   UNL     1     126.956 109.398 133.568  1.00  0.00    -0.003 C 
ATOM      7  C   UNL     1     126.761 107.929 133.933  1.00  0.00     0.004 C 
ENDBRANCH   5   6
ENDBRANCH   4   5
ENDBRANCH   3   4
ENDBRANCH   1   3
BRANCH   1   8
ATOM      8  C   UNL     1     126.612 113.092 137.254  1.00  0.00     0.075 C 
BRANCH   8   9
ATOM      9  C   UNL     1     126.039 112.305 138.442  1.00  0.00     0.008 C 
BRANCH   9  10
ATOM     10  C   UNL     1     126.917 111.102 138.824  1.00  0.00     0.000 C 
BRANCH  10  11
ATOM     11  C   UNL     1     126.352 109.770 138.305  1.00  0.00    -0.003 C 
ATOM     12  C   UNL     1     124.836 109.806 138.112  1.00  0.00     0.004 C 
ENDBRANCH  10  11
ENDBRANCH   9  10
ENDBRANCH   8   9
ENDBRANCH   1   8
TORSDOF 8
ENDMDL
MODEL 4
REMARK VINA RESULT:    -1.721      2.730      3.830
REMARK INTER + INTRA:          -3.288
REMARK INTER:                  -1.976
REMARK INTRA:                  -1.312
REMARK UNBOUND:                -0.762
REMARK SMILES CCCCCC(=O)CCCCC
REMARK SMILES IDX 6 1 7 2 5 3 4 4 3 5 2 6 1 7 8 8 9 9 10 10 11 11 12 12
REMARK H PARENT
REMARK Flexibility Score: inf
ROOT
ATOM      1  C   UNL     1     125.745 111.603 133.601  1.00  0.00     0.132 C 
ATOM      2  O   UNL     1     126.009 112.323 132.649  1.00  0.00    -0.300 OA
ENDROOT
BRANCH   1   3
ATOM      3  C   UNL     1     124.368 111.660 134.211  1.00  0.00     0.075 C 
BRANCH   3   4
ATOM      4  C   UNL     1     123.322 111.047 133.272  1.00  0.00     0.008 C 
BRANCH   4   5
ATOM      5  C   UNL     1     123.224 109.530 133.475  1.00  0.00     0.000 C 
BRANCH   5   6
ATOM      6  C   UNL     1     123.573 108.780 132.184  1.00  0.00    -0.003 C 
ATOM      7  C   UNL     1     123.535 107.269 132.397  1.00  0.00     0.004 C 
ENDBRANCH   5   6
ENDBRANCH   4   5
ENDBRANCH   3   4
ENDBRANCH   1   3
BRANCH   1   8
ATOM      8  C   UNL     1     126.819 110.713 134.178  1.00  0.00     0.075 C 
BRANCH   8   9
ATOM      9  C   UNL     1     127.125 109.502 133.285  1.00  0.00     0.008 C 
BRANCH   9  10
ATOM     10  C   UNL     1     126.799 108.168 133.977  1.00  0.00     0.000 C 
BRANCH  10  11
ATOM     11  C   UNL     1     126.113 108.361 135.338  1.00  0.00    -0.003 C 
ATOM     12  C   UNL     1     125.456 107.082 135.857  1.00  0.00     0.004 C 
ENDBRANCH  10  11
ENDBRANCH   9  10
ENDBRANCH   8   9
ENDBRANCH   1   8
TORSDOF 8
ENDMDL
MODEL 5
REMARK VINA RESULT:    -1.686      1.051      3.903
REMARK INTER + INTRA:          -3.237
REMARK INTER:                  -2.341
REMARK INTRA:                  -0.896
REMARK UNBOUND:                -0.762
REMARK SMILES CCCCCC(=O)CCCCC
REMARK SMILES IDX 6 1 7 2 5 3 4 4 3 5 2 6 1 7 8 8 9 9 10 10 11 11 12 12
REMARK H PARENT
REMARK Flexibility Score: inf
ROOT
ATOM      1  C   UNL     1     124.548 111.601 136.208  1.00  0.00     0.132 C 
ATOM      2  O   UNL     1     123.414 112.026 136.374  1.00  0.00    -0.300 OA
ENDROOT
BRANCH   1   3
ATOM      3  C   UNL     1     125.372 111.209 137.407  1.00  0.00     0.075 C 
BRANCH   3   4
ATOM      4  C   UNL     1     124.653 110.147 138.247  1.00  0.00     0.008 C 
BRANCH   4   5
ATOM      5  C   UNL     1     124.577 108.811 137.497  1.00  0.00     0.000 C 
BRANCH   5   6
ATOM      6  C   UNL     1     125.980 108.254 137.225  1.00  0.00    -0.003 C 
ATOM      7  C   UNL     1     125.916 107.001 136.357  1.00  0.00     0.004 C 
ENDBRANCH   5   6
ENDBRANCH   4   5
ENDBRANCH   3   4
ENDBRANCH   1   3
BRANCH   1   8
ATOM      8  C   UNL     1     125.118 111.531 134.811  1.00  0.00     0.075 C 
BRANCH   8   9
ATOM      9  C   UNL     1     126.634 111.286 134.805  1.00  0.00     0.008 C 
BRANCH   9  10
ATOM     10  C   UNL     1     127.112 110.608 133.510  1.00  0.00     0.000 C 
BRANCH  10  11
ATOM     11  C   UNL     1     127.125 109.076 133.617  1.00  0.00    -0.003 C 
ATOM     12  C   UNL     1     126.907 108.386 132.270  1.00  0.00     0.004 C 
ENDBRANCH  10  11
ENDBRANCH   9  10
ENDBRANCH   8   9
ENDBRANCH   1   8
TORSDOF 8
ENDMDL
MODEL 6
REMARK VINA RESULT:    -1.683      2.035      3.596
REMARK INTER + INTRA:          -3.232
REMARK INTER:                  -2.012
REMARK INTRA:                  -1.220
REMARK UNBOUND:                -0.762
REMARK SMILES CCCCCC(=O)CCCCC
REMARK SMILES IDX 6 1 7 2 5 3 4 4 3 5 2 6 1 7 8 8 9 9 10 10 11 11 12 12
REMARK H PARENT
REMARK Flexibility Score: inf
ROOT
ATOM      1  C   UNL     1     126.752 110.865 133.933  1.00  0.00     0.132 C 
ATOM      2  O   UNL     1     126.601 111.734 133.087  1.00  0.00    -0.300 OA
ENDROOT
BRANCH   1   3
ATOM      3  C   UNL     1     127.125 109.470 133.501  1.00  0.00     0.075 C 
BRANCH   3   4
ATOM      4  C   UNL     1     125.974 108.489 133.749  1.00  0.00     0.008 C 
BRANCH   4   5
ATOM      5  C   UNL     1     126.374 107.422 134.776  1.00  0.00     0.000 C 
BRANCH   5   6
ATOM      6  C   UNL     1     125.350 107.346 135.915  1.00  0.00    -0.003 C 
ATOM      7  C   UNL     1     126.011 107.597 137.268  1.00  0.00     0.004 C 
ENDBRANCH   5   6
ENDBRANCH   4   5
ENDBRANCH   3   4
ENDBRANCH   1   3
BRANCH   1   8
ATOM      8  C   UNL     1     126.508 111.194 135.387  1.00  0.00     0.075 C 
BRANCH   8   9
ATOM      9  C   UNL     1     125.070 111.662 135.652  1.00  0.00     0.008 C 
BRANCH   9  10
ATOM     10  C   UNL     1     124.376 110.831 136.743  1.00  0.00     0.000 C 
BRANCH  10  11
ATOM     11  C   UNL     1     122.930 110.464 136.376  1.00  0.00    -0.003 C 
ATOM     12  C   UNL     1     122.795 109.955 134.940  1.00  0.00     0.004 C 
ENDBRANCH  10  11
ENDBRANCH   9  10
ENDBRANCH   8   9
ENDBRANCH   1   8
TORSDOF 8
ENDMDL
MODEL 7
REMARK VINA RESULT:    -1.654      1.611      4.081
REMARK INTER + INTRA:          -3.189
REMARK INTER:                  -2.040
REMARK INTRA:                  -1.150
REMARK UNBOUND:                -0.762
REMARK SMILES CCCCCC(=O)CCCCC
REMARK SMILES IDX 6 1 7 2 5 3 4 4 3 5 2 6 1 7 8 8 9 9 10 10 11 11 12 12
REMARK H PARENT
REMARK Flexibility Score: inf
ROOT
ATOM      1  C   UNL     1     123.986 112.618 135.562  1.00  0.00     0.132 C 
ATOM      2  O   UNL     1     123.897 113.836 135.502  1.00  0.00    -0.300 OA
ENDROOT
BRANCH   1   3
ATOM      3  C   UNL     1     124.512 111.977 136.821  1.00  0.00     0.075 C 
BRANCH   3   4
ATOM      4  C   UNL     1     125.987 112.330 137.044  1.00  0.00     0.008 C 
BRANCH   4   5
ATOM      5  C   UNL     1     126.736 111.167 137.707  1.00  0.00     0.000 C 
BRANCH   5   6
ATOM      6  C   UNL     1     125.982 109.846 137.512  1.00  0.00    -0.003 C 
ATOM      7  C   UNL     1     126.348 108.837 138.597  1.00  0.00     0.004 C 
ENDBRANCH   5   6
ENDBRANCH   4   5
ENDBRANCH   3   4
ENDBRANCH   1   3
BRANCH   1   8
ATOM      8  C   UNL     1     123.619 111.787 134.356  1.00  0.00     0.075 C 
BRANCH   8   9
ATOM      9  C   UNL     1     124.609 110.640 134.107  1.00  0.00     0.008 C 
BRANCH   9  10
ATOM     10  C   UNL     1     125.927 111.129 133.484  1.00  0.00     0.000 C 
BRANCH  10  11
ATOM     11  C   UNL     1     127.125 110.248 133.871  1.00  0.00    -0.003 C 
ATOM     12  C   UNL     1     126.754 108.772 134.011  1.00  0.00     0.004 C 
ENDBRANCH  10  11
ENDBRANCH   9  10
ENDBRANCH   8   9
ENDBRANCH   1   8
TORSDOF 8
ENDMDL
MODEL 8
REMARK VINA RESULT:    -1.635      2.094      4.388
REMARK INTER + INTRA:          -3.162
REMARK INTER:                  -1.839
REMARK INTRA:                  -1.323
REMARK UNBOUND:                -0.762
REMARK SMILES CCCCCC(=O)CCCCC
REMARK SMILES IDX 6 1 7 2 5 3 4 4 3 5 2 6 1 7 8 8 9 9 10 10 11 11 12 12
REMARK H PARENT
REMARK Flexibility Score: inf
ROOT
ATOM      1  C   UNL     1     123.218 110.294 134.461  1.00  0.00     0.132 C 
ATOM      2  O   UNL     1     122.622 111.002 133.663  1.00  0.00    -0.300 OA
ENDROOT
BRANCH   1   3
ATOM      3  C   UNL     1     123.605 110.859 135.804  1.00  0.00     0.075 C 
BRANCH   3   4
ATOM      4  C   UNL     1     124.990 111.513 135.749  1.00  0.00     0.008 C 
BRANCH   4   5
ATOM      5  C   UNL     1     126.013 110.703 136.556  1.00  0.00     0.000 C 
BRANCH   5   6
ATOM      6  C   UNL     1     125.330 109.559 137.315  1.00  0.00    -0.003 C 
ATOM      7  C   UNL     1     125.969 108.214 136.975  1.00  0.00     0.004 C 
ENDBRANCH   5   6
ENDBRANCH   4   5
ENDBRANCH   3   4
ENDBRANCH   1   3
BRANCH   1   8
ATOM      8  C   UNL     1     123.602 108.888 134.065  1.00  0.00     0.075 C 
BRANCH   8   9
ATOM      9  C   UNL     1     124.643 108.858 132.936  1.00  0.00     0.008 C 
BRANCH   9  10
ATOM     10  C   UNL     1     125.800 107.890 133.233  1.00  0.00     0.000 C 
BRANCH  10  11
ATOM     11  C   UNL     1     127.119 108.621 133.528  1.00  0.00    -0.003 C 
ATOM     12  C   UNL     1     127.125 110.062 133.019  1.00  0.00     0.004 C 
ENDBRANCH  10  11
ENDBRANCH   9  10
ENDBRANCH   8   9
ENDBRANCH   1   8
TORSDOF 8
ENDMDL
