MODEL 1
REMARK VINA RESULT:    27.818      0.000      0.000
REMARK INTER + INTRA:          33.966
REMARK INTER:                  34.323
REMARK INTRA:                  -0.357
REMARK UNBOUND:                -0.357
REMARK SMILES Oc1cc(O)c2cc(O)c(-c3cc(O)c(O)c(O)c3)[o+]c2c1
REMARK SMILES IDX 10 1 20 2 21 3 22 4 2 5 3 6 4 7 6 8 7 9 8 10 11 11 12 12
REMARK SMILES IDX 13 13 19 14 15 15 17 16 14 17 16 19 18 21 9 23 1 25 5 27
REMARK H PARENT 14 18 16 20 18 22 9 24 1 26 5 28
REMARK Flexibility Score: inf
ROOT
ATOM      1  C   UNL     1       9.283   2.218   8.976  1.00  0.00     0.402 A 
ATOM      2  O   UNL     1      10.136   1.339   8.457  1.00  0.00    -0.202 OA
ATOM      3  C   UNL     1      11.152   1.683   7.673  1.00  0.00     0.368 A 
ATOM      4  C   UNL     1      11.993   0.685   7.173  1.00  0.00     0.162 A 
ATOM      5  C   UNL     1      13.067   1.020   6.343  1.00  0.00     0.128 A 
ATOM      6  C   UNL     1      13.300   2.356   6.010  1.00  0.00     0.093 A 
ATOM      7  C   UNL     1      12.471   3.374   6.498  1.00  0.00     0.136 A 
ATOM      8  C   UNL     1      11.381   3.040   7.343  1.00  0.00     0.125 A 
ATOM      9  C   UNL     1      10.507   3.995   7.889  1.00  0.00     0.078 A 
ATOM     10  C   UNL     1       9.457   3.590   8.718  1.00  0.00     0.223 A 
ENDROOT
BRANCH   1  11
ATOM     11  C   UNL     1       8.184   1.709   9.828  1.00  0.00     0.091 A 
ATOM     12  C   UNL     1       6.896   1.574   9.286  1.00  0.00     0.068 A 
ATOM     13  C   UNL     1       5.834   1.114  10.076  1.00  0.00     0.162 A 
ATOM     14  C   UNL     1       8.389   1.409  11.186  1.00  0.00     0.068 A 
ATOM     15  C   UNL     1       6.053   0.796  11.427  1.00  0.00     0.200 A 
ATOM     16  C   UNL     1       7.330   0.949  11.981  1.00  0.00     0.162 A 
BRANCH  13  17
ATOM     17  O   UNL     1       4.562   0.970   9.523  1.00  0.00    -0.504 OA
ATOM     18  H   UNL     1       4.431   0.696   8.555  1.00  0.00     0.293 HD
ENDBRANCH  13  17
BRANCH  15  19
ATOM     19  O   UNL     1       5.012   0.333  12.233  1.00  0.00    -0.502 OA
ATOM     20  H   UNL     1       4.119   0.809  12.285  1.00  0.00     0.293 HD
ENDBRANCH  15  19
BRANCH  16  21
ATOM     21  O   UNL     1       7.539   0.647  13.325  1.00  0.00    -0.504 OA
ATOM     22  H   UNL     1       8.444   0.774  13.763  1.00  0.00     0.293 HD
ENDBRANCH  16  21
ENDBRANCH   1  11
BRANCH  10  23
ATOM     23  O   UNL     1       8.618   4.541   9.300  1.00  0.00    -0.500 OA
ATOM     24  H   UNL     1       7.625   4.567   9.101  1.00  0.00     0.294 HD
ENDBRANCH  10  23
BRANCH   5  25
ATOM     25  O   UNL     1      13.911   0.030   5.841  1.00  0.00    -0.507 OA
ATOM     26  H   UNL     1      13.849  -0.930   6.158  1.00  0.00     0.293 HD
ENDBRANCH   5  25
BRANCH   7  27
ATOM     27  O   UNL     1      12.769   4.685   6.117  1.00  0.00    -0.507 OA
ATOM     28  H   UNL     1      13.529   4.942   5.503  1.00  0.00     0.293 HD
ENDBRANCH   7  27
TORSDOF 7
ENDMDL
MODEL 2
REMARK VINA RESULT:    28.402      1.060      2.552
REMARK INTER + INTRA:          34.687
REMARK INTER:                  35.046
REMARK INTRA:                  -0.359
REMARK UNBOUND:                -0.357
REMARK SMILES Oc1cc(O)c2cc(O)c(-c3cc(O)c(O)c(O)c3)[o+]c2c1
REMARK SMILES IDX 10 1 20 2 21 3 22 4 2 5 3 6 4 7 6 8 7 9 8 10 11 11 12 12
REMARK SMILES IDX 13 13 19 14 15 15 17 16 14 17 16 19 18 21 9 23 1 25 5 27
REMARK H PARENT 14 18 16 20 18 22 9 24 1 26 5 28
REMARK Flexibility Score: inf
ROOT
ATOM      1  C   UNL     1       9.164   1.407   9.142  1.00  0.00     0.402 A 
ATOM      2  O   UNL     1       9.441   2.614   8.656  1.00  0.00    -0.202 OA
ATOM      3  C   UNL     1      10.482   2.862   7.868  1.00  0.00     0.368 A 
ATOM      4  C   UNL     1      10.691   4.166   7.409  1.00  0.00     0.162 A 
ATOM      5  C   UNL     1      11.781   4.455   6.583  1.00  0.00     0.128 A 
ATOM      6  C   UNL     1      12.664   3.439   6.215  1.00  0.00     0.093 A 
ATOM      7  C   UNL     1      12.477   2.125   6.662  1.00  0.00     0.136 A 
ATOM      8  C   UNL     1      11.371   1.825   7.499  1.00  0.00     0.125 A 
ATOM      9  C   UNL     1      11.097   0.535   7.983  1.00  0.00     0.078 A 
ATOM     10  C   UNL     1       9.985   0.316   8.801  1.00  0.00     0.223 A 
ENDROOT
BRANCH   1  11
ATOM     11  C   UNL     1       7.980   1.259  10.018  1.00  0.00     0.091 A 
ATOM     12  C   UNL     1       6.696   1.254   9.448  1.00  0.00     0.068 A 
ATOM     13  C   UNL     1       5.558   1.136  10.256  1.00  0.00     0.162 A 
ATOM     14  C   UNL     1       8.107   1.180  11.416  1.00  0.00     0.068 A 
ATOM     15  C   UNL     1       5.696   1.035  11.650  1.00  0.00     0.200 A 
ATOM     16  C   UNL     1       6.972   1.062  12.228  1.00  0.00     0.162 A 
BRANCH  13  17
ATOM     17  O   UNL     1       4.289   1.118   9.678  1.00  0.00    -0.504 OA
ATOM     18  H   UNL     1       3.456   0.938  10.228  1.00  0.00     0.293 HD
ENDBRANCH  13  17
BRANCH  15  19
ATOM     19  O   UNL     1       4.577   0.914  12.475  1.00  0.00    -0.502 OA
ATOM     20  H   UNL     1       4.459   1.477  13.310  1.00  0.00     0.293 HD
ENDBRANCH  15  19
BRANCH  16  21
ATOM     21  O   UNL     1       7.103   0.977  13.613  1.00  0.00    -0.504 OA
ATOM     22  H   UNL     1       8.004   0.828  14.052  1.00  0.00     0.293 HD
ENDBRANCH  16  21
ENDBRANCH   1  11
BRANCH  10  23
ATOM     23  O   UNL     1       9.684  -0.973   9.242  1.00  0.00    -0.500 OA
ATOM     24  H   UNL     1       9.173  -1.629   8.662  1.00  0.00     0.294 HD
ENDBRANCH  10  23
BRANCH   5  25
ATOM     25  O   UNL     1      11.996   5.753   6.120  1.00  0.00    -0.507 OA
ATOM     26  H   UNL     1      12.784   6.305   6.439  1.00  0.00     0.293 HD
ENDBRANCH   5  25
BRANCH   7  27
ATOM     27  O   UNL     1      13.407   1.166   6.251  1.00  0.00    -0.507 OA
ATOM     28  H   UNL     1      13.458   0.226   6.617  1.00  0.00     0.293 HD
ENDBRANCH   7  27
TORSDOF 7
ENDMDL
MODEL 3
REMARK VINA RESULT:    29.121      1.509      7.258
REMARK INTER + INTRA:          35.574
REMARK INTER:                  35.957
REMARK INTRA:                  -0.383
REMARK UNBOUND:                -0.357
REMARK SMILES Oc1cc(O)c2cc(O)c(-c3cc(O)c(O)c(O)c3)[o+]c2c1
REMARK SMILES IDX 10 1 20 2 21 3 22 4 2 5 3 6 4 7 6 8 7 9 8 10 11 11 12 12
REMARK SMILES IDX 13 13 19 14 15 15 17 16 14 17 16 19 18 21 9 23 1 25 5 27
REMARK H PARENT 14 18 16 20 18 22 9 24 1 26 5 28
REMARK Flexibility Score: inf
ROOT
ATOM      1  C   UNL     1       8.641   1.676   9.198  1.00  0.00     0.402 A 
ATOM      2  O   UNL     1       7.469   1.775   8.575  1.00  0.00    -0.202 OA
ATOM      3  C   UNL     1       6.303   1.564   9.175  1.00  0.00     0.368 A 
ATOM      4  C   UNL     1       5.124   1.690   8.435  1.00  0.00     0.162 A 
ATOM      5  C   UNL     1       3.884   1.470   9.041  1.00  0.00     0.128 A 
ATOM      6  C   UNL     1       3.823   1.121  10.392  1.00  0.00     0.093 A 
ATOM      7  C   UNL     1       4.989   0.988  11.155  1.00  0.00     0.136 A 
ATOM      8  C   UNL     1       6.250   1.214  10.546  1.00  0.00     0.125 A 
ATOM      9  C   UNL     1       7.469   1.116  11.236  1.00  0.00     0.078 A 
ATOM     10  C   UNL     1       8.674   1.358  10.568  1.00  0.00     0.223 A 
ENDROOT
BRANCH   1  11
ATOM     11  C   UNL     1       9.873   1.927   8.417  1.00  0.00     0.091 A 
ATOM     12  C   UNL     1      10.297   3.248   8.201  1.00  0.00     0.068 A 
ATOM     13  C   UNL     1      11.449   3.513   7.448  1.00  0.00     0.162 A 
ATOM     14  C   UNL     1      10.599   0.872   7.837  1.00  0.00     0.068 A 
ATOM     15  C   UNL     1      12.181   2.452   6.890  1.00  0.00     0.200 A 
ATOM     16  C   UNL     1      11.752   1.132   7.082  1.00  0.00     0.162 A 
BRANCH  13  17
ATOM     17  O   UNL     1      11.869   4.829   7.253  1.00  0.00    -0.504 OA
ATOM     18  H   UNL     1      11.434   5.603   7.742  1.00  0.00     0.293 HD
ENDBRANCH  13  17
BRANCH  15  19
ATOM     19  O   UNL     1      13.332   2.691   6.140  1.00  0.00    -0.502 OA
ATOM     20  H   UNL     1      13.366   3.397   5.414  1.00  0.00     0.293 HD
ENDBRANCH  15  19
BRANCH  16  21
ATOM     21  O   UNL     1      12.472   0.084   6.514  1.00  0.00    -0.504 OA
ATOM     22  H   UNL     1      12.670  -0.765   7.031  1.00  0.00     0.293 HD
ENDBRANCH  16  21
ENDBRANCH   1  11
BRANCH  10  23
ATOM     23  O   UNL     1       9.882   1.310  11.264  1.00  0.00    -0.500 OA
ATOM     24  H   UNL     1      10.753   1.608  10.839  1.00  0.00     0.294 HD
ENDBRANCH  10  23
BRANCH   5  25
ATOM     25  O   UNL     1       2.705   1.594   8.309  1.00  0.00    -0.507 OA
ATOM     26  H   UNL     1       2.144   2.437   8.346  1.00  0.00     0.293 HD
ENDBRANCH   5  25
BRANCH   7  27
ATOM     27  O   UNL     1       4.842   0.634  12.499  1.00  0.00    -0.507 OA
ATOM     28  H   UNL     1       5.578   0.248  13.072  1.00  0.00     0.293 HD
ENDBRANCH   7  27
TORSDOF 7
ENDMDL
MODEL 4
REMARK VINA RESULT:    30.392      4.821      8.145
REMARK INTER + INTRA:          37.142
REMARK INTER:                  37.506
REMARK INTRA:                  -0.364
REMARK UNBOUND:                -0.357
REMARK SMILES Oc1cc(O)c2cc(O)c(-c3cc(O)c(O)c(O)c3)[o+]c2c1
REMARK SMILES IDX 10 1 20 2 21 3 22 4 2 5 3 6 4 7 6 8 7 9 8 10 11 11 12 12
REMARK SMILES IDX 13 13 19 14 15 15 17 16 14 17 16 19 18 21 9 23 1 25 5 27
REMARK H PARENT 14 18 16 20 18 22 9 24 1 26 5 28
REMARK Flexibility Score: inf
ROOT
ATOM      1  C   UNL     1      14.798   2.934   9.026  1.00  0.00     0.402 A 
ATOM      2  O   UNL     1      13.956   3.838   8.531  1.00  0.00    -0.202 OA
ATOM      3  C   UNL     1      12.943   3.530   7.728  1.00  0.00     0.368 A 
ATOM      4  C   UNL     1      12.114   4.552   7.258  1.00  0.00     0.162 A 
ATOM      5  C   UNL     1      11.044   4.255   6.408  1.00  0.00     0.128 A 
ATOM      6  C   UNL     1      10.804   2.934   6.026  1.00  0.00     0.093 A 
ATOM      7  C   UNL     1      11.621   1.893   6.482  1.00  0.00     0.136 A 
ATOM      8  C   UNL     1      12.707   2.187   7.348  1.00  0.00     0.125 A 
ATOM      9  C   UNL     1      13.569   1.207   7.865  1.00  0.00     0.078 A 
ATOM     10  C   UNL     1      14.616   1.573   8.717  1.00  0.00     0.223 A 
ENDROOT
BRANCH   1  11
ATOM     11  C   UNL     1      15.893   3.404   9.904  1.00  0.00     0.091 A 
ATOM     12  C   UNL     1      17.180   3.577   9.369  1.00  0.00     0.068 A 
ATOM     13  C   UNL     1      18.239   4.001  10.184  1.00  0.00     0.162 A 
ATOM     14  C   UNL     1      15.687   3.627  11.276  1.00  0.00     0.068 A 
ATOM     15  C   UNL     1      18.019   4.242  11.549  1.00  0.00     0.200 A 
ATOM     16  C   UNL     1      16.743   4.050  12.095  1.00  0.00     0.162 A 
BRANCH  13  17
ATOM     17  O   UNL     1      19.510   4.183   9.639  1.00  0.00    -0.504 OA
ATOM     18  H   UNL     1      20.303   3.628   9.941  1.00  0.00     0.293 HD
ENDBRANCH  13  17
BRANCH  15  19
ATOM     19  O   UNL     1      19.057   4.668  12.379  1.00  0.00    -0.502 OA
ATOM     20  H   UNL     1      19.228   4.250  13.286  1.00  0.00     0.293 HD
ENDBRANCH  15  19
BRANCH  16  21
ATOM     21  O   UNL     1      16.533   4.277  13.453  1.00  0.00    -0.504 OA
ATOM     22  H   UNL     1      15.703   4.749  13.790  1.00  0.00     0.293 HD
ENDBRANCH  16  21
ENDBRANCH   1  11
BRANCH  10  23
ATOM     23  O   UNL     1      15.443   0.596   9.271  1.00  0.00    -0.500 OA
ATOM     24  H   UNL     1      16.323   0.832   9.713  1.00  0.00     0.294 HD
ENDBRANCH  10  23
BRANCH   5  25
ATOM     25  O   UNL     1      10.212   5.269   5.935  1.00  0.00    -0.507 OA
ATOM     26  H   UNL     1       9.878   6.007   6.544  1.00  0.00     0.293 HD
ENDBRANCH   5  25
BRANCH   7  27
ATOM     27  O   UNL     1      11.316   0.599   6.052  1.00  0.00    -0.507 OA
ATOM     28  H   UNL     1      11.417   0.274   5.101  1.00  0.00     0.293 HD
ENDBRANCH   7  27
TORSDOF 7
ENDMDL
