MODEL 1
REMARK VINA RESULT:    -3.693      0.000      0.000
REMARK INTER + INTRA:          -5.378
REMARK INTER:                  -4.989
REMARK INTRA:                  -0.389
REMARK UNBOUND:                -0.389
REMARK SMILES CCCCCCCC(=O)[O-]
REMARK SMILES IDX 5 1 6 2 7 3 8 4 9 5 10 6 4 7 3 8 2 9 1 10
REMARK H PARENT
REMARK Flexibility Score: inf
ROOT
ATOM      1  C   UNL     1       0.263   1.404  -5.450  1.00  0.00     0.000 C 
ENDROOT
BRANCH   1   2
ATOM      2  C   UNL     1       0.042   0.618  -4.147  1.00  0.00     0.006 C 
BRANCH   2   3
ATOM      3  C   UNL     1      -0.203  -0.876  -4.395  1.00  0.00     0.053 C 
BRANCH   3   4
ATOM      4  C   UNL     1       1.009  -1.510  -5.001  1.00  0.00     0.041 C 
ATOM      5  O   UNL     1       0.971  -1.949  -6.180  1.00  0.00    -0.550 OA
ATOM      6  O   UNL     1       2.195  -1.573  -4.281  1.00  0.00    -0.550 OA
ENDBRANCH   3   4
ENDBRANCH   2   3
ENDBRANCH   1   2
BRANCH   1   7
ATOM      7  C   UNL     1       1.580   2.199  -5.443  1.00  0.00     0.000 C 
BRANCH   7   8
ATOM      8  C   UNL     1       2.396   1.979  -4.159  1.00  0.00    -0.000 C 
BRANCH   8   9
ATOM      9  C   UNL     1       3.730   2.739  -4.170  1.00  0.00    -0.003 C 
ATOM     10  C   UNL     1       3.556   4.159  -3.638  1.00  0.00     0.004 C 
ENDBRANCH   8   9
ENDBRANCH   7   8
ENDBRANCH   1   7
TORSDOF 6
ENDMDL
MODEL 2
REMARK VINA RESULT:    -3.693      3.492      4.324
REMARK INTER + INTRA:          -5.377
REMARK INTER:                  -5.109
REMARK INTRA:                  -0.268
REMARK UNBOUND:                -0.389
REMARK SMILES CCCCCCCC(=O)[O-]
REMARK SMILES IDX 5 1 6 2 7 3 8 4 9 5 10 6 4 7 3 8 2 9 1 10
REMARK H PARENT
REMARK Flexibility Score: inf
ROOT
ATOM      1  C   UNL     1       3.930   2.198  -4.073  1.00  0.00     0.000 C 
ENDROOT
BRANCH   1   2
ATOM      2  C   UNL     1       5.429   2.037  -3.769  1.00  0.00     0.006 C 
BRANCH   2   3
ATOM      3  C   UNL     1       5.711   0.898  -2.781  1.00  0.00     0.053 C 
BRANCH   3   4
ATOM      4  C   UNL     1       5.413  -0.425  -3.412  1.00  0.00     0.041 C 
ATOM      5  O   UNL     1       6.186  -0.901  -4.284  1.00  0.00    -0.550 OA
ATOM      6  O   UNL     1       4.305  -1.157  -3.003  1.00  0.00    -0.550 OA
ENDBRANCH   3   4
ENDBRANCH   2   3
ENDBRANCH   1   2
BRANCH   1   7
ATOM      7  C   UNL     1       3.439   3.642  -3.875  1.00  0.00     0.000 C 
BRANCH   7   8
ATOM      8  C   UNL     1       4.542   4.681  -4.138  1.00  0.00    -0.000 C 
BRANCH   8   9
ATOM      9  C   UNL     1       4.282   6.011  -3.416  1.00  0.00    -0.003 C 
ATOM     10  C   UNL     1       2.932   6.600  -3.819  1.00  0.00     0.004 C 
ENDBRANCH   8   9
ENDBRANCH   7   8
ENDBRANCH   1   7
TORSDOF 6
ENDMDL
MODEL 3
REMARK VINA RESULT:    -3.637      1.989      2.650
REMARK INTER + INTRA:          -5.302
REMARK INTER:                  -4.839
REMARK INTRA:                  -0.462
REMARK UNBOUND:                -0.389
REMARK SMILES CCCCCCCC(=O)[O-]
REMARK SMILES IDX 5 1 6 2 7 3 8 4 9 5 10 6 4 7 3 8 2 9 1 10
REMARK H PARENT
REMARK Flexibility Score: inf
ROOT
ATOM      1  C   UNL     1       2.188   1.761  -4.160  1.00  0.00     0.000 C 
ENDROOT
BRANCH   1   2
ATOM      2  C   UNL     1       0.944   0.939  -4.534  1.00  0.00     0.006 C 
BRANCH   2   3
ATOM      3  C   UNL     1       1.290  -0.324  -5.333  1.00  0.00     0.053 C 
BRANCH   3   4
ATOM      4  C   UNL     1       0.928  -1.549  -4.554  1.00  0.00     0.041 C 
ATOM      5  O   UNL     1       0.155  -1.465  -3.564  1.00  0.00    -0.550 OA
ATOM      6  O   UNL     1       1.405  -2.791  -4.950  1.00  0.00    -0.550 OA
ENDBRANCH   3   4
ENDBRANCH   2   3
ENDBRANCH   1   2
BRANCH   1   7
ATOM      7  C   UNL     1       3.490   1.133  -4.686  1.00  0.00     0.000 C 
BRANCH   7   8
ATOM      8  C   UNL     1       4.698   1.437  -3.785  1.00  0.00    -0.000 C 
BRANCH   8   9
ATOM      9  C   UNL     1       5.265   0.177  -3.116  1.00  0.00    -0.003 C 
ATOM     10  C   UNL     1       4.606  -1.083  -3.671  1.00  0.00     0.004 C 
ENDBRANCH   8   9
ENDBRANCH   7   8
ENDBRANCH   1   7
TORSDOF 6
ENDMDL
MODEL 4
REMARK VINA RESULT:    -3.579      2.239      4.106
REMARK INTER + INTRA:          -5.224
REMARK INTER:                  -4.856
REMARK INTRA:                  -0.368
REMARK UNBOUND:                -0.389
REMARK SMILES CCCCCCCC(=O)[O-]
REMARK SMILES IDX 5 1 6 2 7 3 8 4 9 5 10 6 4 7 3 8 2 9 1 10
REMARK H PARENT
REMARK Flexibility Score: inf
ROOT
ATOM      1  C   UNL     1       4.635   2.452  -3.766  1.00  0.00     0.000 C 
ENDROOT
BRANCH   1   2
ATOM      2  C   UNL     1       5.623   1.287  -3.940  1.00  0.00     0.006 C 
BRANCH   2   3
ATOM      3  C   UNL     1       5.280   0.085  -3.052  1.00  0.00     0.053 C 
BRANCH   3   4
ATOM      4  C   UNL     1       4.849  -1.077  -3.890  1.00  0.00     0.041 C 
ATOM      5  O   UNL     1       5.642  -1.583  -4.727  1.00  0.00    -0.550 OA
ATOM      6  O   UNL     1       3.588  -1.632  -3.715  1.00  0.00    -0.550 OA
ENDBRANCH   3   4
ENDBRANCH   2   3
ENDBRANCH   1   2
BRANCH   1   7
ATOM      7  C   UNL     1       3.475   2.398  -4.774  1.00  0.00     0.000 C 
BRANCH   7   8
ATOM      8  C   UNL     1       2.142   1.999  -4.120  1.00  0.00    -0.000 C 
BRANCH   8   9
ATOM      9  C   UNL     1       1.457   0.832  -4.846  1.00  0.00    -0.003 C 
ATOM     10  C   UNL     1      -0.009   0.715  -4.434  1.00  0.00     0.004 C 
ENDBRANCH   8   9
ENDBRANCH   7   8
ENDBRANCH   1   7
TORSDOF 6
ENDMDL
MODEL 5
REMARK VINA RESULT:    -3.578      1.908      3.992
REMARK INTER + INTRA:          -5.222
REMARK INTER:                  -4.750
REMARK INTRA:                  -0.473
REMARK UNBOUND:                -0.389
REMARK SMILES CCCCCCCC(=O)[O-]
REMARK SMILES IDX 5 1 6 2 7 3 8 4 9 5 10 6 4 7 3 8 2 9 1 10
REMARK H PARENT
REMARK Flexibility Score: inf
ROOT
ATOM      1  C   UNL     1       2.404   1.764  -4.264  1.00  0.00     0.000 C 
ENDROOT
BRANCH   1   2
ATOM      2  C   UNL     1       3.709   1.193  -4.842  1.00  0.00     0.006 C 
BRANCH   2   3
ATOM      3  C   UNL     1       4.523   0.413  -3.801  1.00  0.00     0.053 C 
BRANCH   3   4
ATOM      4  C   UNL     1       4.446  -1.056  -4.073  1.00  0.00     0.041 C 
ATOM      5  O   UNL     1       5.445  -1.668  -4.534  1.00  0.00    -0.550 OA
ATOM      6  O   UNL     1       3.287  -1.759  -3.774  1.00  0.00    -0.550 OA
ENDBRANCH   3   4
ENDBRANCH   2   3
ENDBRANCH   1   2
BRANCH   1   7
ATOM      7  C   UNL     1       1.165   1.340  -5.072  1.00  0.00     0.000 C 
BRANCH   7   8
ATOM      8  C   UNL     1       0.144   0.566  -4.224  1.00  0.00    -0.000 C 
BRANCH   8   9
ATOM      9  C   UNL     1      -0.066  -0.872  -4.721  1.00  0.00    -0.003 C 
ATOM     10  C   UNL     1       0.718  -1.128  -6.005  1.00  0.00     0.004 C 
ENDBRANCH   8   9
ENDBRANCH   7   8
ENDBRANCH   1   7
TORSDOF 6
ENDMDL
MODEL 6
REMARK VINA RESULT:    -3.453      2.608      3.749
REMARK INTER + INTRA:          -5.053
REMARK INTER:                  -4.624
REMARK INTRA:                  -0.429
REMARK UNBOUND:                -0.389
REMARK SMILES CCCCCCCC(=O)[O-]
REMARK SMILES IDX 5 1 6 2 7 3 8 4 9 5 10 6 4 7 3 8 2 9 1 10
REMARK H PARENT
REMARK Flexibility Score: inf
ROOT
ATOM      1  C   UNL     1       5.547   1.343  -2.994  1.00  0.00     0.000 C 
ENDROOT
BRANCH   1   2
ATOM      2  C   UNL     1       5.411  -0.142  -3.367  1.00  0.00     0.006 C 
BRANCH   2   3
ATOM      3  C   UNL     1       4.616  -0.355  -4.662  1.00  0.00     0.053 C 
BRANCH   3   4
ATOM      4  C   UNL     1       3.163  -0.541  -4.357  1.00  0.00     0.041 C 
ATOM      5  O   UNL     1       2.695  -1.697  -4.186  1.00  0.00    -0.550 OA
ATOM      6  O   UNL     1       2.335   0.565  -4.214  1.00  0.00    -0.550 OA
ENDBRANCH   3   4
ENDBRANCH   2   3
ENDBRANCH   1   2
BRANCH   1   7
ATOM      7  C   UNL     1       6.186   2.177  -4.117  1.00  0.00     0.000 C 
BRANCH   7   8
ATOM      8  C   UNL     1       5.298   3.352  -4.559  1.00  0.00    -0.000 C 
BRANCH   8   9
ATOM      9  C   UNL     1       4.106   3.576  -3.618  1.00  0.00    -0.003 C 
ATOM     10  C   UNL     1       3.697   5.046  -3.591  1.00  0.00     0.004 C 
ENDBRANCH   8   9
ENDBRANCH   7   8
ENDBRANCH   1   7
TORSDOF 6
ENDMDL
MODEL 7
REMARK VINA RESULT:    -3.428     14.739     15.848
REMARK INTER + INTRA:          -5.020
REMARK INTER:                  -4.650
REMARK INTRA:                  -0.370
REMARK UNBOUND:                -0.389
REMARK SMILES CCCCCCCC(=O)[O-]
REMARK SMILES IDX 5 1 6 2 7 3 8 4 9 5 10 6 4 7 3 8 2 9 1 10
REMARK H PARENT
REMARK Flexibility Score: inf
ROOT
ATOM      1  C   UNL     1       7.225  -7.278   5.966  1.00  0.00     0.000 C 
ENDROOT
BRANCH   1   2
ATOM      2  C   UNL     1       7.196  -7.502   4.446  1.00  0.00     0.006 C 
BRANCH   2   3
ATOM      3  C   UNL     1       8.462  -8.197   3.928  1.00  0.00     0.053 C 
BRANCH   3   4
ATOM      4  C   UNL     1       8.162  -9.611   3.545  1.00  0.00     0.041 C 
ATOM      5  O   UNL     1       7.774 -10.435   4.416  1.00  0.00    -0.550 OA
ATOM      6  O   UNL     1       8.263 -10.010   2.219  1.00  0.00    -0.550 OA
ENDBRANCH   3   4
ENDBRANCH   2   3
ENDBRANCH   1   2
BRANCH   1   7
ATOM      7  C   UNL     1       8.573  -7.669   6.595  1.00  0.00     0.000 C 
BRANCH   7   8
ATOM      8  C   UNL     1       8.413  -8.322   7.978  1.00  0.00    -0.000 C 
BRANCH   8   9
ATOM      9  C   UNL     1       8.181  -9.837   7.891  1.00  0.00    -0.003 C 
ATOM     10  C   UNL     1       7.658 -10.389   9.215  1.00  0.00     0.004 C 
ENDBRANCH   8   9
ENDBRANCH   7   8
ENDBRANCH   1   7
TORSDOF 6
ENDMDL
MODEL 8
REMARK VINA RESULT:    -3.388     14.474     15.722
REMARK INTER + INTRA:          -4.966
REMARK INTER:                  -4.593
REMARK INTRA:                  -0.373
REMARK UNBOUND:                -0.389
REMARK SMILES CCCCCCCC(=O)[O-]
REMARK SMILES IDX 5 1 6 2 7 3 8 4 9 5 10 6 4 7 3 8 2 9 1 10
REMARK H PARENT
REMARK Flexibility Score: inf
ROOT
ATOM      1  C   UNL     1       6.911  -7.975   4.773  1.00  0.00     0.000 C 
ENDROOT
BRANCH   1   2
ATOM      2  C   UNL     1       7.303  -7.229   6.058  1.00  0.00     0.006 C 
BRANCH   2   3
ATOM      3  C   UNL     1       8.590  -7.777   6.689  1.00  0.00     0.053 C 
BRANCH   3   4
ATOM      4  C   UNL     1       8.263  -8.743   7.784  1.00  0.00     0.041 C 
ATOM      5  O   UNL     1       8.041  -9.953   7.517  1.00  0.00    -0.550 OA
ATOM      6  O   UNL     1       8.252  -8.316   9.106  1.00  0.00    -0.550 OA
ENDBRANCH   3   4
ENDBRANCH   2   3
ENDBRANCH   1   2
BRANCH   1   7
ATOM      7  C   UNL     1       7.672  -7.463   3.538  1.00  0.00     0.000 C 
BRANCH   7   8
ATOM      8  C   UNL     1       8.790  -8.422   3.094  1.00  0.00    -0.000 C 
BRANCH   8   9
ATOM      9  C   UNL     1       8.541  -9.867   3.549  1.00  0.00    -0.003 C 
ATOM     10  C   UNL     1       8.396 -10.802   2.351  1.00  0.00     0.004 C 
ENDBRANCH   8   9
ENDBRANCH   7   8
ENDBRANCH   1   7
TORSDOF 6
ENDMDL
MODEL 9
REMARK VINA RESULT:    -3.373     16.476     17.519
REMARK INTER + INTRA:          -4.945
REMARK INTER:                  -4.719
REMARK INTRA:                  -0.226
REMARK UNBOUND:                -0.389
REMARK SMILES CCCCCCCC(=O)[O-]
REMARK SMILES IDX 5 1 6 2 7 3 8 4 9 5 10 6 4 7 3 8 2 9 1 10
REMARK H PARENT
REMARK Flexibility Score: inf
ROOT
ATOM      1  C   UNL     1       8.341  -9.725   7.217  1.00  0.00     0.000 C 
ENDROOT
BRANCH   1   2
ATOM      2  C   UNL     1       8.303  -9.049   8.598  1.00  0.00     0.006 C 
BRANCH   2   3
ATOM      3  C   UNL     1       7.652  -9.934   9.669  1.00  0.00     0.053 C 
BRANCH   3   4
ATOM      4  C   UNL     1       7.901  -9.370  11.032  1.00  0.00     0.041 C 
ATOM      5  O   UNL     1       8.220  -8.160  11.169  1.00  0.00    -0.550 OA
ATOM      6  O   UNL     1       7.734 -10.169  12.156  1.00  0.00    -0.550 OA
ENDBRANCH   3   4
ENDBRANCH   2   3
ENDBRANCH   1   2
BRANCH   1   7
ATOM      7  C   UNL     1       8.474  -8.711   6.067  1.00  0.00     0.000 C 
BRANCH   7   8
ATOM      8  C   UNL     1       7.573  -7.480   6.258  1.00  0.00    -0.000 C 
BRANCH   8   9
ATOM      9  C   UNL     1       7.186  -6.821   4.927  1.00  0.00    -0.003 C 
ATOM     10  C   UNL     1       7.686  -7.643   3.742  1.00  0.00     0.004 C 
ENDBRANCH   8   9
ENDBRANCH   7   8
ENDBRANCH   1   7
TORSDOF 6
ENDMDL
