MODEL 1
REMARK VINA RESULT:    -6.045      0.000      0.000
REMARK INTER + INTRA:          -7.369
REMARK INTER:                  -7.106
REMARK INTRA:                  -0.263
REMARK UNBOUND:                -0.263
REMARK SMILES O=c1c(O)c(-c2ccc(O)cc2)oc2cc(O)cc(O)c12
REMARK SMILES IDX 5 1 3 2 2 3 1 4 21 5 19 6 18 7 16 8 15 9 14 10 13 11 6 12
REMARK SMILES IDX 7 13 8 14 9 15 12 16 11 17 10 18 4 20 20 22 17 24
REMARK H PARENT 10 19 4 21 20 23 17 25
REMARK Flexibility Score: inf
ROOT
ATOM      1  C   UNL     1      18.779  40.976   6.229  1.00  0.00     0.180 A 
ATOM      2  C   UNL     1      19.080  41.225   4.876  1.00  0.00     0.208 A 
ATOM      3  C   UNL     1      20.002  40.392   4.223  1.00  0.00     0.238 A 
ATOM      4  O   UNL     1      20.287  40.611   3.014  1.00  0.00    -0.285 OA
ATOM      5  C   UNL     1      20.588  39.317   4.922  1.00  0.00     0.111 A 
ATOM      6  C   UNL     1      21.521  38.429   4.336  1.00  0.00     0.134 A 
ATOM      7  C   UNL     1      22.054  37.377   5.096  1.00  0.00     0.093 A 
ATOM      8  C   UNL     1      21.670  37.197   6.431  1.00  0.00     0.123 A 
ATOM      9  C   UNL     1      20.751  38.071   7.013  1.00  0.00     0.094 A 
ATOM     10  C   UNL     1      20.210  39.126   6.272  1.00  0.00     0.146 A 
ATOM     11  O   UNL     1      19.340  39.945   6.853  1.00  0.00    -0.452 OA
ENDROOT
BRANCH   1  12
ATOM     12  C   UNL     1      17.833  41.822   6.993  1.00  0.00     0.021 A 
ATOM     13  C   UNL     1      18.289  42.807   7.889  1.00  0.00     0.016 A 
ATOM     14  C   UNL     1      17.376  43.577   8.617  1.00  0.00     0.047 A 
ATOM     15  C   UNL     1      15.999  43.363   8.469  1.00  0.00     0.115 A 
ATOM     16  C   UNL     1      16.452  41.601   6.868  1.00  0.00     0.016 A 
ATOM     17  C   UNL     1      15.541  42.373   7.596  1.00  0.00     0.047 A 
BRANCH  15  18
ATOM     18  O   UNL     1      15.081  44.125   9.189  1.00  0.00    -0.508 OA
ATOM     19  H   UNL     1      14.679  43.790  10.056  1.00  0.00     0.293 HD
ENDBRANCH  15  18
ENDBRANCH   1  12
BRANCH   2  20
ATOM     20  O   UNL     1      18.448  42.265   4.191  1.00  0.00    -0.502 OA
ATOM     21  H   UNL     1      17.440  42.362   4.162  1.00  0.00     0.293 HD
ENDBRANCH   2  20
BRANCH   6  22
ATOM     22  O   UNL     1      21.923  38.582   3.008  1.00  0.00    -0.507 OA
ATOM     23  H   UNL     1      22.410  39.411   2.690  1.00  0.00     0.293 HD
ENDBRANCH   6  22
BRANCH   8  24
ATOM     24  O   UNL     1      22.198  36.153   7.187  1.00  0.00    -0.508 OA
ATOM     25  H   UNL     1      22.912  35.537   6.814  1.00  0.00     0.293 HD
ENDBRANCH   8  24
TORSDOF 5
ENDMDL
MODEL 2
REMARK VINA RESULT:    -5.955      3.408      5.071
REMARK INTER + INTRA:          -7.263
REMARK INTER:                  -7.311
REMARK INTRA:                   0.048
REMARK UNBOUND:                -0.263
REMARK SMILES O=c1c(O)c(-c2ccc(O)cc2)oc2cc(O)cc(O)c12
REMARK SMILES IDX 5 1 3 2 2 3 1 4 21 5 19 6 18 7 16 8 15 9 14 10 13 11 6 12
REMARK SMILES IDX 7 13 8 14 9 15 12 16 11 17 10 18 4 20 20 22 17 24
REMARK H PARENT 10 19 4 21 20 23 17 25
REMARK Flexibility Score: inf
ROOT
ATOM      1  C   UNL     1      20.995  41.017   4.791  1.00  0.00     0.180 A 
ATOM      2  C   UNL     1      21.194  41.668   6.023  1.00  0.00     0.208 A 
ATOM      3  C   UNL     1      21.396  40.892   7.175  1.00  0.00     0.238 A 
ATOM      4  O   UNL     1      21.565  41.464   8.286  1.00  0.00    -0.285 OA
ATOM      5  C   UNL     1      21.417  39.486   7.073  1.00  0.00     0.111 A 
ATOM      6  C   UNL     1      21.619  38.632   8.184  1.00  0.00     0.134 A 
ATOM      7  C   UNL     1      21.635  37.241   8.000  1.00  0.00     0.093 A 
ATOM      8  C   UNL     1      21.454  36.689   6.726  1.00  0.00     0.123 A 
ATOM      9  C   UNL     1      21.254  37.528   5.628  1.00  0.00     0.094 A 
ATOM     10  C   UNL     1      21.233  38.916   5.792  1.00  0.00     0.146 A 
ATOM     11  O   UNL     1      21.036  39.689   4.730  1.00  0.00    -0.452 OA
ENDROOT
BRANCH   1  12
ATOM     12  C   UNL     1      20.757  41.764   3.535  1.00  0.00     0.021 A 
ATOM     13  C   UNL     1      19.831  42.822   3.476  1.00  0.00     0.016 A 
ATOM     14  C   UNL     1      19.605  43.499   2.273  1.00  0.00     0.047 A 
ATOM     15  C   UNL     1      20.291  43.117   1.112  1.00  0.00     0.115 A 
ATOM     16  C   UNL     1      21.424  41.377   2.361  1.00  0.00     0.016 A 
ATOM     17  C   UNL     1      21.197  42.055   1.159  1.00  0.00     0.047 A 
BRANCH  15  18
ATOM     18  O   UNL     1      20.074  43.784  -0.092  1.00  0.00    -0.508 OA
ATOM     19  H   UNL     1      20.481  43.457  -0.960  1.00  0.00     0.293 HD
ENDBRANCH  15  18
ENDBRANCH   1  12
BRANCH   2  20
ATOM     20  O   UNL     1      21.220  43.063   6.089  1.00  0.00    -0.502 OA
ATOM     21  H   UNL     1      21.251  43.565   6.968  1.00  0.00     0.293 HD
ENDBRANCH   2  20
BRANCH   6  22
ATOM     22  O   UNL     1      21.804  39.152   9.466  1.00  0.00    -0.507 OA
ATOM     23  H   UNL     1      21.049  39.188  10.141  1.00  0.00     0.293 HD
ENDBRANCH   6  22
BRANCH   8  24
ATOM     24  O   UNL     1      21.470  35.309   6.542  1.00  0.00    -0.508 OA
ATOM     25  H   UNL     1      20.954  34.686   7.153  1.00  0.00     0.293 HD
ENDBRANCH   8  24
TORSDOF 5
ENDMDL
MODEL 3
REMARK VINA RESULT:    -5.692      1.979      2.605
REMARK INTER + INTRA:          -6.954
REMARK INTER:                  -6.922
REMARK INTRA:                  -0.032
REMARK UNBOUND:                -0.263
REMARK SMILES O=c1c(O)c(-c2ccc(O)cc2)oc2cc(O)cc(O)c12
REMARK SMILES IDX 5 1 3 2 2 3 1 4 21 5 19 6 18 7 16 8 15 9 14 10 13 11 6 12
REMARK SMILES IDX 7 13 8 14 9 15 12 16 11 17 10 18 4 20 20 22 17 24
REMARK H PARENT 10 19 4 21 20 23 17 25
REMARK Flexibility Score: inf
ROOT
ATOM      1  C   UNL     1      18.468  41.746   5.765  1.00  0.00     0.180 A 
ATOM      2  C   UNL     1      18.574  42.848   4.896  1.00  0.00     0.208 A 
ATOM      3  C   UNL     1      19.527  42.809   3.866  1.00  0.00     0.238 A 
ATOM      4  O   UNL     1      19.638  43.794   3.087  1.00  0.00    -0.285 OA
ATOM      5  C   UNL     1      20.338  41.667   3.709  1.00  0.00     0.111 A 
ATOM      6  C   UNL     1      21.318  41.546   2.695  1.00  0.00     0.134 A 
ATOM      7  C   UNL     1      22.081  40.372   2.600  1.00  0.00     0.093 A 
ATOM      8  C   UNL     1      21.881  39.318   3.499  1.00  0.00     0.123 A 
ATOM      9  C   UNL     1      20.916  39.434   4.501  1.00  0.00     0.094 A 
ATOM     10  C   UNL     1      20.147  40.596   4.613  1.00  0.00     0.146 A 
ATOM     11  O   UNL     1      19.239  40.680   5.579  1.00  0.00    -0.452 OA
ENDROOT
BRANCH   1  12
ATOM     12  C   UNL     1      17.502  41.719   6.887  1.00  0.00     0.021 A 
ATOM     13  C   UNL     1      17.921  41.490   8.211  1.00  0.00     0.016 A 
ATOM     14  C   UNL     1      16.987  41.446   9.251  1.00  0.00     0.047 A 
ATOM     15  C   UNL     1      15.623  41.617   8.980  1.00  0.00     0.115 A 
ATOM     16  C   UNL     1      16.130  41.868   6.623  1.00  0.00     0.016 A 
ATOM     17  C   UNL     1      15.198  41.825   7.665  1.00  0.00     0.047 A 
BRANCH  15  18
ATOM     18  O   UNL     1      14.684  41.575  10.008  1.00  0.00    -0.508 OA
ATOM     19  H   UNL     1      14.862  42.010  10.906  1.00  0.00     0.293 HD
ENDBRANCH  15  18
ENDBRANCH   1  12
BRANCH   2  20
ATOM     20  O   UNL     1      17.724  43.947   5.040  1.00  0.00    -0.502 OA
ATOM     21  H   UNL     1      17.727  44.531   5.867  1.00  0.00     0.293 HD
ENDBRANCH   2  20
BRANCH   6  22
ATOM     22  O   UNL     1      21.540  42.579   1.783  1.00  0.00    -0.507 OA
ATOM     23  H   UNL     1      22.310  43.229   1.890  1.00  0.00     0.293 HD
ENDBRANCH   6  22
BRANCH   8  24
ATOM     24  O   UNL     1      22.636  38.151   3.405  1.00  0.00    -0.508 OA
ATOM     25  H   UNL     1      22.474  37.363   4.022  1.00  0.00     0.293 HD
ENDBRANCH   8  24
TORSDOF 5
ENDMDL
MODEL 4
REMARK VINA RESULT:    -5.619      1.629      6.303
REMARK INTER + INTRA:          -6.868
REMARK INTER:                  -6.743
REMARK INTRA:                  -0.125
REMARK UNBOUND:                -0.263
REMARK SMILES O=c1c(O)c(-c2ccc(O)cc2)oc2cc(O)cc(O)c12
REMARK SMILES IDX 5 1 3 2 2 3 1 4 21 5 19 6 18 7 16 8 15 9 14 10 13 11 6 12
REMARK SMILES IDX 7 13 8 14 9 15 12 16 11 17 10 18 4 20 20 22 17 24
REMARK H PARENT 10 19 4 21 20 23 17 25
REMARK Flexibility Score: inf
ROOT
ATOM      1  C   UNL     1      20.488  39.482   6.901  1.00  0.00     0.180 A 
ATOM      2  C   UNL     1      20.724  39.904   5.578  1.00  0.00     0.208 A 
ATOM      3  C   UNL     1      19.855  40.844   5.002  1.00  0.00     0.238 A 
ATOM      4  O   UNL     1      20.050  41.222   3.815  1.00  0.00    -0.285 OA
ATOM      5  C   UNL     1      18.784  41.359   5.760  1.00  0.00     0.111 A 
ATOM      6  C   UNL     1      17.866  42.311   5.256  1.00  0.00     0.134 A 
ATOM      7  C   UNL     1      16.830  42.782   6.076  1.00  0.00     0.093 A 
ATOM      8  C   UNL     1      16.695  42.319   7.390  1.00  0.00     0.123 A 
ATOM      9  C   UNL     1      17.597  41.379   7.891  1.00  0.00     0.094 A 
ATOM     10  C   UNL     1      18.636  40.897   7.089  1.00  0.00     0.146 A 
ATOM     11  O   UNL     1      19.477  39.999   7.590  1.00  0.00    -0.452 OA
ENDROOT
BRANCH   1  12
ATOM     12  C   UNL     1      21.348  38.480   7.572  1.00  0.00     0.021 A 
ATOM     13  C   UNL     1      21.476  37.171   7.071  1.00  0.00     0.016 A 
ATOM     14  C   UNL     1      22.275  36.234   7.735  1.00  0.00     0.047 A 
ATOM     15  C   UNL     1      22.945  36.591   8.914  1.00  0.00     0.115 A 
ATOM     16  C   UNL     1      22.007  38.820   8.764  1.00  0.00     0.016 A 
ATOM     17  C   UNL     1      22.806  37.883   9.426  1.00  0.00     0.047 A 
BRANCH  15  18
ATOM     18  O   UNL     1      23.744  35.666   9.583  1.00  0.00    -0.508 OA
ATOM     19  H   UNL     1      24.620  35.938  10.015  1.00  0.00     0.293 HD
ENDBRANCH  15  18
ENDBRANCH   1  12
BRANCH   2  20
ATOM     20  O   UNL     1      21.823  39.417   4.866  1.00  0.00    -0.502 OA
ATOM     21  H   UNL     1      22.341  39.989   4.210  1.00  0.00     0.293 HD
ENDBRANCH   2  20
BRANCH   6  22
ATOM     22  O   UNL     1      17.974  42.793   3.950  1.00  0.00    -0.507 OA
ATOM     23  H   UNL     1      17.229  42.676   3.274  1.00  0.00     0.293 HD
ENDBRANCH   6  22
BRANCH   8  24
ATOM     24  O   UNL     1      15.667  42.786   8.206  1.00  0.00    -0.508 OA
ATOM     25  H   UNL     1      15.693  43.715   8.612  1.00  0.00     0.293 HD
ENDBRANCH   8  24
TORSDOF 5
ENDMDL
MODEL 5
REMARK VINA RESULT:    -5.433      1.670      3.564
REMARK INTER + INTRA:          -6.649
REMARK INTER:                  -6.375
REMARK INTRA:                  -0.274
REMARK UNBOUND:                -0.263
REMARK SMILES O=c1c(O)c(-c2ccc(O)cc2)oc2cc(O)cc(O)c12
REMARK SMILES IDX 5 1 3 2 2 3 1 4 21 5 19 6 18 7 16 8 15 9 14 10 13 11 6 12
REMARK SMILES IDX 7 13 8 14 9 15 12 16 11 17 10 18 4 20 20 22 17 24
REMARK H PARENT 10 19 4 21 20 23 17 25
REMARK Flexibility Score: inf
ROOT
ATOM      1  C   UNL     1      18.947  41.475   6.072  1.00  0.00     0.180 A 
ATOM      2  C   UNL     1      19.762  40.361   6.352  1.00  0.00     0.208 A 
ATOM      3  C   UNL     1      20.712  39.960   5.400  1.00  0.00     0.238 A 
ATOM      4  O   UNL     1      21.441  38.958   5.636  1.00  0.00    -0.285 OA
ATOM      5  C   UNL     1      20.847  40.688   4.200  1.00  0.00     0.111 A 
ATOM      6  C   UNL     1      21.783  40.353   3.192  1.00  0.00     0.134 A 
ATOM      7  C   UNL     1      21.862  41.132   2.029  1.00  0.00     0.093 A 
ATOM      8  C   UNL     1      21.023  42.240   1.855  1.00  0.00     0.123 A 
ATOM      9  C   UNL     1      20.099  42.573   2.846  1.00  0.00     0.094 A 
ATOM     10  C   UNL     1      20.004  41.808   4.012  1.00  0.00     0.146 A 
ATOM     11  O   UNL     1      19.112  42.146   4.937  1.00  0.00    -0.452 OA
ENDROOT
BRANCH   1  12
ATOM     12  C   UNL     1      17.909  41.948   7.016  1.00  0.00     0.021 A 
ATOM     13  C   UNL     1      18.232  42.778   8.105  1.00  0.00     0.016 A 
ATOM     14  C   UNL     1      17.238  43.193   8.998  1.00  0.00     0.047 A 
ATOM     15  C   UNL     1      15.913  42.772   8.820  1.00  0.00     0.115 A 
ATOM     16  C   UNL     1      16.582  41.515   6.859  1.00  0.00     0.016 A 
ATOM     17  C   UNL     1      15.590  41.931   7.752  1.00  0.00     0.047 A 
BRANCH  15  18
ATOM     18  O   UNL     1      14.915  43.180   9.703  1.00  0.00    -0.508 OA
ATOM     19  H   UNL     1      14.095  43.679   9.380  1.00  0.00     0.293 HD
ENDBRANCH  15  18
ENDBRANCH   1  12
BRANCH   2  20
ATOM     20  O   UNL     1      19.644  39.687   7.571  1.00  0.00    -0.502 OA
ATOM     21  H   UNL     1      19.963  40.087   8.445  1.00  0.00     0.293 HD
ENDBRANCH   2  20
BRANCH   6  22
ATOM     22  O   UNL     1      22.633  39.255   3.337  1.00  0.00    -0.507 OA
ATOM     23  H   UNL     1      23.326  39.211   4.073  1.00  0.00     0.293 HD
ENDBRANCH   6  22
BRANCH   8  24
ATOM     24  O   UNL     1      21.101  43.015   0.700  1.00  0.00    -0.508 OA
ATOM     25  H   UNL     1      21.740  42.783  -0.052  1.00  0.00     0.293 HD
ENDBRANCH   8  24
TORSDOF 5
ENDMDL
MODEL 6
REMARK VINA RESULT:    -5.262      2.480      6.106
REMARK INTER + INTRA:          -6.449
REMARK INTER:                  -6.407
REMARK INTRA:                  -0.042
REMARK UNBOUND:                -0.263
REMARK SMILES O=c1c(O)c(-c2ccc(O)cc2)oc2cc(O)cc(O)c12
REMARK SMILES IDX 5 1 3 2 2 3 1 4 21 5 19 6 18 7 16 8 15 9 14 10 13 11 6 12
REMARK SMILES IDX 7 13 8 14 9 15 12 16 11 17 10 18 4 20 20 22 17 24
REMARK H PARENT 10 19 4 21 20 23 17 25
REMARK Flexibility Score: inf
ROOT
ATOM      1  C   UNL     1      20.803  39.697   6.305  1.00  0.00     0.180 A 
ATOM      2  C   UNL     1      19.819  40.565   6.815  1.00  0.00     0.208 A 
ATOM      3  C   UNL     1      19.343  41.604   6.000  1.00  0.00     0.238 A 
ATOM      4  O   UNL     1      18.469  42.394   6.449  1.00  0.00    -0.285 OA
ATOM      5  C   UNL     1      19.840  41.744   4.688  1.00  0.00     0.111 A 
ATOM      6  C   UNL     1      19.410  42.761   3.801  1.00  0.00     0.134 A 
ATOM      7  C   UNL     1      19.947  42.828   2.507  1.00  0.00     0.093 A 
ATOM      8  C   UNL     1      20.905  41.899   2.084  1.00  0.00     0.123 A 
ATOM      9  C   UNL     1      21.332  40.896   2.955  1.00  0.00     0.094 A 
ATOM     10  C   UNL     1      20.810  40.813   4.249  1.00  0.00     0.146 A 
ATOM     11  O   UNL     1      21.238  39.850   5.058  1.00  0.00    -0.452 OA
ENDROOT
BRANCH   1  12
ATOM     12  C   UNL     1      21.369  38.590   7.109  1.00  0.00     0.021 A 
ATOM     13  C   UNL     1      21.929  38.819   8.379  1.00  0.00     0.016 A 
ATOM     14  C   UNL     1      22.480  37.761   9.111  1.00  0.00     0.047 A 
ATOM     15  C   UNL     1      22.488  36.466   8.576  1.00  0.00     0.115 A 
ATOM     16  C   UNL     1      21.402  37.292   6.574  1.00  0.00     0.016 A 
ATOM     17  C   UNL     1      21.951  36.236   7.307  1.00  0.00     0.047 A 
BRANCH  15  18
ATOM     18  O   UNL     1      23.033  35.404   9.296  1.00  0.00    -0.508 OA
ATOM     19  H   UNL     1      22.447  34.687   9.708  1.00  0.00     0.293 HD
ENDBRANCH  15  18
ENDBRANCH   1  12
BRANCH   2  20
ATOM     20  O   UNL     1      19.305  40.374   8.101  1.00  0.00    -0.502 OA
ATOM     21  H   UNL     1      19.600  40.934   8.891  1.00  0.00     0.293 HD
ENDBRANCH   2  20
BRANCH   6  22
ATOM     22  O   UNL     1      18.456  43.701   4.194  1.00  0.00    -0.507 OA
ATOM     23  H   UNL     1      17.822  43.527   4.964  1.00  0.00     0.293 HD
ENDBRANCH   6  22
BRANCH   8  24
ATOM     24  O   UNL     1      21.438  41.965   0.798  1.00  0.00    -0.508 OA
ATOM     25  H   UNL     1      22.212  41.374   0.515  1.00  0.00     0.293 HD
ENDBRANCH   8  24
TORSDOF 5
ENDMDL
MODEL 7
REMARK VINA RESULT:    -4.987      3.045      6.469
REMARK INTER + INTRA:          -6.125
REMARK INTER:                  -6.152
REMARK INTRA:                   0.027
REMARK UNBOUND:                -0.263
REMARK SMILES O=c1c(O)c(-c2ccc(O)cc2)oc2cc(O)cc(O)c12
REMARK SMILES IDX 5 1 3 2 2 3 1 4 21 5 19 6 18 7 16 8 15 9 14 10 13 11 6 12
REMARK SMILES IDX 7 13 8 14 9 15 12 16 11 17 10 18 4 20 20 22 17 24
REMARK H PARENT 10 19 4 21 20 23 17 25
REMARK Flexibility Score: inf
ROOT
ATOM      1  C   UNL     1      21.476  38.809   7.111  1.00  0.00     0.180 A 
ATOM      2  C   UNL     1      21.085  39.981   7.784  1.00  0.00     0.208 A 
ATOM      3  C   UNL     1      20.614  41.069   7.032  1.00  0.00     0.238 A 
ATOM      4  O   UNL     1      20.270  42.129   7.623  1.00  0.00    -0.285 OA
ATOM      5  C   UNL     1      20.523  40.960   5.630  1.00  0.00     0.111 A 
ATOM      6  C   UNL     1      20.056  42.007   4.800  1.00  0.00     0.134 A 
ATOM      7  C   UNL     1      19.987  41.818   3.411  1.00  0.00     0.093 A 
ATOM      8  C   UNL     1      20.376  40.601   2.838  1.00  0.00     0.123 A 
ATOM      9  C   UNL     1      20.838  39.566   3.653  1.00  0.00     0.094 A 
ATOM     10  C   UNL     1      20.916  39.736   5.038  1.00  0.00     0.146 A 
ATOM     11  O   UNL     1      21.363  38.735   5.789  1.00  0.00    -0.452 OA
ENDROOT
BRANCH   1  12
ATOM     12  C   UNL     1      22.001  37.626   7.831  1.00  0.00     0.021 A 
ATOM     13  C   UNL     1      23.015  37.747   8.799  1.00  0.00     0.016 A 
ATOM     14  C   UNL     1      23.512  36.613   9.450  1.00  0.00     0.047 A 
ATOM     15  C   UNL     1      23.011  35.344   9.132  1.00  0.00     0.115 A 
ATOM     16  C   UNL     1      21.520  36.347   7.505  1.00  0.00     0.016 A 
ATOM     17  C   UNL     1      22.018  35.215   8.157  1.00  0.00     0.047 A 
BRANCH  15  18
ATOM     18  O   UNL     1      23.497  34.207   9.774  1.00  0.00    -0.508 OA
ATOM     19  H   UNL     1      22.917  33.664  10.402  1.00  0.00     0.293 HD
ENDBRANCH  15  18
ENDBRANCH   1  12
BRANCH   2  20
ATOM     20  O   UNL     1      21.136  40.047   9.179  1.00  0.00    -0.502 OA
ATOM     21  H   UNL     1      20.569  40.694   9.713  1.00  0.00     0.293 HD
ENDBRANCH   2  20
BRANCH   6  22
ATOM     22  O   UNL     1      19.660  43.232   5.341  1.00  0.00    -0.507 OA
ATOM     23  H   UNL     1      18.695  43.422   5.581  1.00  0.00     0.293 HD
ENDBRANCH   6  22
BRANCH   8  24
ATOM     24  O   UNL     1      20.307  40.411   1.460  1.00  0.00    -0.508 OA
ATOM     25  H   UNL     1      21.130  40.490   0.872  1.00  0.00     0.293 HD
ENDBRANCH   8  24
TORSDOF 5
ENDMDL
