MODEL 1
REMARK VINA RESULT:    -2.737      0.000      0.000
REMARK INTER + INTRA:          -3.299
REMARK INTER:                  -2.977
REMARK INTRA:                  -0.322
REMARK UNBOUND:                -0.322
REMARK SMILES CC1=CC[C@@](O)(C(C)C)CC1
REMARK SMILES IDX 1 1 2 2 3 3 4 4 5 5 10 6 11 7 7 8 8 9 9 10 6 11
REMARK H PARENT 6 12
REMARK Flexibility Score: inf
ROOT
ATOM      1  C   UNL     1      34.126 -34.227 -12.095  1.00  0.00     0.039 C 
ATOM      2  C   UNL     1      35.388 -33.760 -11.425  1.00  0.00    -0.077 C 
ATOM      3  C   UNL     1      35.723 -34.226 -10.214  1.00  0.00    -0.025 C 
ATOM      4  C   UNL     1      37.005 -33.769  -9.572  1.00  0.00     0.062 C 
ATOM      5  C   UNL     1      38.220 -33.765 -10.571  1.00  0.00     0.071 C 
ATOM      6  C   UNL     1      37.766 -33.406 -12.036  1.00  0.00     0.040 C 
ATOM      7  C   UNL     1      36.347 -32.827 -12.122  1.00  0.00     0.033 C 
ENDROOT
BRANCH   5   8
ATOM      8  C   UNL     1      38.983 -35.147 -10.585  1.00  0.00     0.015 C 
ATOM      9  C   UNL     1      38.636 -36.029 -11.802  1.00  0.00     0.010 C 
ATOM     10  C   UNL     1      38.795 -35.966  -9.294  1.00  0.00     0.010 C 
ENDBRANCH   5   8
BRANCH   5  11
ATOM     11  O   UNL     1      39.125 -32.750 -10.184  1.00  0.00    -0.389 OA
ATOM     12  H   UNL     1      39.987 -32.888 -10.656  1.00  0.00     0.211 HD
ENDBRANCH   5  11
TORSDOF 2
ENDMDL
MODEL 2
REMARK VINA RESULT:    -2.388      2.128      3.893
REMARK INTER + INTRA:          -2.919
REMARK INTER:                  -2.753
REMARK INTRA:                  -0.167
REMARK UNBOUND:                -0.322
REMARK SMILES CC1=CC[C@@](O)(C(C)C)CC1
REMARK SMILES IDX 1 1 2 2 3 3 4 4 5 5 10 6 11 7 7 8 8 9 9 10 6 11
REMARK H PARENT 6 12
REMARK Flexibility Score: inf
ROOT
ATOM      1  C   UNL     1      39.125 -33.147 -12.075  1.00  0.00     0.039 C 
ATOM      2  C   UNL     1      37.771 -33.310 -11.442  1.00  0.00    -0.077 C 
ATOM      3  C   UNL     1      36.663 -32.982 -12.123  1.00  0.00    -0.025 C 
ATOM      4  C   UNL     1      35.315 -33.179 -11.484  1.00  0.00     0.062 C 
ATOM      5  C   UNL     1      35.183 -34.567 -10.754  1.00  0.00     0.071 C 
ATOM      6  C   UNL     1      36.554 -35.028 -10.130  1.00  0.00     0.040 C 
ATOM      7  C   UNL     1      37.613 -33.918 -10.071  1.00  0.00     0.033 C 
ENDROOT
BRANCH   5   8
ATOM      8  C   UNL     1      34.642 -35.695 -11.717  1.00  0.00     0.015 C 
ATOM      9  C   UNL     1      33.126 -35.602 -11.983  1.00  0.00     0.010 C 
ATOM     10  C   UNL     1      34.988 -37.121 -11.250  1.00  0.00     0.010 C 
ENDBRANCH   5   8
BRANCH   5  11
ATOM     11  O   UNL     1      34.288 -34.428  -9.669  1.00  0.00    -0.389 OA
ATOM     12  H   UNL     1      34.701 -33.840  -8.983  1.00  0.00     0.211 HD
ENDBRANCH   5  11
TORSDOF 2
ENDMDL
MODEL 3
REMARK VINA RESULT:    -2.103      1.860      4.093
REMARK INTER + INTRA:          -2.610
REMARK INTER:                  -2.401
REMARK INTRA:                  -0.208
REMARK UNBOUND:                -0.322
REMARK SMILES CC1=CC[C@@](O)(C(C)C)CC1
REMARK SMILES IDX 1 1 2 2 3 3 4 4 5 5 10 6 11 7 7 8 8 9 9 10 6 11
REMARK H PARENT 6 12
REMARK Flexibility Score: inf
ROOT
ATOM      1  C   UNL     1      38.943 -36.291  -9.255  1.00  0.00     0.039 C 
ATOM      2  C   UNL     1      38.024 -35.388 -10.029  1.00  0.00    -0.077 C 
ATOM      3  C   UNL     1      37.992 -35.444 -11.368  1.00  0.00    -0.025 C 
ATOM      4  C   UNL     1      37.044 -34.552 -12.125  1.00  0.00     0.062 C 
ATOM      5  C   UNL     1      35.604 -34.514 -11.490  1.00  0.00     0.071 C 
ATOM      6  C   UNL     1      35.657 -34.651  -9.922  1.00  0.00     0.040 C 
ATOM      7  C   UNL     1      37.061 -34.462  -9.329  1.00  0.00     0.033 C 
ENDROOT
BRANCH   5   8
ATOM      8  C   UNL     1      34.665 -35.636 -12.081  1.00  0.00     0.015 C 
ATOM      9  C   UNL     1      33.173 -35.247 -12.092  1.00  0.00     0.010 C 
ATOM     10  C   UNL     1      34.827 -37.003 -11.388  1.00  0.00     0.010 C 
ENDBRANCH   5   8
BRANCH   5  11
ATOM     11  O   UNL     1      35.025 -33.252 -11.751  1.00  0.00    -0.389 OA
ATOM     12  H   UNL     1      35.473 -32.567 -11.189  1.00  0.00     0.211 HD
ENDBRANCH   5  11
TORSDOF 2
ENDMDL
MODEL 4
REMARK VINA RESULT:    -1.349     18.643     20.173
REMARK INTER + INTRA:          -1.789
REMARK INTER:                  -1.527
REMARK INTRA:                  -0.262
REMARK UNBOUND:                -0.322
REMARK SMILES CC1=CC[C@@](O)(C(C)C)CC1
REMARK SMILES IDX 1 1 2 2 3 3 4 4 5 5 10 6 11 7 7 8 8 9 9 10 6 11
REMARK H PARENT 6 12
REMARK Flexibility Score: inf
ROOT
ATOM      1  C   UNL     1      39.099 -25.843   3.401  1.00  0.00     0.039 C 
ATOM      2  C   UNL     1      39.079 -24.970   4.625  1.00  0.00    -0.077 C 
ATOM      3  C   UNL     1      38.947 -23.641   4.505  1.00  0.00    -0.025 C 
ATOM      4  C   UNL     1      38.900 -22.785   5.742  1.00  0.00     0.062 C 
ATOM      5  C   UNL     1      37.969 -23.383   6.861  1.00  0.00     0.071 C 
ATOM      6  C   UNL     1      37.989 -24.958   6.853  1.00  0.00     0.040 C 
ATOM      7  C   UNL     1      39.123 -25.560   6.012  1.00  0.00     0.033 C 
ENDROOT
BRANCH   5   8
ATOM      8  C   UNL     1      36.480 -22.878   6.728  1.00  0.00     0.015 C 
ATOM      9  C   UNL     1      35.852 -22.453   8.071  1.00  0.00     0.010 C 
ATOM     10  C   UNL     1      35.548 -23.886   6.030  1.00  0.00     0.010 C 
ENDBRANCH   5   8
BRANCH   5  11
ATOM     11  O   UNL     1      38.470 -22.994   8.125  1.00  0.00    -0.389 OA
ATOM     12  H   UNL     1      39.153 -23.653   8.419  1.00  0.00     0.211 HD
ENDBRANCH   5  11
TORSDOF 2
ENDMDL
