MODEL 1
REMARK VINA RESULT:     7.507      0.000      0.000
REMARK INTER + INTRA:          11.218
REMARK INTER:                  11.456
REMARK INTRA:                  -0.238
REMARK UNBOUND:                -0.238
REMARK SMILES O=C([O-])CCCCCCCCC(=O)[O-]
REMARK SMILES IDX 7 1 6 2 5 3 4 4 2 5 1 6 3 7 8 8 9 9 10 10 11 11 12 12 13 13
REMARK SMILES IDX 14 14
REMARK H PARENT
REMARK Flexibility Score: inf
ROOT
ATOM      1  C   UNL     1      19.048 -58.119  -2.960  1.00  0.00     0.000 C 
ENDROOT
BRANCH   1   2
ATOM      2  C   UNL     1      18.840 -57.405  -1.608  1.00  0.00     0.000 C 
BRANCH   2   3
ATOM      3  C   UNL     1      17.697 -56.376  -1.582  1.00  0.00     0.006 C 
BRANCH   3   4
ATOM      4  C   UNL     1      16.986 -56.238  -2.934  1.00  0.00     0.053 C 
BRANCH   4   5
ATOM      5  C   UNL     1      17.535 -55.074  -3.696  1.00  0.00     0.041 C 
ATOM      6  O   UNL     1      17.917 -54.041  -3.086  1.00  0.00    -0.550 OA
ATOM      7  O   UNL     1      17.580 -55.110  -5.084  1.00  0.00    -0.550 OA
ENDBRANCH   4   5
ENDBRANCH   3   4
ENDBRANCH   2   3
ENDBRANCH   1   2
BRANCH   1   8
ATOM      8  C   UNL     1      19.053 -59.658  -2.892  1.00  0.00     0.000 C 
BRANCH   8   9
ATOM      9  C   UNL     1      17.706 -60.326  -3.228  1.00  0.00     0.000 C 
BRANCH   9  10
ATOM     10  C   UNL     1      16.478 -59.482  -2.828  1.00  0.00     0.006 C 
BRANCH  10  11
ATOM     11  C   UNL     1      15.226 -59.843  -3.638  1.00  0.00     0.053 C 
BRANCH  11  12
ATOM     12  C   UNL     1      14.600 -58.611  -4.212  1.00  0.00     0.041 C 
ATOM     13  O   UNL     1      13.934 -57.837  -3.474  1.00  0.00    -0.550 OA
ATOM     14  O   UNL     1      14.710 -58.343  -5.569  1.00  0.00    -0.550 OA
ENDBRANCH  11  12
ENDBRANCH  10  11
ENDBRANCH   9  10
ENDBRANCH   8   9
ENDBRANCH   1   8
TORSDOF 9
ENDMDL
MODEL 2
REMARK VINA RESULT:     7.567      0.199      4.089
REMARK INTER + INTRA:          11.310
REMARK INTER:                  11.539
REMARK INTRA:                  -0.228
REMARK UNBOUND:                -0.238
REMARK SMILES O=C([O-])CCCCCCCCC(=O)[O-]
REMARK SMILES IDX 7 1 6 2 5 3 4 4 2 5 1 6 3 7 8 8 9 9 10 10 11 11 12 12 13 13
REMARK SMILES IDX 14 14
REMARK H PARENT
REMARK Flexibility Score: inf
ROOT
ATOM      1  C   UNL     1      19.092 -59.461  -2.817  1.00  0.00     0.000 C 
ENDROOT
BRANCH   1   2
ATOM      2  C   UNL     1      17.786 -60.258  -3.016  1.00  0.00     0.000 C 
BRANCH   2   3
ATOM      3  C   UNL     1      16.491 -59.455  -2.798  1.00  0.00     0.006 C 
BRANCH   3   4
ATOM      4  C   UNL     1      15.363 -59.869  -3.751  1.00  0.00     0.053 C 
BRANCH   4   5
ATOM      5  C   UNL     1      14.635 -58.663  -4.254  1.00  0.00     0.041 C 
ATOM      6  O   UNL     1      14.017 -57.916  -3.450  1.00  0.00    -0.550 OA
ATOM      7  O   UNL     1      14.597 -58.391  -5.616  1.00  0.00    -0.550 OA
ENDBRANCH   4   5
ENDBRANCH   3   4
ENDBRANCH   2   3
ENDBRANCH   1   2
BRANCH   1   8
ATOM      8  C   UNL     1      18.939 -57.930  -2.880  1.00  0.00     0.000 C 
BRANCH   8   9
ATOM      9  C   UNL     1      18.585 -57.259  -1.540  1.00  0.00     0.000 C 
BRANCH   9  10
ATOM     10  C   UNL     1      17.488 -56.179  -1.656  1.00  0.00     0.006 C 
BRANCH  10  11
ATOM     11  C   UNL     1      16.909 -56.080  -3.074  1.00  0.00     0.053 C 
BRANCH  11  12
ATOM     12  C   UNL     1      17.574 -54.977  -3.835  1.00  0.00     0.041 C 
ATOM     13  O   UNL     1      17.981 -53.947  -3.232  1.00  0.00    -0.550 OA
ATOM     14  O   UNL     1      17.702 -55.062  -5.214  1.00  0.00    -0.550 OA
ENDBRANCH  11  12
ENDBRANCH  10  11
ENDBRANCH   9  10
ENDBRANCH   8   9
ENDBRANCH   1   8
TORSDOF 9
ENDMDL
MODEL 3
REMARK VINA RESULT:     7.586      1.686      4.585
REMARK INTER + INTRA:          11.339
REMARK INTER:                  11.853
REMARK INTRA:                  -0.514
REMARK UNBOUND:                -0.238
REMARK SMILES O=C([O-])CCCCCCCCC(=O)[O-]
REMARK SMILES IDX 7 1 6 2 5 3 4 4 2 5 1 6 3 7 8 8 9 9 10 10 11 11 12 12 13 13
REMARK SMILES IDX 14 14
REMARK H PARENT
REMARK Flexibility Score: inf
ROOT
ATOM      1  C   UNL     1      16.234 -59.602  -2.758  1.00  0.00     0.000 C 
ENDROOT
BRANCH   1   2
ATOM      2  C   UNL     1      15.489 -58.950  -3.941  1.00  0.00     0.000 C 
BRANCH   2   3
ATOM      3  C   UNL     1      13.962 -58.847  -3.774  1.00  0.00     0.006 C 
BRANCH   3   4
ATOM      4  C   UNL     1      13.472 -57.401  -3.630  1.00  0.00     0.053 C 
BRANCH   4   5
ATOM      5  C   UNL     1      11.991 -57.369  -3.422  1.00  0.00     0.041 C 
ATOM      6  O   UNL     1      11.303 -56.435  -3.911  1.00  0.00    -0.550 OA
ATOM      7  O   UNL     1      11.377 -58.344  -2.647  1.00  0.00    -0.550 OA
ENDBRANCH   4   5
ENDBRANCH   3   4
ENDBRANCH   2   3
ENDBRANCH   1   2
BRANCH   1   8
ATOM      8  C   UNL     1      17.737 -59.845  -2.987  1.00  0.00     0.000 C 
BRANCH   8   9
ATOM      9  C   UNL     1      18.651 -58.669  -2.591  1.00  0.00     0.000 C 
BRANCH   9  10
ATOM     10  C   UNL     1      17.942 -57.589  -1.747  1.00  0.00     0.006 C 
BRANCH  10  11
ATOM     11  C   UNL     1      18.303 -56.165  -2.190  1.00  0.00     0.053 C 
BRANCH  11  12
ATOM     12  C   UNL     1      17.218 -55.593  -3.047  1.00  0.00     0.041 C 
ATOM     13  O   UNL     1      16.041 -55.508  -2.605  1.00  0.00    -0.550 OA
ATOM     14  O   UNL     1      17.495 -55.199  -4.349  1.00  0.00    -0.550 OA
ENDBRANCH  11  12
ENDBRANCH  10  11
ENDBRANCH   9  10
ENDBRANCH   8   9
ENDBRANCH   1   8
TORSDOF 9
ENDMDL
MODEL 4
REMARK VINA RESULT:     7.624      1.678      2.478
REMARK INTER + INTRA:          11.397
REMARK INTER:                  11.929
REMARK INTRA:                  -0.532
REMARK UNBOUND:                -0.238
REMARK SMILES O=C([O-])CCCCCCCCC(=O)[O-]
REMARK SMILES IDX 7 1 6 2 5 3 4 4 2 5 1 6 3 7 8 8 9 9 10 10 11 11 12 12 13 13
REMARK SMILES IDX 14 14
REMARK H PARENT
REMARK Flexibility Score: inf
ROOT
ATOM      1  C   UNL     1      17.683 -59.852  -2.983  1.00  0.00     0.000 C 
ENDROOT
BRANCH   1   2
ATOM      2  C   UNL     1      18.585 -58.657  -2.611  1.00  0.00     0.000 C 
BRANCH   2   3
ATOM      3  C   UNL     1      17.925 -57.593  -1.716  1.00  0.00     0.006 C 
BRANCH   3   4
ATOM      4  C   UNL     1      18.283 -56.160  -2.128  1.00  0.00     0.053 C 
BRANCH   4   5
ATOM      5  C   UNL     1      17.198 -55.574  -2.976  1.00  0.00     0.041 C 
ATOM      6  O   UNL     1      16.033 -55.450  -2.516  1.00  0.00    -0.550 OA
ATOM      7  O   UNL     1      17.462 -55.210  -4.289  1.00  0.00    -0.550 OA
ENDBRANCH   4   5
ENDBRANCH   3   4
ENDBRANCH   2   3
ENDBRANCH   1   2
BRANCH   1   8
ATOM      8  C   UNL     1      16.175 -59.622  -2.773  1.00  0.00     0.000 C 
BRANCH   8   9
ATOM      9  C   UNL     1      15.427 -59.066  -4.000  1.00  0.00     0.000 C 
BRANCH   9  10
ATOM     10  C   UNL     1      13.915 -58.862  -3.766  1.00  0.00     0.006 C 
BRANCH  10  11
ATOM     11  C   UNL     1      13.528 -57.380  -3.674  1.00  0.00     0.053 C 
BRANCH  11  12
ATOM     12  C   UNL     1      12.069 -57.237  -3.378  1.00  0.00     0.041 C 
ATOM     13  O   UNL     1      11.464 -58.132  -2.728  1.00  0.00    -0.550 OA
ATOM     14  O   UNL     1      11.365 -56.142  -3.859  1.00  0.00    -0.550 OA
ENDBRANCH  11  12
ENDBRANCH  10  11
ENDBRANCH   9  10
ENDBRANCH   8   9
ENDBRANCH   1   8
TORSDOF 9
ENDMDL
