MODEL 1
REMARK VINA RESULT:    -5.946      0.000      0.000
REMARK INTER + INTRA:          -6.467
REMARK INTER:                  -6.467
REMARK INTRA:                   0.000
REMARK UNBOUND:                 0.000
REMARK SMILES Cc1cc(O)c2c(c1)C(=O)c1cc(O)cc(O)c1C2=O
REMARK SMILES IDX 1 1 2 2 8 3 7 4 6 5 4 6 3 7 19 8 20 9 18 10 11 11 9 12 10 13
REMARK SMILES IDX 12 14 13 15 15 16 16 17 5 18 17 20 14 22
REMARK H PARENT 5 19 17 21 14 23
REMARK Flexibility Score: inf
ROOT
ATOM      1  C   UNL     1      19.977  33.266   6.097  1.00  0.00     0.044 C 
ATOM      2  C   UNL     1      21.375  32.807   5.806  1.00  0.00    -0.047 A 
ATOM      3  C   UNL     1      22.144  32.209   6.811  1.00  0.00     0.016 A 
ATOM      4  C   UNL     1      23.443  31.750   6.540  1.00  0.00     0.038 A 
ATOM      5  C   UNL     1      23.985  31.893   5.243  1.00  0.00     0.076 A 
ATOM      6  C   UNL     1      23.170  32.423   4.209  1.00  0.00     0.127 A 
ATOM      7  C   UNL     1      21.887  32.891   4.506  1.00  0.00     0.050 A 
ATOM      8  C   UNL     1      25.411  31.533   5.033  1.00  0.00     0.201 C 
ATOM      9  O   UNL     1      26.084  32.132   4.153  1.00  0.00    -0.288 OA
ATOM     10  C   UNL     1      26.087  30.610   5.981  1.00  0.00     0.076 A 
ATOM     11  C   UNL     1      25.541  30.467   7.277  1.00  0.00     0.041 A 
ATOM     12  C   UNL     1      24.248  31.111   7.609  1.00  0.00     0.194 C 
ATOM     13  O   UNL     1      23.821  31.092   8.796  1.00  0.00    -0.289 OA
ATOM     14  C   UNL     1      26.226  29.712   8.244  1.00  0.00     0.059 A 
ATOM     15  C   UNL     1      27.435  29.087   7.930  1.00  0.00     0.120 A 
ATOM     16  C   UNL     1      27.957  29.192   6.641  1.00  0.00     0.093 A 
ATOM     17  C   UNL     1      27.283  29.921   5.654  1.00  0.00     0.131 A 
ENDROOT
BRANCH   6  18
ATOM     18  O   UNL     1      23.580  32.470   2.875  1.00  0.00    -0.507 OA
ATOM     19  H   UNL     1      23.572  33.313   2.318  1.00  0.00     0.293 HD
ENDBRANCH   6  18
BRANCH  17  20
ATOM     20  O   UNL     1      27.819  29.905   4.364  1.00  0.00    -0.507 OA
ATOM     21  H   UNL     1      28.567  30.515   4.063  1.00  0.00     0.293 HD
ENDBRANCH  17  20
BRANCH  15  22
ATOM     22  O   UNL     1      28.124  28.348   8.890  1.00  0.00    -0.508 OA
ATOM     23  H   UNL     1      28.375  28.747   9.786  1.00  0.00     0.293 HD
ENDBRANCH  15  22
TORSDOF 3
ENDMDL
MODEL 2
REMARK VINA RESULT:    -5.873      1.697      6.024
REMARK INTER + INTRA:          -6.388
REMARK INTER:                  -6.388
REMARK INTRA:                   0.000
REMARK UNBOUND:                 0.000
REMARK SMILES Cc1cc(O)c2c(c1)C(=O)c1cc(O)cc(O)c1C2=O
REMARK SMILES IDX 1 1 2 2 8 3 7 4 6 5 4 6 3 7 19 8 20 9 18 10 11 11 9 12 10 13
REMARK SMILES IDX 12 14 13 15 15 16 16 17 5 18 17 20 14 22
REMARK H PARENT 5 19 17 21 14 23
REMARK Flexibility Score: inf
ROOT
ATOM      1  C   UNL     1      28.125  28.931   2.965  1.00  0.00     0.044 C 
ATOM      2  C   UNL     1      27.300  29.553   4.053  1.00  0.00    -0.047 A 
ATOM      3  C   UNL     1      26.127  30.249   3.737  1.00  0.00     0.016 A 
ATOM      4  C   UNL     1      25.333  30.810   4.751  1.00  0.00     0.038 A 
ATOM      5  C   UNL     1      25.718  30.673   6.104  1.00  0.00     0.076 A 
ATOM      6  C   UNL     1      26.861  29.895   6.422  1.00  0.00     0.127 A 
ATOM      7  C   UNL     1      27.647  29.363   5.395  1.00  0.00     0.050 A 
ATOM      8  C   UNL     1      24.936  31.404   7.134  1.00  0.00     0.201 C 
ATOM      9  O   UNL     1      25.503  31.795   8.189  1.00  0.00    -0.288 OA
ATOM     10  C   UNL     1      23.546  31.836   6.837  1.00  0.00     0.076 A 
ATOM     11  C   UNL     1      23.164  31.969   5.483  1.00  0.00     0.041 A 
ATOM     12  C   UNL     1      24.089  31.540   4.408  1.00  0.00     0.194 C 
ATOM     13  O   UNL     1      23.806  31.772   3.201  1.00  0.00    -0.289 OA
ATOM     14  C   UNL     1      21.905  32.506   5.162  1.00  0.00     0.059 A 
ATOM     15  C   UNL     1      21.021  32.894   6.172  1.00  0.00     0.120 A 
ATOM     16  C   UNL     1      21.379  32.727   7.509  1.00  0.00     0.093 A 
ATOM     17  C   UNL     1      22.617  32.176   7.855  1.00  0.00     0.131 A 
ENDROOT
BRANCH   6  18
ATOM     18  O   UNL     1      27.229  29.597   7.735  1.00  0.00    -0.507 OA
ATOM     19  H   UNL     1      28.034  30.001   8.195  1.00  0.00     0.293 HD
ENDBRANCH   6  18
BRANCH  17  20
ATOM     20  O   UNL     1      22.868  31.955   9.211  1.00  0.00    -0.507 OA
ATOM     21  H   UNL     1      22.142  31.925   9.915  1.00  0.00     0.293 HD
ENDBRANCH  17  20
BRANCH  15  22
ATOM     22  O   UNL     1      19.777  33.438   5.857  1.00  0.00    -0.508 OA
ATOM     23  H   UNL     1      18.989  32.851   5.609  1.00  0.00     0.293 HD
ENDBRANCH  15  22
TORSDOF 3
ENDMDL
MODEL 3
REMARK VINA RESULT:    -5.241      2.817      5.868
REMARK INTER + INTRA:          -5.700
REMARK INTER:                  -5.700
REMARK INTRA:                   0.000
REMARK UNBOUND:                 0.000
REMARK SMILES Cc1cc(O)c2c(c1)C(=O)c1cc(O)cc(O)c1C2=O
REMARK SMILES IDX 1 1 2 2 8 3 7 4 6 5 4 6 3 7 19 8 20 9 18 10 11 11 9 12 10 13
REMARK SMILES IDX 12 14 13 15 15 16 16 17 5 18 17 20 14 22
REMARK H PARENT 5 19 17 21 14 23
REMARK Flexibility Score: inf
ROOT
ATOM      1  C   UNL     1      25.638  24.494   4.599  1.00  0.00     0.044 C 
ATOM      2  C   UNL     1      25.754  25.847   5.237  1.00  0.00    -0.047 A 
ATOM      3  C   UNL     1      24.690  26.753   5.169  1.00  0.00     0.016 A 
ATOM      4  C   UNL     1      24.779  28.010   5.787  1.00  0.00     0.038 A 
ATOM      5  C   UNL     1      25.953  28.370   6.486  1.00  0.00     0.076 A 
ATOM      6  C   UNL     1      26.995  27.416   6.623  1.00  0.00     0.127 A 
ATOM      7  C   UNL     1      26.892  26.177   5.982  1.00  0.00     0.050 A 
ATOM      8  C   UNL     1      26.069  29.760   6.998  1.00  0.00     0.201 C 
ATOM      9  O   UNL     1      27.203  30.299   7.092  1.00  0.00    -0.288 OA
ATOM     10  C   UNL     1      24.843  30.570   7.217  1.00  0.00     0.076 A 
ATOM     11  C   UNL     1      23.669  30.206   6.519  1.00  0.00     0.041 A 
ATOM     12  C   UNL     1      23.643  28.960   5.716  1.00  0.00     0.194 C 
ATOM     13  O   UNL     1      22.644  28.697   4.992  1.00  0.00    -0.289 OA
ATOM     14  C   UNL     1      22.530  31.026   6.592  1.00  0.00     0.059 A 
ATOM     15  C   UNL     1      22.543  32.191   7.364  1.00  0.00     0.120 A 
ATOM     16  C   UNL     1      23.686  32.532   8.086  1.00  0.00     0.093 A 
ATOM     17  C   UNL     1      24.826  31.721   8.046  1.00  0.00     0.131 A 
ENDROOT
BRANCH   6  18
ATOM     18  O   UNL     1      28.125  27.641   7.411  1.00  0.00    -0.507 OA
ATOM     19  H   UNL     1      28.795  28.376   7.229  1.00  0.00     0.293 HD
ENDBRANCH   6  18
BRANCH  17  20
ATOM     20  O   UNL     1      25.899  32.078   8.867  1.00  0.00    -0.507 OA
ATOM     21  H   UNL     1      26.475  31.406   9.356  1.00  0.00     0.293 HD
ENDBRANCH  17  20
BRANCH  15  22
ATOM     22  O   UNL     1      21.420  33.013   7.429  1.00  0.00    -0.508 OA
ATOM     23  H   UNL     1      21.413  33.858   7.987  1.00  0.00     0.293 HD
ENDBRANCH  15  22
TORSDOF 3
ENDMDL
MODEL 4
REMARK VINA RESULT:    -4.896      1.567      3.381
REMARK INTER + INTRA:          -5.325
REMARK INTER:                  -5.325
REMARK INTRA:                   0.000
REMARK UNBOUND:                 0.000
REMARK SMILES Cc1cc(O)c2c(c1)C(=O)c1cc(O)cc(O)c1C2=O
REMARK SMILES IDX 1 1 2 2 8 3 7 4 6 5 4 6 3 7 19 8 20 9 18 10 11 11 9 12 10 13
REMARK SMILES IDX 12 14 13 15 15 16 16 17 5 18 17 20 14 22
REMARK H PARENT 5 19 17 21 14 23
REMARK Flexibility Score: inf
ROOT
ATOM      1  C   UNL     1      19.522  33.277   5.500  1.00  0.00     0.044 C 
ATOM      2  C   UNL     1      20.849  32.695   5.887  1.00  0.00    -0.047 A 
ATOM      3  C   UNL     1      21.636  32.038   4.934  1.00  0.00     0.016 A 
ATOM      4  C   UNL     1      22.892  31.515   5.280  1.00  0.00     0.038 A 
ATOM      5  C   UNL     1      23.371  31.650   6.603  1.00  0.00     0.076 A 
ATOM      6  C   UNL     1      22.607  32.390   7.542  1.00  0.00     0.127 A 
ATOM      7  C   UNL     1      21.350  32.884   7.180  1.00  0.00     0.050 A 
ATOM      8  C   UNL     1      24.634  30.957   6.967  1.00  0.00     0.201 C 
ATOM      9  O   UNL     1      24.808  30.556   8.148  1.00  0.00    -0.288 OA
ATOM     10  C   UNL     1      25.598  30.572   5.904  1.00  0.00     0.076 A 
ATOM     11  C   UNL     1      25.116  30.441   4.582  1.00  0.00     0.041 A 
ATOM     12  C   UNL     1      23.722  30.828   4.262  1.00  0.00     0.194 C 
ATOM     13  O   UNL     1      23.250  30.595   3.115  1.00  0.00    -0.289 OA
ATOM     14  C   UNL     1      25.964  29.947   3.576  1.00  0.00     0.059 A 
ATOM     15  C   UNL     1      27.285  29.600   3.869  1.00  0.00     0.120 A 
ATOM     16  C   UNL     1      27.776  29.766   5.163  1.00  0.00     0.093 A 
ATOM     17  C   UNL     1      26.958  30.275   6.178  1.00  0.00     0.131 A 
ENDROOT
BRANCH   6  18
ATOM     18  O   UNL     1      23.070  32.686   8.825  1.00  0.00    -0.507 OA
ATOM     19  H   UNL     1      23.441  33.588   9.091  1.00  0.00     0.293 HD
ENDBRANCH   6  18
BRANCH  17  20
ATOM     20  O   UNL     1      27.545  30.499   7.426  1.00  0.00    -0.507 OA
ATOM     21  H   UNL     1      27.070  30.337   8.303  1.00  0.00     0.293 HD
ENDBRANCH  17  20
BRANCH  15  22
ATOM     22  O   UNL     1      28.125  29.098   2.876  1.00  0.00    -0.508 OA
ATOM     23  H   UNL     1      27.893  28.257   2.361  1.00  0.00     0.293 HD
ENDBRANCH  15  22
TORSDOF 3
ENDMDL
MODEL 5
REMARK VINA RESULT:    -4.879      3.980      5.039
REMARK INTER + INTRA:          -5.307
REMARK INTER:                  -5.307
REMARK INTRA:                   0.000
REMARK UNBOUND:                 0.000
REMARK SMILES Cc1cc(O)c2c(c1)C(=O)c1cc(O)cc(O)c1C2=O
REMARK SMILES IDX 1 1 2 2 8 3 7 4 6 5 4 6 3 7 19 8 20 9 18 10 11 11 9 12 10 13
REMARK SMILES IDX 12 14 13 15 15 16 16 17 5 18 17 20 14 22
REMARK H PARENT 5 19 17 21 14 23
REMARK Flexibility Score: inf
ROOT
ATOM      1  C   UNL     1      26.124  32.126   8.884  1.00  0.00     0.044 C 
ATOM      2  C   UNL     1      25.272  31.415   7.873  1.00  0.00    -0.047 A 
ATOM      3  C   UNL     1      25.542  30.084   7.535  1.00  0.00     0.016 A 
ATOM      4  C   UNL     1      24.732  29.402   6.612  1.00  0.00     0.038 A 
ATOM      5  C   UNL     1      23.634  30.062   6.015  1.00  0.00     0.076 A 
ATOM      6  C   UNL     1      23.316  31.382   6.426  1.00  0.00     0.127 A 
ATOM      7  C   UNL     1      24.148  32.049   7.331  1.00  0.00     0.050 A 
ATOM      8  C   UNL     1      22.894  29.359   4.937  1.00  0.00     0.201 C 
ATOM      9  O   UNL     1      22.341  30.025   4.021  1.00  0.00    -0.288 OA
ATOM     10  C   UNL     1      22.966  27.878   4.835  1.00  0.00     0.076 A 
ATOM     11  C   UNL     1      24.064  27.221   5.436  1.00  0.00     0.041 A 
ATOM     12  C   UNL     1      25.022  27.990   6.265  1.00  0.00     0.194 C 
ATOM     13  O   UNL     1      26.069  27.435   6.697  1.00  0.00    -0.289 OA
ATOM     14  C   UNL     1      24.241  25.840   5.245  1.00  0.00     0.059 A 
ATOM     15  C   UNL     1      23.330  25.107   4.480  1.00  0.00     0.120 A 
ATOM     16  C   UNL     1      22.223  25.745   3.919  1.00  0.00     0.093 A 
ATOM     17  C   UNL     1      22.014  27.115   4.112  1.00  0.00     0.131 A 
ENDROOT
BRANCH   6  18
ATOM     18  O   UNL     1      22.172  32.053   5.989  1.00  0.00    -0.507 OA
ATOM     19  H   UNL     1      21.952  32.205   5.014  1.00  0.00     0.293 HD
ENDBRANCH   6  18
BRANCH  17  20
ATOM     20  O   UNL     1      20.837  27.664   3.598  1.00  0.00    -0.507 OA
ATOM     21  H   UNL     1      19.960  27.678   4.102  1.00  0.00     0.293 HD
ENDBRANCH  17  20
BRANCH  15  22
ATOM     22  O   UNL     1      23.509  23.740   4.278  1.00  0.00    -0.508 OA
ATOM     23  H   UNL     1      24.165  23.387   3.592  1.00  0.00     0.293 HD
ENDBRANCH  15  22
TORSDOF 3
ENDMDL
MODEL 6
REMARK VINA RESULT:    -4.582      3.792      6.076
REMARK INTER + INTRA:          -4.984
REMARK INTER:                  -4.984
REMARK INTRA:                   0.000
REMARK UNBOUND:                 0.000
REMARK SMILES Cc1cc(O)c2c(c1)C(=O)c1cc(O)cc(O)c1C2=O
REMARK SMILES IDX 1 1 2 2 8 3 7 4 6 5 4 6 3 7 19 8 20 9 18 10 11 11 9 12 10 13
REMARK SMILES IDX 12 14 13 15 15 16 16 17 5 18 17 20 14 22
REMARK H PARENT 5 19 17 21 14 23
REMARK Flexibility Score: inf
ROOT
ATOM      1  C   UNL     1      23.464  23.154   4.704  1.00  0.00     0.044 C 
ATOM      2  C   UNL     1      24.328  24.265   5.222  1.00  0.00    -0.047 A 
ATOM      3  C   UNL     1      23.816  25.562   5.336  1.00  0.00     0.016 A 
ATOM      4  C   UNL     1      24.609  26.603   5.847  1.00  0.00     0.038 A 
ATOM      5  C   UNL     1      25.938  26.343   6.250  1.00  0.00     0.076 A 
ATOM      6  C   UNL     1      26.423  25.010   6.211  1.00  0.00     0.127 A 
ATOM      7  C   UNL     1      25.623  23.994   5.680  1.00  0.00     0.050 A 
ATOM      8  C   UNL     1      26.791  27.494   6.644  1.00  0.00     0.201 C 
ATOM      9  O   UNL     1      28.035  27.443   6.457  1.00  0.00    -0.288 OA
ATOM     10  C   UNL     1      26.159  28.766   7.079  1.00  0.00     0.076 A 
ATOM     11  C   UNL     1      24.828  29.022   6.676  1.00  0.00     0.041 A 
ATOM     12  C   UNL     1      24.055  27.972   5.971  1.00  0.00     0.194 C 
ATOM     13  O   UNL     1      22.915  28.238   5.500  1.00  0.00    -0.289 OA
ATOM     14  C   UNL     1      24.244  30.270   6.950  1.00  0.00     0.059 A 
ATOM     15  C   UNL     1      24.962  31.256   7.632  1.00  0.00     0.120 A 
ATOM     16  C   UNL     1      26.261  30.992   8.066  1.00  0.00     0.093 A 
ATOM     17  C   UNL     1      26.857  29.751   7.824  1.00  0.00     0.131 A 
ENDROOT
BRANCH   6  18
ATOM     18  O   UNL     1      27.672  24.647   6.718  1.00  0.00    -0.507 OA
ATOM     19  H   UNL     1      28.442  24.338   6.140  1.00  0.00     0.293 HD
ENDBRANCH   6  18
BRANCH  17  20
ATOM     20  O   UNL     1      28.125  29.529   8.369  1.00  0.00    -0.507 OA
ATOM     21  H   UNL     1      28.380  28.685   8.863  1.00  0.00     0.293 HD
ENDBRANCH  17  20
BRANCH  15  22
ATOM     22  O   UNL     1      24.389  32.499   7.894  1.00  0.00    -0.508 OA
ATOM     23  H   UNL     1      23.475  32.582   8.321  1.00  0.00     0.293 HD
ENDBRANCH  15  22
TORSDOF 3
ENDMDL
MODEL 7
REMARK VINA RESULT:    -4.551      3.900      4.995
REMARK INTER + INTRA:          -4.950
REMARK INTER:                  -4.950
REMARK INTRA:                   0.000
REMARK UNBOUND:                 0.000
REMARK SMILES Cc1cc(O)c2c(c1)C(=O)c1cc(O)cc(O)c1C2=O
REMARK SMILES IDX 1 1 2 2 8 3 7 4 6 5 4 6 3 7 19 8 20 9 18 10 11 11 9 12 10 13
REMARK SMILES IDX 12 14 13 15 15 16 16 17 5 18 17 20 14 22
REMARK H PARENT 5 19 17 21 14 23
REMARK Flexibility Score: inf
ROOT
ATOM      1  C   UNL     1      26.306  32.994   2.928  1.00  0.00     0.044 C 
ATOM      2  C   UNL     1      25.309  31.903   3.188  1.00  0.00    -0.047 A 
ATOM      3  C   UNL     1      25.712  30.711   3.801  1.00  0.00     0.016 A 
ATOM      4  C   UNL     1      24.780  29.697   4.074  1.00  0.00     0.038 A 
ATOM      5  C   UNL     1      23.422  29.876   3.728  1.00  0.00     0.076 A 
ATOM      6  C   UNL     1      23.006  31.119   3.185  1.00  0.00     0.127 A 
ATOM      7  C   UNL     1      23.954  32.107   2.903  1.00  0.00     0.050 A 
ATOM      8  C   UNL     1      22.497  28.726   3.896  1.00  0.00     0.201 C 
ATOM      9  O   UNL     1      21.503  28.605   3.130  1.00  0.00    -0.288 OA
ATOM     10  C   UNL     1      22.846  27.628   4.834  1.00  0.00     0.076 A 
ATOM     11  C   UNL     1      24.205  27.453   5.180  1.00  0.00     0.041 A 
ATOM     12  C   UNL     1      25.215  28.440   4.730  1.00  0.00     0.194 C 
ATOM     13  O   UNL     1      26.442  28.222   4.928  1.00  0.00    -0.289 OA
ATOM     14  C   UNL     1      24.592  26.345   5.953  1.00  0.00     0.059 A 
ATOM     15  C   UNL     1      23.641  25.422   6.396  1.00  0.00     0.120 A 
ATOM     16  C   UNL     1      22.294  25.614   6.091  1.00  0.00     0.093 A 
ATOM     17  C   UNL     1      21.880  26.720   5.341  1.00  0.00     0.131 A 
ENDROOT
BRANCH   6  18
ATOM     18  O   UNL     1      21.665  31.426   2.945  1.00  0.00    -0.507 OA
ATOM     19  H   UNL     1      21.315  32.370   2.858  1.00  0.00     0.293 HD
ENDBRANCH   6  18
BRANCH  17  20
ATOM     20  O   UNL     1      20.507  26.893   5.153  1.00  0.00    -0.507 OA
ATOM     21  H   UNL     1      19.853  27.032   5.912  1.00  0.00     0.293 HD
ENDBRANCH  17  20
BRANCH  15  22
ATOM     22  O   UNL     1      24.023  24.316   7.153  1.00  0.00    -0.508 OA
ATOM     23  H   UNL     1      23.535  24.062   8.003  1.00  0.00     0.293 HD
ENDBRANCH  15  22
TORSDOF 3
ENDMDL
MODEL 8
REMARK VINA RESULT:    -4.516      2.844      4.016
REMARK INTER + INTRA:          -4.912
REMARK INTER:                  -4.912
REMARK INTRA:                   0.000
REMARK UNBOUND:                 0.000
REMARK SMILES Cc1cc(O)c2c(c1)C(=O)c1cc(O)cc(O)c1C2=O
REMARK SMILES IDX 1 1 2 2 8 3 7 4 6 5 4 6 3 7 19 8 20 9 18 10 11 11 9 12 10 13
REMARK SMILES IDX 12 14 13 15 15 16 16 17 5 18 17 20 14 22
REMARK H PARENT 5 19 17 21 14 23
REMARK Flexibility Score: inf
ROOT
ATOM      1  C   UNL     1      21.391  32.926   6.902  1.00  0.00     0.044 C 
ATOM      2  C   UNL     1      22.506  31.922   6.924  1.00  0.00    -0.047 A 
ATOM      3  C   UNL     1      22.476  30.817   6.067  1.00  0.00     0.016 A 
ATOM      4  C   UNL     1      23.529  29.887   6.060  1.00  0.00     0.038 A 
ATOM      5  C   UNL     1      24.631  30.065   6.926  1.00  0.00     0.076 A 
ATOM      6  C   UNL     1      24.695  31.232   7.731  1.00  0.00     0.127 A 
ATOM      7  C   UNL     1      23.626  32.133   7.736  1.00  0.00     0.050 A 
ATOM      8  C   UNL     1      25.650  28.987   6.997  1.00  0.00     0.201 C 
ATOM      9  O   UNL     1      26.284  28.794   8.069  1.00  0.00    -0.288 OA
ATOM     10  C   UNL     1      25.785  28.023   5.874  1.00  0.00     0.076 A 
ATOM     11  C   UNL     1      24.681  27.849   5.008  1.00  0.00     0.041 A 
ATOM     12  C   UNL     1      23.492  28.723   5.143  1.00  0.00     0.194 C 
ATOM     13  O   UNL     1      22.458  28.490   4.458  1.00  0.00    -0.289 OA
ATOM     14  C   UNL     1      24.720  26.851   4.020  1.00  0.00     0.059 A 
ATOM     15  C   UNL     1      25.847  26.037   3.877  1.00  0.00     0.120 A 
ATOM     16  C   UNL     1      26.953  26.233   4.703  1.00  0.00     0.093 A 
ATOM     17  C   UNL     1      26.948  27.234   5.680  1.00  0.00     0.131 A 
ENDROOT
BRANCH   6  18
ATOM     18  O   UNL     1      25.810  31.551   8.509  1.00  0.00    -0.507 OA
ATOM     19  H   UNL     1      25.810  32.273   9.216  1.00  0.00     0.293 HD
ENDBRANCH   6  18
BRANCH  17  20
ATOM     20  O   UNL     1      28.125  27.429   6.407  1.00  0.00    -0.507 OA
ATOM     21  H   UNL     1      28.871  26.749   6.454  1.00  0.00     0.293 HD
ENDBRANCH  17  20
BRANCH  15  22
ATOM     22  O   UNL     1      25.883  25.038   2.906  1.00  0.00    -0.508 OA
ATOM     23  H   UNL     1      26.246  25.214   1.977  1.00  0.00     0.293 HD
ENDBRANCH  15  22
TORSDOF 3
ENDMDL
MODEL 9
REMARK VINA RESULT:    -4.454      3.883      4.973
REMARK INTER + INTRA:          -4.845
REMARK INTER:                  -4.845
REMARK INTRA:                   0.000
REMARK UNBOUND:                 0.000
REMARK SMILES Cc1cc(O)c2c(c1)C(=O)c1cc(O)cc(O)c1C2=O
REMARK SMILES IDX 1 1 2 2 8 3 7 4 6 5 4 6 3 7 19 8 20 9 18 10 11 11 9 12 10 13
REMARK SMILES IDX 12 14 13 15 15 16 16 17 5 18 17 20 14 22
REMARK H PARENT 5 19 17 21 14 23
REMARK Flexibility Score: inf
ROOT
ATOM      1  C   UNL     1      25.924  32.124   8.768  1.00  0.00     0.044 C 
ATOM      2  C   UNL     1      25.471  31.021   7.857  1.00  0.00    -0.047 A 
ATOM      3  C   UNL     1      26.226  29.849   7.739  1.00  0.00     0.016 A 
ATOM      4  C   UNL     1      25.795  28.800   6.911  1.00  0.00     0.038 A 
ATOM      5  C   UNL     1      24.588  28.925   6.187  1.00  0.00     0.076 A 
ATOM      6  C   UNL     1      23.785  30.079   6.377  1.00  0.00     0.127 A 
ATOM      7  C   UNL     1      24.244  31.120   7.190  1.00  0.00     0.050 A 
ATOM      8  C   UNL     1      24.241  27.860   5.211  1.00  0.00     0.201 C 
ATOM      9  O   UNL     1      23.565  28.147   4.187  1.00  0.00    -0.288 OA
ATOM     10  C   UNL     1      24.846  26.510   5.345  1.00  0.00     0.076 A 
ATOM     11  C   UNL     1      26.052  26.388   6.071  1.00  0.00     0.041 A 
ATOM     12  C   UNL     1      26.598  27.559   6.798  1.00  0.00     0.194 C 
ATOM     13  O   UNL     1      27.735  27.490   7.341  1.00  0.00    -0.289 OA
ATOM     14  C   UNL     1      26.726  25.156   6.104  1.00  0.00     0.059 A 
ATOM     15  C   UNL     1      26.206  24.044   5.437  1.00  0.00     0.120 A 
ATOM     16  C   UNL     1      24.995  24.150   4.753  1.00  0.00     0.093 A 
ATOM     17  C   UNL     1      24.294  25.360   4.722  1.00  0.00     0.131 A 
ENDROOT
BRANCH   6  18
ATOM     18  O   UNL     1      22.517  30.218   5.808  1.00  0.00    -0.507 OA
ATOM     19  H   UNL     1      22.346  30.193   4.812  1.00  0.00     0.293 HD
ENDBRANCH   6  18
BRANCH  17  20
ATOM     20  O   UNL     1      23.046  25.365   4.095  1.00  0.00    -0.507 OA
ATOM     21  H   UNL     1      22.923  25.475   3.097  1.00  0.00     0.293 HD
ENDBRANCH  17  20
BRANCH  15  22
ATOM     22  O   UNL     1      26.878  22.824   5.457  1.00  0.00    -0.508 OA
ATOM     23  H   UNL     1      27.734  22.699   5.984  1.00  0.00     0.293 HD
ENDBRANCH  15  22
TORSDOF 3
ENDMDL
