MODEL 1
REMARK VINA RESULT:    -4.870      0.000      0.000
REMARK INTER + INTRA:          -4.870
REMARK INTER:                  -4.870
REMARK INTRA:                   0.000
REMARK UNBOUND:                 0.000
REMARK SMILES O=c1ccc2ccccc2o1
REMARK SMILES IDX 7 1 8 2 9 3 10 4 5 5 6 6 4 7 3 8 2 9 1 10 11 11
REMARK H PARENT
REMARK Flexibility Score: inf
ROOT
ATOM      1  C   UNL     1     -99.141  83.844 206.146  1.00  0.00     0.001 A 
ATOM      2  C   UNL     1     -98.256  82.807 206.461  1.00  0.00     0.004 A 
ATOM      3  C   UNL     1     -97.208  83.025 207.360  1.00  0.00     0.048 A 
ATOM      4  C   UNL     1     -97.040  84.283 207.949  1.00  0.00     0.138 A 
ATOM      5  C   UNL     1     -97.933  85.331 207.632  1.00  0.00     0.018 A 
ATOM      6  C   UNL     1     -98.983  85.106 206.730  1.00  0.00     0.012 A 
ATOM      7  C   UNL     1     -97.740  86.576 208.237  1.00  0.00     0.019 A 
ATOM      8  C   UNL     1     -96.681  86.748 209.128  1.00  0.00     0.094 A 
ATOM      9  C   UNL     1     -95.837  85.665 209.394  1.00  0.00     0.336 A 
ATOM     10  O   UNL     1     -94.875  85.801 210.196  1.00  0.00    -0.246 OA
ATOM     11  O   UNL     1     -96.042  84.490 208.806  1.00  0.00    -0.423 OA
ENDROOT
TORSDOF 0
ENDMDL
MODEL 2
REMARK VINA RESULT:    -4.756      0.988      1.397
REMARK INTER + INTRA:          -4.756
REMARK INTER:                  -4.756
REMARK INTRA:                   0.000
REMARK UNBOUND:                 0.000
REMARK SMILES O=c1ccc2ccccc2o1
REMARK SMILES IDX 7 1 8 2 9 3 10 4 5 5 6 6 4 7 3 8 2 9 1 10 11 11
REMARK H PARENT
REMARK Flexibility Score: inf
ROOT
ATOM      1  C   UNL     1     -98.508  81.961 206.070  1.00  0.00     0.001 A 
ATOM      2  C   UNL     1     -97.438  81.443 206.808  1.00  0.00     0.004 A 
ATOM      3  C   UNL     1     -96.712  82.270 207.670  1.00  0.00     0.048 A 
ATOM      4  C   UNL     1     -97.053  83.621 207.799  1.00  0.00     0.138 A 
ATOM      5  C   UNL     1     -98.134  84.145 207.054  1.00  0.00     0.018 A 
ATOM      6  C   UNL     1     -98.858  83.310 206.190  1.00  0.00     0.012 A 
ATOM      7  C   UNL     1     -98.452  85.499 207.202  1.00  0.00     0.019 A 
ATOM      8  C   UNL     1     -97.701  86.286 208.074  1.00  0.00     0.094 A 
ATOM      9  C   UNL     1     -96.645  85.699 208.780  1.00  0.00     0.336 A 
ATOM     10  O   UNL     1     -95.955  86.395 209.571  1.00  0.00    -0.246 OA
ATOM     11  O   UNL     1     -96.363  84.409 208.620  1.00  0.00    -0.423 OA
ENDROOT
TORSDOF 0
ENDMDL
MODEL 3
REMARK VINA RESULT:    -4.734      0.991      2.160
REMARK INTER + INTRA:          -4.734
REMARK INTER:                  -4.734
REMARK INTRA:                   0.000
REMARK UNBOUND:                 0.000
REMARK SMILES O=c1ccc2ccccc2o1
REMARK SMILES IDX 7 1 8 2 9 3 10 4 5 5 6 6 4 7 3 8 2 9 1 10 11 11
REMARK H PARENT
REMARK Flexibility Score: inf
ROOT
ATOM      1  C   UNL     1     -99.416  83.647 205.877  1.00  0.00     0.001 A 
ATOM      2  C   UNL     1     -99.740  84.990 206.104  1.00  0.00     0.004 A 
ATOM      3  C   UNL     1     -98.960  85.765 206.968  1.00  0.00     0.048 A 
ATOM      4  C   UNL     1     -97.852  85.201 207.609  1.00  0.00     0.138 A 
ATOM      5  C   UNL     1     -97.524  83.845 207.380  1.00  0.00     0.018 A 
ATOM      6  C   UNL     1     -98.310  83.072 206.513  1.00  0.00     0.012 A 
ATOM      7  C   UNL     1     -96.411  83.308 208.035  1.00  0.00     0.019 A 
ATOM      8  C   UNL     1     -95.662  84.119 208.887  1.00  0.00     0.094 A 
ATOM      9  C   UNL     1     -96.046  85.452 209.066  1.00  0.00     0.336 A 
ATOM     10  O   UNL     1     -95.382  86.199 209.832  1.00  0.00    -0.246 OA
ATOM     11  O   UNL     1     -97.109  85.939 208.431  1.00  0.00    -0.423 OA
ENDROOT
TORSDOF 0
ENDMDL
MODEL 4
REMARK VINA RESULT:    -4.719      2.747      4.348
REMARK INTER + INTRA:          -4.719
REMARK INTER:                  -4.719
REMARK INTRA:                   0.000
REMARK UNBOUND:                 0.000
REMARK SMILES O=c1ccc2ccccc2o1
REMARK SMILES IDX 7 1 8 2 9 3 10 4 5 5 6 6 4 7 3 8 2 9 1 10 11 11
REMARK H PARENT
REMARK Flexibility Score: inf
ROOT
ATOM      1  C   UNL     1     -98.227  86.005 207.381  1.00  0.00     0.001 A 
ATOM      2  C   UNL     1     -99.323  85.715 206.562  1.00  0.00     0.004 A 
ATOM      3  C   UNL     1     -99.521  84.416 206.084  1.00  0.00     0.048 A 
ATOM      4  C   UNL     1     -98.623  83.399 206.425  1.00  0.00     0.138 A 
ATOM      5  C   UNL     1     -97.515  83.690 207.253  1.00  0.00     0.018 A 
ATOM      6  C   UNL     1     -97.321  84.996 207.729  1.00  0.00     0.012 A 
ATOM      7  C   UNL     1     -96.634  82.654 207.577  1.00  0.00     0.019 A 
ATOM      8  C   UNL     1     -96.871  81.374 207.079  1.00  0.00     0.094 A 
ATOM      9  C   UNL     1     -97.988  81.158 206.265  1.00  0.00     0.336 A 
ATOM     10  O   UNL     1     -98.219  80.009 205.805  1.00  0.00    -0.246 OA
ATOM     11  O   UNL     1     -98.812  82.162 205.971  1.00  0.00    -0.423 OA
ENDROOT
TORSDOF 0
ENDMDL
MODEL 5
REMARK VINA RESULT:    -4.641      1.657      2.642
REMARK INTER + INTRA:          -4.641
REMARK INTER:                  -4.641
REMARK INTRA:                   0.000
REMARK UNBOUND:                 0.000
REMARK SMILES O=c1ccc2ccccc2o1
REMARK SMILES IDX 7 1 8 2 9 3 10 4 5 5 6 6 4 7 3 8 2 9 1 10 11 11
REMARK H PARENT
REMARK Flexibility Score: inf
ROOT
ATOM      1  C   UNL     1     -95.804  81.890 207.411  1.00  0.00     0.001 A 
ATOM      2  C   UNL     1     -94.938  82.313 208.426  1.00  0.00     0.004 A 
ATOM      3  C   UNL     1     -95.127  83.555 209.039  1.00  0.00     0.048 A 
ATOM      4  C   UNL     1     -96.184  84.381 208.640  1.00  0.00     0.138 A 
ATOM      5  C   UNL     1     -97.059  83.954 207.615  1.00  0.00     0.018 A 
ATOM      6  C   UNL     1     -96.864  82.707 207.004  1.00  0.00     0.012 A 
ATOM      7  C   UNL     1     -98.106  84.800 207.238  1.00  0.00     0.019 A 
ATOM      8  C   UNL     1     -98.257  86.030 207.877  1.00  0.00     0.094 A 
ATOM      9  C   UNL     1     -97.353  86.386 208.884  1.00  0.00     0.336 A 
ATOM     10  O   UNL     1     -97.472  87.493 209.472  1.00  0.00    -0.246 OA
ATOM     11  O   UNL     1     -96.365  85.563 209.225  1.00  0.00    -0.423 OA
ENDROOT
TORSDOF 0
ENDMDL
MODEL 6
REMARK VINA RESULT:    -4.610      1.651      2.783
REMARK INTER + INTRA:          -4.610
REMARK INTER:                  -4.610
REMARK INTRA:                   0.000
REMARK UNBOUND:                 0.000
REMARK SMILES O=c1ccc2ccccc2o1
REMARK SMILES IDX 7 1 8 2 9 3 10 4 5 5 6 6 4 7 3 8 2 9 1 10 11 11
REMARK H PARENT
REMARK Flexibility Score: inf
ROOT
ATOM      1  C   UNL     1     -97.432  81.199 207.922  1.00  0.00     0.001 A 
ATOM      2  C   UNL     1     -97.812  82.218 207.042  1.00  0.00     0.004 A 
ATOM      3  C   UNL     1     -97.361  83.526 207.242  1.00  0.00     0.048 A 
ATOM      4  C   UNL     1     -96.525  83.822 208.325  1.00  0.00     0.138 A 
ATOM      5  C   UNL     1     -96.140  82.793 209.215  1.00  0.00     0.018 A 
ATOM      6  C   UNL     1     -96.597  81.483 209.009  1.00  0.00     0.012 A 
ATOM      7  C   UNL     1     -95.305  83.118 210.287  1.00  0.00     0.019 A 
ATOM      8  C   UNL     1     -94.879  84.436 210.448  1.00  0.00     0.094 A 
ATOM      9  C   UNL     1     -95.300  85.402 209.528  1.00  0.00     0.336 A 
ATOM     10  O   UNL     1     -94.926  86.597 209.657  1.00  0.00    -0.246 OA
ATOM     11  O   UNL     1     -96.095  85.067 208.515  1.00  0.00    -0.423 OA
ENDROOT
TORSDOF 0
ENDMDL
MODEL 7
REMARK VINA RESULT:    -4.608      2.485      4.474
REMARK INTER + INTRA:          -4.608
REMARK INTER:                  -4.608
REMARK INTRA:                   0.000
REMARK UNBOUND:                 0.000
REMARK SMILES O=c1ccc2ccccc2o1
REMARK SMILES IDX 7 1 8 2 9 3 10 4 5 5 6 6 4 7 3 8 2 9 1 10 11 11
REMARK H PARENT
REMARK Flexibility Score: inf
ROOT
ATOM      1  C   UNL     1     -97.474  85.141 207.539  1.00  0.00     0.001 A 
ATOM      2  C   UNL     1     -96.209  84.785 208.019  1.00  0.00     0.004 A 
ATOM      3  C   UNL     1     -95.744  83.474 207.873  1.00  0.00     0.048 A 
ATOM      4  C   UNL     1     -96.543  82.513 207.244  1.00  0.00     0.138 A 
ATOM      5  C   UNL     1     -97.821  82.872 206.758  1.00  0.00     0.018 A 
ATOM      6  C   UNL     1     -98.282  84.188 206.908  1.00  0.00     0.012 A 
ATOM      7  C   UNL     1     -98.597  81.891 206.134  1.00  0.00     0.019 A 
ATOM      8  C   UNL     1     -98.093  80.597 206.010  1.00  0.00     0.094 A 
ATOM      9  C   UNL     1     -96.819  80.313 206.514  1.00  0.00     0.336 A 
ATOM     10  O   UNL     1     -96.347  79.150 206.411  1.00  0.00    -0.246 OA
ATOM     11  O   UNL     1     -96.100  81.265 207.104  1.00  0.00    -0.423 OA
ENDROOT
TORSDOF 0
ENDMDL
MODEL 8
REMARK VINA RESULT:    -4.574      1.226      3.126
REMARK INTER + INTRA:          -4.574
REMARK INTER:                  -4.574
REMARK INTRA:                   0.000
REMARK UNBOUND:                 0.000
REMARK SMILES O=c1ccc2ccccc2o1
REMARK SMILES IDX 7 1 8 2 9 3 10 4 5 5 6 6 4 7 3 8 2 9 1 10 11 11
REMARK H PARENT
REMARK Flexibility Score: inf
ROOT
ATOM      1  C   UNL     1     -98.258  87.291 207.296  1.00  0.00     0.001 A 
ATOM      2  C   UNL     1     -97.502  87.711 208.396  1.00  0.00     0.004 A 
ATOM      3  C   UNL     1     -96.748  86.787 209.126  1.00  0.00     0.048 A 
ATOM      4  C   UNL     1     -96.745  85.437 208.757  1.00  0.00     0.138 A 
ATOM      5  C   UNL     1     -97.508  85.012 207.645  1.00  0.00     0.018 A 
ATOM      6  C   UNL     1     -98.263  85.944 206.918  1.00  0.00     0.012 A 
ATOM      7  C   UNL     1     -97.486  83.658 207.300  1.00  0.00     0.019 A 
ATOM      8  C   UNL     1     -96.718  82.772 208.055  1.00  0.00     0.094 A 
ATOM      9  C   UNL     1     -95.988  83.263 209.143  1.00  0.00     0.336 A 
ATOM     10  O   UNL     1     -95.290  82.479 209.837  1.00  0.00    -0.246 OA
ATOM     11  O   UNL     1     -96.026  84.557 209.451  1.00  0.00    -0.423 OA
ENDROOT
TORSDOF 0
ENDMDL
MODEL 9
REMARK VINA RESULT:    -4.571      3.144      5.133
REMARK INTER + INTRA:          -4.571
REMARK INTER:                  -4.571
REMARK INTRA:                   0.000
REMARK UNBOUND:                 0.000
REMARK SMILES O=c1ccc2ccccc2o1
REMARK SMILES IDX 7 1 8 2 9 3 10 4 5 5 6 6 4 7 3 8 2 9 1 10 11 11
REMARK H PARENT
REMARK Flexibility Score: inf
ROOT
ATOM      1  C   UNL     1     -96.175  83.907 208.256  1.00  0.00     0.001 A 
ATOM      2  C   UNL     1     -95.854  83.136 209.378  1.00  0.00     0.004 A 
ATOM      3  C   UNL     1     -96.376  81.847 209.518  1.00  0.00     0.048 A 
ATOM      4  C   UNL     1     -97.223  81.322 208.536  1.00  0.00     0.138 A 
ATOM      5  C   UNL     1     -97.547  82.100 207.402  1.00  0.00     0.018 A 
ATOM      6  C   UNL     1     -97.021  83.393 207.267  1.00  0.00     0.012 A 
ATOM      7  C   UNL     1     -98.396  81.550 206.436  1.00  0.00     0.019 A 
ATOM      8  C   UNL     1     -98.893  80.260 206.618  1.00  0.00     0.094 A 
ATOM      9  C   UNL     1     -98.528  79.547 207.765  1.00  0.00     0.336 A 
ATOM     10  O   UNL     1     -98.967  78.381 207.947  1.00  0.00    -0.246 OA
ATOM     11  O   UNL     1     -97.719  80.094 208.669  1.00  0.00    -0.423 OA
ENDROOT
TORSDOF 0
ENDMDL
