MODEL 1
REMARK VINA RESULT:    -2.306      0.000      0.000
REMARK INTER + INTRA:          -2.306
REMARK INTER:                  -2.306
REMARK INTRA:                   0.000
REMARK UNBOUND:                 0.000
REMARK SMILES CC(=O)[O-]
REMARK SMILES IDX 1 1 2 2 3 3 4 4
REMARK H PARENT
REMARK Flexibility Score: inf
ROOT
ATOM      1  C   UNL     1      60.605  28.532  13.341  1.00  0.00     0.063 C 
ATOM      2  C   UNL     1      59.403  28.248  12.506  1.00  0.00     0.038 C 
ATOM      3  O   UNL     1      58.455  27.564  12.975  1.00  0.00    -0.550 OA
ATOM      4  O   UNL     1      59.300  28.784  11.229  1.00  0.00    -0.550 OA
ENDROOT
TORSDOF 0
ENDMDL
MODEL 2
REMARK VINA RESULT:    -2.302      0.093      1.621
REMARK INTER + INTRA:          -2.302
REMARK INTER:                  -2.302
REMARK INTRA:                   0.000
REMARK UNBOUND:                 0.000
REMARK SMILES CC(=O)[O-]
REMARK SMILES IDX 1 1 2 2 3 3 4 4
REMARK H PARENT
REMARK Flexibility Score: inf
ROOT
ATOM      1  C   UNL     1      60.607  28.540  13.324  1.00  0.00     0.063 C 
ATOM      2  C   UNL     1      59.380  28.307  12.508  1.00  0.00     0.038 C 
ATOM      3  O   UNL     1      59.283  28.804  11.356  1.00  0.00    -0.550 OA
ATOM      4  O   UNL     1      58.365  27.493  12.995  1.00  0.00    -0.550 OA
ENDROOT
TORSDOF 0
ENDMDL
MODEL 3
REMARK VINA RESULT:    -2.272     12.687     13.392
REMARK INTER + INTRA:          -2.272
REMARK INTER:                  -2.272
REMARK INTRA:                   0.000
REMARK UNBOUND:                 0.000
REMARK SMILES CC(=O)[O-]
REMARK SMILES IDX 1 1 2 2 3 3 4 4
REMARK H PARENT
REMARK Flexibility Score: inf
ROOT
ATOM      1  C   UNL     1      61.193  28.095  24.834  1.00  0.00     0.063 C 
ATOM      2  C   UNL     1      60.428  27.166  25.715  1.00  0.00     0.038 C 
ATOM      3  O   UNL     1      59.406  26.576  25.275  1.00  0.00    -0.550 OA
ATOM      4  O   UNL     1      60.873  26.905  27.005  1.00  0.00    -0.550 OA
ENDROOT
TORSDOF 0
ENDMDL
MODEL 4
REMARK VINA RESULT:    -2.168      1.732      2.002
REMARK INTER + INTRA:          -2.168
REMARK INTER:                  -2.168
REMARK INTRA:                   0.000
REMARK UNBOUND:                 0.000
REMARK SMILES CC(=O)[O-]
REMARK SMILES IDX 1 1 2 2 3 3 4 4
REMARK H PARENT
REMARK Flexibility Score: inf
ROOT
ATOM      1  C   UNL     1      59.981  28.068  12.752  1.00  0.00     0.063 C 
ATOM      2  C   UNL     1      60.081  28.617  11.370  1.00  0.00     0.038 C 
ATOM      3  O   UNL     1      59.599  29.750  11.103  1.00  0.00    -0.550 OA
ATOM      4  O   UNL     1      60.755  27.906  10.385  1.00  0.00    -0.550 OA
ENDROOT
TORSDOF 0
ENDMDL
MODEL 5
REMARK VINA RESULT:    -2.162     15.612     16.215
REMARK INTER + INTRA:          -2.162
REMARK INTER:                  -2.162
REMARK INTRA:                   0.000
REMARK UNBOUND:                 0.000
REMARK SMILES CC(=O)[O-]
REMARK SMILES IDX 1 1 2 2 3 3 4 4
REMARK H PARENT
REMARK Flexibility Score: inf
ROOT
ATOM      1  C   UNL     1      60.995  29.006  29.124  1.00  0.00     0.063 C 
ATOM      2  C   UNL     1      61.994  29.758  28.311  1.00  0.00     0.038 C 
ATOM      3  O   UNL     1      62.230  29.413  27.123  1.00  0.00    -0.550 OA
ATOM      4  O   UNL     1      62.624  30.876  28.842  1.00  0.00    -0.550 OA
ENDROOT
TORSDOF 0
ENDMDL
MODEL 6
REMARK VINA RESULT:    -2.157     16.260     16.454
REMARK INTER + INTRA:          -2.157
REMARK INTER:                  -2.157
REMARK INTRA:                   0.000
REMARK UNBOUND:                 0.000
REMARK SMILES CC(=O)[O-]
REMARK SMILES IDX 1 1 2 2 3 3 4 4
REMARK H PARENT
REMARK Flexibility Score: inf
ROOT
ATOM      1  C   UNL     1      62.581  30.516  28.742  1.00  0.00     0.063 C 
ATOM      2  C   UNL     1      61.871  29.204  28.727  1.00  0.00     0.038 C 
ATOM      3  O   UNL     1      60.678  29.127  29.125  1.00  0.00    -0.550 OA
ATOM      4  O   UNL     1      62.504  28.075  28.222  1.00  0.00    -0.550 OA
ENDROOT
TORSDOF 0
ENDMDL
MODEL 7
REMARK VINA RESULT:    -2.151      2.439      2.995
REMARK INTER + INTRA:          -2.151
REMARK INTER:                  -2.151
REMARK INTRA:                   0.000
REMARK UNBOUND:                 0.000
REMARK SMILES CC(=O)[O-]
REMARK SMILES IDX 1 1 2 2 3 3 4 4
REMARK H PARENT
REMARK Flexibility Score: inf
ROOT
ATOM      1  C   UNL     1      61.883  28.652  10.773  1.00  0.00     0.063 C 
ATOM      2  C   UNL     1      60.606  28.290  10.094  1.00  0.00     0.038 C 
ATOM      3  O   UNL     1      60.621  27.569   9.062  1.00  0.00    -0.550 OA
ATOM      4  O   UNL     1      59.392  28.702  10.629  1.00  0.00    -0.550 OA
ENDROOT
TORSDOF 0
ENDMDL
MODEL 8
REMARK VINA RESULT:    -2.116     15.218     15.754
REMARK INTER + INTRA:          -2.116
REMARK INTER:                  -2.116
REMARK INTRA:                   0.000
REMARK UNBOUND:                 0.000
REMARK SMILES CC(=O)[O-]
REMARK SMILES IDX 1 1 2 2 3 3 4 4
REMARK H PARENT
REMARK Flexibility Score: inf
ROOT
ATOM      1  C   UNL     1      61.186  27.203  27.411  1.00  0.00     0.063 C 
ATOM      2  C   UNL     1      61.187  28.560  28.028  1.00  0.00     0.038 C 
ATOM      3  O   UNL     1      61.882  29.482  27.525  1.00  0.00    -0.550 OA
ATOM      4  O   UNL     1      60.378  28.827  29.125  1.00  0.00    -0.550 OA
ENDROOT
TORSDOF 0
ENDMDL
MODEL 9
REMARK VINA RESULT:    -2.116     15.547     16.185
REMARK INTER + INTRA:          -2.116
REMARK INTER:                  -2.116
REMARK INTRA:                   0.000
REMARK UNBOUND:                 0.000
REMARK SMILES CC(=O)[O-]
REMARK SMILES IDX 1 1 2 2 3 3 4 4
REMARK H PARENT
REMARK Flexibility Score: inf
ROOT
ATOM      1  C   UNL     1      60.839  28.711  29.124  1.00  0.00     0.063 C 
ATOM      2  C   UNL     1      61.392  27.474  28.501  1.00  0.00     0.038 C 
ATOM      3  O   UNL     1      62.239  26.779  29.121  1.00  0.00    -0.550 OA
ATOM      4  O   UNL     1      60.932  27.055  27.259  1.00  0.00    -0.550 OA
ENDROOT
TORSDOF 0
ENDMDL
