MODEL 1
REMARK VINA RESULT:    -6.479      0.000      0.000
REMARK INTER + INTRA:         -10.110
REMARK INTER:                  -9.509
REMARK INTRA:                  -0.601
REMARK UNBOUND:                -0.601
REMARK SMILES O=c1c(O[C@@H]2O[C@H](CO)[C@H](O)[C@H](O)[C@H]2O)c(-c2ccc(O)c(O)c2)oc2cc(O)cc(O)c12
REMARK SMILES IDX 4 1 3 2 16 3 25 4 2 5 26 6 1 7 33 8 27 9 31 10 28 11 30 12
REMARK SMILES IDX 17 13 18 14 19 15 20 16 24 17 22 18 21 19 23 21 32 23 29 25
REMARK SMILES IDX 5 27 14 28 6 29 12 30 7 31 10 32 15 33 13 35 8 37 9 38 11 40
REMARK H PARENT 21 20 23 22 32 24 29 26 15 34 13 36 9 39 11 41
REMARK Flexibility Score: inf
ROOT
ATOM      1  O   UNL     1      13.288   1.036   1.168  1.00  0.00    -0.454 OA
ENDROOT
BRANCH   1   2
ATOM      2  C   UNL     1      12.624   1.921   0.300  1.00  0.00     0.214 A 
ATOM      3  C   UNL     1      13.225   2.416  -0.880  1.00  0.00     0.180 A 
ATOM      4  O   UNL     1      12.596   3.327  -1.615  1.00  0.00    -0.452 OA
ATOM      5  C   UNL     1      11.322   2.337   0.611  1.00  0.00     0.239 A 
ATOM      6  C   UNL     1      11.382   3.783  -1.328  1.00  0.00     0.146 A 
ATOM      7  O   UNL     1      10.748   1.860   1.626  1.00  0.00    -0.285 OA
ATOM      8  C   UNL     1      10.678   3.294  -0.202  1.00  0.00     0.111 A 
ATOM      9  C   UNL     1      10.801   4.743  -2.162  1.00  0.00     0.094 A 
ATOM     10  C   UNL     1       9.378   3.788   0.064  1.00  0.00     0.134 A 
ATOM     11  C   UNL     1       9.521   5.229  -1.892  1.00  0.00     0.123 A 
ATOM     12  C   UNL     1       8.811   4.751  -0.785  1.00  0.00     0.093 A 
BRANCH   3  13
ATOM     13  C   UNL     1      14.538   1.939  -1.357  1.00  0.00     0.025 A 
ATOM     14  C   UNL     1      15.698   2.688  -1.125  1.00  0.00     0.016 A 
ATOM     15  C   UNL     1      16.933   2.238  -1.592  1.00  0.00     0.051 A 
ATOM     16  C   UNL     1      17.033   1.025  -2.287  1.00  0.00     0.157 A 
ATOM     17  C   UNL     1      14.634   0.713  -2.026  1.00  0.00     0.062 A 
ATOM     18  C   UNL     1      15.868   0.251  -2.505  1.00  0.00     0.158 A 
BRANCH  16  19
ATOM     19  O   UNL     1      18.295   0.634  -2.738  1.00  0.00    -0.504 OA
ATOM     20  H   UNL     1      19.162   0.988  -2.363  1.00  0.00     0.293 HD
ENDBRANCH  16  19
BRANCH  18  21
ATOM     21  O   UNL     1      15.887  -0.963  -3.193  1.00  0.00    -0.504 OA
ATOM     22  H   UNL     1      15.513  -1.827  -2.827  1.00  0.00     0.293 HD
ENDBRANCH  18  21
ENDBRANCH   3  13
BRANCH  10  23
ATOM     23  O   UNL     1       8.648   3.335   1.163  1.00  0.00    -0.507 OA
ATOM     24  H   UNL     1       8.063   3.955   1.708  1.00  0.00     0.293 HD
ENDBRANCH  10  23
BRANCH  11  25
ATOM     25  O   UNL     1       8.963   6.191  -2.730  1.00  0.00    -0.508 OA
ATOM     26  H   UNL     1       9.537   6.760  -3.345  1.00  0.00     0.293 HD
ENDBRANCH  11  25
ENDBRANCH   1   2
BRANCH   1  27
ATOM     27  C   UNL     1      12.878   0.803   2.522  1.00  0.00     0.339 C 
ATOM     28  C   UNL     1      13.070  -0.673   2.932  1.00  0.00     0.214 C 
ATOM     29  O   UNL     1      13.497   1.724   3.413  1.00  0.00    -0.332 OA
ATOM     30  C   UNL     1      14.565  -1.013   3.164  1.00  0.00     0.180 C 
ATOM     31  C   UNL     1      14.884   1.491   3.633  1.00  0.00     0.179 C 
ATOM     32  C   UNL     1      15.172   0.040   4.107  1.00  0.00     0.177 C 
BRANCH  28  33
ATOM     33  O   UNL     1      12.343  -0.903   4.114  1.00  0.00    -0.384 OA
ATOM     34  H   UNL     1      11.649  -0.193   4.169  1.00  0.00     0.211 HD
ENDBRANCH  28  33
BRANCH  30  35
ATOM     35  O   UNL     1      15.320  -1.105   1.975  1.00  0.00    -0.387 OA
ATOM     36  H   UNL     1      16.147  -1.646   2.144  1.00  0.00     0.211 HD
ENDBRANCH  30  35
BRANCH  31  37
ATOM     37  C   UNL     1      15.759   1.997   2.461  1.00  0.00     0.191 C 
BRANCH  37  38
ATOM     38  O   UNL     1      15.437   3.322   2.137  1.00  0.00    -0.394 OA
ATOM     39  H   UNL     1      14.450   3.366   2.053  1.00  0.00     0.210 HD
ENDBRANCH  37  38
ENDBRANCH  31  37
BRANCH  32  40
ATOM     40  O   UNL     1      16.541  -0.187   4.348  1.00  0.00    -0.387 OA
ATOM     41  H   UNL     1      16.643  -0.555   5.264  1.00  0.00     0.211 HD
ENDBRANCH  32  40
ENDBRANCH   1  27
TORSDOF 12
ENDMDL
MODEL 2
REMARK VINA RESULT:    -6.326      1.301      2.502
REMARK INTER + INTRA:          -9.885
REMARK INTER:                  -8.802
REMARK INTRA:                  -1.083
REMARK UNBOUND:                -0.601
REMARK SMILES O=c1c(O[C@@H]2O[C@H](CO)[C@H](O)[C@H](O)[C@H]2O)c(-c2ccc(O)c(O)c2)oc2cc(O)cc(O)c12
REMARK SMILES IDX 4 1 3 2 16 3 25 4 2 5 26 6 1 7 33 8 27 9 31 10 28 11 30 12
REMARK SMILES IDX 17 13 18 14 19 15 20 16 24 17 22 18 21 19 23 21 32 23 29 25
REMARK SMILES IDX 5 27 14 28 6 29 12 30 7 31 10 32 15 33 13 35 8 37 9 38 11 40
REMARK H PARENT 21 20 23 22 32 24 29 26 15 34 13 36 9 39 11 41
REMARK Flexibility Score: inf
ROOT
ATOM      1  O   UNL     1      12.410   1.797   1.230  1.00  0.00    -0.454 OA
ENDROOT
BRANCH   1   2
ATOM      2  C   UNL     1      11.804   2.650   0.290  1.00  0.00     0.214 A 
ATOM      3  C   UNL     1      12.428   2.996  -0.930  1.00  0.00     0.180 A 
ATOM      4  O   UNL     1      11.860   3.884  -1.739  1.00  0.00    -0.452 OA
ATOM      5  C   UNL     1      10.539   3.185   0.568  1.00  0.00     0.239 A 
ATOM      6  C   UNL     1      10.685   4.450  -1.489  1.00  0.00     0.146 A 
ATOM      7  O   UNL     1       9.941   2.841   1.623  1.00  0.00    -0.285 OA
ATOM      8  C   UNL     1       9.958   4.113  -0.323  1.00  0.00     0.111 A 
ATOM      9  C   UNL     1      10.167   5.375  -2.402  1.00  0.00     0.094 A 
ATOM     10  C   UNL     1       8.700   4.722  -0.097  1.00  0.00     0.134 A 
ATOM     11  C   UNL     1       8.929   5.975  -2.171  1.00  0.00     0.123 A 
ATOM     12  C   UNL     1       8.197   5.647  -1.024  1.00  0.00     0.093 A 
BRANCH   3  13
ATOM     13  C   UNL     1      13.698   2.385  -1.368  1.00  0.00     0.025 A 
ATOM     14  C   UNL     1      13.700   1.231  -2.161  1.00  0.00     0.016 A 
ATOM     15  C   UNL     1      14.905   0.650  -2.559  1.00  0.00     0.051 A 
ATOM     16  C   UNL     1      16.128   1.219  -2.182  1.00  0.00     0.157 A 
ATOM     17  C   UNL     1      14.917   2.975  -1.011  1.00  0.00     0.062 A 
ATOM     18  C   UNL     1      16.135   2.400  -1.400  1.00  0.00     0.158 A 
BRANCH  16  19
ATOM     19  O   UNL     1      17.300   0.586  -2.603  1.00  0.00    -0.504 OA
ATOM     20  H   UNL     1      18.150   1.075  -2.841  1.00  0.00     0.293 HD
ENDBRANCH  16  19
BRANCH  18  21
ATOM     21  O   UNL     1      17.312   3.020  -0.981  1.00  0.00    -0.504 OA
ATOM     22  H   UNL     1      18.214   2.872  -1.413  1.00  0.00     0.293 HD
ENDBRANCH  18  21
ENDBRANCH   3  13
BRANCH  10  23
ATOM     23  O   UNL     1       7.949   4.420   1.040  1.00  0.00    -0.507 OA
ATOM     24  H   UNL     1       8.380   4.301   1.947  1.00  0.00     0.293 HD
ENDBRANCH  10  23
BRANCH  11  25
ATOM     25  O   UNL     1       8.434   6.899  -3.087  1.00  0.00    -0.508 OA
ATOM     26  H   UNL     1       8.455   6.721  -4.087  1.00  0.00     0.293 HD
ENDBRANCH  11  25
ENDBRANCH   1   2
BRANCH   1  27
ATOM     27  C   UNL     1      12.945   0.510   0.897  1.00  0.00     0.339 C 
ATOM     28  C   UNL     1      14.420   0.372   1.335  1.00  0.00     0.214 C 
ATOM     29  O   UNL     1      12.111  -0.535   1.381  1.00  0.00    -0.332 OA
ATOM     30  C   UNL     1      14.547   0.198   2.870  1.00  0.00     0.180 C 
ATOM     31  C   UNL     1      12.150  -0.717   2.793  1.00  0.00     0.179 C 
ATOM     32  C   UNL     1      13.595  -0.922   3.323  1.00  0.00     0.177 C 
BRANCH  28  33
ATOM     33  O   UNL     1      14.974  -0.745   0.684  1.00  0.00    -0.384 OA
ATOM     34  H   UNL     1      14.660  -0.714  -0.259  1.00  0.00     0.211 HD
ENDBRANCH  28  33
BRANCH  30  35
ATOM     35  O   UNL     1      14.300   1.381   3.600  1.00  0.00    -0.387 OA
ATOM     36  H   UNL     1      14.916   1.422   4.390  1.00  0.00     0.211 HD
ENDBRANCH  30  35
BRANCH  31  37
ATOM     37  C   UNL     1      11.306   0.340   3.545  1.00  0.00     0.191 C 
BRANCH  37  38
ATOM     38  O   UNL     1      10.044   0.482   2.952  1.00  0.00    -0.394 OA
ATOM     39  H   UNL     1       9.433  -0.143   3.421  1.00  0.00     0.210 HD
ENDBRANCH  37  38
ENDBRANCH  31  37
BRANCH  32  40
ATOM     40  O   UNL     1      13.635  -1.125   4.716  1.00  0.00    -0.387 OA
ATOM     41  H   UNL     1      14.511  -0.806   5.057  1.00  0.00     0.211 HD
ENDBRANCH  32  40
ENDBRANCH   1  27
TORSDOF 12
ENDMDL
MODEL 3
REMARK VINA RESULT:    -6.020      2.322      6.492
REMARK INTER + INTRA:          -9.436
REMARK INTER:                  -7.828
REMARK INTRA:                  -1.608
REMARK UNBOUND:                -0.601
REMARK SMILES O=c1c(O[C@@H]2O[C@H](CO)[C@H](O)[C@H](O)[C@H]2O)c(-c2ccc(O)c(O)c2)oc2cc(O)cc(O)c12
REMARK SMILES IDX 4 1 3 2 16 3 25 4 2 5 26 6 1 7 33 8 27 9 31 10 28 11 30 12
REMARK SMILES IDX 17 13 18 14 19 15 20 16 24 17 22 18 21 19 23 21 32 23 29 25
REMARK SMILES IDX 5 27 14 28 6 29 12 30 7 31 10 32 15 33 13 35 8 37 9 38 11 40
REMARK H PARENT 21 20 23 22 32 24 29 26 15 34 13 36 9 39 11 41
REMARK Flexibility Score: inf
ROOT
ATOM      1  O   UNL     1      10.834   1.817   1.302  1.00  0.00    -0.454 OA
ENDROOT
BRANCH   1   2
ATOM      2  C   UNL     1      12.064   2.033   0.655  1.00  0.00     0.214 A 
ATOM      3  C   UNL     1      12.292   3.146  -0.185  1.00  0.00     0.180 A 
ATOM      4  O   UNL     1      13.437   3.252  -0.853  1.00  0.00    -0.452 OA
ATOM      5  C   UNL     1      13.106   1.113   0.841  1.00  0.00     0.239 A 
ATOM      6  C   UNL     1      14.428   2.377  -0.742  1.00  0.00     0.146 A 
ATOM      7  O   UNL     1      12.942   0.147   1.633  1.00  0.00    -0.285 OA
ATOM      8  C   UNL     1      14.314   1.267   0.128  1.00  0.00     0.111 A 
ATOM      9  C   UNL     1      15.596   2.574  -1.486  1.00  0.00     0.094 A 
ATOM     10  C   UNL     1      15.399   0.363   0.236  1.00  0.00     0.134 A 
ATOM     11  C   UNL     1      16.660   1.677  -1.378  1.00  0.00     0.123 A 
ATOM     12  C   UNL     1      16.562   0.577  -0.518  1.00  0.00     0.093 A 
BRANCH   3  13
ATOM     13  C   UNL     1      11.305   4.232  -0.341  1.00  0.00     0.025 A 
ATOM     14  C   UNL     1      10.912   5.004   0.760  1.00  0.00     0.016 A 
ATOM     15  C   UNL     1       9.967   6.019   0.607  1.00  0.00     0.051 A 
ATOM     16  C   UNL     1       9.408   6.290  -0.648  1.00  0.00     0.157 A 
ATOM     17  C   UNL     1      10.771   4.516  -1.604  1.00  0.00     0.062 A 
ATOM     18  C   UNL     1       9.818   5.530  -1.771  1.00  0.00     0.158 A 
BRANCH  16  19
ATOM     19  O   UNL     1       8.460   7.312  -0.734  1.00  0.00    -0.504 OA
ATOM     20  H   UNL     1       8.617   8.254  -0.409  1.00  0.00     0.293 HD
ENDBRANCH  16  19
BRANCH  18  21
ATOM     21  O   UNL     1       9.303   5.737  -3.051  1.00  0.00    -0.504 OA
ATOM     22  H   UNL     1       9.865   5.757  -3.890  1.00  0.00     0.293 HD
ENDBRANCH  18  21
ENDBRANCH   3  13
BRANCH  10  23
ATOM     23  O   UNL     1      15.329  -0.746   1.081  1.00  0.00    -0.507 OA
ATOM     24  H   UNL     1      15.910  -0.825   1.905  1.00  0.00     0.293 HD
ENDBRANCH  10  23
BRANCH  11  25
ATOM     25  O   UNL     1      17.811   1.885  -2.133  1.00  0.00    -0.508 OA
ATOM     26  H   UNL     1      18.691   1.436  -1.897  1.00  0.00     0.293 HD
ENDBRANCH  11  25
ENDBRANCH   1   2
BRANCH   1  27
ATOM     27  C   UNL     1       9.649   1.387   0.621  1.00  0.00     0.339 C 
ATOM     28  C   UNL     1       9.676  -0.128   0.327  1.00  0.00     0.214 C 
ATOM     29  O   UNL     1       8.478   1.811   1.308  1.00  0.00    -0.332 OA
ATOM     30  C   UNL     1       9.427  -0.964   1.608  1.00  0.00     0.180 C 
ATOM     31  C   UNL     1       8.218   1.109   2.519  1.00  0.00     0.179 C 
ATOM     32  C   UNL     1       8.169  -0.430   2.313  1.00  0.00     0.177 C 
BRANCH  28  33
ATOM     33  O   UNL     1       8.680  -0.413  -0.626  1.00  0.00    -0.384 OA
ATOM     34  H   UNL     1       8.755  -1.381  -0.839  1.00  0.00     0.211 HD
ENDBRANCH  28  33
BRANCH  30  35
ATOM     35  O   UNL     1      10.522  -0.981   2.499  1.00  0.00    -0.387 OA
ATOM     36  H   UNL     1      11.021  -0.114   2.434  1.00  0.00     0.211 HD
ENDBRANCH  30  35
BRANCH  31  37
ATOM     37  C   UNL     1       9.110   1.598   3.686  1.00  0.00     0.191 C 
BRANCH  37  38
ATOM     38  O   UNL     1       8.656   1.083   4.908  1.00  0.00    -0.394 OA
ATOM     39  H   UNL     1       9.244   0.318   5.135  1.00  0.00     0.210 HD
ENDBRANCH  37  38
ENDBRANCH  31  37
BRANCH  32  40
ATOM     40  O   UNL     1       7.888  -1.125   3.505  1.00  0.00    -0.387 OA
ATOM     41  H   UNL     1       7.818  -0.467   4.245  1.00  0.00     0.211 HD
ENDBRANCH  32  40
ENDBRANCH   1  27
TORSDOF 12
ENDMDL
MODEL 4
REMARK VINA RESULT:    -5.713      1.511      4.712
REMARK INTER + INTRA:          -8.986
REMARK INTER:                  -8.622
REMARK INTRA:                  -0.364
REMARK UNBOUND:                -0.601
REMARK SMILES O=c1c(O[C@@H]2O[C@H](CO)[C@H](O)[C@H](O)[C@H]2O)c(-c2ccc(O)c(O)c2)oc2cc(O)cc(O)c12
REMARK SMILES IDX 4 1 3 2 16 3 25 4 2 5 26 6 1 7 33 8 27 9 31 10 28 11 30 12
REMARK SMILES IDX 17 13 18 14 19 15 20 16 24 17 22 18 21 19 23 21 32 23 29 25
REMARK SMILES IDX 5 27 14 28 6 29 12 30 7 31 10 32 15 33 13 35 8 37 9 38 11 40
REMARK H PARENT 21 20 23 22 32 24 29 26 15 34 13 36 9 39 11 41
REMARK Flexibility Score: inf
ROOT
ATOM      1  O   UNL     1      13.758   1.527  -0.766  1.00  0.00    -0.454 OA
ENDROOT
BRANCH   1   2
ATOM      2  C   UNL     1      12.771   2.394  -0.264  1.00  0.00     0.214 A 
ATOM      3  C   UNL     1      12.322   2.336   1.075  1.00  0.00     0.180 A 
ATOM      4  O   UNL     1      11.318   3.109   1.474  1.00  0.00    -0.452 OA
ATOM      5  C   UNL     1      12.203   3.351  -1.117  1.00  0.00     0.239 A 
ATOM      6  C   UNL     1      10.721   3.993   0.684  1.00  0.00     0.146 A 
ATOM      7  O   UNL     1      12.632   3.458  -2.297  1.00  0.00    -0.285 OA
ATOM      8  C   UNL     1      11.149   4.166  -0.654  1.00  0.00     0.111 A 
ATOM      9  C   UNL     1       9.671   4.763   1.194  1.00  0.00     0.094 A 
ATOM     10  C   UNL     1      10.502   5.132  -1.463  1.00  0.00     0.134 A 
ATOM     11  C   UNL     1       9.034   5.709   0.390  1.00  0.00     0.123 A 
ATOM     12  C   UNL     1       9.451   5.895  -0.933  1.00  0.00     0.093 A 
BRANCH   3  13
ATOM     13  C   UNL     1      12.948   1.453   2.079  1.00  0.00     0.025 A 
ATOM     14  C   UNL     1      12.513   0.131   2.239  1.00  0.00     0.016 A 
ATOM     15  C   UNL     1      13.099  -0.692   3.200  1.00  0.00     0.051 A 
ATOM     16  C   UNL     1      14.138  -0.215   4.009  1.00  0.00     0.157 A 
ATOM     17  C   UNL     1      14.005   1.928   2.865  1.00  0.00     0.062 A 
ATOM     18  C   UNL     1      14.600   1.113   3.838  1.00  0.00     0.158 A 
BRANCH  16  19
ATOM     19  O   UNL     1      14.677  -1.084   4.960  1.00  0.00    -0.504 OA
ATOM     20  H   UNL     1      15.260  -0.787   5.729  1.00  0.00     0.293 HD
ENDBRANCH  16  19
BRANCH  18  21
ATOM     21  O   UNL     1      15.626   1.660   4.609  1.00  0.00    -0.504 OA
ATOM     22  H   UNL     1      15.483   2.113   5.501  1.00  0.00     0.293 HD
ENDBRANCH  18  21
ENDBRANCH   3  13
BRANCH  10  23
ATOM     23  O   UNL     1      10.891   5.336  -2.788  1.00  0.00    -0.507 OA
ATOM     24  H   UNL     1      11.792   5.031  -3.132  1.00  0.00     0.293 HD
ENDBRANCH  10  23
BRANCH  11  25
ATOM     25  O   UNL     1       7.986   6.460   0.915  1.00  0.00    -0.508 OA
ATOM     26  H   UNL     1       7.018   6.260   0.680  1.00  0.00     0.293 HD
ENDBRANCH  11  25
ENDBRANCH   1   2
BRANCH   1  27
ATOM     27  C   UNL     1      14.785   0.945   0.047  1.00  0.00     0.339 C 
ATOM     28  C   UNL     1      15.184  -0.460  -0.452  1.00  0.00     0.214 C 
ATOM     29  O   UNL     1      15.889   1.829   0.192  1.00  0.00    -0.332 OA
ATOM     30  C   UNL     1      16.036  -0.388  -1.745  1.00  0.00     0.180 C 
ATOM     31  C   UNL     1      16.688   1.973  -0.977  1.00  0.00     0.179 C 
ATOM     32  C   UNL     1      17.187   0.608  -1.525  1.00  0.00     0.177 C 
BRANCH  28  33
ATOM     33  O   UNL     1      15.917  -1.101   0.564  1.00  0.00    -0.384 OA
ATOM     34  H   UNL     1      15.558  -0.770   1.430  1.00  0.00     0.211 HD
ENDBRANCH  28  33
BRANCH  30  35
ATOM     35  O   UNL     1      15.296  -0.041  -2.896  1.00  0.00    -0.387 OA
ATOM     36  H   UNL     1      15.863  -0.177  -3.712  1.00  0.00     0.211 HD
ENDBRANCH  30  35
BRANCH  31  37
ATOM     37  C   UNL     1      16.039   2.914  -2.021  1.00  0.00     0.191 C 
BRANCH  37  38
ATOM     38  O   UNL     1      15.545   4.073  -1.406  1.00  0.00    -0.394 OA
ATOM     39  H   UNL     1      14.569   3.942  -1.286  1.00  0.00     0.210 HD
ENDBRANCH  37  38
ENDBRANCH  31  37
BRANCH  32  40
ATOM     40  O   UNL     1      17.996   0.749  -2.668  1.00  0.00    -0.387 OA
ATOM     41  H   UNL     1      17.837   1.648  -3.059  1.00  0.00     0.211 HD
ENDBRANCH  32  40
ENDBRANCH   1  27
TORSDOF 12
ENDMDL
MODEL 5
REMARK VINA RESULT:    -5.659      1.899      4.969
REMARK INTER + INTRA:          -8.907
REMARK INTER:                  -7.327
REMARK INTRA:                  -1.580
REMARK UNBOUND:                -0.601
REMARK SMILES O=c1c(O[C@@H]2O[C@H](CO)[C@H](O)[C@H](O)[C@H]2O)c(-c2ccc(O)c(O)c2)oc2cc(O)cc(O)c12
REMARK SMILES IDX 4 1 3 2 16 3 25 4 2 5 26 6 1 7 33 8 27 9 31 10 28 11 30 12
REMARK SMILES IDX 17 13 18 14 19 15 20 16 24 17 22 18 21 19 23 21 32 23 29 25
REMARK SMILES IDX 5 27 14 28 6 29 12 30 7 31 10 32 15 33 13 35 8 37 9 38 11 40
REMARK H PARENT 21 20 23 22 32 24 29 26 15 34 13 36 9 39 11 41
REMARK Flexibility Score: inf
ROOT
ATOM      1  O   UNL     1      14.427   1.726  -0.078  1.00  0.00    -0.454 OA
ENDROOT
BRANCH   1   2
ATOM      2  C   UNL     1      13.550   2.671   0.484  1.00  0.00     0.214 A 
ATOM      3  C   UNL     1      13.466   2.891   1.878  1.00  0.00     0.180 A 
ATOM      4  O   UNL     1      12.551   3.722   2.366  1.00  0.00    -0.452 OA
ATOM      5  C   UNL     1      12.722   3.423  -0.361  1.00  0.00     0.239 A 
ATOM      6  C   UNL     1      11.716   4.416   1.602  1.00  0.00     0.146 A 
ATOM      7  O   UNL     1      12.825   3.284  -1.609  1.00  0.00    -0.285 OA
ATOM      8  C   UNL     1      11.773   4.309   0.192  1.00  0.00     0.111 A 
ATOM      9  C   UNL     1      10.786   5.267   2.209  1.00  0.00     0.094 A 
ATOM     10  C   UNL     1      10.879   5.078  -0.593  1.00  0.00     0.134 A 
ATOM     11  C   UNL     1       9.905   6.018   1.430  1.00  0.00     0.123 A 
ATOM     12  C   UNL     1       9.954   5.927   0.034  1.00  0.00     0.093 A 
BRANCH   3  13
ATOM     13  C   UNL     1      14.383   2.243   2.835  1.00  0.00     0.025 A 
ATOM     14  C   UNL     1      15.568   2.876   3.229  1.00  0.00     0.016 A 
ATOM     15  C   UNL     1      16.438   2.251   4.123  1.00  0.00     0.051 A 
ATOM     16  C   UNL     1      16.133   0.989   4.650  1.00  0.00     0.157 A 
ATOM     17  C   UNL     1      14.058   0.994   3.379  1.00  0.00     0.062 A 
ATOM     18  C   UNL     1      14.925   0.353   4.274  1.00  0.00     0.158 A 
BRANCH  16  19
ATOM     19  O   UNL     1      17.048   0.411   5.532  1.00  0.00    -0.504 OA
ATOM     20  H   UNL     1      17.628   0.938   6.167  1.00  0.00     0.293 HD
ENDBRANCH  16  19
BRANCH  18  21
ATOM     21  O   UNL     1      14.555  -0.906   4.752  1.00  0.00    -0.504 OA
ATOM     22  H   UNL     1      15.213  -1.631   5.001  1.00  0.00     0.293 HD
ENDBRANCH  18  21
ENDBRANCH   3  13
BRANCH  10  23
ATOM     23  O   UNL     1      10.901   5.004  -1.986  1.00  0.00    -0.507 OA
ATOM     24  H   UNL     1      10.306   5.586  -2.560  1.00  0.00     0.293 HD
ENDBRANCH  10  23
BRANCH  11  25
ATOM     25  O   UNL     1       8.982   6.854   2.052  1.00  0.00    -0.508 OA
ATOM     26  H   UNL     1       8.271   6.489   2.679  1.00  0.00     0.293 HD
ENDBRANCH  11  25
ENDBRANCH   1   2
BRANCH   1  27
ATOM     27  C   UNL     1      14.080   0.351  -0.281  1.00  0.00     0.339 C 
ATOM     28  C   UNL     1      13.281   0.149  -1.586  1.00  0.00     0.214 C 
ATOM     29  O   UNL     1      15.224  -0.489  -0.181  1.00  0.00    -0.332 OA
ATOM     30  C   UNL     1      14.189   0.264  -2.837  1.00  0.00     0.180 C 
ATOM     31  C   UNL     1      16.122  -0.396  -1.282  1.00  0.00     0.179 C 
ATOM     32  C   UNL     1      15.417  -0.643  -2.644  1.00  0.00     0.177 C 
BRANCH  28  33
ATOM     33  O   UNL     1      12.684  -1.125  -1.549  1.00  0.00    -0.384 OA
ATOM     34  H   UNL     1      13.424  -1.789  -1.544  1.00  0.00     0.211 HD
ENDBRANCH  28  33
BRANCH  30  35
ATOM     35  O   UNL     1      14.592   1.584  -3.130  1.00  0.00    -0.387 OA
ATOM     36  H   UNL     1      14.896   2.036  -2.288  1.00  0.00     0.211 HD
ENDBRANCH  30  35
BRANCH  31  37
ATOM     37  C   UNL     1      17.012   0.868  -1.211  1.00  0.00     0.191 C 
BRANCH  37  38
ATOM     38  O   UNL     1      18.146   0.724  -2.022  1.00  0.00    -0.394 OA
ATOM     39  H   UNL     1      18.807   1.397  -1.716  1.00  0.00     0.210 HD
ENDBRANCH  37  38
ENDBRANCH  31  37
BRANCH  32  40
ATOM     40  O   UNL     1      16.307  -0.575  -3.732  1.00  0.00    -0.387 OA
ATOM     41  H   UNL     1      17.174  -0.215  -3.409  1.00  0.00     0.211 HD
ENDBRANCH  32  40
ENDBRANCH   1  27
TORSDOF 12
ENDMDL
MODEL 6
REMARK VINA RESULT:    -5.522      1.686      5.057
REMARK INTER + INTRA:          -8.705
REMARK INTER:                  -8.102
REMARK INTRA:                  -0.603
REMARK UNBOUND:                -0.601
REMARK SMILES O=c1c(O[C@@H]2O[C@H](CO)[C@H](O)[C@H](O)[C@H]2O)c(-c2ccc(O)c(O)c2)oc2cc(O)cc(O)c12
REMARK SMILES IDX 4 1 3 2 16 3 25 4 2 5 26 6 1 7 33 8 27 9 31 10 28 11 30 12
REMARK SMILES IDX 17 13 18 14 19 15 20 16 24 17 22 18 21 19 23 21 32 23 29 25
REMARK SMILES IDX 5 27 14 28 6 29 12 30 7 31 10 32 15 33 13 35 8 37 9 38 11 40
REMARK H PARENT 21 20 23 22 32 24 29 26 15 34 13 36 9 39 11 41
REMARK Flexibility Score: inf
ROOT
ATOM      1  O   UNL     1      13.449   1.845  -0.966  1.00  0.00    -0.454 OA
ENDROOT
BRANCH   1   2
ATOM      2  C   UNL     1      12.507   2.722  -0.398  1.00  0.00     0.214 A 
ATOM      3  C   UNL     1      12.128   2.647   0.961  1.00  0.00     0.180 A 
ATOM      4  O   UNL     1      11.162   3.432   1.426  1.00  0.00    -0.452 OA
ATOM      5  C   UNL     1      11.916   3.705  -1.203  1.00  0.00     0.239 A 
ATOM      6  C   UNL     1      10.543   4.343   0.684  1.00  0.00     0.146 A 
ATOM      7  O   UNL     1      12.285   3.826  -2.401  1.00  0.00    -0.285 OA
ATOM      8  C   UNL     1      10.904   4.533  -0.670  1.00  0.00     0.111 A 
ATOM      9  C   UNL     1       9.537   5.123   1.263  1.00  0.00     0.094 A 
ATOM     10  C   UNL     1      10.236   5.526  -1.428  1.00  0.00     0.134 A 
ATOM     11  C   UNL     1       8.879   6.097   0.511  1.00  0.00     0.123 A 
ATOM     12  C   UNL     1       9.230   6.299  -0.829  1.00  0.00     0.093 A 
BRANCH   3  13
ATOM     13  C   UNL     1      12.786   1.733   1.915  1.00  0.00     0.025 A 
ATOM     14  C   UNL     1      12.327   0.421   2.081  1.00  0.00     0.016 A 
ATOM     15  C   UNL     1      12.945  -0.432   2.996  1.00  0.00     0.051 A 
ATOM     16  C   UNL     1      14.041   0.006   3.751  1.00  0.00     0.157 A 
ATOM     17  C   UNL     1      13.899   2.169   2.646  1.00  0.00     0.062 A 
ATOM     18  C   UNL     1      14.527   1.324   3.571  1.00  0.00     0.158 A 
BRANCH  16  19
ATOM     19  O   UNL     1      14.610  -0.891   4.657  1.00  0.00    -0.504 OA
ATOM     20  H   UNL     1      14.810  -1.857   4.443  1.00  0.00     0.293 HD
ENDBRANCH  16  19
BRANCH  18  21
ATOM     21  O   UNL     1      15.609   1.833   4.290  1.00  0.00    -0.504 OA
ATOM     22  H   UNL     1      16.265   1.263   4.804  1.00  0.00     0.293 HD
ENDBRANCH  18  21
ENDBRANCH   3  13
BRANCH  10  23
ATOM     23  O   UNL     1      10.560   5.747  -2.767  1.00  0.00    -0.507 OA
ATOM     24  H   UNL     1      11.418   6.209  -3.038  1.00  0.00     0.293 HD
ENDBRANCH  10  23
BRANCH  11  25
ATOM     25  O   UNL     1       7.876   6.859   1.103  1.00  0.00    -0.508 OA
ATOM     26  H   UNL     1       7.130   7.275   0.554  1.00  0.00     0.293 HD
ENDBRANCH  11  25
ENDBRANCH   1   2
BRANCH   1  27
ATOM     27  C   UNL     1      14.315   2.210  -2.047  1.00  0.00     0.339 C 
ATOM     28  C   UNL     1      15.487   3.094  -1.569  1.00  0.00     0.214 C 
ATOM     29  O   UNL     1      14.732   1.066  -2.782  1.00  0.00    -0.332 OA
ATOM     30  C   UNL     1      16.548   2.268  -0.795  1.00  0.00     0.180 C 
ATOM     31  C   UNL     1      15.675   0.241  -2.106  1.00  0.00     0.179 C 
ATOM     32  C   UNL     1      16.924   1.035  -1.633  1.00  0.00     0.177 C 
BRANCH  28  33
ATOM     33  O   UNL     1      16.082   3.692  -2.695  1.00  0.00    -0.384 OA
ATOM     34  H   UNL     1      16.971   3.263  -2.812  1.00  0.00     0.211 HD
ENDBRANCH  28  33
BRANCH  30  35
ATOM     35  O   UNL     1      16.135   1.880   0.498  1.00  0.00    -0.387 OA
ATOM     36  H   UNL     1      16.396   2.587   1.160  1.00  0.00     0.211 HD
ENDBRANCH  30  35
BRANCH  31  37
ATOM     37  C   UNL     1      15.010  -0.657  -1.035  1.00  0.00     0.191 C 
BRANCH  37  38
ATOM     38  O   UNL     1      13.742  -1.077  -1.458  1.00  0.00    -0.394 OA
ATOM     39  H   UNL     1      13.302  -0.292  -1.875  1.00  0.00     0.210 HD
ENDBRANCH  37  38
ENDBRANCH  31  37
BRANCH  32  40
ATOM     40  O   UNL     1      17.869   0.217  -0.984  1.00  0.00    -0.387 OA
ATOM     41  H   UNL     1      18.260   0.726  -0.227  1.00  0.00     0.211 HD
ENDBRANCH  32  40
ENDBRANCH   1  27
TORSDOF 12
ENDMDL
MODEL 7
REMARK VINA RESULT:    -5.474      2.764      7.014
REMARK INTER + INTRA:          -8.635
REMARK INTER:                  -7.220
REMARK INTRA:                  -1.415
REMARK UNBOUND:                -0.601
REMARK SMILES O=c1c(O[C@@H]2O[C@H](CO)[C@H](O)[C@H](O)[C@H]2O)c(-c2ccc(O)c(O)c2)oc2cc(O)cc(O)c12
REMARK SMILES IDX 4 1 3 2 16 3 25 4 2 5 26 6 1 7 33 8 27 9 31 10 28 11 30 12
REMARK SMILES IDX 17 13 18 14 19 15 20 16 24 17 22 18 21 19 23 21 32 23 29 25
REMARK SMILES IDX 5 27 14 28 6 29 12 30 7 31 10 32 15 33 13 35 8 37 9 38 11 40
REMARK H PARENT 21 20 23 22 32 24 29 26 15 34 13 36 9 39 11 41
REMARK Flexibility Score: inf
ROOT
ATOM      1  O   UNL     1      11.952   3.623  -0.025  1.00  0.00    -0.454 OA
ENDROOT
BRANCH   1   2
ATOM      2  C   UNL     1      13.060   2.831  -0.374  1.00  0.00     0.214 A 
ATOM      3  C   UNL     1      12.943   1.452  -0.662  1.00  0.00     0.180 A 
ATOM      4  O   UNL     1      14.033   0.726  -0.889  1.00  0.00    -0.452 OA
ATOM      5  C   UNL     1      14.330   3.420  -0.435  1.00  0.00     0.239 A 
ATOM      6  C   UNL     1      15.258   1.236  -0.907  1.00  0.00     0.146 A 
ATOM      7  O   UNL     1      14.446   4.660  -0.240  1.00  0.00    -0.285 OA
ATOM      8  C   UNL     1      15.463   2.620  -0.694  1.00  0.00     0.111 A 
ATOM      9  C   UNL     1      16.344   0.391  -1.155  1.00  0.00     0.094 A 
ATOM     10  C   UNL     1      16.782   3.135  -0.740  1.00  0.00     0.134 A 
ATOM     11  C   UNL     1      17.642   0.903  -1.193  1.00  0.00     0.123 A 
ATOM     12  C   UNL     1      17.859   2.270  -0.990  1.00  0.00     0.093 A 
BRANCH   3  13
ATOM     13  C   UNL     1      11.636   0.772  -0.749  1.00  0.00     0.025 A 
ATOM     14  C   UNL     1      11.011   0.580  -1.988  1.00  0.00     0.016 A 
ATOM     15  C   UNL     1       9.769  -0.050  -2.061  1.00  0.00     0.051 A 
ATOM     16  C   UNL     1       9.135  -0.511  -0.900  1.00  0.00     0.157 A 
ATOM     17  C   UNL     1      11.021   0.289   0.412  1.00  0.00     0.062 A 
ATOM     18  C   UNL     1       9.771  -0.342   0.354  1.00  0.00     0.158 A 
BRANCH  16  19
ATOM     19  O   UNL     1       7.888  -1.125  -1.036  1.00  0.00    -0.504 OA
ATOM     20  H   UNL     1       7.579  -1.592  -1.875  1.00  0.00     0.293 HD
ENDBRANCH  16  19
BRANCH  18  21
ATOM     21  O   UNL     1       9.200  -0.770   1.554  1.00  0.00    -0.504 OA
ATOM     22  H   UNL     1       9.662  -1.378   2.215  1.00  0.00     0.293 HD
ENDBRANCH  18  21
ENDBRANCH   3  13
BRANCH  10  23
ATOM     23  O   UNL     1      17.031   4.492  -0.535  1.00  0.00    -0.507 OA
ATOM     24  H   UNL     1      17.100   4.887   0.393  1.00  0.00     0.293 HD
ENDBRANCH  10  23
BRANCH  11  25
ATOM     25  O   UNL     1      18.711   0.044  -1.433  1.00  0.00    -0.508 OA
ATOM     26  H   UNL     1      19.653   0.269  -1.128  1.00  0.00     0.293 HD
ENDBRANCH  11  25
ENDBRANCH   1   2
BRANCH   1  27
ATOM     27  C   UNL     1      11.465   3.752   1.317  1.00  0.00     0.339 C 
ATOM     28  C   UNL     1      11.451   5.223   1.783  1.00  0.00     0.214 C 
ATOM     29  O   UNL     1      10.212   3.096   1.474  1.00  0.00    -0.332 OA
ATOM     30  C   UNL     1      10.297   6.022   1.124  1.00  0.00     0.180 C 
ATOM     31  C   UNL     1       9.116   3.759   0.852  1.00  0.00     0.179 C 
ATOM     32  C   UNL     1       8.986   5.239   1.305  1.00  0.00     0.177 C 
BRANCH  28  33
ATOM     33  O   UNL     1      11.304   5.245   3.182  1.00  0.00    -0.384 OA
ATOM     34  H   UNL     1      11.224   4.299   3.478  1.00  0.00     0.211 HD
ENDBRANCH  28  33
BRANCH  30  35
ATOM     35  O   UNL     1      10.513   6.315  -0.239  1.00  0.00    -0.387 OA
ATOM     36  H   UNL     1      11.214   7.027  -0.323  1.00  0.00     0.211 HD
ENDBRANCH  30  35
BRANCH  31  37
ATOM     37  C   UNL     1       9.077   3.523  -0.677  1.00  0.00     0.191 C 
BRANCH  37  38
ATOM     38  O   UNL     1       8.563   4.646  -1.339  1.00  0.00    -0.394 OA
ATOM     39  H   UNL     1       9.335   5.124  -1.738  1.00  0.00     0.210 HD
ENDBRANCH  37  38
ENDBRANCH  31  37
BRANCH  32  40
ATOM     40  O   UNL     1       7.889   5.890   0.710  1.00  0.00    -0.387 OA
ATOM     41  H   UNL     1       7.710   5.468  -0.170  1.00  0.00     0.211 HD
ENDBRANCH  32  40
ENDBRANCH   1  27
TORSDOF 12
ENDMDL
MODEL 8
REMARK VINA RESULT:    -5.439      1.864      5.306
REMARK INTER + INTRA:          -8.583
REMARK INTER:                  -8.873
REMARK INTRA:                   0.289
REMARK UNBOUND:                -0.601
REMARK SMILES O=c1c(O[C@@H]2O[C@H](CO)[C@H](O)[C@H](O)[C@H]2O)c(-c2ccc(O)c(O)c2)oc2cc(O)cc(O)c12
REMARK SMILES IDX 4 1 3 2 16 3 25 4 2 5 26 6 1 7 33 8 27 9 31 10 28 11 30 12
REMARK SMILES IDX 17 13 18 14 19 15 20 16 24 17 22 18 21 19 23 21 32 23 29 25
REMARK SMILES IDX 5 27 14 28 6 29 12 30 7 31 10 32 15 33 13 35 8 37 9 38 11 40
REMARK H PARENT 21 20 23 22 32 24 29 26 15 34 13 36 9 39 11 41
REMARK Flexibility Score: inf
ROOT
ATOM      1  O   UNL     1      15.411   2.344   0.805  1.00  0.00    -0.454 OA
ENDROOT
BRANCH   1   2
ATOM      2  C   UNL     1      14.114   2.173   1.321  1.00  0.00     0.214 A 
ATOM      3  C   UNL     1      13.861   1.443   2.505  1.00  0.00     0.180 A 
ATOM      4  O   UNL     1      12.610   1.225   2.898  1.00  0.00    -0.452 OA
ATOM      5  C   UNL     1      13.027   2.739   0.641  1.00  0.00     0.239 A 
ATOM      6  C   UNL     1      11.552   1.703   2.255  1.00  0.00     0.146 A 
ATOM      7  O   UNL     1      13.238   3.443  -0.382  1.00  0.00    -0.285 OA
ATOM      8  C   UNL     1      11.713   2.500   1.097  1.00  0.00     0.111 A 
ATOM      9  C   UNL     1      10.273   1.420   2.745  1.00  0.00     0.094 A 
ATOM     10  C   UNL     1      10.562   3.009   0.446  1.00  0.00     0.134 A 
ATOM     11  C   UNL     1       9.143   1.920   2.097  1.00  0.00     0.123 A 
ATOM     12  C   UNL     1       9.287   2.714   0.954  1.00  0.00     0.093 A 
BRANCH   3  13
ATOM     13  C   UNL     1      14.948   0.921   3.357  1.00  0.00     0.025 A 
ATOM     14  C   UNL     1      15.134  -0.458   3.512  1.00  0.00     0.016 A 
ATOM     15  C   UNL     1      16.154  -0.944   4.331  1.00  0.00     0.051 A 
ATOM     16  C   UNL     1      17.013  -0.062   4.999  1.00  0.00     0.157 A 
ATOM     17  C   UNL     1      15.820   1.809   4.000  1.00  0.00     0.062 A 
ATOM     18  C   UNL     1      16.845   1.335   4.829  1.00  0.00     0.158 A 
BRANCH  16  19
ATOM     19  O   UNL     1      18.007  -0.608   5.813  1.00  0.00    -0.504 OA
ATOM     20  H   UNL     1      18.627  -1.350   5.523  1.00  0.00     0.293 HD
ENDBRANCH  16  19
BRANCH  18  21
ATOM     21  O   UNL     1      17.657   2.275   5.466  1.00  0.00    -0.504 OA
ATOM     22  H   UNL     1      18.639   2.136   5.657  1.00  0.00     0.293 HD
ENDBRANCH  18  21
ENDBRANCH   3  13
BRANCH  10  23
ATOM     23  O   UNL     1      10.674   3.799  -0.698  1.00  0.00    -0.507 OA
ATOM     24  H   UNL     1      11.253   4.628  -0.719  1.00  0.00     0.293 HD
ENDBRANCH  10  23
BRANCH  11  25
ATOM     25  O   UNL     1       7.878   1.621   2.596  1.00  0.00    -0.508 OA
ATOM     26  H   UNL     1       7.755   1.047   3.425  1.00  0.00     0.293 HD
ENDBRANCH  11  25
ENDBRANCH   1   2
BRANCH   1  27
ATOM     27  C   UNL     1      16.276   1.252   0.469  1.00  0.00     0.339 C 
ATOM     28  C   UNL     1      15.481  -0.034   0.156  1.00  0.00     0.214 C 
ATOM     29  O   UNL     1      17.190   1.617  -0.559  1.00  0.00    -0.332 OA
ATOM     30  C   UNL     1      14.788   0.044  -1.228  1.00  0.00     0.180 C 
ATOM     31  C   UNL     1      16.604   1.748  -1.850  1.00  0.00     0.179 C 
ATOM     32  C   UNL     1      15.825   0.475  -2.279  1.00  0.00     0.177 C 
BRANCH  28  33
ATOM     33  O   UNL     1      16.371  -1.123   0.180  1.00  0.00    -0.384 OA
ATOM     34  H   UNL     1      15.816  -1.948   0.190  1.00  0.00     0.211 HD
ENDBRANCH  28  33
BRANCH  30  35
ATOM     35  O   UNL     1      13.669   0.904  -1.258  1.00  0.00    -0.387 OA
ATOM     36  H   UNL     1      12.832   0.362  -1.359  1.00  0.00     0.211 HD
ENDBRANCH  30  35
BRANCH  31  37
ATOM     37  C   UNL     1      15.842   3.085  -2.018  1.00  0.00     0.191 C 
BRANCH  37  38
ATOM     38  O   UNL     1      16.375   4.070  -1.175  1.00  0.00    -0.394 OA
ATOM     39  H   UNL     1      16.071   4.946  -1.527  1.00  0.00     0.210 HD
ENDBRANCH  37  38
ENDBRANCH  31  37
BRANCH  32  40
ATOM     40  O   UNL     1      15.265   0.592  -3.565  1.00  0.00    -0.387 OA
ATOM     41  H   UNL     1      14.287   0.432  -3.499  1.00  0.00     0.211 HD
ENDBRANCH  32  40
ENDBRANCH   1  27
TORSDOF 12
ENDMDL
MODEL 9
REMARK VINA RESULT:    -5.202      2.217      6.549
REMARK INTER + INTRA:          -8.236
REMARK INTER:                  -7.021
REMARK INTRA:                  -1.215
REMARK UNBOUND:                -0.601
REMARK SMILES O=c1c(O[C@@H]2O[C@H](CO)[C@H](O)[C@H](O)[C@H]2O)c(-c2ccc(O)c(O)c2)oc2cc(O)cc(O)c12
REMARK SMILES IDX 4 1 3 2 16 3 25 4 2 5 26 6 1 7 33 8 27 9 31 10 28 11 30 12
REMARK SMILES IDX 17 13 18 14 19 15 20 16 24 17 22 18 21 19 23 21 32 23 29 25
REMARK SMILES IDX 5 27 14 28 6 29 12 30 7 31 10 32 15 33 13 35 8 37 9 38 11 40
REMARK H PARENT 21 20 23 22 32 24 29 26 15 34 13 36 9 39 11 41
REMARK Flexibility Score: inf
ROOT
ATOM      1  O   UNL     1      11.999   1.248   1.244  1.00  0.00    -0.454 OA
ENDROOT
BRANCH   1   2
ATOM      2  C   UNL     1      13.150   0.974   2.005  1.00  0.00     0.214 A 
ATOM      3  C   UNL     1      14.446   1.341   1.575  1.00  0.00     0.180 A 
ATOM      4  O   UNL     1      15.510   0.972   2.281  1.00  0.00    -0.452 OA
ATOM      5  C   UNL     1      13.017   0.308   3.231  1.00  0.00     0.239 A 
ATOM      6  C   UNL     1      15.429   0.298   3.422  1.00  0.00     0.146 A 
ATOM      7  O   UNL     1      11.866   0.025   3.658  1.00  0.00    -0.285 OA
ATOM      8  C   UNL     1      14.169  -0.055   3.961  1.00  0.00     0.111 A 
ATOM      9  C   UNL     1      16.606  -0.047   4.094  1.00  0.00     0.094 A 
ATOM     10  C   UNL     1      14.119  -0.757   5.191  1.00  0.00     0.134 A 
ATOM     11  C   UNL     1      16.551  -0.743   5.302  1.00  0.00     0.123 A 
ATOM     12  C   UNL     1      15.311  -1.093   5.849  1.00  0.00     0.093 A 
BRANCH   3  13
ATOM     13  C   UNL     1      14.675   2.155   0.366  1.00  0.00     0.025 A 
ATOM     14  C   UNL     1      15.693   3.116   0.333  1.00  0.00     0.016 A 
ATOM     15  C   UNL     1      15.894   3.892  -0.809  1.00  0.00     0.051 A 
ATOM     16  C   UNL     1      15.090   3.714  -1.942  1.00  0.00     0.157 A 
ATOM     17  C   UNL     1      13.885   1.952  -0.773  1.00  0.00     0.062 A 
ATOM     18  C   UNL     1      14.073   2.728  -1.925  1.00  0.00     0.158 A 
BRANCH  16  19
ATOM     19  O   UNL     1      15.333   4.528  -3.050  1.00  0.00    -0.504 OA
ATOM     20  H   UNL     1      15.515   4.176  -3.978  1.00  0.00     0.293 HD
ENDBRANCH  16  19
BRANCH  18  21
ATOM     21  O   UNL     1      13.229   2.496  -3.012  1.00  0.00    -0.504 OA
ATOM     22  H   UNL     1      12.790   3.228  -3.552  1.00  0.00     0.293 HD
ENDBRANCH  18  21
ENDBRANCH   3  13
BRANCH  10  23
ATOM     23  O   UNL     1      12.899  -1.125   5.758  1.00  0.00    -0.507 OA
ATOM     24  H   UNL     1      12.108  -1.398   5.191  1.00  0.00     0.293 HD
ENDBRANCH  10  23
BRANCH  11  25
ATOM     25  O   UNL     1      17.734  -1.084   5.952  1.00  0.00    -0.508 OA
ATOM     26  H   UNL     1      18.630  -1.059   5.474  1.00  0.00     0.293 HD
ENDBRANCH  11  25
ENDBRANCH   1   2
BRANCH   1  27
ATOM     27  C   UNL     1      11.140   2.368   1.489  1.00  0.00     0.339 C 
ATOM     28  C   UNL     1      11.003   3.268   0.243  1.00  0.00     0.214 C 
ATOM     29  O   UNL     1       9.891   1.950   2.027  1.00  0.00    -0.332 OA
ATOM     30  C   UNL     1      10.100   2.617  -0.837  1.00  0.00     0.180 C 
ATOM     31  C   UNL     1       9.032   1.304   1.093  1.00  0.00     0.179 C 
ATOM     32  C   UNL     1       8.787   2.163  -0.178  1.00  0.00     0.177 C 
BRANCH  28  33
ATOM     33  O   UNL     1      10.451   4.499   0.642  1.00  0.00    -0.384 OA
ATOM     34  H   UNL     1      10.521   4.538   1.633  1.00  0.00     0.211 HD
ENDBRANCH  28  33
BRANCH  30  35
ATOM     35  O   UNL     1      10.710   1.540  -1.516  1.00  0.00    -0.387 OA
ATOM     36  H   UNL     1      10.151   0.715  -1.407  1.00  0.00     0.211 HD
ENDBRANCH  30  35
BRANCH  31  37
ATOM     37  C   UNL     1       9.443  -0.166   0.837  1.00  0.00     0.191 C 
BRANCH  37  38
ATOM     38  O   UNL     1       9.575  -0.862   2.046  1.00  0.00    -0.394 OA
ATOM     39  H   UNL     1       9.750  -1.811   1.815  1.00  0.00     0.210 HD
ENDBRANCH  37  38
ENDBRANCH  31  37
BRANCH  32  40
ATOM     40  O   UNL     1       7.920   1.536  -1.093  1.00  0.00    -0.387 OA
ATOM     41  H   UNL     1       7.836   2.114  -1.895  1.00  0.00     0.211 HD
ENDBRANCH  32  40
ENDBRANCH   1  27
TORSDOF 12
ENDMDL
