MODEL 1
REMARK VINA RESULT:    20.058      0.000      0.000
REMARK INTER + INTRA:          23.915
REMARK INTER:                  23.576
REMARK INTRA:                   0.339
REMARK UNBOUND:                 0.339
REMARK SMILES Oc1ccc(-c2[o+]c3cc(O)cc(O)c3cc2O)cc1
REMARK SMILES IDX 6 1 7 2 8 3 9 4 10 5 12 6 13 7 15 8 16 9 17 10 5 11 4 12
REMARK SMILES IDX 3 13 2 14 19 15 20 16 1 17 18 19 11 21 14 23
REMARK H PARENT 1 18 18 20 11 22 14 24
REMARK Flexibility Score: inf
ROOT
ATOM      1  C   UNL     1      -5.736 -17.506  12.785  1.00  0.00     0.401 A 
ATOM      2  O   UNL     1      -6.314 -18.008  13.875  1.00  0.00    -0.202 OA
ATOM      3  C   UNL     1      -7.630 -18.025  14.057  1.00  0.00     0.368 A 
ATOM      4  C   UNL     1      -8.159 -18.567  15.234  1.00  0.00     0.162 A 
ATOM      5  C   UNL     1      -9.545 -18.588  15.438  1.00  0.00     0.128 A 
ATOM      6  C   UNL     1     -10.402 -18.066  14.464  1.00  0.00     0.093 A 
ATOM      7  C   UNL     1      -9.887 -17.521  13.279  1.00  0.00     0.136 A 
ATOM      8  C   UNL     1      -8.494 -17.499  13.073  1.00  0.00     0.125 A 
ATOM      9  C   UNL     1      -7.924 -16.976  11.907  1.00  0.00     0.078 A 
ATOM     10  C   UNL     1      -6.536 -16.985  11.748  1.00  0.00     0.223 A 
ENDROOT
BRANCH   1  11
ATOM     11  C   UNL     1      -4.257 -17.535  12.701  1.00  0.00     0.084 A 
ATOM     12  C   UNL     1      -3.531 -18.369  13.569  1.00  0.00     0.022 A 
ATOM     13  C   UNL     1      -2.134 -18.396  13.522  1.00  0.00     0.047 A 
ATOM     14  C   UNL     1      -1.445 -17.579  12.616  1.00  0.00     0.115 A 
ATOM     15  C   UNL     1      -3.557 -16.703  11.809  1.00  0.00     0.022 A 
ATOM     16  C   UNL     1      -2.160 -16.731  11.764  1.00  0.00     0.047 A 
BRANCH  14  17
ATOM     17  O   UNL     1      -0.054 -17.598  12.560  1.00  0.00    -0.508 OA
ATOM     18  H   UNL     1       0.488 -18.284  13.073  1.00  0.00     0.293 HD
ENDBRANCH  14  17
ENDBRANCH   1  11
BRANCH  10  19
ATOM     19  O   UNL     1      -5.963 -16.510  10.568  1.00  0.00    -0.500 OA
ATOM     20  H   UNL     1      -6.465 -15.885   9.948  1.00  0.00     0.294 HD
ENDBRANCH  10  19
BRANCH   5  21
ATOM     21  O   UNL     1     -10.081 -19.125  16.608  1.00  0.00    -0.507 OA
ATOM     22  H   UNL     1      -9.670 -18.934  17.514  1.00  0.00     0.293 HD
ENDBRANCH   5  21
BRANCH   7  23
ATOM     23  O   UNL     1     -10.753 -17.005  12.314  1.00  0.00    -0.507 OA
ATOM     24  H   UNL     1     -11.746 -17.206  12.330  1.00  0.00     0.293 HD
ENDBRANCH   7  23
TORSDOF 5
ENDMDL
MODEL 2
REMARK VINA RESULT:    20.542     10.643     11.337
REMARK INTER + INTRA:          24.483
REMARK INTER:                  24.748
REMARK INTRA:                  -0.265
REMARK UNBOUND:                 0.339
REMARK SMILES Oc1ccc(-c2[o+]c3cc(O)cc(O)c3cc2O)cc1
REMARK SMILES IDX 6 1 7 2 8 3 9 4 10 5 12 6 13 7 15 8 16 9 17 10 5 11 4 12
REMARK SMILES IDX 3 13 2 14 19 15 20 16 1 17 18 19 11 21 14 23
REMARK H PARENT 1 18 18 20 11 22 14 24
REMARK Flexibility Score: inf
ROOT
ATOM      1  C   UNL     1      -6.011  -7.313  16.442  1.00  0.00     0.401 A 
ATOM      2  O   UNL     1      -6.695  -7.765  15.392  1.00  0.00    -0.202 OA
ATOM      3  C   UNL     1      -7.030  -9.043  15.238  1.00  0.00     0.368 A 
ATOM      4  C   UNL     1      -7.746  -9.438  14.104  1.00  0.00     0.162 A 
ATOM      5  C   UNL     1      -8.102 -10.782  13.929  1.00  0.00     0.128 A 
ATOM      6  C   UNL     1      -7.741 -11.730  14.891  1.00  0.00     0.093 A 
ATOM      7  C   UNL     1      -7.024 -11.348  16.034  1.00  0.00     0.136 A 
ATOM      8  C   UNL     1      -6.666  -9.998  16.211  1.00  0.00     0.125 A 
ATOM      9  C   UNL     1      -5.958  -9.558  17.335  1.00  0.00     0.078 A 
ATOM     10  C   UNL     1      -5.633  -8.205  17.466  1.00  0.00     0.223 A 
ENDROOT
BRANCH   1  11
ATOM     11  C   UNL     1      -5.689  -5.868  16.497  1.00  0.00     0.084 A 
ATOM     12  C   UNL     1      -4.375  -5.442  16.239  1.00  0.00     0.022 A 
ATOM     13  C   UNL     1      -4.043  -4.086  16.306  1.00  0.00     0.047 A 
ATOM     14  C   UNL     1      -5.018  -3.139  16.648  1.00  0.00     0.115 A 
ATOM     15  C   UNL     1      -6.657  -4.914  16.860  1.00  0.00     0.022 A 
ATOM     16  C   UNL     1      -6.323  -3.558  16.927  1.00  0.00     0.047 A 
BRANCH  14  17
ATOM     17  O   UNL     1      -4.700  -1.786  16.718  1.00  0.00    -0.508 OA
ATOM     18  H   UNL     1      -4.282  -1.382  17.549  1.00  0.00     0.293 HD
ENDBRANCH  14  17
ENDBRANCH   1  11
BRANCH  10  19
ATOM     19  O   UNL     1      -4.972  -7.751  18.607  1.00  0.00    -0.500 OA
ATOM     20  H   UNL     1      -4.240  -8.294  19.049  1.00  0.00     0.294 HD
ENDBRANCH  10  19
BRANCH   5  21
ATOM     21  O   UNL     1      -8.815 -11.185  12.801  1.00  0.00    -0.507 OA
ATOM     22  H   UNL     1      -9.668 -10.718  12.519  1.00  0.00     0.293 HD
ENDBRANCH   5  21
BRANCH   7  23
ATOM     23  O   UNL     1      -6.671 -12.304  16.989  1.00  0.00    -0.507 OA
ATOM     24  H   UNL     1      -6.841 -12.155  17.976  1.00  0.00     0.293 HD
ENDBRANCH   7  23
TORSDOF 5
ENDMDL
MODEL 3
REMARK VINA RESULT:    20.597     10.322     10.807
REMARK INTER + INTRA:          24.548
REMARK INTER:                  24.789
REMARK INTRA:                  -0.241
REMARK UNBOUND:                 0.339
REMARK SMILES Oc1ccc(-c2[o+]c3cc(O)cc(O)c3cc2O)cc1
REMARK SMILES IDX 6 1 7 2 8 3 9 4 10 5 12 6 13 7 15 8 16 9 17 10 5 11 4 12
REMARK SMILES IDX 3 13 2 14 19 15 20 16 1 17 18 19 11 21 14 23
REMARK H PARENT 1 18 18 20 11 22 14 24
REMARK Flexibility Score: inf
ROOT
ATOM      1  C   UNL     1      -6.386  -7.462  15.749  1.00  0.00     0.401 A 
ATOM      2  O   UNL     1      -6.015  -8.500  16.498  1.00  0.00    -0.202 OA
ATOM      3  C   UNL     1      -6.347  -9.756  16.216  1.00  0.00     0.368 A 
ATOM      4  C   UNL     1      -5.921 -10.789  17.057  1.00  0.00     0.162 A 
ATOM      5  C   UNL     1      -6.267 -12.116  16.772  1.00  0.00     0.128 A 
ATOM      6  C   UNL     1      -7.041 -12.409  15.644  1.00  0.00     0.093 A 
ATOM      7  C   UNL     1      -7.474 -11.384  14.791  1.00  0.00     0.136 A 
ATOM      8  C   UNL     1      -7.127 -10.050  15.077  1.00  0.00     0.125 A 
ATOM      9  C   UNL     1      -7.524  -8.986  14.258  1.00  0.00     0.078 A 
ATOM     10  C   UNL     1      -7.147  -7.681  14.582  1.00  0.00     0.223 A 
ENDROOT
BRANCH   1  11
ATOM     11  C   UNL     1      -5.962  -6.108  16.171  1.00  0.00     0.084 A 
ATOM     12  C   UNL     1      -6.917  -5.211  16.681  1.00  0.00     0.022 A 
ATOM     13  C   UNL     1      -6.543  -3.920  17.066  1.00  0.00     0.047 A 
ATOM     14  C   UNL     1      -5.212  -3.503  16.930  1.00  0.00     0.115 A 
ATOM     15  C   UNL     1      -4.632  -5.675  16.019  1.00  0.00     0.022 A 
ATOM     16  C   UNL     1      -4.261  -4.383  16.403  1.00  0.00     0.047 A 
BRANCH  14  17
ATOM     17  O   UNL     1      -4.828  -2.220  17.310  1.00  0.00    -0.508 OA
ATOM     18  H   UNL     1      -4.619  -1.505  16.624  1.00  0.00     0.293 HD
ENDBRANCH  14  17
ENDBRANCH   1  11
BRANCH  10  19
ATOM     19  O   UNL     1      -7.496  -6.622  13.744  1.00  0.00    -0.500 OA
ATOM     20  H   UNL     1      -6.884  -6.308  13.000  1.00  0.00     0.294 HD
ENDBRANCH  10  19
BRANCH   5  21
ATOM     21  O   UNL     1      -5.847 -13.153  17.604  1.00  0.00    -0.507 OA
ATOM     22  H   UNL     1      -6.507 -13.807  18.008  1.00  0.00     0.293 HD
ENDBRANCH   5  21
BRANCH   7  23
ATOM     23  O   UNL     1      -8.244 -11.689  13.668  1.00  0.00    -0.507 OA
ATOM     24  H   UNL     1      -8.214 -12.605  13.237  1.00  0.00     0.293 HD
ENDBRANCH   7  23
TORSDOF 5
ENDMDL
MODEL 4
REMARK VINA RESULT:    21.522     10.758     11.791
REMARK INTER + INTRA:          25.635
REMARK INTER:                  25.920
REMARK INTRA:                  -0.284
REMARK UNBOUND:                 0.339
REMARK SMILES Oc1ccc(-c2[o+]c3cc(O)cc(O)c3cc2O)cc1
REMARK SMILES IDX 6 1 7 2 8 3 9 4 10 5 12 6 13 7 15 8 16 9 17 10 5 11 4 12
REMARK SMILES IDX 3 13 2 14 19 15 20 16 1 17 18 19 11 21 14 23
REMARK H PARENT 1 18 18 20 11 22 14 24
REMARK Flexibility Score: inf
ROOT
ATOM      1  C   UNL     1      -6.900  -7.384  16.851  1.00  0.00     0.401 A 
ATOM      2  O   UNL     1      -7.566  -7.975  15.860  1.00  0.00    -0.202 OA
ATOM      3  C   UNL     1      -7.247  -9.175  15.384  1.00  0.00     0.368 A 
ATOM      4  C   UNL     1      -7.994  -9.726  14.338  1.00  0.00     0.162 A 
ATOM      5  C   UNL     1      -7.665 -10.988  13.826  1.00  0.00     0.128 A 
ATOM      6  C   UNL     1      -6.588 -11.699  14.363  1.00  0.00     0.093 A 
ATOM      7  C   UNL     1      -5.831 -11.161  15.414  1.00  0.00     0.136 A 
ATOM      8  C   UNL     1      -6.160  -9.893  15.928  1.00  0.00     0.125 A 
ATOM      9  C   UNL     1      -5.446  -9.309  16.981  1.00  0.00     0.078 A 
ATOM     10  C   UNL     1      -5.818  -8.051  17.460  1.00  0.00     0.223 A 
ENDROOT
BRANCH   1  11
ATOM     11  C   UNL     1      -7.345  -6.041  17.289  1.00  0.00     0.084 A 
ATOM     12  C   UNL     1      -8.168  -5.920  18.422  1.00  0.00     0.022 A 
ATOM     13  C   UNL     1      -8.617  -4.664  18.841  1.00  0.00     0.047 A 
ATOM     14  C   UNL     1      -8.263  -3.514  18.122  1.00  0.00     0.115 A 
ATOM     15  C   UNL     1      -7.011  -4.884  16.561  1.00  0.00     0.022 A 
ATOM     16  C   UNL     1      -7.463  -3.629  16.981  1.00  0.00     0.047 A 
BRANCH  14  17
ATOM     17  O   UNL     1      -8.704  -2.258  18.529  1.00  0.00    -0.508 OA
ATOM     18  H   UNL     1      -9.423  -1.758  18.020  1.00  0.00     0.293 HD
ENDBRANCH  14  17
ENDBRANCH   1  11
BRANCH  10  19
ATOM     19  O   UNL     1      -5.142  -7.485  18.541  1.00  0.00    -0.500 OA
ATOM     20  H   UNL     1      -4.355  -6.859  18.408  1.00  0.00     0.294 HD
ENDBRANCH  10  19
BRANCH   5  21
ATOM     21  O   UNL     1      -8.404 -11.544  12.783  1.00  0.00    -0.507 OA
ATOM     22  H   UNL     1      -8.044 -11.570  11.836  1.00  0.00     0.293 HD
ENDBRANCH   5  21
BRANCH   7  23
ATOM     23  O   UNL     1      -4.759 -11.882  15.943  1.00  0.00    -0.507 OA
ATOM     24  H   UNL     1      -4.140 -12.423  15.351  1.00  0.00     0.293 HD
ENDBRANCH   7  23
TORSDOF 5
ENDMDL
