MODEL 1
REMARK VINA RESULT:    -4.561      0.000      0.000
REMARK INTER + INTRA:         -12.772
REMARK INTER:                  -9.893
REMARK INTRA:                  -2.879
REMARK UNBOUND:                -2.879
REMARK SMILES CCCCCCCCCCCCCCCCCCCCCC(=O)[O-]
REMARK SMILES IDX 12 1 11 2 10 3 9 4 8 5 7 6 6 7 5 8 4 9 3 10 2 11 1 12 13 13
REMARK SMILES IDX 14 14 15 15 16 16 17 17 18 18 19 19 20 20 21 21 22 22 23 23
REMARK SMILES IDX 24 24
REMARK H PARENT
REMARK Flexibility Score: inf
ROOT
ATOM      1  C   UNL     1      35.758  75.706   9.359  1.00  0.00     0.000 C 
ENDROOT
BRANCH   1   2
ATOM      2  C   UNL     1      36.467  75.214   8.084  1.00  0.00     0.000 C 
BRANCH   2   3
ATOM      3  C   UNL     1      35.555  75.058   6.851  1.00  0.00     0.000 C 
BRANCH   3   4
ATOM      4  C   UNL     1      34.777  73.729   6.781  1.00  0.00    -0.000 C 
BRANCH   4   5
ATOM      5  C   UNL     1      33.325  73.795   7.297  1.00  0.00    -0.000 C 
BRANCH   5   6
ATOM      6  C   UNL     1      32.464  74.906   6.671  1.00  0.00    -0.000 C 
BRANCH   6   7
ATOM      7  C   UNL     1      31.400  75.454   7.638  1.00  0.00    -0.000 C 
BRANCH   7   8
ATOM      8  C   UNL     1      31.973  75.788   9.028  1.00  0.00    -0.000 C 
BRANCH   8   9
ATOM      9  C   UNL     1      30.973  75.652  10.191  1.00  0.00    -0.000 C 
BRANCH   9  10
ATOM     10  C   UNL     1      31.419  74.720  11.333  1.00  0.00    -0.000 C 
BRANCH  10  11
ATOM     11  C   UNL     1      32.652  73.857  10.992  1.00  0.00    -0.003 C 
ATOM     12  C   UNL     1      33.777  73.998  12.016  1.00  0.00     0.004 C 
ENDBRANCH  10  11
ENDBRANCH   9  10
ENDBRANCH   8   9
ENDBRANCH   7   8
ENDBRANCH   6   7
ENDBRANCH   5   6
ENDBRANCH   4   5
ENDBRANCH   3   4
ENDBRANCH   2   3
ENDBRANCH   1   2
BRANCH   1  13
ATOM     13  C   UNL     1      36.729  76.323  10.380  1.00  0.00     0.000 C 
BRANCH  13  14
ATOM     14  C   UNL     1      36.061  77.402  11.250  1.00  0.00     0.000 C 
BRANCH  14  15
ATOM     15  C   UNL     1      34.640  77.745  10.769  1.00  0.00     0.000 C 
BRANCH  15  16
ATOM     16  C   UNL     1      33.598  77.654  11.896  1.00  0.00     0.000 C 
BRANCH  16  17
ATOM     17  C   UNL     1      32.485  78.708  11.760  1.00  0.00     0.000 C 
BRANCH  17  18
ATOM     18  C   UNL     1      31.998  79.237  13.118  1.00  0.00     0.000 C 
BRANCH  18  19
ATOM     19  C   UNL     1      32.835  78.702  14.292  1.00  0.00     0.000 C 
BRANCH  19  20
ATOM     20  C   UNL     1      32.581  79.459  15.609  1.00  0.00     0.006 C 
BRANCH  20  21
ATOM     21  C   UNL     1      31.949  80.850  15.422  1.00  0.00     0.053 C 
BRANCH  21  22
ATOM     22  C   UNL     1      32.442  81.853  16.420  1.00  0.00     0.041 C 
ATOM     23  O   UNL     1      32.819  82.995  16.042  1.00  0.00    -0.550 OA
ATOM     24  O   UNL     1      32.457  81.539  17.774  1.00  0.00    -0.550 OA
ENDBRANCH  21  22
ENDBRANCH  20  21
ENDBRANCH  19  20
ENDBRANCH  18  19
ENDBRANCH  17  18
ENDBRANCH  16  17
ENDBRANCH  15  16
ENDBRANCH  14  15
ENDBRANCH  13  14
ENDBRANCH   1  13
TORSDOF 20
ENDMDL
MODEL 2
REMARK VINA RESULT:    -4.539      1.164      2.454
REMARK INTER + INTRA:         -12.724
REMARK INTER:                  -9.319
REMARK INTRA:                  -3.405
REMARK UNBOUND:                -2.879
REMARK SMILES CCCCCCCCCCCCCCCCCCCCCC(=O)[O-]
REMARK SMILES IDX 12 1 11 2 10 3 9 4 8 5 7 6 6 7 5 8 4 9 3 10 2 11 1 12 13 13
REMARK SMILES IDX 14 14 15 15 16 16 17 17 18 18 19 19 20 20 21 21 22 22 23 23
REMARK SMILES IDX 24 24
REMARK H PARENT
REMARK Flexibility Score: inf
ROOT
ATOM      1  C   UNL     1      34.811  77.758  11.494  1.00  0.00     0.000 C 
ENDROOT
BRANCH   1   2
ATOM      2  C   UNL     1      36.082  77.009  11.055  1.00  0.00     0.000 C 
BRANCH   2   3
ATOM      3  C   UNL     1      35.831  75.714  10.257  1.00  0.00     0.000 C 
BRANCH   3   4
ATOM      4  C   UNL     1      36.699  75.549   8.993  1.00  0.00    -0.000 C 
BRANCH   4   5
ATOM      5  C   UNL     1      35.924  75.182   7.712  1.00  0.00    -0.000 C 
BRANCH   5   6
ATOM      6  C   UNL     1      34.594  75.935   7.520  1.00  0.00    -0.000 C 
BRANCH   6   7
ATOM      7  C   UNL     1      33.366  75.015   7.629  1.00  0.00    -0.000 C 
BRANCH   7   8
ATOM      8  C   UNL     1      32.095  75.765   8.067  1.00  0.00    -0.000 C 
BRANCH   8   9
ATOM      9  C   UNL     1      31.674  75.529   9.529  1.00  0.00    -0.000 C 
BRANCH   9  10
ATOM     10  C   UNL     1      32.428  74.399  10.255  1.00  0.00    -0.000 C 
BRANCH  10  11
ATOM     11  C   UNL     1      32.619  74.644  11.766  1.00  0.00    -0.003 C 
ATOM     12  C   UNL     1      31.478  74.076  12.609  1.00  0.00     0.004 C 
ENDBRANCH  10  11
ENDBRANCH   9  10
ENDBRANCH   8   9
ENDBRANCH   7   8
ENDBRANCH   6   7
ENDBRANCH   5   6
ENDBRANCH   4   5
ENDBRANCH   3   4
ENDBRANCH   2   3
ENDBRANCH   1   2
BRANCH   1  13
ATOM     13  C   UNL     1      33.916  78.157  10.308  1.00  0.00     0.000 C 
BRANCH  13  14
ATOM     14  C   UNL     1      32.690  78.978  10.746  1.00  0.00     0.000 C 
BRANCH  14  15
ATOM     15  C   UNL     1      32.361  78.789  12.237  1.00  0.00     0.000 C 
BRANCH  15  16
ATOM     16  C   UNL     1      31.047  78.023  12.458  1.00  0.00     0.000 C 
BRANCH  16  17
ATOM     17  C   UNL     1      30.873  77.554  13.914  1.00  0.00     0.000 C 
BRANCH  17  18
ATOM     18  C   UNL     1      32.212  77.258  14.607  1.00  0.00     0.000 C 
BRANCH  18  19
ATOM     19  C   UNL     1      32.354  77.994  15.950  1.00  0.00     0.000 C 
BRANCH  19  20
ATOM     20  C   UNL     1      32.938  79.412  15.802  1.00  0.00     0.006 C 
BRANCH  20  21
ATOM     21  C   UNL     1      32.113  80.507  16.501  1.00  0.00     0.053 C 
BRANCH  21  22
ATOM     22  C   UNL     1      32.277  81.855  15.866  1.00  0.00     0.041 C 
ATOM     23  O   UNL     1      31.549  82.192  14.894  1.00  0.00    -0.550 OA
ATOM     24  O   UNL     1      33.213  82.751  16.367  1.00  0.00    -0.550 OA
ENDBRANCH  21  22
ENDBRANCH  20  21
ENDBRANCH  19  20
ENDBRANCH  18  19
ENDBRANCH  17  18
ENDBRANCH  16  17
ENDBRANCH  15  16
ENDBRANCH  14  15
ENDBRANCH  13  14
ENDBRANCH   1  13
TORSDOF 20
ENDMDL
MODEL 3
REMARK VINA RESULT:    -4.504      1.820      3.177
REMARK INTER + INTRA:         -12.649
REMARK INTER:                  -9.593
REMARK INTRA:                  -3.055
REMARK UNBOUND:                -2.879
REMARK SMILES CCCCCCCCCCCCCCCCCCCCCC(=O)[O-]
REMARK SMILES IDX 12 1 11 2 10 3 9 4 8 5 7 6 6 7 5 8 4 9 3 10 2 11 1 12 13 13
REMARK SMILES IDX 14 14 15 15 16 16 17 17 18 18 19 19 20 20 21 21 22 22 23 23
REMARK SMILES IDX 24 24
REMARK H PARENT
REMARK Flexibility Score: inf
ROOT
ATOM      1  C   UNL     1      34.320  76.536   7.886  1.00  0.00     0.000 C 
ENDROOT
BRANCH   1   2
ATOM      2  C   UNL     1      34.982  75.570   8.886  1.00  0.00     0.000 C 
BRANCH   2   3
ATOM      3  C   UNL     1      35.595  76.241  10.131  1.00  0.00     0.000 C 
BRANCH   3   4
ATOM      4  C   UNL     1      34.939  75.850  11.471  1.00  0.00    -0.000 C 
BRANCH   4   5
ATOM      5  C   UNL     1      33.889  74.724  11.379  1.00  0.00    -0.000 C 
BRANCH   5   6
ATOM      6  C   UNL     1      32.594  74.978  12.171  1.00  0.00    -0.000 C 
BRANCH   6   7
ATOM      7  C   UNL     1      31.326  74.754  11.330  1.00  0.00    -0.000 C 
BRANCH   7   8
ATOM      8  C   UNL     1      31.633  74.237   9.913  1.00  0.00    -0.000 C 
BRANCH   8   9
ATOM      9  C   UNL     1      31.165  72.797   9.632  1.00  0.00    -0.000 C 
BRANCH   9  10
ATOM     10  C   UNL     1      32.203  71.700   9.931  1.00  0.00    -0.000 C 
BRANCH  10  11
ATOM     11  C   UNL     1      31.802  70.302   9.415  1.00  0.00    -0.003 C 
ATOM     12  C   UNL     1      32.967  69.548   8.774  1.00  0.00     0.004 C 
ENDBRANCH  10  11
ENDBRANCH   9  10
ENDBRANCH   8   9
ENDBRANCH   7   8
ENDBRANCH   6   7
ENDBRANCH   5   6
ENDBRANCH   4   5
ENDBRANCH   3   4
ENDBRANCH   2   3
ENDBRANCH   1   2
BRANCH   1  13
ATOM     13  C   UNL     1      33.643  77.734   8.575  1.00  0.00     0.000 C 
BRANCH  13  14
ATOM     14  C   UNL     1      32.149  77.490   8.846  1.00  0.00     0.000 C 
BRANCH  14  15
ATOM     15  C   UNL     1      31.601  78.398   9.961  1.00  0.00     0.000 C 
BRANCH  15  16
ATOM     16  C   UNL     1      32.653  78.711  11.038  1.00  0.00     0.000 C 
BRANCH  16  17
ATOM     17  C   UNL     1      32.103  78.556  12.467  1.00  0.00     0.000 C 
BRANCH  17  18
ATOM     18  C   UNL     1      33.214  78.452  13.523  1.00  0.00     0.000 C 
BRANCH  18  19
ATOM     19  C   UNL     1      32.658  78.270  14.946  1.00  0.00     0.000 C 
BRANCH  19  20
ATOM     20  C   UNL     1      32.998  79.445  15.881  1.00  0.00     0.006 C 
BRANCH  20  21
ATOM     21  C   UNL     1      32.041  80.644  15.757  1.00  0.00     0.053 C 
BRANCH  21  22
ATOM     22  C   UNL     1      32.410  81.780  16.663  1.00  0.00     0.041 C 
ATOM     23  O   UNL     1      32.036  81.781  17.867  1.00  0.00    -0.550 OA
ATOM     24  O   UNL     1      33.192  82.824  16.187  1.00  0.00    -0.550 OA
ENDBRANCH  21  22
ENDBRANCH  20  21
ENDBRANCH  19  20
ENDBRANCH  18  19
ENDBRANCH  17  18
ENDBRANCH  16  17
ENDBRANCH  15  16
ENDBRANCH  14  15
ENDBRANCH  13  14
ENDBRANCH   1  13
TORSDOF 20
ENDMDL
MODEL 4
REMARK VINA RESULT:    -4.370      1.645      3.536
REMARK INTER + INTRA:         -12.359
REMARK INTER:                  -8.891
REMARK INTRA:                  -3.468
REMARK UNBOUND:                -2.879
REMARK SMILES CCCCCCCCCCCCCCCCCCCCCC(=O)[O-]
REMARK SMILES IDX 12 1 11 2 10 3 9 4 8 5 7 6 6 7 5 8 4 9 3 10 2 11 1 12 13 13
REMARK SMILES IDX 14 14 15 15 16 16 17 17 18 18 19 19 20 20 21 21 22 22 23 23
REMARK SMILES IDX 24 24
REMARK H PARENT
REMARK Flexibility Score: inf
ROOT
ATOM      1  C   UNL     1      33.060  78.553  11.436  1.00  0.00     0.000 C 
ENDROOT
BRANCH   1   2
ATOM      2  C   UNL     1      34.211  77.659  11.931  1.00  0.00     0.000 C 
BRANCH   2   3
ATOM      3  C   UNL     1      35.487  77.703  11.066  1.00  0.00     0.000 C 
BRANCH   3   4
ATOM      4  C   UNL     1      36.086  76.325  10.719  1.00  0.00    -0.000 C 
BRANCH   4   5
ATOM      5  C   UNL     1      36.083  75.972   9.217  1.00  0.00    -0.000 C 
BRANCH   5   6
ATOM      6  C   UNL     1      34.727  75.496   8.665  1.00  0.00    -0.000 C 
BRANCH   6   7
ATOM      7  C   UNL     1      33.870  76.648   8.113  1.00  0.00    -0.000 C 
BRANCH   7   8
ATOM      8  C   UNL     1      32.399  76.563   8.556  1.00  0.00    -0.000 C 
BRANCH   8   9
ATOM      9  C   UNL     1      31.903  75.144   8.890  1.00  0.00    -0.000 C 
BRANCH   9  10
ATOM     10  C   UNL     1      31.751  74.839  10.392  1.00  0.00    -0.000 C 
BRANCH  10  11
ATOM     11  C   UNL     1      32.663  73.700  10.894  1.00  0.00    -0.003 C 
ATOM     12  C   UNL     1      33.433  74.070  12.161  1.00  0.00     0.004 C 
ENDBRANCH  10  11
ENDBRANCH   9  10
ENDBRANCH   8   9
ENDBRANCH   7   8
ENDBRANCH   6   7
ENDBRANCH   5   6
ENDBRANCH   4   5
ENDBRANCH   3   4
ENDBRANCH   2   3
ENDBRANCH   1   2
BRANCH   1  13
ATOM     13  C   UNL     1      31.691  78.126  11.995  1.00  0.00     0.000 C 
BRANCH  13  14
ATOM     14  C   UNL     1      31.817  77.254  13.257  1.00  0.00     0.000 C 
BRANCH  14  15
ATOM     15  C   UNL     1      30.446  76.853  13.830  1.00  0.00     0.000 C 
BRANCH  15  16
ATOM     16  C   UNL     1      30.199  77.435  15.231  1.00  0.00     0.000 C 
BRANCH  16  17
ATOM     17  C   UNL     1      28.975  78.367  15.278  1.00  0.00     0.000 C 
BRANCH  17  18
ATOM     18  C   UNL     1      29.097  79.558  14.316  1.00  0.00     0.000 C 
BRANCH  18  19
ATOM     19  C   UNL     1      29.839  80.749  14.945  1.00  0.00     0.000 C 
BRANCH  19  20
ATOM     20  C   UNL     1      31.327  80.810  14.552  1.00  0.00     0.006 C 
BRANCH  20  21
ATOM     21  C   UNL     1      32.295  80.509  15.710  1.00  0.00     0.053 C 
BRANCH  21  22
ATOM     22  C   UNL     1      32.511  81.688  16.610  1.00  0.00     0.041 C 
ATOM     23  O   UNL     1      32.480  81.547  17.862  1.00  0.00    -0.550 OA
ATOM     24  O   UNL     1      32.779  82.939  16.066  1.00  0.00    -0.550 OA
ENDBRANCH  21  22
ENDBRANCH  20  21
ENDBRANCH  19  20
ENDBRANCH  18  19
ENDBRANCH  17  18
ENDBRANCH  16  17
ENDBRANCH  15  16
ENDBRANCH  14  15
ENDBRANCH  13  14
ENDBRANCH   1  13
TORSDOF 20
ENDMDL
MODEL 5
REMARK VINA RESULT:    -4.353      1.145      1.724
REMARK INTER + INTRA:         -12.322
REMARK INTER:                  -9.569
REMARK INTRA:                  -2.752
REMARK UNBOUND:                -2.879
REMARK SMILES CCCCCCCCCCCCCCCCCCCCCC(=O)[O-]
REMARK SMILES IDX 12 1 11 2 10 3 9 4 8 5 7 6 6 7 5 8 4 9 3 10 2 11 1 12 13 13
REMARK SMILES IDX 14 14 15 15 16 16 17 17 18 18 19 19 20 20 21 21 22 22 23 23
REMARK SMILES IDX 24 24
REMARK H PARENT
REMARK Flexibility Score: inf
ROOT
ATOM      1  C   UNL     1      36.325  76.265  10.430  1.00  0.00     0.000 C 
ENDROOT
BRANCH   1   2
ATOM      2  C   UNL     1      35.616  75.838   9.133  1.00  0.00     0.000 C 
BRANCH   2   3
ATOM      3  C   UNL     1      36.530  75.189   8.075  1.00  0.00     0.000 C 
BRANCH   3   4
ATOM      4  C   UNL     1      35.823  74.778   6.767  1.00  0.00    -0.000 C 
BRANCH   4   5
ATOM      5  C   UNL     1      34.285  74.880   6.798  1.00  0.00    -0.000 C 
BRANCH   5   6
ATOM      6  C   UNL     1      33.546  73.531   6.873  1.00  0.00    -0.000 C 
BRANCH   6   7
ATOM      7  C   UNL     1      32.787  73.340   8.197  1.00  0.00    -0.000 C 
BRANCH   7   8
ATOM      8  C   UNL     1      31.829  74.504   8.510  1.00  0.00    -0.000 C 
BRANCH   8   9
ATOM      9  C   UNL     1      32.165  75.294   9.788  1.00  0.00    -0.000 C 
BRANCH   9  10
ATOM     10  C   UNL     1      31.348  74.905  11.034  1.00  0.00    -0.000 C 
BRANCH  10  11
ATOM     11  C   UNL     1      32.136  74.067  12.062  1.00  0.00    -0.003 C 
ATOM     12  C   UNL     1      33.650  74.199  11.901  1.00  0.00     0.004 C 
ENDBRANCH  10  11
ENDBRANCH   9  10
ENDBRANCH   8   9
ENDBRANCH   7   8
ENDBRANCH   6   7
ENDBRANCH   5   6
ENDBRANCH   4   5
ENDBRANCH   3   4
ENDBRANCH   2   3
ENDBRANCH   1   2
BRANCH   1  13
ATOM     13  C   UNL     1      35.627  77.444  11.131  1.00  0.00     0.000 C 
BRANCH  13  14
ATOM     14  C   UNL     1      34.482  78.034  10.290  1.00  0.00     0.000 C 
BRANCH  14  15
ATOM     15  C   UNL     1      33.275  78.446  11.152  1.00  0.00     0.000 C 
BRANCH  15  16
ATOM     16  C   UNL     1      33.307  77.811  12.552  1.00  0.00     0.000 C 
BRANCH  16  17
ATOM     17  C   UNL     1      32.086  78.198  13.405  1.00  0.00     0.000 C 
BRANCH  17  18
ATOM     18  C   UNL     1      32.431  79.204  14.515  1.00  0.00     0.000 C 
BRANCH  18  19
ATOM     19  C   UNL     1      31.248  80.124  14.863  1.00  0.00     0.000 C 
BRANCH  19  20
ATOM     20  C   UNL     1      31.682  81.557  15.222  1.00  0.00     0.006 C 
BRANCH  20  21
ATOM     21  C   UNL     1      32.387  81.677  16.585  1.00  0.00     0.053 C 
BRANCH  21  22
ATOM     22  C   UNL     1      31.601  81.062  17.703  1.00  0.00     0.041 C 
ATOM     23  O   UNL     1      30.502  81.567  18.061  1.00  0.00    -0.550 OA
ATOM     24  O   UNL     1      32.065  79.913  18.331  1.00  0.00    -0.550 OA
ENDBRANCH  21  22
ENDBRANCH  20  21
ENDBRANCH  19  20
ENDBRANCH  18  19
ENDBRANCH  17  18
ENDBRANCH  16  17
ENDBRANCH  15  16
ENDBRANCH  14  15
ENDBRANCH  13  14
ENDBRANCH   1  13
TORSDOF 20
ENDMDL
MODEL 6
REMARK VINA RESULT:    -4.334      1.551      4.057
REMARK INTER + INTRA:         -12.280
REMARK INTER:                  -8.547
REMARK INTRA:                  -3.733
REMARK UNBOUND:                -2.879
REMARK SMILES CCCCCCCCCCCCCCCCCCCCCC(=O)[O-]
REMARK SMILES IDX 12 1 11 2 10 3 9 4 8 5 7 6 6 7 5 8 4 9 3 10 2 11 1 12 13 13
REMARK SMILES IDX 14 14 15 15 16 16 17 17 18 18 19 19 20 20 21 21 22 22 23 23
REMARK SMILES IDX 24 24
REMARK H PARENT
REMARK Flexibility Score: inf
ROOT
ATOM      1  C   UNL     1      33.182  73.870  11.807  1.00  0.00     0.000 C 
ENDROOT
BRANCH   1   2
ATOM      2  C   UNL     1      34.201  74.983  11.504  1.00  0.00     0.000 C 
BRANCH   2   3
ATOM      3  C   UNL     1      33.757  76.402  11.912  1.00  0.00     0.000 C 
BRANCH   3   4
ATOM      4  C   UNL     1      34.627  77.543  11.349  1.00  0.00    -0.000 C 
BRANCH   4   5
ATOM      5  C   UNL     1      33.896  78.512  10.397  1.00  0.00    -0.000 C 
BRANCH   5   6
ATOM      6  C   UNL     1      32.422  78.781  10.751  1.00  0.00    -0.000 C 
BRANCH   6   7
ATOM      7  C   UNL     1      31.442  78.147   9.748  1.00  0.00    -0.000 C 
BRANCH   7   8
ATOM      8  C   UNL     1      32.150  77.552   8.517  1.00  0.00    -0.000 C 
BRANCH   8   9
ATOM      9  C   UNL     1      31.965  76.034   8.334  1.00  0.00    -0.000 C 
BRANCH   9  10
ATOM     10  C   UNL     1      33.240  75.259   7.952  1.00  0.00    -0.000 C 
BRANCH  10  11
ATOM     11  C   UNL     1      34.480  76.155   7.754  1.00  0.00    -0.003 C 
ATOM     12  C   UNL     1      35.771  75.497   8.239  1.00  0.00     0.004 C 
ENDBRANCH  10  11
ENDBRANCH   9  10
ENDBRANCH   8   9
ENDBRANCH   7   8
ENDBRANCH   6   7
ENDBRANCH   5   6
ENDBRANCH   4   5
ENDBRANCH   3   4
ENDBRANCH   2   3
ENDBRANCH   1   2
BRANCH   1  13
ATOM     13  C   UNL     1      31.725  74.334  11.636  1.00  0.00     0.000 C 
BRANCH  13  14
ATOM     14  C   UNL     1      30.886  74.123  12.908  1.00  0.00     0.000 C 
BRANCH  14  15
ATOM     15  C   UNL     1      29.722  75.124  13.014  1.00  0.00     0.000 C 
BRANCH  15  16
ATOM     16  C   UNL     1      30.188  76.585  12.899  1.00  0.00     0.000 C 
BRANCH  16  17
ATOM     17  C   UNL     1      30.901  77.081  14.169  1.00  0.00     0.000 C 
BRANCH  17  18
ATOM     18  C   UNL     1      31.211  78.585  14.127  1.00  0.00     0.000 C 
BRANCH  18  19
ATOM     19  C   UNL     1      32.692  78.889  14.412  1.00  0.00     0.000 C 
BRANCH  19  20
ATOM     20  C   UNL     1      32.969  79.213  15.891  1.00  0.00     0.006 C 
BRANCH  20  21
ATOM     21  C   UNL     1      32.550  80.634  16.312  1.00  0.00     0.053 C 
BRANCH  21  22
ATOM     22  C   UNL     1      31.832  80.664  17.627  1.00  0.00     0.041 C 
ATOM     23  O   UNL     1      32.003  79.738  18.466  1.00  0.00    -0.550 OA
ATOM     24  O   UNL     1      30.998  81.729  17.941  1.00  0.00    -0.550 OA
ENDBRANCH  21  22
ENDBRANCH  20  21
ENDBRANCH  19  20
ENDBRANCH  18  19
ENDBRANCH  17  18
ENDBRANCH  16  17
ENDBRANCH  15  16
ENDBRANCH  14  15
ENDBRANCH  13  14
ENDBRANCH   1  13
TORSDOF 20
ENDMDL
MODEL 7
REMARK VINA RESULT:    -4.281      1.583      3.130
REMARK INTER + INTRA:         -12.164
REMARK INTER:                  -8.638
REMARK INTRA:                  -3.526
REMARK UNBOUND:                -2.879
REMARK SMILES CCCCCCCCCCCCCCCCCCCCCC(=O)[O-]
REMARK SMILES IDX 12 1 11 2 10 3 9 4 8 5 7 6 6 7 5 8 4 9 3 10 2 11 1 12 13 13
REMARK SMILES IDX 14 14 15 15 16 16 17 17 18 18 19 19 20 20 21 21 22 22 23 23
REMARK SMILES IDX 24 24
REMARK H PARENT
REMARK Flexibility Score: inf
ROOT
ATOM      1  C   UNL     1      33.049  75.513   7.457  1.00  0.00     0.000 C 
ENDROOT
BRANCH   1   2
ATOM      2  C   UNL     1      34.370  76.289   7.611  1.00  0.00     0.000 C 
BRANCH   2   3
ATOM      3  C   UNL     1      35.610  75.414   7.884  1.00  0.00     0.000 C 
BRANCH   3   4
ATOM      4  C   UNL     1      36.251  75.608   9.273  1.00  0.00    -0.000 C 
BRANCH   4   5
ATOM      5  C   UNL     1      35.518  76.603  10.196  1.00  0.00    -0.000 C 
BRANCH   5   6
ATOM      6  C   UNL     1      34.817  75.966  11.410  1.00  0.00    -0.000 C 
BRANCH   6   7
ATOM      7  C   UNL     1      33.859  74.828  11.017  1.00  0.00    -0.000 C 
BRANCH   7   8
ATOM      8  C   UNL     1      33.216  74.142  12.236  1.00  0.00    -0.000 C 
BRANCH   8   9
ATOM      9  C   UNL     1      31.685  74.274  12.321  1.00  0.00    -0.000 C 
BRANCH   9  10
ATOM     10  C   UNL     1      30.932  74.058  10.995  1.00  0.00    -0.000 C 
BRANCH  10  11
ATOM     11  C   UNL     1      30.957  72.599  10.492  1.00  0.00    -0.003 C 
ATOM     12  C   UNL     1      29.852  71.740  11.108  1.00  0.00     0.004 C 
ENDBRANCH  10  11
ENDBRANCH   9  10
ENDBRANCH   8   9
ENDBRANCH   7   8
ENDBRANCH   6   7
ENDBRANCH   5   6
ENDBRANCH   4   5
ENDBRANCH   3   4
ENDBRANCH   2   3
ENDBRANCH   1   2
BRANCH   1  13
ATOM     13  C   UNL     1      31.883  76.167   8.219  1.00  0.00     0.000 C 
BRANCH  13  14
ATOM     14  C   UNL     1      32.193  77.613   8.643  1.00  0.00     0.000 C 
BRANCH  14  15
ATOM     15  C   UNL     1      31.758  77.906  10.089  1.00  0.00     0.000 C 
BRANCH  15  16
ATOM     16  C   UNL     1      32.735  78.839  10.822  1.00  0.00     0.000 C 
BRANCH  16  17
ATOM     17  C   UNL     1      32.331  79.089  12.286  1.00  0.00     0.000 C 
BRANCH  17  18
ATOM     18  C   UNL     1      31.729  77.845  12.957  1.00  0.00     0.000 C 
BRANCH  18  19
ATOM     19  C   UNL     1      32.466  77.461  14.252  1.00  0.00     0.000 C 
BRANCH  19  20
ATOM     20  C   UNL     1      31.737  77.933  15.523  1.00  0.00     0.006 C 
BRANCH  20  21
ATOM     21  C   UNL     1      32.528  78.959  16.356  1.00  0.00     0.053 C 
BRANCH  21  22
ATOM     22  C   UNL     1      32.135  80.375  16.061  1.00  0.00     0.041 C 
ATOM     23  O   UNL     1      32.779  81.332  16.568  1.00  0.00    -0.550 OA
ATOM     24  O   UNL     1      31.077  80.639  15.201  1.00  0.00    -0.550 OA
ENDBRANCH  21  22
ENDBRANCH  20  21
ENDBRANCH  19  20
ENDBRANCH  18  19
ENDBRANCH  17  18
ENDBRANCH  16  17
ENDBRANCH  15  16
ENDBRANCH  14  15
ENDBRANCH  13  14
ENDBRANCH   1  13
TORSDOF 20
ENDMDL
MODEL 8
REMARK VINA RESULT:    -4.274      1.334      3.440
REMARK INTER + INTRA:         -12.150
REMARK INTER:                  -8.159
REMARK INTRA:                  -3.990
REMARK UNBOUND:                -2.879
REMARK SMILES CCCCCCCCCCCCCCCCCCCCCC(=O)[O-]
REMARK SMILES IDX 12 1 11 2 10 3 9 4 8 5 7 6 6 7 5 8 4 9 3 10 2 11 1 12 13 13
REMARK SMILES IDX 14 14 15 15 16 16 17 17 18 18 19 19 20 20 21 21 22 22 23 23
REMARK SMILES IDX 24 24
REMARK H PARENT
REMARK Flexibility Score: inf
ROOT
ATOM      1  C   UNL     1      34.006  75.191  10.811  1.00  0.00     0.000 C 
ENDROOT
BRANCH   1   2
ATOM      2  C   UNL     1      33.587  74.422  12.077  1.00  0.00     0.000 C 
BRANCH   2   3
ATOM      3  C   UNL     1      32.093  74.046  12.145  1.00  0.00     0.000 C 
BRANCH   3   4
ATOM      4  C   UNL     1      31.159  74.931  11.296  1.00  0.00    -0.000 C 
BRANCH   4   5
ATOM      5  C   UNL     1      30.227  74.164  10.337  1.00  0.00    -0.000 C 
BRANCH   5   6
ATOM      6  C   UNL     1      30.706  74.105   8.875  1.00  0.00    -0.000 C 
BRANCH   6   7
ATOM      7  C   UNL     1      31.556  72.858   8.575  1.00  0.00    -0.000 C 
BRANCH   7   8
ATOM      8  C   UNL     1      32.844  73.186   7.798  1.00  0.00    -0.000 C 
BRANCH   8   9
ATOM      9  C   UNL     1      32.942  74.636   7.288  1.00  0.00    -0.000 C 
BRANCH   9  10
ATOM     10  C   UNL     1      34.226  74.970   6.506  1.00  0.00    -0.000 C 
BRANCH  10  11
ATOM     11  C   UNL     1      35.222  75.854   7.286  1.00  0.00    -0.003 C 
ATOM     12  C   UNL     1      36.444  75.079   7.778  1.00  0.00     0.004 C 
ENDBRANCH  10  11
ENDBRANCH   9  10
ENDBRANCH   8   9
ENDBRANCH   7   8
ENDBRANCH   6   7
ENDBRANCH   5   6
ENDBRANCH   4   5
ENDBRANCH   3   4
ENDBRANCH   2   3
ENDBRANCH   1   2
BRANCH   1  13
ATOM     13  C   UNL     1      34.934  76.380  11.117  1.00  0.00     0.000 C 
BRANCH  13  14
ATOM     14  C   UNL     1      34.455  77.686  10.460  1.00  0.00     0.000 C 
BRANCH  14  15
ATOM     15  C   UNL     1      33.119  77.511   9.716  1.00  0.00     0.000 C 
BRANCH  15  16
ATOM     16  C   UNL     1      32.027  78.463  10.233  1.00  0.00     0.000 C 
BRANCH  16  17
ATOM     17  C   UNL     1      32.314  78.976  11.655  1.00  0.00     0.000 C 
BRANCH  17  18
ATOM     18  C   UNL     1      31.506  78.232  12.730  1.00  0.00     0.000 C 
BRANCH  18  19
ATOM     19  C   UNL     1      32.403  77.589  13.801  1.00  0.00     0.000 C 
BRANCH  19  20
ATOM     20  C   UNL     1      33.361  78.593  14.468  1.00  0.00     0.006 C 
BRANCH  20  21
ATOM     21  C   UNL     1      33.091  78.817  15.967  1.00  0.00     0.053 C 
BRANCH  21  22
ATOM     22  C   UNL     1      32.379  80.107  16.243  1.00  0.00     0.041 C 
ATOM     23  O   UNL     1      31.944  80.810  15.291  1.00  0.00    -0.550 OA
ATOM     24  O   UNL     1      32.168  80.519  17.553  1.00  0.00    -0.550 OA
ENDBRANCH  21  22
ENDBRANCH  20  21
ENDBRANCH  19  20
ENDBRANCH  18  19
ENDBRANCH  17  18
ENDBRANCH  16  17
ENDBRANCH  15  16
ENDBRANCH  14  15
ENDBRANCH  13  14
ENDBRANCH   1  13
TORSDOF 20
ENDMDL
MODEL 9
REMARK VINA RESULT:    -4.243      1.583      4.282
REMARK INTER + INTRA:         -12.083
REMARK INTER:                  -8.157
REMARK INTRA:                  -3.926
REMARK UNBOUND:                -2.879
REMARK SMILES CCCCCCCCCCCCCCCCCCCCCC(=O)[O-]
REMARK SMILES IDX 12 1 11 2 10 3 9 4 8 5 7 6 6 7 5 8 4 9 3 10 2 11 1 12 13 13
REMARK SMILES IDX 14 14 15 15 16 16 17 17 18 18 19 19 20 20 21 21 22 22 23 23
REMARK SMILES IDX 24 24
REMARK H PARENT
REMARK Flexibility Score: inf
ROOT
ATOM      1  C   UNL     1      29.741  75.646  12.853  1.00  0.00     0.000 C 
ENDROOT
BRANCH   1   2
ATOM      2  C   UNL     1      31.117  74.957  12.908  1.00  0.00     0.000 C 
BRANCH   2   3
ATOM      3  C   UNL     1      31.313  73.813  11.893  1.00  0.00     0.000 C 
BRANCH   3   4
ATOM      4  C   UNL     1      32.614  73.889  11.070  1.00  0.00    -0.000 C 
BRANCH   4   5
ATOM      5  C   UNL     1      32.444  73.640   9.557  1.00  0.00    -0.000 C 
BRANCH   5   6
ATOM      6  C   UNL     1      31.657  74.728   8.805  1.00  0.00    -0.000 C 
BRANCH   6   7
ATOM      7  C   UNL     1      32.427  75.298   7.601  1.00  0.00    -0.000 C 
BRANCH   7   8
ATOM      8  C   UNL     1      33.942  75.042   7.687  1.00  0.00    -0.000 C 
BRANCH   8   9
ATOM      9  C   UNL     1      34.770  76.224   8.227  1.00  0.00    -0.000 C 
BRANCH   9  10
ATOM     10  C   UNL     1      35.898  75.842   9.203  1.00  0.00    -0.000 C 
BRANCH  10  11
ATOM     11  C   UNL     1      35.585  76.168  10.679  1.00  0.00    -0.003 C 
ATOM     12  C   UNL     1      36.425  77.323  11.223  1.00  0.00     0.004 C 
ENDBRANCH  10  11
ENDBRANCH   9  10
ENDBRANCH   8   9
ENDBRANCH   7   8
ENDBRANCH   6   7
ENDBRANCH   5   6
ENDBRANCH   4   5
ENDBRANCH   3   4
ENDBRANCH   2   3
ENDBRANCH   1   2
BRANCH   1  13
ATOM     13  C   UNL     1      29.314  76.009  11.420  1.00  0.00     0.000 C 
BRANCH  13  14
ATOM     14  C   UNL     1      29.462  77.511  11.124  1.00  0.00     0.000 C 
BRANCH  14  15
ATOM     15  C   UNL     1      29.903  77.782   9.675  1.00  0.00     0.000 C 
BRANCH  15  16
ATOM     16  C   UNL     1      31.272  78.479   9.596  1.00  0.00     0.000 C 
BRANCH  16  17
ATOM     17  C   UNL     1      32.336  77.793  10.471  1.00  0.00     0.000 C 
BRANCH  17  18
ATOM     18  C   UNL     1      32.819  78.683  11.627  1.00  0.00     0.000 C 
BRANCH  18  19
ATOM     19  C   UNL     1      33.141  77.876  12.896  1.00  0.00     0.000 C 
BRANCH  19  20
ATOM     20  C   UNL     1      32.658  78.562  14.187  1.00  0.00     0.006 C 
BRANCH  20  21
ATOM     21  C   UNL     1      31.419  79.457  13.997  1.00  0.00     0.053 C 
BRANCH  21  22
ATOM     22  C   UNL     1      31.395  80.625  14.937  1.00  0.00     0.041 C 
ATOM     23  O   UNL     1      31.568  80.449  16.173  1.00  0.00    -0.550 OA
ATOM     24  O   UNL     1      31.213  81.911  14.445  1.00  0.00    -0.550 OA
ENDBRANCH  21  22
ENDBRANCH  20  21
ENDBRANCH  19  20
ENDBRANCH  18  19
ENDBRANCH  17  18
ENDBRANCH  16  17
ENDBRANCH  15  16
ENDBRANCH  14  15
ENDBRANCH  13  14
ENDBRANCH   1  13
TORSDOF 20
ENDMDL
