MODEL 1
REMARK VINA RESULT:    -1.844      0.000      0.000
REMARK INTER + INTRA:          -2.193
REMARK INTER:                  -2.167
REMARK INTRA:                  -0.025
REMARK UNBOUND:                -0.025
REMARK SMILES CCCCC(=O)[O-]
REMARK SMILES IDX 4 1 5 2 6 3 7 4 3 5 2 6 1 7
REMARK H PARENT
REMARK Flexibility Score: inf
ROOT
ATOM      1  C   UNL     1     100.990  13.844  12.511  1.00  0.00     0.053 C 
ENDROOT
BRANCH   1   2
ATOM      2  C   UNL     1     101.752  13.835  11.224  1.00  0.00     0.041 C 
ATOM      3  O   UNL     1     101.204  14.231  10.161  1.00  0.00    -0.550 OA
ATOM      4  O   UNL     1     103.082  13.436  11.205  1.00  0.00    -0.550 OA
ENDBRANCH   1   2
BRANCH   1   5
ATOM      5  C   UNL     1     101.776  13.109  13.604  1.00  0.00     0.006 C 
BRANCH   5   6
ATOM      6  C   UNL     1     100.877  12.233  14.490  1.00  0.00    -0.003 C 
ATOM      7  C   UNL     1     101.437  12.048  15.900  1.00  0.00     0.004 C 
ENDBRANCH   5   6
ENDBRANCH   1   5
TORSDOF 3
ENDMDL
MODEL 2
REMARK VINA RESULT:    -1.795      1.728      2.246
REMARK INTER + INTRA:          -2.135
REMARK INTER:                  -2.066
REMARK INTRA:                  -0.069
REMARK UNBOUND:                -0.025
REMARK SMILES CCCCC(=O)[O-]
REMARK SMILES IDX 4 1 5 2 6 3 7 4 3 5 2 6 1 7
REMARK H PARENT
REMARK Flexibility Score: inf
ROOT
ATOM      1  C   UNL     1     100.911  12.455  14.244  1.00  0.00     0.053 C 
ENDROOT
BRANCH   1   2
ATOM      2  C   UNL     1     101.035  13.574  13.259  1.00  0.00     0.041 C 
ATOM      3  O   UNL     1     100.876  13.355  12.028  1.00  0.00    -0.550 OA
ATOM      4  O   UNL     1     101.275  14.868  13.702  1.00  0.00    -0.550 OA
ENDBRANCH   1   2
BRANCH   1   5
ATOM      5  C   UNL     1     102.284  12.105  14.832  1.00  0.00     0.006 C 
BRANCH   5   6
ATOM      6  C   UNL     1     102.274  12.059  16.368  1.00  0.00    -0.003 C 
ATOM      7  C   UNL     1     100.876  12.251  16.956  1.00  0.00     0.004 C 
ENDBRANCH   5   6
ENDBRANCH   1   5
TORSDOF 3
ENDMDL
MODEL 3
REMARK VINA RESULT:    -1.753     20.105     21.160
REMARK INTER + INTRA:          -2.085
REMARK INTER:                  -2.065
REMARK INTRA:                  -0.020
REMARK UNBOUND:                -0.025
REMARK SMILES CCCCC(=O)[O-]
REMARK SMILES IDX 4 1 5 2 6 3 7 4 3 5 2 6 1 7
REMARK H PARENT
REMARK Flexibility Score: inf
ROOT
ATOM      1  C   UNL     1     116.660  15.045  26.877  1.00  0.00     0.053 C 
ENDROOT
BRANCH   1   2
ATOM      2  C   UNL     1     117.439  14.801  28.132  1.00  0.00     0.041 C 
ATOM      3  O   UNL     1     118.331  15.615  28.492  1.00  0.00    -0.550 OA
ATOM      4  O   UNL     1     117.146  13.704  28.930  1.00  0.00    -0.550 OA
ENDBRANCH   1   2
BRANCH   1   5
ATOM      5  C   UNL     1     116.140  13.721  26.304  1.00  0.00     0.006 C 
BRANCH   5   6
ATOM      6  C   UNL     1     116.292  13.639  24.777  1.00  0.00    -0.003 C 
ATOM      7  C   UNL     1     116.312  12.200  24.262  1.00  0.00     0.004 C 
ENDBRANCH   5   6
ENDBRANCH   1   5
TORSDOF 3
ENDMDL
MODEL 4
REMARK VINA RESULT:    -1.746     20.101     21.062
REMARK INTER + INTRA:          -2.078
REMARK INTER:                  -2.052
REMARK INTRA:                  -0.026
REMARK UNBOUND:                -0.025
REMARK SMILES CCCCC(=O)[O-]
REMARK SMILES IDX 4 1 5 2 6 3 7 4 3 5 2 6 1 7
REMARK H PARENT
REMARK Flexibility Score: inf
ROOT
ATOM      1  C   UNL     1     116.338  15.007  26.932  1.00  0.00     0.053 C 
ENDROOT
BRANCH   1   2
ATOM      2  C   UNL     1     117.343  14.819  28.024  1.00  0.00     0.041 C 
ATOM      3  O   UNL     1     117.219  13.870  28.843  1.00  0.00    -0.550 OA
ATOM      4  O   UNL     1     118.444  15.662  28.109  1.00  0.00    -0.550 OA
ENDBRANCH   1   2
BRANCH   1   5
ATOM      5  C   UNL     1     115.974  13.657  26.301  1.00  0.00     0.006 C 
BRANCH   5   6
ATOM      6  C   UNL     1     116.335  13.586  24.810  1.00  0.00    -0.003 C 
ATOM      7  C   UNL     1     116.313  12.159  24.264  1.00  0.00     0.004 C 
ENDBRANCH   5   6
ENDBRANCH   1   5
TORSDOF 3
ENDMDL
MODEL 5
REMARK VINA RESULT:    -1.704     19.564     20.903
REMARK INTER + INTRA:          -2.028
REMARK INTER:                  -1.993
REMARK INTRA:                  -0.036
REMARK UNBOUND:                -0.025
REMARK SMILES CCCCC(=O)[O-]
REMARK SMILES IDX 4 1 5 2 6 3 7 4 3 5 2 6 1 7
REMARK H PARENT
REMARK Flexibility Score: inf
ROOT
ATOM      1  C   UNL     1     116.612  14.708  26.439  1.00  0.00     0.053 C 
ENDROOT
BRANCH   1   2
ATOM      2  C   UNL     1     116.045  13.476  25.808  1.00  0.00     0.041 C 
ATOM      3  O   UNL     1     116.463  13.091  24.683  1.00  0.00    -0.550 OA
ATOM      4  O   UNL     1     115.092  12.724  26.482  1.00  0.00    -0.550 OA
ENDBRANCH   1   2
BRANCH   1   5
ATOM      5  C   UNL     1     116.905  14.462  27.925  1.00  0.00     0.006 C 
BRANCH   5   6
ATOM      6  C   UNL     1     117.937  15.448  28.494  1.00  0.00    -0.003 C 
ATOM      7  C   UNL     1     118.647  16.253  27.405  1.00  0.00     0.004 C 
ENDBRANCH   5   6
ENDBRANCH   1   5
TORSDOF 3
ENDMDL
MODEL 6
REMARK VINA RESULT:    -1.692     19.191     20.349
REMARK INTER + INTRA:          -2.014
REMARK INTER:                  -1.905
REMARK INTRA:                  -0.109
REMARK UNBOUND:                -0.025
REMARK SMILES CCCCC(=O)[O-]
REMARK SMILES IDX 4 1 5 2 6 3 7 4 3 5 2 6 1 7
REMARK H PARENT
REMARK Flexibility Score: inf
ROOT
ATOM      1  C   UNL     1     116.562  14.588  25.731  1.00  0.00     0.053 C 
ENDROOT
BRANCH   1   2
ATOM      2  C   UNL     1     116.102  13.225  25.321  1.00  0.00     0.041 C 
ATOM      3  O   UNL     1     115.268  12.599  26.027  1.00  0.00    -0.550 OA
ATOM      4  O   UNL     1     116.554  12.666  24.133  1.00  0.00    -0.550 OA
ENDBRANCH   1   2
BRANCH   1   5
ATOM      5  C   UNL     1     116.175  14.869  27.188  1.00  0.00     0.006 C 
BRANCH   5   6
ATOM      6  C   UNL     1     117.304  14.535  28.175  1.00  0.00    -0.003 C 
ATOM      7  C   UNL     1     116.943  13.392  29.122  1.00  0.00     0.004 C 
ENDBRANCH   5   6
ENDBRANCH   1   5
TORSDOF 3
ENDMDL
MODEL 7
REMARK VINA RESULT:    -1.657     21.500     22.109
REMARK INTER + INTRA:          -1.972
REMARK INTER:                  -1.923
REMARK INTRA:                  -0.049
REMARK UNBOUND:                -0.025
REMARK SMILES CCCCC(=O)[O-]
REMARK SMILES IDX 4 1 5 2 6 3 7 4 3 5 2 6 1 7
REMARK H PARENT
REMARK Flexibility Score: inf
ROOT
ATOM      1  C   UNL     1     116.801  15.659  27.707  1.00  0.00     0.053 C 
ENDROOT
BRANCH   1   2
ATOM      2  C   UNL     1     118.252  16.027  27.724  1.00  0.00     0.041 C 
ATOM      3  O   UNL     1     118.889  16.038  28.811  1.00  0.00    -0.550 OA
ATOM      4  O   UNL     1     118.912  16.307  26.536  1.00  0.00    -0.550 OA
ENDBRANCH   1   2
BRANCH   1   5
ATOM      5  C   UNL     1     116.635  14.142  27.551  1.00  0.00     0.006 C 
BRANCH   5   6
ATOM      6  C   UNL     1     116.439  13.428  28.897  1.00  0.00    -0.003 C 
ATOM      7  C   UNL     1     115.449  12.267  28.811  1.00  0.00     0.004 C 
ENDBRANCH   5   6
ENDBRANCH   1   5
TORSDOF 3
ENDMDL
MODEL 8
REMARK VINA RESULT:    -1.615     18.600     19.096
REMARK INTER + INTRA:          -1.924
REMARK INTER:                  -1.879
REMARK INTRA:                  -0.045
REMARK UNBOUND:                -0.025
REMARK SMILES CCCCC(=O)[O-]
REMARK SMILES IDX 4 1 5 2 6 3 7 4 3 5 2 6 1 7
REMARK H PARENT
REMARK Flexibility Score: inf
ROOT
ATOM      1  C   UNL     1     115.372  12.440  24.426  1.00  0.00     0.053 C 
ENDROOT
BRANCH   1   2
ATOM      2  C   UNL     1     115.768  13.117  25.700  1.00  0.00     0.041 C 
ATOM      3  O   UNL     1     115.362  12.672  26.806  1.00  0.00    -0.550 OA
ATOM      4  O   UNL     1     116.625  14.209  25.670  1.00  0.00    -0.550 OA
ENDBRANCH   1   2
BRANCH   1   5
ATOM      5  C   UNL     1     116.609  11.883  23.709  1.00  0.00     0.006 C 
BRANCH   5   6
ATOM      6  C   UNL     1     117.009  12.720  22.485  1.00  0.00    -0.003 C 
ATOM      7  C   UNL     1     117.122  11.886  21.209  1.00  0.00     0.004 C 
ENDBRANCH   5   6
ENDBRANCH   1   5
TORSDOF 3
ENDMDL
MODEL 9
REMARK VINA RESULT:    -1.609      2.672      3.133
REMARK INTER + INTRA:          -1.917
REMARK INTER:                  -1.837
REMARK INTRA:                  -0.080
REMARK UNBOUND:                -0.025
REMARK SMILES CCCCC(=O)[O-]
REMARK SMILES IDX 4 1 5 2 6 3 7 4 3 5 2 6 1 7
REMARK H PARENT
REMARK Flexibility Score: inf
ROOT
ATOM      1  C   UNL     1     102.726  11.967  14.862  1.00  0.00     0.053 C 
ENDROOT
BRANCH   1   2
ATOM      2  C   UNL     1     103.290  13.188  14.206  1.00  0.00     0.041 C 
ATOM      3  O   UNL     1     104.400  13.133  13.613  1.00  0.00    -0.550 OA
ATOM      4  O   UNL     1     102.567  14.374  14.207  1.00  0.00    -0.550 OA
ENDBRANCH   1   2
BRANCH   1   5
ATOM      5  C   UNL     1     101.232  12.158  15.156  1.00  0.00     0.006 C 
BRANCH   5   6
ATOM      6  C   UNL     1     100.899  11.993  16.647  1.00  0.00    -0.003 C 
ATOM      7  C   UNL     1     102.147  11.876  17.522  1.00  0.00     0.004 C 
ENDBRANCH   5   6
ENDBRANCH   1   5
TORSDOF 3
ENDMDL
