MODEL 1
REMARK VINA RESULT:    -5.413      0.000      0.000
REMARK INTER + INTRA:          -5.413
REMARK INTER:                  -5.413
REMARK INTRA:                   0.000
REMARK UNBOUND:                 0.000
REMARK SMILES CC1=CC[C@]2(C)CCCC(C)(C)[C@]23C[C@H]13
REMARK SMILES IDX 1 1 2 2 3 3 4 4 5 5 7 6 8 7 9 8 10 9 13 10 15 11 14 12 11 13
REMARK SMILES IDX 12 14 6 15
REMARK H PARENT
REMARK Flexibility Score: inf
ROOT
ATOM      1  C   UNL     1      30.625  19.989  13.838  1.00  0.00     0.039 C 
ATOM      2  C   UNL     1      30.735  21.485  13.751  1.00  0.00    -0.074 C 
ATOM      3  C   UNL     1      31.870  22.084  14.172  1.00  0.00    -0.027 C 
ATOM      4  C   UNL     1      32.053  23.579  14.118  1.00  0.00     0.034 C 
ATOM      5  C   UNL     1      31.326  24.198  12.884  1.00  0.00    -0.022 C 
ATOM      6  C   UNL     1      31.379  25.741  12.992  1.00  0.00     0.008 C 
ATOM      7  C   UNL     1      30.545  26.458  11.908  1.00  0.00     0.001 C 
ATOM      8  C   UNL     1      29.075  25.997  11.871  1.00  0.00     0.007 C 
ATOM      9  C   UNL     1      28.866  24.460  11.743  1.00  0.00    -0.029 C 
ATOM     10  C   UNL     1      29.803  23.751  12.818  1.00  0.00    -0.012 C 
ATOM     11  C   UNL     1      29.562  22.279  13.191  1.00  0.00     0.022 C 
ATOM     12  C   UNL     1      29.087  23.372  14.145  1.00  0.00     0.017 C 
ATOM     13  C   UNL     1      29.199  23.978  10.303  1.00  0.00     0.012 C 
ATOM     14  C   UNL     1      27.337  24.197  11.934  1.00  0.00     0.012 C 
ATOM     15  C   UNL     1      32.113  23.715  11.626  1.00  0.00     0.012 C 
ENDROOT
TORSDOF 0
ENDMDL
MODEL 2
REMARK VINA RESULT:    -4.340      1.543      4.293
REMARK INTER + INTRA:          -4.340
REMARK INTER:                  -4.340
REMARK INTRA:                   0.000
REMARK UNBOUND:                 0.000
REMARK SMILES CC1=CC[C@]2(C)CCCC(C)(C)[C@]23C[C@H]13
REMARK SMILES IDX 1 1 2 2 3 3 4 4 5 5 7 6 8 7 9 8 10 9 13 10 15 11 14 12 11 13
REMARK SMILES IDX 12 14 6 15
REMARK H PARENT
REMARK Flexibility Score: inf
ROOT
ATOM      1  C   UNL     1      29.485  29.079  12.625  1.00  0.00     0.039 C 
ATOM      2  C   UNL     1      30.107  27.774  12.215  1.00  0.00    -0.074 C 
ATOM      3  C   UNL     1      31.431  27.735  11.949  1.00  0.00    -0.027 C 
ATOM      4  C   UNL     1      32.125  26.464  11.530  1.00  0.00     0.034 C 
ATOM      5  C   UNL     1      31.489  25.215  12.216  1.00  0.00    -0.022 C 
ATOM      6  C   UNL     1      32.105  23.936  11.600  1.00  0.00     0.008 C 
ATOM      7  C   UNL     1      31.428  22.636  12.087  1.00  0.00     0.001 C 
ATOM      8  C   UNL     1      29.903  22.628  11.867  1.00  0.00     0.007 C 
ATOM      9  C   UNL     1      29.142  23.852  12.456  1.00  0.00    -0.029 C 
ATOM     10  C   UNL     1      29.916  25.168  12.003  1.00  0.00    -0.012 C 
ATOM     11  C   UNL     1      29.225  26.537  12.112  1.00  0.00     0.022 C 
ATOM     12  C   UNL     1      29.321  25.862  10.745  1.00  0.00     0.017 C 
ATOM     13  C   UNL     1      29.061  23.754  14.005  1.00  0.00     0.012 C 
ATOM     14  C   UNL     1      27.668  23.752  11.946  1.00  0.00     0.012 C 
ATOM     15  C   UNL     1      31.853  25.316  13.730  1.00  0.00     0.012 C 
ENDROOT
TORSDOF 0
ENDMDL
MODEL 3
REMARK VINA RESULT:    -3.458      1.453      2.813
REMARK INTER + INTRA:          -3.458
REMARK INTER:                  -3.458
REMARK INTRA:                   0.000
REMARK UNBOUND:                 0.000
REMARK SMILES CC1=CC[C@]2(C)CCCC(C)(C)[C@]23C[C@H]13
REMARK SMILES IDX 1 1 2 2 3 3 4 4 5 5 7 6 8 7 9 8 10 9 13 10 15 11 14 12 11 13
REMARK SMILES IDX 12 14 6 15
REMARK H PARENT
REMARK Flexibility Score: inf
ROOT
ATOM      1  C   UNL     1      29.881  21.715  14.199  1.00  0.00     0.039 C 
ATOM      2  C   UNL     1      30.581  22.562  13.174  1.00  0.00    -0.074 C 
ATOM      3  C   UNL     1      31.101  21.968  12.077  1.00  0.00    -0.027 C 
ATOM      4  C   UNL     1      31.820  22.751  11.008  1.00  0.00     0.034 C 
ATOM      5  C   UNL     1      31.205  24.175  10.835  1.00  0.00    -0.022 C 
ATOM      6  C   UNL     1      32.102  24.995   9.877  1.00  0.00     0.008 C 
ATOM      7  C   UNL     1      31.680  26.476   9.763  1.00  0.00     0.001 C 
ATOM      8  C   UNL     1      31.600  27.190  11.126  1.00  0.00     0.007 C 
ATOM      9  C   UNL     1      30.711  26.485  12.192  1.00  0.00    -0.029 C 
ATOM     10  C   UNL     1      31.115  24.945  12.221  1.00  0.00    -0.012 C 
ATOM     11  C   UNL     1      30.685  24.064  13.405  1.00  0.00     0.022 C 
ATOM     12  C   UNL     1      32.125  24.568  13.342  1.00  0.00     0.017 C 
ATOM     13  C   UNL     1      29.203  26.663  11.853  1.00  0.00     0.012 C 
ATOM     14  C   UNL     1      30.935  27.246  13.538  1.00  0.00     0.012 C 
ATOM     15  C   UNL     1      29.791  23.967  10.210  1.00  0.00     0.012 C 
ENDROOT
TORSDOF 0
ENDMDL
MODEL 4
REMARK VINA RESULT:    -3.245      1.245      3.575
REMARK INTER + INTRA:          -3.245
REMARK INTER:                  -3.245
REMARK INTRA:                   0.000
REMARK UNBOUND:                 0.000
REMARK SMILES CC1=CC[C@]2(C)CCCC(C)(C)[C@]23C[C@H]13
REMARK SMILES IDX 1 1 2 2 3 3 4 4 5 5 7 6 8 7 9 8 10 9 13 10 15 11 14 12 11 13
REMARK SMILES IDX 12 14 6 15
REMARK H PARENT
REMARK Flexibility Score: inf
ROOT
ATOM      1  C   UNL     1      26.000  23.385  11.114  1.00  0.00     0.039 C 
ATOM      2  C   UNL     1      27.170  23.715  11.997  1.00  0.00    -0.074 C 
ATOM      3  C   UNL     1      27.117  23.381  13.306  1.00  0.00    -0.027 C 
ATOM      4  C   UNL     1      28.251  23.682  14.254  1.00  0.00     0.034 C 
ATOM      5  C   UNL     1      29.633  23.581  13.538  1.00  0.00    -0.022 C 
ATOM      6  C   UNL     1      30.734  24.091  14.499  1.00  0.00     0.008 C 
ATOM      7  C   UNL     1      32.125  24.193  13.837  1.00  0.00     0.001 C 
ATOM      8  C   UNL     1      32.125  25.051  12.557  1.00  0.00     0.007 C 
ATOM      9  C   UNL     1      31.076  24.639  11.483  1.00  0.00    -0.029 C 
ATOM     10  C   UNL     1      29.673  24.461  12.217  1.00  0.00    -0.012 C 
ATOM     11  C   UNL     1      28.378  24.416  11.390  1.00  0.00     0.022 C 
ATOM     12  C   UNL     1      28.741  25.702  12.128  1.00  0.00     0.017 C 
ATOM     13  C   UNL     1      31.507  23.325  10.771  1.00  0.00     0.012 C 
ATOM     14  C   UNL     1      31.102  25.746  10.381  1.00  0.00     0.012 C 
ATOM     15  C   UNL     1      29.851  22.069  13.219  1.00  0.00     0.012 C 
ENDROOT
TORSDOF 0
ENDMDL
MODEL 5
REMARK VINA RESULT:    -2.708      1.376      4.599
REMARK INTER + INTRA:          -2.708
REMARK INTER:                  -2.708
REMARK INTRA:                   0.000
REMARK UNBOUND:                 0.000
REMARK SMILES CC1=CC[C@]2(C)CCCC(C)(C)[C@]23C[C@H]13
REMARK SMILES IDX 1 1 2 2 3 3 4 4 5 5 7 6 8 7 9 8 10 9 13 10 15 11 14 12 11 13
REMARK SMILES IDX 12 14 6 15
REMARK H PARENT
REMARK Flexibility Score: inf
ROOT
ATOM      1  C   UNL     1      31.437  27.120   9.345  1.00  0.00     0.039 C 
ATOM      2  C   UNL     1      30.626  26.546  10.472  1.00  0.00    -0.074 C 
ATOM      3  C   UNL     1      29.395  27.049  10.715  1.00  0.00    -0.027 C 
ATOM      4  C   UNL     1      28.524  26.526  11.830  1.00  0.00     0.034 C 
ATOM      5  C   UNL     1      28.736  24.996  12.048  1.00  0.00    -0.022 C 
ATOM      6  C   UNL     1      27.974  24.562  13.323  1.00  0.00     0.008 C 
ATOM      7  C   UNL     1      28.249  23.098  13.731  1.00  0.00     0.001 C 
ATOM      8  C   UNL     1      29.748  22.787  13.899  1.00  0.00     0.007 C 
ATOM      9  C   UNL     1      30.643  23.155  12.679  1.00  0.00    -0.029 C 
ATOM     10  C   UNL     1      30.272  24.639  12.235  1.00  0.00    -0.012 C 
ATOM     11  C   UNL     1      31.217  25.418  11.306  1.00  0.00     0.022 C 
ATOM     12  C   UNL     1      31.221  25.734  12.800  1.00  0.00     0.017 C 
ATOM     13  C   UNL     1      30.422  22.149  11.514  1.00  0.00     0.012 C 
ATOM     14  C   UNL     1      32.125  22.959  13.134  1.00  0.00     0.012 C 
ATOM     15  C   UNL     1      28.138  24.288  10.793  1.00  0.00     0.012 C 
ENDROOT
TORSDOF 0
ENDMDL
MODEL 6
REMARK VINA RESULT:    -2.674      1.745      3.559
REMARK INTER + INTRA:          -2.674
REMARK INTER:                  -2.674
REMARK INTRA:                   0.000
REMARK UNBOUND:                 0.000
REMARK SMILES CC1=CC[C@]2(C)CCCC(C)(C)[C@]23C[C@H]13
REMARK SMILES IDX 1 1 2 2 3 3 4 4 5 5 7 6 8 7 9 8 10 9 13 10 15 11 14 12 11 13
REMARK SMILES IDX 12 14 6 15
REMARK H PARENT
REMARK Flexibility Score: inf
ROOT
ATOM      1  C   UNL     1      29.241  22.601  13.778  1.00  0.00     0.039 C 
ATOM      2  C   UNL     1      29.991  23.443  12.785  1.00  0.00    -0.074 C 
ATOM      3  C   UNL     1      30.077  23.023  11.503  1.00  0.00    -0.027 C 
ATOM      4  C   UNL     1      30.815  23.811  10.451  1.00  0.00     0.034 C 
ATOM      5  C   UNL     1      30.695  25.346  10.701  1.00  0.00    -0.022 C 
ATOM      6  C   UNL     1      31.629  26.090   9.717  1.00  0.00     0.008 C 
ATOM      7  C   UNL     1      31.717  27.608   9.986  1.00  0.00     0.001 C 
ATOM      8  C   UNL     1      32.125  27.945  11.433  1.00  0.00     0.007 C 
ATOM      9  C   UNL     1      31.255  27.279  12.539  1.00  0.00    -0.029 C 
ATOM     10  C   UNL     1      31.117  25.732  12.183  1.00  0.00    -0.012 C 
ATOM     11  C   UNL     1      30.633  24.741  13.254  1.00  0.00     0.022 C 
ATOM     12  C   UNL     1      32.123  24.810  12.927  1.00  0.00     0.017 C 
ATOM     13  C   UNL     1      29.861  27.961  12.625  1.00  0.00     0.012 C 
ATOM     14  C   UNL     1      31.958  27.576  13.902  1.00  0.00     0.012 C 
ATOM     15  C   UNL     1      29.206  25.719  10.421  1.00  0.00     0.012 C 
ENDROOT
TORSDOF 0
ENDMDL
MODEL 7
REMARK VINA RESULT:    -2.605      1.184      4.152
REMARK INTER + INTRA:          -2.605
REMARK INTER:                  -2.605
REMARK INTRA:                   0.000
REMARK UNBOUND:                 0.000
REMARK SMILES CC1=CC[C@]2(C)CCCC(C)(C)[C@]23C[C@H]13
REMARK SMILES IDX 1 1 2 2 3 3 4 4 5 5 7 6 8 7 9 8 10 9 13 10 15 11 14 12 11 13
REMARK SMILES IDX 12 14 6 15
REMARK H PARENT
REMARK Flexibility Score: inf
ROOT
ATOM      1  C   UNL     1      29.646  27.781  10.501  1.00  0.00     0.039 C 
ATOM      2  C   UNL     1      30.158  26.397  10.787  1.00  0.00    -0.074 C 
ATOM      3  C   UNL     1      31.406  26.065  10.389  1.00  0.00    -0.027 C 
ATOM      4  C   UNL     1      31.988  24.697  10.638  1.00  0.00     0.034 C 
ATOM      5  C   UNL     1      31.476  24.097  11.984  1.00  0.00    -0.022 C 
ATOM      6  C   UNL     1      31.943  22.625  12.087  1.00  0.00     0.008 C 
ATOM      7  C   UNL     1      31.352  21.881  13.304  1.00  0.00     0.001 C 
ATOM      8  C   UNL     1      29.814  21.936  13.361  1.00  0.00     0.007 C 
ATOM      9  C   UNL     1      29.198  23.364  13.287  1.00  0.00    -0.029 C 
ATOM     10  C   UNL     1      29.891  24.129  12.074  1.00  0.00    -0.012 C 
ATOM     11  C   UNL     1      29.254  25.412  11.516  1.00  0.00     0.022 C 
ATOM     12  C   UNL     1      29.076  24.103  10.750  1.00  0.00     0.017 C 
ATOM     13  C   UNL     1      29.414  24.124  14.626  1.00  0.00     0.012 C 
ATOM     14  C   UNL     1      27.653  23.180  13.148  1.00  0.00     0.012 C 
ATOM     15  C   UNL     1      32.125  24.952  13.117  1.00  0.00     0.012 C 
ENDROOT
TORSDOF 0
ENDMDL
