MODEL 1
REMARK VINA RESULT:    -6.771      0.000      0.000
REMARK INTER + INTRA:          -6.771
REMARK INTER:                  -6.771
REMARK INTRA:                   0.000
REMARK UNBOUND:                 0.000
REMARK SMILES C=C1CCC[C@@]2(C)CC(=O)C(=C(C)C)C[C@@H]12
REMARK SMILES IDX 13 1 12 2 11 3 15 4 16 5 2 6 1 7 3 8 4 9 5 10 6 11 8 12 9 13
REMARK SMILES IDX 10 14 7 15 14 16
REMARK H PARENT
REMARK Flexibility Score: inf
ROOT
ATOM      1  C   UNL     1      27.976  54.832  16.254  1.00  0.00     0.039 C 
ATOM      2  C   UNL     1      27.725  54.333  14.849  1.00  0.00    -0.070 C 
ATOM      3  C   UNL     1      28.011  55.110  13.763  1.00  0.00    -0.006 C 
ATOM      4  C   UNL     1      28.653  56.481  13.900  1.00  0.00     0.047 C 
ATOM      5  C   UNL     1      28.158  57.452  12.799  1.00  0.00     0.025 C 
ATOM      6  C   UNL     1      28.820  58.810  13.010  1.00  0.00    -0.073 C 
ATOM      7  C   UNL     1      28.258  59.713  13.830  1.00  0.00     0.008 C 
ATOM      8  C   UNL     1      30.156  59.131  12.381  1.00  0.00     0.031 C 
ATOM      9  C   UNL     1      30.605  58.052  11.397  1.00  0.00     0.005 C 
ATOM     10  C   UNL     1      29.433  57.636  10.509  1.00  0.00     0.008 C 
ATOM     11  C   UNL     1      28.318  56.895  11.314  1.00  0.00    -0.018 C 
ATOM     12  C   UNL     1      28.638  55.369  11.302  1.00  0.00     0.088 C 
ATOM     13  C   UNL     1      27.866  54.644  12.360  1.00  0.00     0.159 C 
ATOM     14  O   UNL     1      27.095  53.702  12.033  1.00  0.00    -0.295 OA
ATOM     15  C   UNL     1      26.982  57.103  10.559  1.00  0.00     0.012 C 
ATOM     16  C   UNL     1      27.185  52.929  14.704  1.00  0.00     0.039 C 
ENDROOT
TORSDOF 0
ENDMDL
MODEL 2
REMARK VINA RESULT:    -6.758      5.511      8.339
REMARK INTER + INTRA:          -6.758
REMARK INTER:                  -6.758
REMARK INTRA:                   0.000
REMARK UNBOUND:                 0.000
REMARK SMILES C=C1CCC[C@@]2(C)CC(=O)C(=C(C)C)C[C@@H]12
REMARK SMILES IDX 13 1 12 2 11 3 15 4 16 5 2 6 1 7 3 8 4 9 5 10 6 11 8 12 9 13
REMARK SMILES IDX 10 14 7 15 14 16
REMARK H PARENT
REMARK Flexibility Score: inf
ROOT
ATOM      1  C   UNL     1      28.839  54.267  16.997  1.00  0.00     0.039 C 
ATOM      2  C   UNL     1      28.433  52.811  17.014  1.00  0.00    -0.070 C 
ATOM      3  C   UNL     1      27.230  52.422  17.530  1.00  0.00    -0.006 C 
ATOM      4  C   UNL     1      26.213  53.424  18.050  1.00  0.00     0.047 C 
ATOM      5  C   UNL     1      25.406  52.849  19.241  1.00  0.00     0.025 C 
ATOM      6  C   UNL     1      24.427  53.912  19.728  1.00  0.00    -0.073 C 
ATOM      7  C   UNL     1      24.814  54.818  20.639  1.00  0.00     0.008 C 
ATOM      8  C   UNL     1      23.042  54.025  19.132  1.00  0.00     0.031 C 
ATOM      9  C   UNL     1      22.719  52.861  18.196  1.00  0.00     0.005 C 
ATOM     10  C   UNL     1      23.164  51.544  18.829  1.00  0.00     0.008 C 
ATOM     11  C   UNL     1      24.719  51.442  18.947  1.00  0.00    -0.018 C 
ATOM     12  C   UNL     1      25.267  50.793  17.640  1.00  0.00     0.088 C 
ATOM     13  C   UNL     1      26.740  51.019  17.499  1.00  0.00     0.159 C 
ATOM     14  O   UNL     1      27.516  50.031  17.401  1.00  0.00    -0.295 OA
ATOM     15  C   UNL     1      25.034  50.480  20.120  1.00  0.00     0.012 C 
ATOM     16  C   UNL     1      29.396  51.820  16.402  1.00  0.00     0.039 C 
ENDROOT
TORSDOF 0
ENDMDL
MODEL 3
REMARK VINA RESULT:    -6.719      3.671      7.775
REMARK INTER + INTRA:          -6.719
REMARK INTER:                  -6.719
REMARK INTRA:                   0.000
REMARK UNBOUND:                 0.000
REMARK SMILES C=C1CCC[C@@]2(C)CC(=O)C(=C(C)C)C[C@@H]12
REMARK SMILES IDX 13 1 12 2 11 3 15 4 16 5 2 6 1 7 3 8 4 9 5 10 6 11 8 12 9 13
REMARK SMILES IDX 10 14 7 15 14 16
REMARK H PARENT
REMARK Flexibility Score: inf
ROOT
ATOM      1  C   UNL     1      28.052  52.507  11.612  1.00  0.00     0.039 C 
ATOM      2  C   UNL     1      27.815  52.995  13.024  1.00  0.00    -0.070 C 
ATOM      3  C   UNL     1      28.117  52.211  14.100  1.00  0.00    -0.006 C 
ATOM      4  C   UNL     1      28.765  50.844  13.945  1.00  0.00     0.047 C 
ATOM      5  C   UNL     1      28.288  49.862  15.045  1.00  0.00     0.025 C 
ATOM      6  C   UNL     1      28.954  48.509  14.816  1.00  0.00    -0.073 C 
ATOM      7  C   UNL     1      28.387  47.610  13.996  1.00  0.00     0.008 C 
ATOM      8  C   UNL     1      30.300  48.191  15.427  1.00  0.00     0.031 C 
ATOM      9  C   UNL     1      30.754  49.265  16.414  1.00  0.00     0.005 C 
ATOM     10  C   UNL     1      29.590  49.668  17.318  1.00  0.00     0.008 C 
ATOM     11  C   UNL     1      28.462  50.410  16.532  1.00  0.00    -0.018 C 
ATOM     12  C   UNL     1      28.774  51.937  16.552  1.00  0.00     0.088 C 
ATOM     13  C   UNL     1      27.986  52.666  15.509  1.00  0.00     0.159 C 
ATOM     14  O   UNL     1      27.215  53.601  15.851  1.00  0.00    -0.295 OA
ATOM     15  C   UNL     1      27.136  50.188  17.302  1.00  0.00     0.012 C 
ATOM     16  C   UNL     1      27.270  54.395  13.186  1.00  0.00     0.039 C 
ENDROOT
TORSDOF 0
ENDMDL
MODEL 4
REMARK VINA RESULT:    -6.711      3.819      6.349
REMARK INTER + INTRA:          -6.711
REMARK INTER:                  -6.711
REMARK INTRA:                   0.000
REMARK UNBOUND:                 0.000
REMARK SMILES C=C1CCC[C@@]2(C)CC(=O)C(=C(C)C)C[C@@H]12
REMARK SMILES IDX 13 1 12 2 11 3 15 4 16 5 2 6 1 7 3 8 4 9 5 10 6 11 8 12 9 13
REMARK SMILES IDX 10 14 7 15 14 16
REMARK H PARENT
REMARK Flexibility Score: inf
ROOT
ATOM      1  C   UNL     1      28.732  52.754  10.654  1.00  0.00     0.039 C 
ATOM      2  C   UNL     1      28.364  54.220  10.661  1.00  0.00    -0.070 C 
ATOM      3  C   UNL     1      27.146  54.642  10.211  1.00  0.00    -0.006 C 
ATOM      4  C   UNL     1      26.077  53.668   9.744  1.00  0.00     0.047 C 
ATOM      5  C   UNL     1      25.222  54.268   8.599  1.00  0.00     0.025 C 
ATOM      6  C   UNL     1      24.191  53.233   8.163  1.00  0.00    -0.073 C 
ATOM      7  C   UNL     1      24.505  52.320   7.231  1.00  0.00     0.008 C 
ATOM      8  C   UNL     1      22.837  53.154   8.832  1.00  0.00     0.031 C 
ATOM      9  C   UNL     1      22.596  54.323   9.786  1.00  0.00     0.005 C 
ATOM     10  C   UNL     1      23.041  55.630   9.132  1.00  0.00     0.008 C 
ATOM     11  C   UNL     1      24.589  55.692   8.932  1.00  0.00    -0.018 C 
ATOM     12  C   UNL     1      25.223  56.322  10.209  1.00  0.00     0.088 C 
ATOM     13  C   UNL     1      26.695  56.057  10.272  1.00  0.00     0.159 C 
ATOM     14  O   UNL     1      27.500  57.025  10.330  1.00  0.00    -0.295 OA
ATOM     15  C   UNL     1      24.866  56.649   7.746  1.00  0.00     0.012 C 
ATOM     16  C   UNL     1      29.383  55.183  11.224  1.00  0.00     0.039 C 
ENDROOT
TORSDOF 0
ENDMDL
MODEL 5
REMARK VINA RESULT:    -6.637      3.817      5.967
REMARK INTER + INTRA:          -6.637
REMARK INTER:                  -6.637
REMARK INTRA:                   0.000
REMARK UNBOUND:                 0.000
REMARK SMILES C=C1CCC[C@@]2(C)CC(=O)C(=C(C)C)C[C@@H]12
REMARK SMILES IDX 13 1 12 2 11 3 15 4 16 5 2 6 1 7 3 8 4 9 5 10 6 11 8 12 9 13
REMARK SMILES IDX 10 14 7 15 14 16
REMARK H PARENT
REMARK Flexibility Score: inf
ROOT
ATOM      1  C   UNL     1      27.725  57.399  11.212  1.00  0.00     0.039 C 
ATOM      2  C   UNL     1      26.699  56.378  11.651  1.00  0.00    -0.070 C 
ATOM      3  C   UNL     1      25.933  55.712  10.737  1.00  0.00    -0.006 C 
ATOM      4  C   UNL     1      26.111  55.907   9.241  1.00  0.00     0.047 C 
ATOM      5  C   UNL     1      24.764  55.773   8.486  1.00  0.00     0.025 C 
ATOM      6  C   UNL     1      25.011  56.005   6.999  1.00  0.00    -0.073 C 
ATOM      7  C   UNL     1      24.982  57.249   6.497  1.00  0.00     0.008 C 
ATOM      8  C   UNL     1      25.382  54.859   6.084  1.00  0.00     0.031 C 
ATOM      9  C   UNL     1      25.264  53.504   6.780  1.00  0.00     0.005 C 
ATOM     10  C   UNL     1      23.965  53.441   7.582  1.00  0.00     0.008 C 
ATOM     11  C   UNL     1      23.972  54.426   8.795  1.00  0.00    -0.018 C 
ATOM     12  C   UNL     1      24.562  53.678  10.029  1.00  0.00     0.088 C 
ATOM     13  C   UNL     1      24.971  54.639  11.101  1.00  0.00     0.159 C 
ATOM     14  O   UNL     1      24.466  54.542  12.251  1.00  0.00    -0.295 OA
ATOM     15  C   UNL     1      22.498  54.778   9.116  1.00  0.00     0.012 C 
ATOM     16  C   UNL     1      26.592  56.103  13.133  1.00  0.00     0.039 C 
ENDROOT
TORSDOF 0
ENDMDL
MODEL 6
REMARK VINA RESULT:    -6.431      6.148      8.772
REMARK INTER + INTRA:          -6.431
REMARK INTER:                  -6.431
REMARK INTRA:                   0.000
REMARK UNBOUND:                 0.000
REMARK SMILES C=C1CCC[C@@]2(C)CC(=O)C(=C(C)C)C[C@@H]12
REMARK SMILES IDX 13 1 12 2 11 3 15 4 16 5 2 6 1 7 3 8 4 9 5 10 6 11 8 12 9 13
REMARK SMILES IDX 10 14 7 15 14 16
REMARK H PARENT
REMARK Flexibility Score: inf
ROOT
ATOM      1  C   UNL     1      27.730  49.816  16.444  1.00  0.00     0.039 C 
ATOM      2  C   UNL     1      26.833  50.977  16.080  1.00  0.00    -0.070 C 
ATOM      3  C   UNL     1      26.136  51.656  17.039  1.00  0.00    -0.006 C 
ATOM      4  C   UNL     1      26.271  51.329  18.517  1.00  0.00     0.047 C 
ATOM      5  C   UNL     1      24.938  51.558  19.273  1.00  0.00     0.025 C 
ATOM      6  C   UNL     1      25.137  51.188  20.740  1.00  0.00    -0.073 C 
ATOM      7  C   UNL     1      24.960  49.921  21.145  1.00  0.00     0.008 C 
ATOM      8  C   UNL     1      25.623  52.211  21.741  1.00  0.00     0.031 C 
ATOM      9  C   UNL     1      25.669  53.620  21.151  1.00  0.00     0.005 C 
ATOM     10  C   UNL     1      24.397  53.892  20.350  1.00  0.00     0.008 C 
ATOM     11  C   UNL     1      24.308  53.007  19.066  1.00  0.00    -0.018 C 
ATOM     12  C   UNL     1      24.996  53.774  17.895  1.00  0.00     0.088 C 
ATOM     13  C   UNL     1      25.307  52.856  16.754  1.00  0.00     0.159 C 
ATOM     14  O   UNL     1      24.831  53.098  15.613  1.00  0.00    -0.295 OA
ATOM     15  C   UNL     1      22.808  52.851  18.712  1.00  0.00     0.012 C 
ATOM     16  C   UNL     1      26.777  51.374  14.623  1.00  0.00     0.039 C 
ENDROOT
TORSDOF 0
ENDMDL
MODEL 7
REMARK VINA RESULT:    -6.332      2.506      4.893
REMARK INTER + INTRA:          -6.332
REMARK INTER:                  -6.332
REMARK INTRA:                   0.000
REMARK UNBOUND:                 0.000
REMARK SMILES C=C1CCC[C@@]2(C)CC(=O)C(=C(C)C)C[C@@H]12
REMARK SMILES IDX 13 1 12 2 11 3 15 4 16 5 2 6 1 7 3 8 4 9 5 10 6 11 8 12 9 13
REMARK SMILES IDX 10 14 7 15 14 16
REMARK H PARENT
REMARK Flexibility Score: inf
ROOT
ATOM      1  C   UNL     1      24.874  56.462   7.598  1.00  0.00     0.039 C 
ATOM      2  C   UNL     1      25.234  55.056   8.021  1.00  0.00    -0.070 C 
ATOM      3  C   UNL     1      25.987  54.828   9.137  1.00  0.00    -0.006 C 
ATOM      4  C   UNL     1      26.447  55.958  10.045  1.00  0.00     0.047 C 
ATOM      5  C   UNL     1      27.832  55.656  10.669  1.00  0.00     0.025 C 
ATOM      6  C   UNL     1      28.242  56.837  11.544  1.00  0.00    -0.073 C 
ATOM      7  C   UNL     1      28.893  57.880  11.006  1.00  0.00     0.008 C 
ATOM      8  C   UNL     1      27.847  56.900  13.002  1.00  0.00     0.031 C 
ATOM      9  C   UNL     1      27.213  55.596  13.484  1.00  0.00     0.005 C 
ATOM     10  C   UNL     1      28.017  54.403  12.970  1.00  0.00     0.008 C 
ATOM     11  C   UNL     1      27.922  54.253  11.418  1.00  0.00    -0.018 C 
ATOM     12  C   UNL     1      26.700  53.343  11.088  1.00  0.00     0.088 C 
ATOM     13  C   UNL     1      26.301  53.470   9.651  1.00  0.00     0.159 C 
ATOM     14  O   UNL     1      26.284  52.445   8.917  1.00  0.00    -0.295 OA
ATOM     15  C   UNL     1      29.200  53.517  10.943  1.00  0.00     0.012 C 
ATOM     16  C   UNL     1      24.690  53.924   7.182  1.00  0.00     0.039 C 
ENDROOT
TORSDOF 0
ENDMDL
MODEL 8
REMARK VINA RESULT:    -6.289      5.077      7.241
REMARK INTER + INTRA:          -6.289
REMARK INTER:                  -6.289
REMARK INTRA:                   0.000
REMARK UNBOUND:                 0.000
REMARK SMILES C=C1CCC[C@@]2(C)CC(=O)C(=C(C)C)C[C@@H]12
REMARK SMILES IDX 13 1 12 2 11 3 15 4 16 5 2 6 1 7 3 8 4 9 5 10 6 11 8 12 9 13
REMARK SMILES IDX 10 14 7 15 14 16
REMARK H PARENT
REMARK Flexibility Score: inf
ROOT
ATOM      1  C   UNL     1      24.956  50.716  19.976  1.00  0.00     0.039 C 
ATOM      2  C   UNL     1      25.297  52.122  19.539  1.00  0.00    -0.070 C 
ATOM      3  C   UNL     1      26.088  52.348  18.448  1.00  0.00    -0.006 C 
ATOM      4  C   UNL     1      26.611  51.214  17.582  1.00  0.00     0.047 C 
ATOM      5  C   UNL     1      28.012  51.538  17.006  1.00  0.00     0.025 C 
ATOM      6  C   UNL     1      28.486  50.352  16.173  1.00  0.00    -0.073 C 
ATOM      7  C   UNL     1      29.140  49.336  16.757  1.00  0.00     0.008 C 
ATOM      8  C   UNL     1      28.149  50.251  14.702  1.00  0.00     0.031 C 
ATOM      9  C   UNL     1      27.503  51.529  14.169  1.00  0.00     0.005 C 
ATOM     10  C   UNL     1      28.257  52.752  14.690  1.00  0.00     0.008 C 
ATOM     11  C   UNL     1      28.097  52.929  16.234  1.00  0.00    -0.018 C 
ATOM     12  C   UNL     1      26.840  53.814  16.497  1.00  0.00     0.088 C 
ATOM     13  C   UNL     1      26.389  53.704  17.920  1.00  0.00     0.159 C 
ATOM     14  O   UNL     1      26.317  54.742  18.632  1.00  0.00    -0.295 OA
ATOM     15  C   UNL     1      29.336  53.706  16.743  1.00  0.00     0.012 C 
ATOM     16  C   UNL     1      24.693  53.257  20.333  1.00  0.00     0.039 C 
ENDROOT
TORSDOF 0
ENDMDL
MODEL 9
REMARK VINA RESULT:    -6.278      3.052      4.990
REMARK INTER + INTRA:          -6.278
REMARK INTER:                  -6.278
REMARK INTRA:                   0.000
REMARK UNBOUND:                 0.000
REMARK SMILES C=C1CCC[C@@]2(C)CC(=O)C(=C(C)C)C[C@@H]12
REMARK SMILES IDX 13 1 12 2 11 3 15 4 16 5 2 6 1 7 3 8 4 9 5 10 6 11 8 12 9 13
REMARK SMILES IDX 10 14 7 15 14 16
REMARK H PARENT
REMARK Flexibility Score: inf
ROOT
ATOM      1  C   UNL     1      25.992  52.253   7.821  1.00  0.00     0.039 C 
ATOM      2  C   UNL     1      25.127  53.414   8.256  1.00  0.00    -0.070 C 
ATOM      3  C   UNL     1      25.615  54.385   9.084  1.00  0.00    -0.006 C 
ATOM      4  C   UNL     1      27.060  54.389   9.557  1.00  0.00     0.047 C 
ATOM      5  C   UNL     1      27.187  54.968  10.989  1.00  0.00     0.025 C 
ATOM      6  C   UNL     1      28.652  54.919  11.409  1.00  0.00    -0.073 C 
ATOM      7  C   UNL     1      29.151  53.815  11.987  1.00  0.00     0.008 C 
ATOM      8  C   UNL     1      29.589  56.065  11.101  1.00  0.00     0.031 C 
ATOM      9  C   UNL     1      28.849  57.281  10.545  1.00  0.00     0.005 C 
ATOM     10  C   UNL     1      27.582  57.538  11.359  1.00  0.00     0.008 C 
ATOM     11  C   UNL     1      26.523  56.405  11.175  1.00  0.00    -0.018 C 
ATOM     12  C   UNL     1      25.610  56.780   9.968  1.00  0.00     0.088 C 
ATOM     13  C   UNL     1      24.843  55.591   9.478  1.00  0.00     0.159 C 
ATOM     14  O   UNL     1      23.584  55.630   9.453  1.00  0.00    -0.295 OA
ATOM     15  C   UNL     1      25.639  56.383  12.447  1.00  0.00     0.012 C 
ATOM     16  C   UNL     1      23.722  53.472   7.703  1.00  0.00     0.039 C 
ENDROOT
TORSDOF 0
ENDMDL
