MODEL 1
REMARK VINA RESULT:    -5.640      0.000      0.000
REMARK INTER + INTRA:          -9.996
REMARK INTER:                  -8.608
REMARK INTRA:                  -1.388
REMARK UNBOUND:                -1.388
REMARK SMILES OC[C@@H]1O[C@@](CO)(O[C@H]2O[C@H](CO)[C@@H](O)[C@H](O)[C@H]2O)[C@H](O)[C@@H]1O
REMARK SMILES IDX 8 1 9 2 11 3 14 4 10 5 16 6 18 7 12 8 13 9 15 11 17 13 19 15
REMARK SMILES IDX 5 17 20 18 4 19 22 20 3 21 6 22 7 23 21 25 23 27 2 29 1 30
REMARK H PARENT 13 10 15 12 17 14 19 16 7 24 21 26 23 28 1 31
REMARK Flexibility Score: inf
ROOT
ATOM      1  O   UNL     1      55.935 103.171  33.926  1.00  0.00    -0.313 OA
ENDROOT
BRANCH   1   2
ATOM      2  C   UNL     1      55.945 103.395  35.331  1.00  0.00     0.285 C 
ATOM      3  C   UNL     1      57.020 102.568  37.287  1.00  0.00     0.178 C 
ATOM      4  C   UNL     1      57.955 103.803  37.449  1.00  0.00     0.177 C 
ATOM      5  O   UNL     1      56.677 102.331  35.929  1.00  0.00    -0.341 OA
ATOM      6  C   UNL     1      57.988 104.650  36.165  1.00  0.00     0.179 C 
ATOM      7  C   UNL     1      56.565 104.795  35.617  1.00  0.00     0.202 C 
BRANCH   3   8
ATOM      8  C   UNL     1      55.775 102.622  38.199  1.00  0.00     0.191 C 
BRANCH   8   9
ATOM      9  O   UNL     1      55.758 103.811  38.943  1.00  0.00    -0.394 OA
ATOM     10  H   UNL     1      54.807 104.007  39.146  1.00  0.00     0.210 HD
ENDBRANCH   8   9
ENDBRANCH   3   8
BRANCH   4  11
ATOM     11  O   UNL     1      59.256 103.369  37.757  1.00  0.00    -0.387 OA
ATOM     12  H   UNL     1      59.639 102.986  36.925  1.00  0.00     0.211 HD
ENDBRANCH   4  11
BRANCH   6  13
ATOM     13  O   UNL     1      58.528 105.915  36.458  1.00  0.00    -0.387 OA
ATOM     14  H   UNL     1      59.251 106.080  35.799  1.00  0.00     0.211 HD
ENDBRANCH   6  13
BRANCH   7  15
ATOM     15  O   UNL     1      56.584 105.593  34.460  1.00  0.00    -0.385 OA
ATOM     16  H   UNL     1      57.213 105.160  33.827  1.00  0.00     0.211 HD
ENDBRANCH   7  15
ENDBRANCH   1   2
BRANCH   1  17
ATOM     17  C   UNL     1      54.630 102.994  33.374  1.00  0.00     0.224 C 
ATOM     18  C   UNL     1      54.373 104.178  32.428  1.00  0.00     0.208 C 
ATOM     19  O   UNL     1      54.558 101.820  32.581  1.00  0.00    -0.337 OA
ATOM     20  C   UNL     1      54.990 103.695  31.132  1.00  0.00     0.180 C 
ATOM     21  C   UNL     1      54.936 102.159  31.260  1.00  0.00     0.179 C 
BRANCH  17  22
ATOM     22  C   UNL     1      53.596 102.938  34.527  1.00  0.00     0.225 C 
BRANCH  22  23
ATOM     23  O   UNL     1      52.400 102.347  34.096  1.00  0.00    -0.391 OA
ATOM     24  H   UNL     1      52.172 101.658  34.773  1.00  0.00     0.210 HD
ENDBRANCH  22  23
ENDBRANCH  17  22
BRANCH  18  25
ATOM     25  O   UNL     1      53.002 104.480  32.280  1.00  0.00    -0.385 OA
ATOM     26  H   UNL     1      52.482 103.644  32.397  1.00  0.00     0.211 HD
ENDBRANCH  18  25
BRANCH  20  27
ATOM     27  O   UNL     1      54.309 104.183  30.003  1.00  0.00    -0.387 OA
ATOM     28  H   UNL     1      54.685 103.705  29.218  1.00  0.00     0.211 HD
ENDBRANCH  20  27
BRANCH  21  29
ATOM     29  C   UNL     1      53.980 101.468  30.277  1.00  0.00     0.191 C 
BRANCH  29  30
ATOM     30  O   UNL     1      52.677 101.952  30.452  1.00  0.00    -0.394 OA
ATOM     31  H   UNL     1      52.597 102.746  29.861  1.00  0.00     0.210 HD
ENDBRANCH  29  30
ENDBRANCH  21  29
ENDBRANCH   1  17
TORSDOF 13
ENDMDL
MODEL 2
REMARK VINA RESULT:    -5.582      6.752     10.024
REMARK INTER + INTRA:          -9.907
REMARK INTER:                  -8.402
REMARK INTRA:                  -1.504
REMARK UNBOUND:                -1.388
REMARK SMILES OC[C@@H]1O[C@@](CO)(O[C@H]2O[C@H](CO)[C@@H](O)[C@H](O)[C@H]2O)[C@H](O)[C@@H]1O
REMARK SMILES IDX 8 1 9 2 11 3 14 4 10 5 16 6 18 7 12 8 13 9 15 11 17 13 19 15
REMARK SMILES IDX 5 17 20 18 4 19 22 20 3 21 6 22 7 23 21 25 23 27 2 29 1 30
REMARK H PARENT 13 10 15 12 17 14 19 16 7 24 21 26 23 28 1 31
REMARK Flexibility Score: inf
ROOT
ATOM      1  O   UNL     1      64.384 103.537  37.059  1.00  0.00    -0.313 OA
ENDROOT
BRANCH   1   2
ATOM      2  C   UNL     1      65.198 103.293  35.918  1.00  0.00     0.285 C 
ATOM      3  C   UNL     1      66.595 104.484  34.404  1.00  0.00     0.178 C 
ATOM      4  C   UNL     1      67.925 103.954  35.016  1.00  0.00     0.177 C 
ATOM      5  O   UNL     1      65.554 104.555  35.367  1.00  0.00    -0.341 OA
ATOM      6  C   UNL     1      67.691 103.321  36.398  1.00  0.00     0.179 C 
ATOM      7  C   UNL     1      66.434 102.446  36.347  1.00  0.00     0.202 C 
BRANCH   3   8
ATOM      8  C   UNL     1      66.160 103.719  33.135  1.00  0.00     0.191 C 
BRANCH   8   9
ATOM      9  O   UNL     1      66.262 104.540  32.003  1.00  0.00    -0.394 OA
ATOM     10  H   UNL     1      67.139 104.340  31.583  1.00  0.00     0.210 HD
ENDBRANCH   8   9
ENDBRANCH   3   8
BRANCH   4  11
ATOM     11  O   UNL     1      68.841 105.014  35.136  1.00  0.00    -0.387 OA
ATOM     12  H   UNL     1      68.662 105.638  34.384  1.00  0.00     0.211 HD
ENDBRANCH   4  11
BRANCH   6  13
ATOM     13  O   UNL     1      68.809 102.544  36.748  1.00  0.00    -0.387 OA
ATOM     14  H   UNL     1      69.303 102.353  35.908  1.00  0.00     0.211 HD
ENDBRANCH   6  13
BRANCH   7  15
ATOM     15  O   UNL     1      66.229 101.840  37.599  1.00  0.00    -0.385 OA
ATOM     16  H   UNL     1      66.922 102.206  38.208  1.00  0.00     0.211 HD
ENDBRANCH   7  15
ENDBRANCH   1   2
BRANCH   1  17
ATOM     17  C   UNL     1      63.002 103.238  36.863  1.00  0.00     0.224 C 
ATOM     18  C   UNL     1      62.218 103.976  37.960  1.00  0.00     0.208 C 
ATOM     19  O   UNL     1      62.534 103.743  35.622  1.00  0.00    -0.337 OA
ATOM     20  C   UNL     1      62.013 105.345  37.344  1.00  0.00     0.180 C 
ATOM     21  C   UNL     1      62.090 105.071  35.829  1.00  0.00     0.179 C 
BRANCH  17  22
ATOM     22  C   UNL     1      62.799 101.704  36.937  1.00  0.00     0.225 C 
BRANCH  22  23
ATOM     23  O   UNL     1      63.246 101.201  38.167  1.00  0.00    -0.391 OA
ATOM     24  H   UNL     1      63.828 101.904  38.559  1.00  0.00     0.210 HD
ENDBRANCH  22  23
ENDBRANCH  17  22
BRANCH  18  25
ATOM     25  O   UNL     1      60.992 103.352  38.279  1.00  0.00    -0.385 OA
ATOM     26  H   UNL     1      60.434 103.320  37.460  1.00  0.00     0.211 HD
ENDBRANCH  18  25
BRANCH  20  27
ATOM     27  O   UNL     1      60.799 105.932  37.742  1.00  0.00    -0.387 OA
ATOM     28  H   UNL     1      60.344 106.231  36.911  1.00  0.00     0.211 HD
ENDBRANCH  20  27
BRANCH  21  29
ATOM     29  C   UNL     1      60.770 105.277  35.072  1.00  0.00     0.191 C 
BRANCH  29  30
ATOM     30  O   UNL     1      59.812 104.357  35.516  1.00  0.00    -0.394 OA
ATOM     31  H   UNL     1      59.301 104.083  34.711  1.00  0.00     0.210 HD
ENDBRANCH  29  30
ENDBRANCH  21  29
ENDBRANCH   1  17
TORSDOF 13
ENDMDL
MODEL 3
REMARK VINA RESULT:    -5.537     11.745     14.524
REMARK INTER + INTRA:          -9.837
REMARK INTER:                  -8.502
REMARK INTRA:                  -1.336
REMARK UNBOUND:                -1.388
REMARK SMILES OC[C@@H]1O[C@@](CO)(O[C@H]2O[C@H](CO)[C@@H](O)[C@H](O)[C@H]2O)[C@H](O)[C@@H]1O
REMARK SMILES IDX 8 1 9 2 11 3 14 4 10 5 16 6 18 7 12 8 13 9 15 11 17 13 19 15
REMARK SMILES IDX 5 17 20 18 4 19 22 20 3 21 6 22 7 23 21 25 23 27 2 29 1 30
REMARK H PARENT 13 10 15 12 17 14 19 16 7 24 21 26 23 28 1 31
REMARK Flexibility Score: inf
ROOT
ATOM      1  O   UNL     1      57.158  90.335  31.416  1.00  0.00    -0.313 OA
ENDROOT
BRANCH   1   2
ATOM      2  C   UNL     1      56.839  91.293  30.414  1.00  0.00     0.285 C 
ATOM      3  C   UNL     1      57.218  91.681  28.097  1.00  0.00     0.178 C 
ATOM      4  C   UNL     1      55.775  91.284  27.664  1.00  0.00     0.177 C 
ATOM      5  O   UNL     1      57.632  90.997  29.271  1.00  0.00    -0.341 OA
ATOM      6  C   UNL     1      55.043  90.531  28.789  1.00  0.00     0.179 C 
ATOM      7  C   UNL     1      55.308  91.233  30.124  1.00  0.00     0.202 C 
BRANCH   3   8
ATOM      8  C   UNL     1      57.420  93.208  28.213  1.00  0.00     0.191 C 
BRANCH   8   9
ATOM      9  O   UNL     1      57.623  93.777  26.947  1.00  0.00    -0.394 OA
ATOM     10  H   UNL     1      58.513  94.215  26.971  1.00  0.00     0.210 HD
ENDBRANCH   8   9
ENDBRANCH   3   8
BRANCH   4  11
ATOM     11  O   UNL     1      55.837  90.470  26.519  1.00  0.00    -0.387 OA
ATOM     12  H   UNL     1      56.782  90.468  26.215  1.00  0.00     0.211 HD
ENDBRANCH   4  11
BRANCH   6  13
ATOM     13  O   UNL     1      53.664  90.514  28.514  1.00  0.00    -0.387 OA
ATOM     14  H   UNL     1      53.385  89.562  28.496  1.00  0.00     0.211 HD
ENDBRANCH   6  13
BRANCH   7  15
ATOM     15  O   UNL     1      54.618  90.568  31.153  1.00  0.00    -0.385 OA
ATOM     16  H   UNL     1      55.066  89.691  31.274  1.00  0.00     0.211 HD
ENDBRANCH   7  15
ENDBRANCH   1   2
BRANCH   1  17
ATOM     17  C   UNL     1      57.920  90.862  32.503  1.00  0.00     0.224 C 
ATOM     18  C   UNL     1      57.056  90.736  33.768  1.00  0.00     0.208 C 
ATOM     19  O   UNL     1      59.091  90.094  32.734  1.00  0.00    -0.337 OA
ATOM     20  C   UNL     1      57.365  89.326  34.229  1.00  0.00     0.180 C 
ATOM     21  C   UNL     1      58.760  89.053  33.633  1.00  0.00     0.179 C 
BRANCH  17  22
ATOM     22  C   UNL     1      58.288  92.336  32.196  1.00  0.00     0.225 C 
BRANCH  22  23
ATOM     23  O   UNL     1      59.416  92.731  32.928  1.00  0.00    -0.391 OA
ATOM     24  H   UNL     1      59.627  93.656  32.632  1.00  0.00     0.210 HD
ENDBRANCH  22  23
ENDBRANCH  17  22
BRANCH  18  25
ATOM     25  O   UNL     1      57.374  91.696  34.752  1.00  0.00    -0.385 OA
ATOM     26  H   UNL     1      57.656  91.220  35.575  1.00  0.00     0.211 HD
ENDBRANCH  18  25
BRANCH  20  27
ATOM     27  O   UNL     1      57.325  89.204  35.630  1.00  0.00    -0.387 OA
ATOM     28  H   UNL     1      57.260  88.233  35.826  1.00  0.00     0.211 HD
ENDBRANCH  20  27
BRANCH  21  29
ATOM     29  C   UNL     1      59.885  88.917  34.670  1.00  0.00     0.191 C 
BRANCH  29  30
ATOM     30  O   UNL     1      59.986  90.091  35.428  1.00  0.00    -0.394 OA
ATOM     31  H   UNL     1      59.505  89.912  36.277  1.00  0.00     0.210 HD
ENDBRANCH  29  30
ENDBRANCH  21  29
ENDBRANCH   1  17
TORSDOF 13
ENDMDL
MODEL 4
REMARK VINA RESULT:    -5.504     16.814     18.300
REMARK INTER + INTRA:          -9.788
REMARK INTER:                  -8.211
REMARK INTRA:                  -1.577
REMARK UNBOUND:                -1.388
REMARK SMILES OC[C@@H]1O[C@@](CO)(O[C@H]2O[C@H](CO)[C@@H](O)[C@H](O)[C@H]2O)[C@H](O)[C@@H]1O
REMARK SMILES IDX 8 1 9 2 11 3 14 4 10 5 16 6 18 7 12 8 13 9 15 11 17 13 19 15
REMARK SMILES IDX 5 17 20 18 4 19 22 20 3 21 6 22 7 23 21 25 23 27 2 29 1 30
REMARK H PARENT 13 10 15 12 17 14 19 16 7 24 21 26 23 28 1 31
REMARK Flexibility Score: inf
ROOT
ATOM      1  O   UNL     1      67.558  91.226  30.628  1.00  0.00    -0.313 OA
ENDROOT
BRANCH   1   2
ATOM      2  C   UNL     1      67.515  90.330  31.731  1.00  0.00     0.285 C 
ATOM      3  C   UNL     1      66.296  90.002  33.749  1.00  0.00     0.178 C 
ATOM      4  C   UNL     1      65.471  88.798  33.205  1.00  0.00     0.177 C 
ATOM      5  O   UNL     1      66.668  90.906  32.719  1.00  0.00    -0.341 OA
ATOM      6  C   UNL     1      65.563  88.707  31.672  1.00  0.00     0.179 C 
ATOM      7  C   UNL     1      67.014  88.940  31.237  1.00  0.00     0.202 C 
BRANCH   3   8
ATOM      8  C   UNL     1      67.506  89.573  34.609  1.00  0.00     0.191 C 
BRANCH   8   9
ATOM      9  O   UNL     1      67.444  88.202  34.900  1.00  0.00    -0.394 OA
ATOM     10  H   UNL     1      68.302  87.807  34.597  1.00  0.00     0.210 HD
ENDBRANCH   8   9
ENDBRANCH   3   8
BRANCH   4  11
ATOM     11  O   UNL     1      64.126  88.942  33.585  1.00  0.00    -0.387 OA
ATOM     12  H   UNL     1      64.072  89.747  34.164  1.00  0.00     0.211 HD
ENDBRANCH   4  11
BRANCH   6  13
ATOM     13  O   UNL     1      65.129  87.436  31.256  1.00  0.00    -0.387 OA
ATOM     14  H   UNL     1      64.811  86.959  32.067  1.00  0.00     0.211 HD
ENDBRANCH   6  13
BRANCH   7  15
ATOM     15  O   UNL     1      67.111  88.828  29.839  1.00  0.00    -0.385 OA
ATOM     16  H   UNL     1      67.224  87.863  29.638  1.00  0.00     0.211 HD
ENDBRANCH   7  15
ENDBRANCH   1   2
BRANCH   1  17
ATOM     17  C   UNL     1      68.823  91.860  30.442  1.00  0.00     0.224 C 
ATOM     18  C   UNL     1      68.748  92.647  29.124  1.00  0.00     0.208 C 
ATOM     19  O   UNL     1      69.083  92.808  31.465  1.00  0.00    -0.337 OA
ATOM     20  C   UNL     1      68.150  93.966  29.570  1.00  0.00     0.180 C 
ATOM     21  C   UNL     1      68.540  94.051  31.058  1.00  0.00     0.179 C 
BRANCH  17  22
ATOM     22  C   UNL     1      69.932  90.778  30.409  1.00  0.00     0.225 C 
BRANCH  22  23
ATOM     23  O   UNL     1      69.898  90.066  29.202  1.00  0.00    -0.391 OA
ATOM     24  H   UNL     1      68.980  89.696  29.124  1.00  0.00     0.210 HD
ENDBRANCH  22  23
ENDBRANCH  17  22
BRANCH  18  25
ATOM     25  O   UNL     1      70.008  92.819  28.510  1.00  0.00    -0.385 OA
ATOM     26  H   UNL     1      70.713  92.638  29.183  1.00  0.00     0.211 HD
ENDBRANCH  18  25
BRANCH  20  27
ATOM     27  O   UNL     1      68.621  95.049  28.808  1.00  0.00    -0.387 OA
ATOM     28  H   UNL     1      68.679  94.731  27.870  1.00  0.00     0.211 HD
ENDBRANCH  20  27
BRANCH  21  29
ATOM     29  C   UNL     1      69.543  95.164  31.395  1.00  0.00     0.191 C 
BRANCH  29  30
ATOM     30  O   UNL     1      70.688  95.039  30.597  1.00  0.00    -0.394 OA
ATOM     31  H   UNL     1      71.424  94.784  31.211  1.00  0.00     0.210 HD
ENDBRANCH  29  30
ENDBRANCH  21  29
ENDBRANCH   1  17
TORSDOF 13
ENDMDL
MODEL 5
REMARK VINA RESULT:    -5.478      2.008      7.309
REMARK INTER + INTRA:          -9.748
REMARK INTER:                  -8.392
REMARK INTRA:                  -1.356
REMARK UNBOUND:                -1.388
REMARK SMILES OC[C@@H]1O[C@@](CO)(O[C@H]2O[C@H](CO)[C@@H](O)[C@H](O)[C@H]2O)[C@H](O)[C@@H]1O
REMARK SMILES IDX 8 1 9 2 11 3 14 4 10 5 16 6 18 7 12 8 13 9 15 11 17 13 19 15
REMARK SMILES IDX 5 17 20 18 4 19 22 20 3 21 6 22 7 23 21 25 23 27 2 29 1 30
REMARK H PARENT 13 10 15 12 17 14 19 16 7 24 21 26 23 28 1 31
REMARK Flexibility Score: inf
ROOT
ATOM      1  O   UNL     1      54.370 101.768  31.962  1.00  0.00    -0.313 OA
ENDROOT
BRANCH   1   2
ATOM      2  C   UNL     1      53.780 102.054  30.700  1.00  0.00     0.285 C 
ATOM      3  C   UNL     1      54.191 101.682  28.385  1.00  0.00     0.178 C 
ATOM      4  C   UNL     1      53.100 100.581  28.238  1.00  0.00     0.177 C 
ATOM      5  O   UNL     1      54.734 101.726  29.696  1.00  0.00    -0.341 OA
ATOM      6  C   UNL     1      52.642 100.062  29.613  1.00  0.00     0.179 C 
ATOM      7  C   UNL     1      52.454 101.247  30.564  1.00  0.00     0.202 C 
BRANCH   3   8
ATOM      8  C   UNL     1      53.721 103.073  27.905  1.00  0.00     0.191 C 
BRANCH   8   9
ATOM      9  O   UNL     1      52.376 103.032  27.511  1.00  0.00    -0.394 OA
ATOM     10  H   UNL     1      52.050 102.115  27.705  1.00  0.00     0.210 HD
ENDBRANCH   8   9
ENDBRANCH   3   8
BRANCH   4  11
ATOM     11  O   UNL     1      53.610  99.512  27.481  1.00  0.00    -0.387 OA
ATOM     12  H   UNL     1      54.578  99.441  27.695  1.00  0.00     0.211 HD
ENDBRANCH   4  11
BRANCH   6  13
ATOM     13  O   UNL     1      51.433  99.360  29.465  1.00  0.00    -0.387 OA
ATOM     14  H   UNL     1      50.790  99.752  30.113  1.00  0.00     0.211 HD
ENDBRANCH   6  13
BRANCH   7  15
ATOM     15  O   UNL     1      52.007 100.783  31.814  1.00  0.00    -0.385 OA
ATOM     16  H   UNL     1      51.020 100.881  31.817  1.00  0.00     0.211 HD
ENDBRANCH   7  15
ENDBRANCH   1   2
BRANCH   1  17
ATOM     17  C   UNL     1      54.518 102.909  32.807  1.00  0.00     0.224 C 
ATOM     18  C   UNL     1      53.508 102.758  33.956  1.00  0.00     0.208 C 
ATOM     19  O   UNL     1      55.805 102.949  33.403  1.00  0.00    -0.337 OA
ATOM     20  C   UNL     1      54.278 101.915  34.953  1.00  0.00     0.180 C 
ATOM     21  C   UNL     1      55.751 102.215  34.612  1.00  0.00     0.179 C 
BRANCH  17  22
ATOM     22  C   UNL     1      54.263 104.191  31.976  1.00  0.00     0.225 C 
BRANCH  22  23
ATOM     23  O   UNL     1      54.709 105.329  32.664  1.00  0.00    -0.391 OA
ATOM     24  H   UNL     1      54.667 106.079  32.014  1.00  0.00     0.210 HD
ENDBRANCH  22  23
ENDBRANCH  17  22
BRANCH  18  25
ATOM     25  O   UNL     1      53.108 103.994  34.507  1.00  0.00    -0.385 OA
ATOM     26  H   UNL     1      53.863 104.362  35.034  1.00  0.00     0.211 HD
ENDBRANCH  18  25
BRANCH  20  27
ATOM     27  O   UNL     1      53.941 102.223  36.283  1.00  0.00    -0.387 OA
ATOM     28  H   UNL     1      53.341 103.013  36.246  1.00  0.00     0.211 HD
ENDBRANCH  20  27
BRANCH  21  29
ATOM     29  C   UNL     1      56.515 102.988  35.696  1.00  0.00     0.191 C 
BRANCH  29  30
ATOM     30  O   UNL     1      55.915 104.235  35.913  1.00  0.00    -0.394 OA
ATOM     31  H   UNL     1      55.191 104.312  35.239  1.00  0.00     0.210 HD
ENDBRANCH  29  30
ENDBRANCH  21  29
ENDBRANCH   1  17
TORSDOF 13
ENDMDL
MODEL 6
REMARK VINA RESULT:    -5.475      9.806     12.738
REMARK INTER + INTRA:          -9.743
REMARK INTER:                  -8.353
REMARK INTRA:                  -1.391
REMARK UNBOUND:                -1.388
REMARK SMILES OC[C@@H]1O[C@@](CO)(O[C@H]2O[C@H](CO)[C@@H](O)[C@H](O)[C@H]2O)[C@H](O)[C@@H]1O
REMARK SMILES IDX 8 1 9 2 11 3 14 4 10 5 16 6 18 7 12 8 13 9 15 11 17 13 19 15
REMARK SMILES IDX 5 17 20 18 4 19 22 20 3 21 6 22 7 23 21 25 23 27 2 29 1 30
REMARK H PARENT 13 10 15 12 17 14 19 16 7 24 21 26 23 28 1 31
REMARK Flexibility Score: inf
ROOT
ATOM      1  O   UNL     1      66.783 103.751  33.682  1.00  0.00    -0.313 OA
ENDROOT
BRANCH   1   2
ATOM      2  C   UNL     1      67.521 103.059  32.683  1.00  0.00     0.285 C 
ATOM      3  C   UNL     1      67.179 102.042  30.559  1.00  0.00     0.178 C 
ATOM      4  C   UNL     1      67.865 103.188  29.758  1.00  0.00     0.177 C 
ATOM      5  O   UNL     1      66.586 102.510  31.762  1.00  0.00    -0.341 OA
ATOM      6  C   UNL     1      68.032 104.450  30.622  1.00  0.00     0.179 C 
ATOM      7  C   UNL     1      68.524 104.048  32.016  1.00  0.00     0.202 C 
BRANCH   3   8
ATOM      8  C   UNL     1      68.104 100.829  30.802  1.00  0.00     0.191 C 
BRANCH   8   9
ATOM      9  O   UNL     1      69.368 101.051  30.237  1.00  0.00    -0.394 OA
ATOM     10  H   UNL     1      70.031 100.637  30.849  1.00  0.00     0.210 HD
ENDBRANCH   8   9
ENDBRANCH   3   8
BRANCH   4  11
ATOM     11  O   UNL     1      67.093 103.495  28.624  1.00  0.00    -0.387 OA
ATOM     12  H   UNL     1      67.692 103.961  27.983  1.00  0.00     0.211 HD
ENDBRANCH   4  11
BRANCH   6  13
ATOM     13  O   UNL     1      68.959 105.312  30.010  1.00  0.00    -0.387 OA
ATOM     14  H   UNL     1      69.691 105.461  30.664  1.00  0.00     0.211 HD
ENDBRANCH   6  13
BRANCH   7  15
ATOM     15  O   UNL     1      68.707 105.199  32.802  1.00  0.00    -0.385 OA
ATOM     16  H   UNL     1      69.656 105.196  33.093  1.00  0.00     0.211 HD
ENDBRANCH   7  15
ENDBRANCH   1   2
BRANCH   1  17
ATOM     17  C   UNL     1      66.814 103.128  34.966  1.00  0.00     0.224 C 
ATOM     18  C   UNL     1      65.534 103.549  35.707  1.00  0.00     0.208 C 
ATOM     19  O   UNL     1      66.773 101.714  34.857  1.00  0.00    -0.337 OA
ATOM     20  C   UNL     1      64.532 102.518  35.228  1.00  0.00     0.180 C 
ATOM     21  C   UNL     1      65.414 101.317  34.835  1.00  0.00     0.179 C 
BRANCH  17  22
ATOM     22  C   UNL     1      68.093 103.579  35.716  1.00  0.00     0.225 C 
BRANCH  22  23
ATOM     23  O   UNL     1      68.540 102.576  36.587  1.00  0.00    -0.391 OA
ATOM     24  H   UNL     1      69.233 102.066  36.090  1.00  0.00     0.210 HD
ENDBRANCH  22  23
ENDBRANCH  17  22
BRANCH  18  25
ATOM     25  O   UNL     1      65.677 103.533  37.111  1.00  0.00    -0.385 OA
ATOM     26  H   UNL     1      66.638 103.417  37.327  1.00  0.00     0.211 HD
ENDBRANCH  18  25
BRANCH  20  27
ATOM     27  O   UNL     1      63.576 102.208  36.211  1.00  0.00    -0.387 OA
ATOM     28  H   UNL     1      64.081 101.922  37.016  1.00  0.00     0.211 HD
ENDBRANCH  20  27
BRANCH  21  29
ATOM     29  C   UNL     1      65.245 100.078  35.727  1.00  0.00     0.191 C 
BRANCH  29  30
ATOM     30  O   UNL     1      65.647 100.370  37.037  1.00  0.00    -0.394 OA
ATOM     31  H   UNL     1      64.995 101.031  37.385  1.00  0.00     0.210 HD
ENDBRANCH  29  30
ENDBRANCH  21  29
ENDBRANCH   1  17
TORSDOF 13
ENDMDL
MODEL 7
REMARK VINA RESULT:    -5.456     11.339     13.197
REMARK INTER + INTRA:          -9.714
REMARK INTER:                  -8.300
REMARK INTRA:                  -1.414
REMARK UNBOUND:                -1.388
REMARK SMILES OC[C@@H]1O[C@@](CO)(O[C@H]2O[C@H](CO)[C@@H](O)[C@H](O)[C@H]2O)[C@H](O)[C@@H]1O
REMARK SMILES IDX 8 1 9 2 11 3 14 4 10 5 16 6 18 7 12 8 13 9 15 11 17 13 19 15
REMARK SMILES IDX 5 17 20 18 4 19 22 20 3 21 6 22 7 23 21 25 23 27 2 29 1 30
REMARK H PARENT 13 10 15 12 17 14 19 16 7 24 21 26 23 28 1 31
REMARK Flexibility Score: inf
ROOT
ATOM      1  O   UNL     1      55.764  91.423  31.777  1.00  0.00    -0.313 OA
ENDROOT
BRANCH   1   2
ATOM      2  C   UNL     1      56.511  90.239  32.030  1.00  0.00     0.285 C 
ATOM      3  C   UNL     1      58.660  89.590  32.820  1.00  0.00     0.178 C 
ATOM      4  C   UNL     1      58.148  89.132  34.217  1.00  0.00     0.177 C 
ATOM      5  O   UNL     1      57.859  90.626  32.269  1.00  0.00    -0.341 OA
ATOM      6  C   UNL     1      56.729  89.658  34.492  1.00  0.00     0.179 C 
ATOM      7  C   UNL     1      55.872  89.483  33.234  1.00  0.00     0.202 C 
BRANCH   3   8
ATOM      8  C   UNL     1      58.857  88.421  31.830  1.00  0.00     0.191 C 
BRANCH   8   9
ATOM      9  O   UNL     1      59.884  87.571  32.267  1.00  0.00    -0.394 OA
ATOM     10  H   UNL     1      60.478  87.417  31.487  1.00  0.00     0.210 HD
ENDBRANCH   8   9
ENDBRANCH   3   8
BRANCH   4  11
ATOM     11  O   UNL     1      59.022  89.601  35.214  1.00  0.00    -0.387 OA
ATOM     12  H   UNL     1      59.829  89.950  34.751  1.00  0.00     0.211 HD
ENDBRANCH   4  11
BRANCH   6  13
ATOM     13  O   UNL     1      56.168  88.943  35.565  1.00  0.00    -0.387 OA
ATOM     14  H   UNL     1      55.375  88.464  35.209  1.00  0.00     0.211 HD
ENDBRANCH   6  13
BRANCH   7  15
ATOM     15  O   UNL     1      54.565  89.935  33.487  1.00  0.00    -0.385 OA
ATOM     16  H   UNL     1      54.220  90.299  32.630  1.00  0.00     0.211 HD
ENDBRANCH   7  15
ENDBRANCH   1   2
BRANCH   1  17
ATOM     17  C   UNL     1      55.388  91.593  30.410  1.00  0.00     0.224 C 
ATOM     18  C   UNL     1      54.266  92.643  30.374  1.00  0.00     0.208 C 
ATOM     19  O   UNL     1      56.458  92.118  29.640  1.00  0.00    -0.337 OA
ATOM     20  C   UNL     1      55.044  93.943  30.326  1.00  0.00     0.180 C 
ATOM     21  C   UNL     1      56.393  93.530  29.705  1.00  0.00     0.179 C 
BRANCH  17  22
ATOM     22  C   UNL     1      54.924  90.229  29.839  1.00  0.00     0.225 C 
BRANCH  22  23
ATOM     23  O   UNL     1      55.102  90.184  28.449  1.00  0.00    -0.391 OA
ATOM     24  H   UNL     1      55.390  89.258  28.237  1.00  0.00     0.210 HD
ENDBRANCH  22  23
ENDBRANCH  17  22
BRANCH  18  25
ATOM     25  O   UNL     1      53.408  92.499  29.263  1.00  0.00    -0.385 OA
ATOM     26  H   UNL     1      53.705  93.127  28.554  1.00  0.00     0.211 HD
ENDBRANCH  18  25
BRANCH  20  27
ATOM     27  O   UNL     1      54.374  94.937  29.591  1.00  0.00    -0.387 OA
ATOM     28  H   UNL     1      54.667  95.809  29.963  1.00  0.00     0.211 HD
ENDBRANCH  20  27
BRANCH  21  29
ATOM     29  C   UNL     1      56.656  94.104  28.305  1.00  0.00     0.191 C 
BRANCH  29  30
ATOM     30  O   UNL     1      55.732  93.585  27.390  1.00  0.00    -0.394 OA
ATOM     31  H   UNL     1      55.495  92.680  27.722  1.00  0.00     0.210 HD
ENDBRANCH  29  30
ENDBRANCH  21  29
ENDBRANCH   1  17
TORSDOF 13
ENDMDL
MODEL 8
REMARK VINA RESULT:    -5.412     17.279     18.601
REMARK INTER + INTRA:          -9.647
REMARK INTER:                  -8.349
REMARK INTRA:                  -1.297
REMARK UNBOUND:                -1.388
REMARK SMILES OC[C@@H]1O[C@@](CO)(O[C@H]2O[C@H](CO)[C@@H](O)[C@H](O)[C@H]2O)[C@H](O)[C@@H]1O
REMARK SMILES IDX 8 1 9 2 11 3 14 4 10 5 16 6 18 7 12 8 13 9 15 11 17 13 19 15
REMARK SMILES IDX 5 17 20 18 4 19 22 20 3 21 6 22 7 23 21 25 23 27 2 29 1 30
REMARK H PARENT 13 10 15 12 17 14 19 16 7 24 21 26 23 28 1 31
REMARK Flexibility Score: inf
ROOT
ATOM      1  O   UNL     1      66.523  90.794  31.625  1.00  0.00    -0.313 OA
ENDROOT
BRANCH   1   2
ATOM      2  C   UNL     1      66.312  89.449  32.036  1.00  0.00     0.285 C 
ATOM      3  C   UNL     1      65.319  88.240  33.830  1.00  0.00     0.178 C 
ATOM      4  C   UNL     1      64.067  87.805  33.012  1.00  0.00     0.177 C 
ATOM      5  O   UNL     1      65.847  89.480  33.381  1.00  0.00    -0.341 OA
ATOM      6  C   UNL     1      63.928  88.632  31.722  1.00  0.00     0.179 C 
ATOM      7  C   UNL     1      65.303  88.772  31.060  1.00  0.00     0.202 C 
BRANCH   3   8
ATOM      8  C   UNL     1      66.403  87.144  33.915  1.00  0.00     0.191 C 
BRANCH   8   9
ATOM      9  O   UNL     1      67.406  87.510  34.825  1.00  0.00    -0.394 OA
ATOM     10  H   UNL     1      67.840  88.323  34.459  1.00  0.00     0.210 HD
ENDBRANCH   8   9
ENDBRANCH   3   8
BRANCH   4  11
ATOM     11  O   UNL     1      62.913  87.967  33.798  1.00  0.00    -0.387 OA
ATOM     12  H   UNL     1      62.460  88.793  33.482  1.00  0.00     0.211 HD
ENDBRANCH   4  11
BRANCH   6  13
ATOM     13  O   UNL     1      63.033  87.986  30.851  1.00  0.00    -0.387 OA
ATOM     14  H   UNL     1      63.506  87.869  29.986  1.00  0.00     0.211 HD
ENDBRANCH   6  13
BRANCH   7  15
ATOM     15  O   UNL     1      65.179  89.502  29.865  1.00  0.00    -0.385 OA
ATOM     16  H   UNL     1      64.274  89.308  29.506  1.00  0.00     0.211 HD
ENDBRANCH   7  15
ENDBRANCH   1   2
BRANCH   1  17
ATOM     17  C   UNL     1      67.896  91.182  31.587  1.00  0.00     0.224 C 
ATOM     18  C   UNL     1      68.659  90.082  30.831  1.00  0.00     0.208 C 
ATOM     19  O   UNL     1      68.076  92.380  30.848  1.00  0.00    -0.337 OA
ATOM     20  C   UNL     1      68.495  90.511  29.387  1.00  0.00     0.180 C 
ATOM     21  C   UNL     1      68.266  92.032  29.490  1.00  0.00     0.179 C 
BRANCH  17  22
ATOM     22  C   UNL     1      68.413  91.354  33.037  1.00  0.00     0.225 C 
BRANCH  22  23
ATOM     23  O   UNL     1      68.750  90.114  33.598  1.00  0.00    -0.391 OA
ATOM     24  H   UNL     1      68.944  90.287  34.556  1.00  0.00     0.210 HD
ENDBRANCH  22  23
ENDBRANCH  17  22
BRANCH  18  25
ATOM     25  O   UNL     1      70.018  89.994  31.205  1.00  0.00    -0.385 OA
ATOM     26  H   UNL     1      70.574  90.267  30.431  1.00  0.00     0.211 HD
ENDBRANCH  18  25
BRANCH  20  27
ATOM     27  O   UNL     1      69.609  90.169  28.600  1.00  0.00    -0.387 OA
ATOM     28  H   UNL     1      69.504  89.210  28.365  1.00  0.00     0.211 HD
ENDBRANCH  20  27
BRANCH  21  29
ATOM     29  C   UNL     1      69.399  92.892  28.911  1.00  0.00     0.191 C 
BRANCH  29  30
ATOM     30  O   UNL     1      70.613  92.572  29.535  1.00  0.00    -0.394 OA
ATOM     31  H   UNL     1      71.163  93.397  29.502  1.00  0.00     0.210 HD
ENDBRANCH  29  30
ENDBRANCH  21  29
ENDBRANCH   1  17
TORSDOF 13
ENDMDL
MODEL 9
REMARK VINA RESULT:    -5.379      8.792     11.610
REMARK INTER + INTRA:          -9.597
REMARK INTER:                  -8.108
REMARK INTRA:                  -1.489
REMARK UNBOUND:                -1.388
REMARK SMILES OC[C@@H]1O[C@@](CO)(O[C@H]2O[C@H](CO)[C@@H](O)[C@H](O)[C@H]2O)[C@H](O)[C@@H]1O
REMARK SMILES IDX 8 1 9 2 11 3 14 4 10 5 16 6 18 7 12 8 13 9 15 11 17 13 19 15
REMARK SMILES IDX 5 17 20 18 4 19 22 20 3 21 6 22 7 23 21 25 23 27 2 29 1 30
REMARK H PARENT 13 10 15 12 17 14 19 16 7 24 21 26 23 28 1 31
REMARK Flexibility Score: inf
ROOT
ATOM      1  O   UNL     1      65.663 102.230  34.381  1.00  0.00    -0.313 OA
ENDROOT
BRANCH   1   2
ATOM      2  C   UNL     1      66.477 102.281  33.216  1.00  0.00     0.285 C 
ATOM      3  C   UNL     1      66.455 103.230  31.034  1.00  0.00     0.178 C 
ATOM      4  C   UNL     1      67.495 104.340  31.368  1.00  0.00     0.177 C 
ATOM      5  O   UNL     1      65.696 102.848  32.171  1.00  0.00    -0.341 OA
ATOM      6  C   UNL     1      67.679 104.493  32.888  1.00  0.00     0.179 C 
ATOM      7  C   UNL     1      67.762 103.105  33.530  1.00  0.00     0.202 C 
BRANCH   3   8
ATOM      8  C   UNL     1      67.075 102.011  30.314  1.00  0.00     0.191 C 
BRANCH   8   9
ATOM      9  O   UNL     1      68.441 102.220  30.075  1.00  0.00    -0.394 OA
ATOM     10  H   UNL     1      68.769 101.423  29.583  1.00  0.00     0.210 HD
ENDBRANCH   8   9
ENDBRANCH   3   8
BRANCH   4  11
ATOM     11  O   UNL     1      67.067 105.563  30.822  1.00  0.00    -0.387 OA
ATOM     12  H   UNL     1      67.873 106.018  30.462  1.00  0.00     0.211 HD
ENDBRANCH   4  11
BRANCH   6  13
ATOM     13  O   UNL     1      68.856 105.218  33.142  1.00  0.00    -0.387 OA
ATOM     14  H   UNL     1      68.644 106.176  32.994  1.00  0.00     0.211 HD
ENDBRANCH   6  13
BRANCH   7  15
ATOM     15  O   UNL     1      67.960 103.237  34.916  1.00  0.00    -0.385 OA
ATOM     16  H   UNL     1      67.372 103.978  35.217  1.00  0.00     0.211 HD
ENDBRANCH   7  15
ENDBRANCH   1   2
BRANCH   1  17
ATOM     17  C   UNL     1      65.222 100.916  34.726  1.00  0.00     0.224 C 
ATOM     18  C   UNL     1      65.301 100.798  36.257  1.00  0.00     0.208 C 
ATOM     19  O   UNL     1      63.861 100.718  34.375  1.00  0.00    -0.337 OA
ATOM     20  C   UNL     1      63.965 101.365  36.693  1.00  0.00     0.180 C 
ATOM     21  C   UNL     1      63.062 101.139  35.464  1.00  0.00     0.179 C 
BRANCH  17  22
ATOM     22  C   UNL     1      66.124  99.876  34.016  1.00  0.00     0.225 C 
BRANCH  22  23
ATOM     23  O   UNL     1      65.550  98.599  34.069  1.00  0.00    -0.391 OA
ATOM     24  H   UNL     1      65.584  98.241  33.143  1.00  0.00     0.210 HD
ENDBRANCH  22  23
ENDBRANCH  17  22
BRANCH  18  25
ATOM     25  O   UNL     1      65.481  99.470  36.700  1.00  0.00    -0.385 OA
ATOM     26  H   UNL     1      64.696  98.934  36.415  1.00  0.00     0.211 HD
ENDBRANCH  18  25
BRANCH  20  27
ATOM     27  O   UNL     1      63.481 100.749  37.860  1.00  0.00    -0.387 OA
ATOM     28  H   UNL     1      63.213 101.480  38.475  1.00  0.00     0.211 HD
ENDBRANCH  20  27
BRANCH  21  29
ATOM     29  C   UNL     1      61.935 100.117  35.677  1.00  0.00     0.191 C 
BRANCH  29  30
ATOM     30  O   UNL     1      62.475  98.863  35.990  1.00  0.00    -0.394 OA
ATOM     31  H   UNL     1      63.418  99.027  36.250  1.00  0.00     0.210 HD
ENDBRANCH  29  30
ENDBRANCH  21  29
ENDBRANCH   1  17
TORSDOF 13
ENDMDL
