MODEL 1
REMARK VINA RESULT:    -6.224      0.000      0.000
REMARK INTER + INTRA:         -15.788
REMARK INTER:                 -13.502
REMARK INTRA:                  -2.286
REMARK UNBOUND:                -2.286
REMARK SMILES CCCCCCCCCCCCCCCCCCCCCC(=O)[O-]
REMARK SMILES IDX 12 1 11 2 10 3 9 4 8 5 7 6 6 7 5 8 4 9 3 10 2 11 1 12 13 13
REMARK SMILES IDX 14 14 15 15 16 16 17 17 18 18 19 19 20 20 21 21 22 22 23 23
REMARK SMILES IDX 24 24
REMARK H PARENT
REMARK Flexibility Score: inf
ROOT
ATOM      1  C   UNL     1      22.763  11.977   0.103  1.00  0.00     0.000 C 
ENDROOT
BRANCH   1   2
ATOM      2  C   UNL     1      23.744  12.838  -0.720  1.00  0.00     0.000 C 
BRANCH   2   3
ATOM      3  C   UNL     1      23.092  13.521  -1.934  1.00  0.00     0.000 C 
BRANCH   3   4
ATOM      4  C   UNL     1      23.647  13.015  -3.277  1.00  0.00    -0.000 C 
BRANCH   4   5
ATOM      5  C   UNL     1      22.525  12.552  -4.230  1.00  0.00    -0.000 C 
BRANCH   5   6
ATOM      6  C   UNL     1      22.962  12.474  -5.702  1.00  0.00    -0.000 C 
BRANCH   6   7
ATOM      7  C   UNL     1      23.933  11.318  -5.979  1.00  0.00    -0.000 C 
BRANCH   7   8
ATOM      8  C   UNL     1      23.643  10.673  -7.339  1.00  0.00    -0.000 C 
BRANCH   8   9
ATOM      9  C   UNL     1      24.594  11.211  -8.417  1.00  0.00    -0.000 C 
BRANCH   9  10
ATOM     10  C   UNL     1      26.022  10.652  -8.286  1.00  0.00    -0.000 C 
BRANCH  10  11
ATOM     11  C   UNL     1      26.978  11.131  -9.397  1.00  0.00    -0.003 C 
ATOM     12  C   UNL     1      27.887  12.268  -8.935  1.00  0.00     0.004 C 
ENDBRANCH  10  11
ENDBRANCH   9  10
ENDBRANCH   8   9
ENDBRANCH   7   8
ENDBRANCH   6   7
ENDBRANCH   5   6
ENDBRANCH   4   5
ENDBRANCH   3   4
ENDBRANCH   2   3
ENDBRANCH   1   2
BRANCH   1  13
ATOM     13  C   UNL     1      21.411  11.795  -0.610  1.00  0.00     0.000 C 
BRANCH  13  14
ATOM     14  C   UNL     1      20.223  12.125   0.307  1.00  0.00     0.000 C 
BRANCH  14  15
ATOM     15  C   UNL     1      19.281  13.173  -0.314  1.00  0.00     0.000 C 
BRANCH  15  16
ATOM     16  C   UNL     1      19.928  14.563  -0.417  1.00  0.00     0.000 C 
BRANCH  16  17
ATOM     17  C   UNL     1      20.426  15.091   0.938  1.00  0.00     0.000 C 
BRANCH  17  18
ATOM     18  C   UNL     1      21.760  15.829   0.780  1.00  0.00     0.000 C 
BRANCH  18  19
ATOM     19  C   UNL     1      22.767  15.380   1.848  1.00  0.00     0.000 C 
BRANCH  19  20
ATOM     20  C   UNL     1      22.105  15.093   3.205  1.00  0.00     0.006 C 
BRANCH  20  21
ATOM     21  C   UNL     1      23.047  14.383   4.186  1.00  0.00     0.053 C 
BRANCH  21  22
ATOM     22  C   UNL     1      22.779  12.910   4.196  1.00  0.00     0.041 C 
ATOM     23  O   UNL     1      23.471  12.146   4.920  1.00  0.00    -0.550 OA
ATOM     24  O   UNL     1      21.738  12.386   3.441  1.00  0.00    -0.550 OA
ENDBRANCH  21  22
ENDBRANCH  20  21
ENDBRANCH  19  20
ENDBRANCH  18  19
ENDBRANCH  17  18
ENDBRANCH  16  17
ENDBRANCH  15  16
ENDBRANCH  14  15
ENDBRANCH  13  14
ENDBRANCH   1  13
TORSDOF 20
ENDMDL
MODEL 2
REMARK VINA RESULT:    -6.124      3.912      9.733
REMARK INTER + INTRA:         -15.570
REMARK INTER:                 -13.008
REMARK INTRA:                  -2.562
REMARK UNBOUND:                -2.286
REMARK SMILES CCCCCCCCCCCCCCCCCCCCCC(=O)[O-]
REMARK SMILES IDX 12 1 11 2 10 3 9 4 8 5 7 6 6 7 5 8 4 9 3 10 2 11 1 12 13 13
REMARK SMILES IDX 14 14 15 15 16 16 17 17 18 18 19 19 20 20 21 21 22 22 23 23
REMARK SMILES IDX 24 24
REMARK H PARENT
REMARK Flexibility Score: inf
ROOT
ATOM      1  C   UNL     1      22.450  12.211  -1.062  1.00  0.00     0.000 C 
ENDROOT
BRANCH   1   2
ATOM      2  C   UNL     1      23.082  12.150   0.344  1.00  0.00     0.000 C 
BRANCH   2   3
ATOM      3  C   UNL     1      22.220  11.397   1.372  1.00  0.00     0.000 C 
BRANCH   3   4
ATOM      4  C   UNL     1      21.984  12.203   2.661  1.00  0.00    -0.000 C 
BRANCH   4   5
ATOM      5  C   UNL     1      23.063  13.286   2.873  1.00  0.00    -0.000 C 
BRANCH   5   6
ATOM      6  C   UNL     1      22.613  14.430   3.797  1.00  0.00    -0.000 C 
BRANCH   6   7
ATOM      7  C   UNL     1      22.186  15.688   3.029  1.00  0.00    -0.000 C 
BRANCH   7   8
ATOM      8  C   UNL     1      22.778  15.693   1.614  1.00  0.00    -0.000 C 
BRANCH   8   9
ATOM      9  C   UNL     1      21.709  16.047   0.571  1.00  0.00    -0.000 C 
BRANCH   9  10
ATOM     10  C   UNL     1      20.332  15.444   0.900  1.00  0.00    -0.000 C 
BRANCH  10  11
ATOM     11  C   UNL     1      19.772  14.537  -0.214  1.00  0.00    -0.003 C 
ATOM     12  C   UNL     1      19.154  13.252   0.335  1.00  0.00     0.004 C 
ENDBRANCH  10  11
ENDBRANCH   9  10
ENDBRANCH   8   9
ENDBRANCH   7   8
ENDBRANCH   6   7
ENDBRANCH   5   6
ENDBRANCH   4   5
ENDBRANCH   3   4
ENDBRANCH   2   3
ENDBRANCH   1   2
BRANCH   1  13
ATOM     13  C   UNL     1      22.904  13.452  -1.850  1.00  0.00     0.000 C 
BRANCH  13  14
ATOM     14  C   UNL     1      23.792  13.087  -3.050  1.00  0.00     0.000 C 
BRANCH  14  15
ATOM     15  C   UNL     1      23.029  12.278  -4.113  1.00  0.00     0.000 C 
BRANCH  15  16
ATOM     16  C   UNL     1      23.953  11.712  -5.203  1.00  0.00     0.000 C 
BRANCH  16  17
ATOM     17  C   UNL     1      23.347  11.815  -6.611  1.00  0.00     0.000 C 
BRANCH  17  18
ATOM     18  C   UNL     1      23.828  10.661  -7.499  1.00  0.00     0.000 C 
BRANCH  18  19
ATOM     19  C   UNL     1      24.808  11.161  -8.569  1.00  0.00     0.000 C 
BRANCH  19  20
ATOM     20  C   UNL     1      26.098  10.328  -8.629  1.00  0.00     0.006 C 
BRANCH  20  21
ATOM     21  C   UNL     1      26.380   9.579  -7.321  1.00  0.00     0.053 C 
BRANCH  21  22
ATOM     22  C   UNL     1      26.403   8.101  -7.558  1.00  0.00     0.041 C 
ATOM     23  O   UNL     1      25.845   7.321  -6.741  1.00  0.00    -0.550 OA
ATOM     24  O   UNL     1      27.000   7.588  -8.701  1.00  0.00    -0.550 OA
ENDBRANCH  21  22
ENDBRANCH  20  21
ENDBRANCH  19  20
ENDBRANCH  18  19
ENDBRANCH  17  18
ENDBRANCH  16  17
ENDBRANCH  15  16
ENDBRANCH  14  15
ENDBRANCH  13  14
ENDBRANCH   1  13
TORSDOF 20
ENDMDL
MODEL 3
REMARK VINA RESULT:    -6.073      1.747      3.429
REMARK INTER + INTRA:         -15.460
REMARK INTER:                 -13.384
REMARK INTRA:                  -2.076
REMARK UNBOUND:                -2.286
REMARK SMILES CCCCCCCCCCCCCCCCCCCCCC(=O)[O-]
REMARK SMILES IDX 12 1 11 2 10 3 9 4 8 5 7 6 6 7 5 8 4 9 3 10 2 11 1 12 13 13
REMARK SMILES IDX 14 14 15 15 16 16 17 17 18 18 19 19 20 20 21 21 22 22 23 23
REMARK SMILES IDX 24 24
REMARK H PARENT
REMARK Flexibility Score: inf
ROOT
ATOM      1  C   UNL     1      22.523  11.768   0.350  1.00  0.00     0.000 C 
ENDROOT
BRANCH   1   2
ATOM      2  C   UNL     1      21.643  11.036  -0.685  1.00  0.00     0.000 C 
BRANCH   2   3
ATOM      3  C   UNL     1      21.744  11.624  -2.102  1.00  0.00     0.000 C 
BRANCH   3   4
ATOM      4  C   UNL     1      22.498  12.965  -2.141  1.00  0.00    -0.000 C 
BRANCH   4   5
ATOM      5  C   UNL     1      23.687  12.933  -3.124  1.00  0.00    -0.000 C 
BRANCH   5   6
ATOM      6  C   UNL     1      23.349  13.485  -4.518  1.00  0.00    -0.000 C 
BRANCH   6   7
ATOM      7  C   UNL     1      22.857  12.403  -5.489  1.00  0.00    -0.000 C 
BRANCH   7   8
ATOM      8  C   UNL     1      23.983  11.419  -5.828  1.00  0.00    -0.000 C 
BRANCH   8   9
ATOM      9  C   UNL     1      23.748  10.762  -7.195  1.00  0.00    -0.000 C 
BRANCH   9  10
ATOM     10  C   UNL     1      24.540  11.439  -8.327  1.00  0.00    -0.000 C 
BRANCH  10  11
ATOM     11  C   UNL     1      25.836  10.694  -8.705  1.00  0.00    -0.003 C 
ATOM     12  C   UNL     1      27.013  11.644  -8.922  1.00  0.00     0.004 C 
ENDBRANCH  10  11
ENDBRANCH   9  10
ENDBRANCH   8   9
ENDBRANCH   7   8
ENDBRANCH   6   7
ENDBRANCH   5   6
ENDBRANCH   4   5
ENDBRANCH   3   4
ENDBRANCH   2   3
ENDBRANCH   1   2
BRANCH   1  13
ATOM     13  C   UNL     1      22.236  11.303   1.789  1.00  0.00     0.000 C 
BRANCH  13  14
ATOM     14  C   UNL     1      21.854  12.471   2.711  1.00  0.00     0.000 C 
BRANCH  14  15
ATOM     15  C   UNL     1      23.081  13.284   3.162  1.00  0.00     0.000 C 
BRANCH  15  16
ATOM     16  C   UNL     1      22.720  14.408   4.144  1.00  0.00     0.000 C 
BRANCH  16  17
ATOM     17  C   UNL     1      22.214  15.676   3.439  1.00  0.00     0.000 C 
BRANCH  17  18
ATOM     18  C   UNL     1      22.631  15.685   1.964  1.00  0.00     0.000 C 
BRANCH  18  19
ATOM     19  C   UNL     1      21.486  16.184   1.071  1.00  0.00     0.000 C 
BRANCH  19  20
ATOM     20  C   UNL     1      20.334  15.172   0.963  1.00  0.00     0.006 C 
BRANCH  20  21
ATOM     21  C   UNL     1      20.014  14.792  -0.488  1.00  0.00     0.053 C 
BRANCH  21  22
ATOM     22  C   UNL     1      19.051  13.647  -0.529  1.00  0.00     0.041 C 
ATOM     23  O   UNL     1      18.488  13.332  -1.611  1.00  0.00    -0.550 OA
ATOM     24  O   UNL     1      18.809  12.899   0.616  1.00  0.00    -0.550 OA
ENDBRANCH  21  22
ENDBRANCH  20  21
ENDBRANCH  19  20
ENDBRANCH  18  19
ENDBRANCH  17  18
ENDBRANCH  16  17
ENDBRANCH  15  16
ENDBRANCH  14  15
ENDBRANCH  13  14
ENDBRANCH   1  13
TORSDOF 20
ENDMDL
MODEL 4
REMARK VINA RESULT:    -6.020      3.565      9.675
REMARK INTER + INTRA:         -15.345
REMARK INTER:                 -13.286
REMARK INTRA:                  -2.059
REMARK UNBOUND:                -2.286
REMARK SMILES CCCCCCCCCCCCCCCCCCCCCC(=O)[O-]
REMARK SMILES IDX 12 1 11 2 10 3 9 4 8 5 7 6 6 7 5 8 4 9 3 10 2 11 1 12 13 13
REMARK SMILES IDX 14 14 15 15 16 16 17 17 18 18 19 19 20 20 21 21 22 22 23 23
REMARK SMILES IDX 24 24
REMARK H PARENT
REMARK Flexibility Score: inf
ROOT
ATOM      1  C   UNL     1      21.836  11.953  -2.447  1.00  0.00     0.000 C 
ENDROOT
BRANCH   1   2
ATOM      2  C   UNL     1      20.419  12.209  -3.000  1.00  0.00     0.000 C 
BRANCH   2   3
ATOM      3  C   UNL     1      19.605  13.211  -2.164  1.00  0.00     0.000 C 
BRANCH   3   4
ATOM      4  C   UNL     1      19.229  12.665  -0.775  1.00  0.00    -0.000 C 
BRANCH   4   5
ATOM      5  C   UNL     1      19.940  13.432   0.360  1.00  0.00    -0.000 C 
BRANCH   5   6
ATOM      6  C   UNL     1      19.452  14.881   0.524  1.00  0.00    -0.000 C 
BRANCH   6   7
ATOM      7  C   UNL     1      20.596  15.903   0.520  1.00  0.00    -0.000 C 
BRANCH   7   8
ATOM      8  C   UNL     1      21.957  15.203   0.615  1.00  0.00    -0.000 C 
BRANCH   8   9
ATOM      9  C   UNL     1      22.790  15.773   1.771  1.00  0.00    -0.000 C 
BRANCH   9  10
ATOM     10  C   UNL     1      22.154  15.517   3.149  1.00  0.00    -0.000 C 
BRANCH  10  11
ATOM     11  C   UNL     1      22.837  14.386   3.945  1.00  0.00    -0.003 C 
ATOM     12  C   UNL     1      22.355  13.000   3.520  1.00  0.00     0.004 C 
ENDBRANCH  10  11
ENDBRANCH   9  10
ENDBRANCH   8   9
ENDBRANCH   7   8
ENDBRANCH   6   7
ENDBRANCH   5   6
ENDBRANCH   4   5
ENDBRANCH   3   4
ENDBRANCH   2   3
ENDBRANCH   1   2
BRANCH   1  13
ATOM     13  C   UNL     1      22.692  13.232  -2.427  1.00  0.00     0.000 C 
BRANCH  13  14
ATOM     14  C   UNL     1      23.640  13.315  -3.634  1.00  0.00     0.000 C 
BRANCH  14  15
ATOM     15  C   UNL     1      23.698  11.994  -4.421  1.00  0.00     0.000 C 
BRANCH  15  16
ATOM     16  C   UNL     1      23.108  12.120  -5.834  1.00  0.00     0.000 C 
BRANCH  16  17
ATOM     17  C   UNL     1      23.653  11.060  -6.804  1.00  0.00     0.000 C 
BRANCH  17  18
ATOM     18  C   UNL     1      24.011  11.688  -8.156  1.00  0.00     0.000 C 
BRANCH  18  19
ATOM     19  C   UNL     1      25.146  10.913  -8.840  1.00  0.00     0.000 C 
BRANCH  19  20
ATOM     20  C   UNL     1      26.424  10.857  -7.989  1.00  0.00     0.006 C 
BRANCH  20  21
ATOM     21  C   UNL     1      27.052   9.458  -7.954  1.00  0.00     0.053 C 
BRANCH  21  22
ATOM     22  C   UNL     1      26.297   8.568  -7.016  1.00  0.00     0.041 C 
ATOM     23  O   UNL     1      25.769   7.506  -7.439  1.00  0.00    -0.550 OA
ATOM     24  O   UNL     1      26.213   8.889  -5.668  1.00  0.00    -0.550 OA
ENDBRANCH  21  22
ENDBRANCH  20  21
ENDBRANCH  19  20
ENDBRANCH  18  19
ENDBRANCH  17  18
ENDBRANCH  16  17
ENDBRANCH  15  16
ENDBRANCH  14  15
ENDBRANCH  13  14
ENDBRANCH   1  13
TORSDOF 20
ENDMDL
MODEL 5
REMARK VINA RESULT:    -5.998      3.828      9.418
REMARK INTER + INTRA:         -15.298
REMARK INTER:                 -12.393
REMARK INTRA:                  -2.905
REMARK UNBOUND:                -2.286
REMARK SMILES CCCCCCCCCCCCCCCCCCCCCC(=O)[O-]
REMARK SMILES IDX 12 1 11 2 10 3 9 4 8 5 7 6 6 7 5 8 4 9 3 10 2 11 1 12 13 13
REMARK SMILES IDX 14 14 15 15 16 16 17 17 18 18 19 19 20 20 21 21 22 22 23 23
REMARK SMILES IDX 24 24
REMARK H PARENT
REMARK Flexibility Score: inf
ROOT
ATOM      1  C   UNL     1      20.960  12.430  -3.061  1.00  0.00     0.000 C 
ENDROOT
BRANCH   1   2
ATOM      2  C   UNL     1      20.128  13.305  -2.100  1.00  0.00     0.000 C 
BRANCH   2   3
ATOM      3  C   UNL     1      19.535  12.522  -0.917  1.00  0.00     0.000 C 
BRANCH   3   4
ATOM      4  C   UNL     1      19.250  13.411   0.307  1.00  0.00    -0.000 C 
BRANCH   4   5
ATOM      5  C   UNL     1      19.767  14.851   0.109  1.00  0.00    -0.000 C 
BRANCH   5   6
ATOM      6  C   UNL     1      20.669  15.343   1.254  1.00  0.00    -0.000 C 
BRANCH   6   7
ATOM      7  C   UNL     1      22.040  15.833   0.769  1.00  0.00    -0.000 C 
BRANCH   7   8
ATOM      8  C   UNL     1      22.807  14.707   0.067  1.00  0.00    -0.000 C 
BRANCH   8   9
ATOM      9  C   UNL     1      23.459  13.765   1.089  1.00  0.00    -0.000 C 
BRANCH   9  10
ATOM     10  C   UNL     1      22.840  12.356   1.081  1.00  0.00    -0.000 C 
BRANCH  10  11
ATOM     11  C   UNL     1      22.054  12.019   2.365  1.00  0.00    -0.003 C 
ATOM     12  C   UNL     1      22.419  12.938   3.530  1.00  0.00     0.004 C 
ENDBRANCH  10  11
ENDBRANCH   9  10
ENDBRANCH   8   9
ENDBRANCH   7   8
ENDBRANCH   6   7
ENDBRANCH   5   6
ENDBRANCH   4   5
ENDBRANCH   3   4
ENDBRANCH   2   3
ENDBRANCH   1   2
BRANCH   1  13
ATOM     13  C   UNL     1      22.382  12.173  -2.530  1.00  0.00     0.000 C 
BRANCH  13  14
ATOM     14  C   UNL     1      23.462  12.533  -3.563  1.00  0.00     0.000 C 
BRANCH  14  15
ATOM     15  C   UNL     1      22.887  13.314  -4.758  1.00  0.00     0.000 C 
BRANCH  15  16
ATOM     16  C   UNL     1      23.088  12.584  -6.095  1.00  0.00     0.000 C 
BRANCH  16  17
ATOM     17  C   UNL     1      23.944  11.315  -5.958  1.00  0.00     0.000 C 
BRANCH  17  18
ATOM     18  C   UNL     1      23.947  10.514  -7.266  1.00  0.00     0.000 C 
BRANCH  18  19
ATOM     19  C   UNL     1      24.348  11.400  -8.453  1.00  0.00     0.000 C 
BRANCH  19  20
ATOM     20  C   UNL     1      25.845  11.302  -8.789  1.00  0.00     0.006 C 
BRANCH  20  21
ATOM     21  C   UNL     1      26.448   9.943  -8.412  1.00  0.00     0.053 C 
BRANCH  21  22
ATOM     22  C   UNL     1      27.637  10.126  -7.522  1.00  0.00     0.041 C 
ATOM     23  O   UNL     1      27.587  10.934  -6.556  1.00  0.00    -0.550 OA
ATOM     24  O   UNL     1      28.785   9.374  -7.730  1.00  0.00    -0.550 OA
ENDBRANCH  21  22
ENDBRANCH  20  21
ENDBRANCH  19  20
ENDBRANCH  18  19
ENDBRANCH  17  18
ENDBRANCH  16  17
ENDBRANCH  15  16
ENDBRANCH  14  15
ENDBRANCH  13  14
ENDBRANCH   1  13
TORSDOF 20
ENDMDL
MODEL 6
REMARK VINA RESULT:    -5.998      3.929      9.611
REMARK INTER + INTRA:         -15.298
REMARK INTER:                 -12.776
REMARK INTRA:                  -2.522
REMARK UNBOUND:                -2.286
REMARK SMILES CCCCCCCCCCCCCCCCCCCCCC(=O)[O-]
REMARK SMILES IDX 12 1 11 2 10 3 9 4 8 5 7 6 6 7 5 8 4 9 3 10 2 11 1 12 13 13
REMARK SMILES IDX 14 14 15 15 16 16 17 17 18 18 19 19 20 20 21 21 22 22 23 23
REMARK SMILES IDX 24 24
REMARK H PARENT
REMARK Flexibility Score: inf
ROOT
ATOM      1  C   UNL     1      23.156  11.837   0.225  1.00  0.00     0.000 C 
ENDROOT
BRANCH   1   2
ATOM      2  C   UNL     1      21.690  11.652  -0.222  1.00  0.00     0.000 C 
BRANCH   2   3
ATOM      3  C   UNL     1      20.667  12.189   0.793  1.00  0.00     0.000 C 
BRANCH   3   4
ATOM      4  C   UNL     1      19.467  12.883   0.124  1.00  0.00    -0.000 C 
BRANCH   4   5
ATOM      5  C   UNL     1      19.862  14.227  -0.522  1.00  0.00    -0.000 C 
BRANCH   5   6
ATOM      6  C   UNL     1      19.881  15.403   0.468  1.00  0.00    -0.000 C 
BRANCH   6   7
ATOM      7  C   UNL     1      21.190  16.203   0.425  1.00  0.00    -0.000 C 
BRANCH   7   8
ATOM      8  C   UNL     1      22.246  15.575   1.343  1.00  0.00    -0.000 C 
BRANCH   8   9
ATOM      9  C   UNL     1      21.792  15.612   2.809  1.00  0.00    -0.000 C 
BRANCH   9  10
ATOM     10  C   UNL     1      22.866  15.091   3.779  1.00  0.00    -0.000 C 
BRANCH  10  11
ATOM     11  C   UNL     1      23.529  13.777   3.320  1.00  0.00    -0.003 C 
ATOM     12  C   UNL     1      22.812  12.541   3.861  1.00  0.00     0.004 C 
ENDBRANCH  10  11
ENDBRANCH   9  10
ENDBRANCH   8   9
ENDBRANCH   7   8
ENDBRANCH   6   7
ENDBRANCH   5   6
ENDBRANCH   4   5
ENDBRANCH   3   4
ENDBRANCH   2   3
ENDBRANCH   1   2
BRANCH   1  13
ATOM     13  C   UNL     1      23.893  12.887  -0.625  1.00  0.00     0.000 C 
BRANCH  13  14
ATOM     14  C   UNL     1      23.110  13.264  -1.892  1.00  0.00     0.000 C 
BRANCH  14  15
ATOM     15  C   UNL     1      23.913  12.989  -3.176  1.00  0.00     0.000 C 
BRANCH  15  16
ATOM     16  C   UNL     1      23.178  13.449  -4.445  1.00  0.00     0.000 C 
BRANCH  16  17
ATOM     17  C   UNL     1      22.855  12.290  -5.401  1.00  0.00     0.000 C 
BRANCH  17  18
ATOM     18  C   UNL     1      24.098  11.431  -5.658  1.00  0.00     0.000 C 
BRANCH  18  19
ATOM     19  C   UNL     1      23.994  10.703  -7.006  1.00  0.00     0.000 C 
BRANCH  19  20
ATOM     20  C   UNL     1      24.591  11.514  -8.167  1.00  0.00     0.006 C 
BRANCH  20  21
ATOM     21  C   UNL     1      25.650  10.731  -8.954  1.00  0.00     0.053 C 
BRANCH  21  22
ATOM     22  C   UNL     1      27.009  11.318  -8.731  1.00  0.00     0.041 C 
ATOM     23  O   UNL     1      27.671  11.767  -9.704  1.00  0.00    -0.550 OA
ATOM     24  O   UNL     1      27.525  11.410  -7.446  1.00  0.00    -0.550 OA
ENDBRANCH  21  22
ENDBRANCH  20  21
ENDBRANCH  19  20
ENDBRANCH  18  19
ENDBRANCH  17  18
ENDBRANCH  16  17
ENDBRANCH  15  16
ENDBRANCH  14  15
ENDBRANCH  13  14
ENDBRANCH   1  13
TORSDOF 20
ENDMDL
MODEL 7
REMARK VINA RESULT:    -5.983      4.140      9.388
REMARK INTER + INTRA:         -15.264
REMARK INTER:                 -12.677
REMARK INTRA:                  -2.587
REMARK UNBOUND:                -2.286
REMARK SMILES CCCCCCCCCCCCCCCCCCCCCC(=O)[O-]
REMARK SMILES IDX 12 1 11 2 10 3 9 4 8 5 7 6 6 7 5 8 4 9 3 10 2 11 1 12 13 13
REMARK SMILES IDX 14 14 15 15 16 16 17 17 18 18 19 19 20 20 21 21 22 22 23 23
REMARK SMILES IDX 24 24
REMARK H PARENT
REMARK Flexibility Score: inf
ROOT
ATOM      1  C   UNL     1      23.428  11.746   0.266  1.00  0.00     0.000 C 
ENDROOT
BRANCH   1   2
ATOM      2  C   UNL     1      22.415  11.350   1.360  1.00  0.00     0.000 C 
BRANCH   2   3
ATOM      3  C   UNL     1      21.975  12.529   2.245  1.00  0.00     0.000 C 
BRANCH   3   4
ATOM      4  C   UNL     1      23.030  12.914   3.297  1.00  0.00    -0.000 C 
BRANCH   4   5
ATOM      5  C   UNL     1      22.751  14.300   3.916  1.00  0.00    -0.000 C 
BRANCH   5   6
ATOM      6  C   UNL     1      21.769  15.153   3.096  1.00  0.00    -0.000 C 
BRANCH   6   7
ATOM      7  C   UNL     1      22.462  15.987   2.009  1.00  0.00    -0.000 C 
BRANCH   7   8
ATOM      8  C   UNL     1      21.507  16.271   0.844  1.00  0.00    -0.000 C 
BRANCH   8   9
ATOM      9  C   UNL     1      20.196  15.489   1.004  1.00  0.00    -0.000 C 
BRANCH   9  10
ATOM     10  C   UNL     1      19.883  14.596  -0.210  1.00  0.00    -0.000 C 
BRANCH  10  11
ATOM     11  C   UNL     1      19.068  13.335   0.144  1.00  0.00    -0.003 C 
ATOM     12  C   UNL     1      19.463  12.129  -0.706  1.00  0.00     0.004 C 
ENDBRANCH  10  11
ENDBRANCH   9  10
ENDBRANCH   8   9
ENDBRANCH   7   8
ENDBRANCH   6   7
ENDBRANCH   5   6
ENDBRANCH   4   5
ENDBRANCH   3   4
ENDBRANCH   2   3
ENDBRANCH   1   2
BRANCH   1  13
ATOM     13  C   UNL     1      23.417  13.258  -0.017  1.00  0.00     0.000 C 
BRANCH  13  14
ATOM     14  C   UNL     1      22.899  13.582  -1.427  1.00  0.00     0.000 C 
BRANCH  14  15
ATOM     15  C   UNL     1      22.887  12.345  -2.342  1.00  0.00     0.000 C 
BRANCH  15  16
ATOM     16  C   UNL     1      23.654  12.570  -3.653  1.00  0.00     0.000 C 
BRANCH  16  17
ATOM     17  C   UNL     1      22.732  12.624  -4.882  1.00  0.00     0.000 C 
BRANCH  17  18
ATOM     18  C   UNL     1      23.296  11.775  -6.026  1.00  0.00     0.000 C 
BRANCH  18  19
ATOM     19  C   UNL     1      24.604  11.087  -5.610  1.00  0.00     0.000 C 
BRANCH  19  20
ATOM     20  C   UNL     1      25.289  10.357  -6.776  1.00  0.00     0.006 C 
BRANCH  20  21
ATOM     21  C   UNL     1      25.096  11.074  -8.119  1.00  0.00     0.053 C 
BRANCH  21  22
ATOM     22  C   UNL     1      26.316  10.924  -8.973  1.00  0.00     0.041 C 
ATOM     23  O   UNL     1      26.414   9.955  -9.771  1.00  0.00    -0.550 OA
ATOM     24  O   UNL     1      27.324  11.877  -8.920  1.00  0.00    -0.550 OA
ENDBRANCH  21  22
ENDBRANCH  20  21
ENDBRANCH  19  20
ENDBRANCH  18  19
ENDBRANCH  17  18
ENDBRANCH  16  17
ENDBRANCH  15  16
ENDBRANCH  14  15
ENDBRANCH  13  14
ENDBRANCH   1  13
TORSDOF 20
ENDMDL
MODEL 8
REMARK VINA RESULT:    -5.957      4.228      8.104
REMARK INTER + INTRA:         -15.208
REMARK INTER:                 -12.177
REMARK INTRA:                  -3.031
REMARK UNBOUND:                -2.286
REMARK SMILES CCCCCCCCCCCCCCCCCCCCCC(=O)[O-]
REMARK SMILES IDX 12 1 11 2 10 3 9 4 8 5 7 6 6 7 5 8 4 9 3 10 2 11 1 12 13 13
REMARK SMILES IDX 14 14 15 15 16 16 17 17 18 18 19 19 20 20 21 21 22 22 23 23
REMARK SMILES IDX 24 24
REMARK H PARENT
REMARK Flexibility Score: inf
ROOT
ATOM      1  C   UNL     1      22.452  12.311  -2.652  1.00  0.00     0.000 C 
ENDROOT
BRANCH   1   2
ATOM      2  C   UNL     1      20.939  12.015  -2.735  1.00  0.00     0.000 C 
BRANCH   2   3
ATOM      3  C   UNL     1      20.060  13.166  -2.219  1.00  0.00     0.000 C 
BRANCH   3   4
ATOM      4  C   UNL     1      18.920  12.685  -1.304  1.00  0.00    -0.000 C 
BRANCH   4   5
ATOM      5  C   UNL     1      18.882  13.459   0.030  1.00  0.00    -0.000 C 
BRANCH   5   6
ATOM      6  C   UNL     1      19.557  14.839  -0.040  1.00  0.00    -0.000 C 
BRANCH   6   7
ATOM      7  C   UNL     1      20.440  15.138   1.179  1.00  0.00    -0.000 C 
BRANCH   7   8
ATOM      8  C   UNL     1      21.602  16.064   0.801  1.00  0.00    -0.000 C 
BRANCH   8   9
ATOM      9  C   UNL     1      22.613  16.176   1.950  1.00  0.00    -0.000 C 
BRANCH   9  10
ATOM     10  C   UNL     1      23.192  14.814   2.371  1.00  0.00    -0.000 C 
BRANCH  10  11
ATOM     11  C   UNL     1      22.988  14.491   3.865  1.00  0.00    -0.003 C 
ATOM     12  C   UNL     1      22.284  13.152   4.081  1.00  0.00     0.004 C 
ENDBRANCH  10  11
ENDBRANCH   9  10
ENDBRANCH   8   9
ENDBRANCH   7   8
ENDBRANCH   6   7
ENDBRANCH   5   6
ENDBRANCH   4   5
ENDBRANCH   3   4
ENDBRANCH   2   3
ENDBRANCH   1   2
BRANCH   1  13
ATOM     13  C   UNL     1      22.793  13.273  -1.500  1.00  0.00     0.000 C 
BRANCH  13  14
ATOM     14  C   UNL     1      23.355  12.536  -0.274  1.00  0.00     0.000 C 
BRANCH  14  15
ATOM     15  C   UNL     1      22.257  11.809   0.522  1.00  0.00     0.000 C 
BRANCH  15  16
ATOM     16  C   UNL     1      22.568  10.319   0.735  1.00  0.00     0.000 C 
BRANCH  16  17
ATOM     17  C   UNL     1      21.828   9.408  -0.256  1.00  0.00     0.000 C 
BRANCH  17  18
ATOM     18  C   UNL     1      22.225   7.941  -0.052  1.00  0.00     0.000 C 
BRANCH  18  19
ATOM     19  C   UNL     1      23.302   7.808   1.034  1.00  0.00     0.000 C 
BRANCH  19  20
ATOM     20  C   UNL     1      22.867   6.897   2.193  1.00  0.00     0.006 C 
BRANCH  20  21
ATOM     21  C   UNL     1      23.094   5.410   1.895  1.00  0.00     0.053 C 
BRANCH  21  22
ATOM     22  C   UNL     1      21.786   4.706   1.713  1.00  0.00     0.041 C 
ATOM     23  O   UNL     1      21.197   4.199   2.705  1.00  0.00    -0.550 OA
ATOM     24  O   UNL     1      21.195   4.647   0.458  1.00  0.00    -0.550 OA
ENDBRANCH  21  22
ENDBRANCH  20  21
ENDBRANCH  19  20
ENDBRANCH  18  19
ENDBRANCH  17  18
ENDBRANCH  16  17
ENDBRANCH  15  16
ENDBRANCH  14  15
ENDBRANCH  13  14
ENDBRANCH   1  13
TORSDOF 20
ENDMDL
MODEL 9
REMARK VINA RESULT:    -5.915      1.526      2.412
REMARK INTER + INTRA:         -15.117
REMARK INTER:                 -13.018
REMARK INTRA:                  -2.099
REMARK UNBOUND:                -2.286
REMARK SMILES CCCCCCCCCCCCCCCCCCCCCC(=O)[O-]
REMARK SMILES IDX 12 1 11 2 10 3 9 4 8 5 7 6 6 7 5 8 4 9 3 10 2 11 1 12 13 13
REMARK SMILES IDX 14 14 15 15 16 16 17 17 18 18 19 19 20 20 21 21 22 22 23 23
REMARK SMILES IDX 24 24
REMARK H PARENT
REMARK Flexibility Score: inf
ROOT
ATOM      1  C   UNL     1      20.150  13.343  -2.027  1.00  0.00     0.000 C 
ENDROOT
BRANCH   1   2
ATOM      2  C   UNL     1      20.676  11.893  -1.981  1.00  0.00     0.000 C 
BRANCH   2   3
ATOM      3  C   UNL     1      22.122  11.749  -2.484  1.00  0.00     0.000 C 
BRANCH   3   4
ATOM      4  C   UNL     1      22.842  13.101  -2.633  1.00  0.00    -0.000 C 
BRANCH   4   5
ATOM      5  C   UNL     1      23.235  13.390  -4.097  1.00  0.00    -0.000 C 
BRANCH   5   6
ATOM      6  C   UNL     1      23.303  12.130  -4.976  1.00  0.00    -0.000 C 
BRANCH   6   7
ATOM      7  C   UNL     1      24.646  11.395  -4.867  1.00  0.00    -0.000 C 
BRANCH   7   8
ATOM      8  C   UNL     1      24.966  10.644  -6.165  1.00  0.00    -0.000 C 
BRANCH   8   9
ATOM      9  C   UNL     1      23.950  10.985  -7.263  1.00  0.00    -0.000 C 
BRANCH   9  10
ATOM     10  C   UNL     1      24.593  11.100  -8.656  1.00  0.00    -0.000 C 
BRANCH  10  11
ATOM     11  C   UNL     1      26.074  10.672  -8.691  1.00  0.00    -0.003 C 
ATOM     12  C   UNL     1      26.539  10.295 -10.096  1.00  0.00     0.004 C 
ENDBRANCH  10  11
ENDBRANCH   9  10
ENDBRANCH   8   9
ENDBRANCH   7   8
ENDBRANCH   6   7
ENDBRANCH   5   6
ENDBRANCH   4   5
ENDBRANCH   3   4
ENDBRANCH   2   3
ENDBRANCH   1   2
BRANCH   1  13
ATOM     13  C   UNL     1      19.114  13.620  -0.924  1.00  0.00     0.000 C 
BRANCH  13  14
ATOM     14  C   UNL     1      19.772  14.046   0.398  1.00  0.00     0.000 C 
BRANCH  14  15
ATOM     15  C   UNL     1      20.245  15.510   0.369  1.00  0.00     0.000 C 
BRANCH  15  16
ATOM     16  C   UNL     1      21.763  15.646   0.566  1.00  0.00     0.000 C 
BRANCH  16  17
ATOM     17  C   UNL     1      22.137  16.199   1.950  1.00  0.00     0.000 C 
BRANCH  17  18
ATOM     18  C   UNL     1      21.764  15.204   3.055  1.00  0.00     0.000 C 
BRANCH  18  19
ATOM     19  C   UNL     1      23.020  14.582   3.683  1.00  0.00     0.000 C 
BRANCH  19  20
ATOM     20  C   UNL     1      22.999  13.046   3.655  1.00  0.00     0.006 C 
BRANCH  20  21
ATOM     21  C   UNL     1      21.958  12.485   2.678  1.00  0.00     0.053 C 
BRANCH  21  22
ATOM     22  C   UNL     1      22.627  11.930   1.460  1.00  0.00     0.041 C 
ATOM     23  O   UNL     1      22.301  10.796   1.020  1.00  0.00    -0.550 OA
ATOM     24  O   UNL     1      23.578  12.684   0.784  1.00  0.00    -0.550 OA
ENDBRANCH  21  22
ENDBRANCH  20  21
ENDBRANCH  19  20
ENDBRANCH  18  19
ENDBRANCH  17  18
ENDBRANCH  16  17
ENDBRANCH  15  16
ENDBRANCH  14  15
ENDBRANCH  13  14
ENDBRANCH   1  13
TORSDOF 20
ENDMDL
