MODEL 1
REMARK VINA RESULT:    -6.352      0.000      0.000
REMARK INTER + INTRA:          -8.587
REMARK INTER:                  -8.022
REMARK INTRA:                  -0.564
REMARK UNBOUND:                -0.564
REMARK SMILES O=C(C=Cc1ccc(O)cc1)c1ccc(O)cc1O
REMARK SMILES IDX 4 1 3 2 5 3 6 4 7 5 8 6 11 7 10 8 9 9 2 11 1 12 12 13 18 14
REMARK SMILES IDX 13 15 17 16 14 17 15 18 19 19 16 21
REMARK H PARENT 9 10 19 20 16 22
REMARK Flexibility Score: inf
ROOT
ATOM      1  C   UNL     1      30.883 -92.198  37.886  1.00  0.00     0.012 C 
ATOM      2  C   UNL     1      31.881 -93.010  38.265  1.00  0.00     0.053 C 
ENDROOT
BRANCH   1   3
ATOM      3  C   UNL     1      31.041 -90.736  37.693  1.00  0.00    -0.025 A 
ATOM      4  C   UNL     1      30.227 -89.793  38.352  1.00  0.00     0.012 A 
ATOM      5  C   UNL     1      30.423 -88.423  38.147  1.00  0.00     0.047 A 
ATOM      6  C   UNL     1      31.437 -87.976  37.295  1.00  0.00     0.115 A 
ATOM      7  C   UNL     1      32.068 -90.275  36.852  1.00  0.00     0.012 A 
ATOM      8  C   UNL     1      32.261 -88.906  36.649  1.00  0.00     0.047 A 
BRANCH   6   9
ATOM      9  O   UNL     1      31.619 -86.608  37.101  1.00  0.00    -0.508 OA
ATOM     10  H   UNL     1      31.035 -86.083  36.462  1.00  0.00     0.293 HD
ENDBRANCH   6   9
ENDBRANCH   1   3
BRANCH   2  11
ATOM     11  C   UNL     1      31.683 -94.463  38.463  1.00  0.00     0.189 C 
ATOM     12  O   UNL     1      32.671 -95.201  38.729  1.00  0.00    -0.289 OA
BRANCH  11  13
ATOM     13  C   UNL     1      30.345 -95.080  38.306  1.00  0.00     0.064 A 
ATOM     14  C   UNL     1      29.573 -95.481  39.419  1.00  0.00     0.130 A 
ATOM     15  C   UNL     1      29.842 -95.298  37.011  1.00  0.00     0.020 A 
ATOM     16  C   UNL     1      28.306 -96.049  39.221  1.00  0.00     0.093 A 
ATOM     17  C   UNL     1      28.581 -95.870  36.824  1.00  0.00     0.047 A 
ATOM     18  C   UNL     1      27.808 -96.242  37.929  1.00  0.00     0.119 A 
BRANCH  14  19
ATOM     19  O   UNL     1      30.070 -95.343  40.714  1.00  0.00    -0.507 OA
ATOM     20  H   UNL     1      30.214 -94.434  41.136  1.00  0.00     0.293 HD
ENDBRANCH  14  19
BRANCH  18  21
ATOM     21  O   UNL     1      26.547 -96.810  37.756  1.00  0.00    -0.508 OA
ATOM     22  H   UNL     1      25.702 -96.263  37.865  1.00  0.00     0.293 HD
ENDBRANCH  18  21
ENDBRANCH  11  13
ENDBRANCH   2  11
TORSDOF 6
ENDMDL
MODEL 2
REMARK VINA RESULT:    -6.258      1.032      1.645
REMARK INTER + INTRA:          -8.468
REMARK INTER:                  -7.962
REMARK INTRA:                  -0.506
REMARK UNBOUND:                -0.564
REMARK SMILES O=C(C=Cc1ccc(O)cc1)c1ccc(O)cc1O
REMARK SMILES IDX 4 1 3 2 5 3 6 4 7 5 8 6 11 7 10 8 9 9 2 11 1 12 12 13 18 14
REMARK SMILES IDX 13 15 17 16 14 17 15 18 19 19 16 21
REMARK H PARENT 9 10 19 20 16 22
REMARK Flexibility Score: inf
ROOT
ATOM      1  C   UNL     1      31.002 -92.403  37.863  1.00  0.00     0.012 C 
ATOM      2  C   UNL     1      31.968 -93.147  38.423  1.00  0.00     0.053 C 
ENDROOT
BRANCH   1   3
ATOM      3  C   UNL     1      31.096 -90.934  37.681  1.00  0.00    -0.025 A 
ATOM      4  C   UNL     1      30.313 -90.027  38.422  1.00  0.00     0.012 A 
ATOM      5  C   UNL     1      30.448 -88.649  38.223  1.00  0.00     0.047 A 
ATOM      6  C   UNL     1      31.368 -88.158  37.294  1.00  0.00     0.115 A 
ATOM      7  C   UNL     1      32.031 -90.429  36.762  1.00  0.00     0.012 A 
ATOM      8  C   UNL     1      32.162 -89.052  36.565  1.00  0.00     0.047 A 
BRANCH   6   9
ATOM      9  O   UNL     1      31.490 -86.782  37.107  1.00  0.00    -0.508 OA
ATOM     10  H   UNL     1      31.602 -86.383  36.183  1.00  0.00     0.293 HD
ENDBRANCH   6   9
ENDBRANCH   1   3
BRANCH   2  11
ATOM     11  C   UNL     1      31.832 -94.609  38.604  1.00  0.00     0.189 C 
ATOM     12  O   UNL     1      32.853 -95.347  38.532  1.00  0.00    -0.289 OA
BRANCH  11  13
ATOM     13  C   UNL     1      30.506 -95.232  38.820  1.00  0.00     0.064 A 
ATOM     14  C   UNL     1      29.674 -95.610  37.743  1.00  0.00     0.130 A 
ATOM     15  C   UNL     1      30.051 -95.429  40.136  1.00  0.00     0.020 A 
ATOM     16  C   UNL     1      28.432 -96.210  37.997  1.00  0.00     0.093 A 
ATOM     17  C   UNL     1      28.809 -96.022  40.378  1.00  0.00     0.047 A 
ATOM     18  C   UNL     1      27.999 -96.418  39.309  1.00  0.00     0.119 A 
BRANCH  14  19
ATOM     19  O   UNL     1      30.065 -95.367  36.426  1.00  0.00    -0.507 OA
ATOM     20  H   UNL     1      30.568 -94.527  36.166  1.00  0.00     0.293 HD
ENDBRANCH  14  19
BRANCH  18  21
ATOM     21  O   UNL     1      26.761 -97.014  39.538  1.00  0.00    -0.508 OA
ATOM     22  H   UNL     1      26.016 -96.967  38.853  1.00  0.00     0.293 HD
ENDBRANCH  18  21
ENDBRANCH  11  13
ENDBRANCH   2  11
TORSDOF 6
ENDMDL
MODEL 3
REMARK VINA RESULT:    -6.033      1.147      2.046
REMARK INTER + INTRA:          -8.184
REMARK INTER:                  -7.660
REMARK INTRA:                  -0.523
REMARK UNBOUND:                -0.564
REMARK SMILES O=C(C=Cc1ccc(O)cc1)c1ccc(O)cc1O
REMARK SMILES IDX 4 1 3 2 5 3 6 4 7 5 8 6 11 7 10 8 9 9 2 11 1 12 12 13 18 14
REMARK SMILES IDX 13 15 17 16 14 17 15 18 19 19 16 21
REMARK H PARENT 9 10 19 20 16 22
REMARK Flexibility Score: inf
ROOT
ATOM      1  C   UNL     1      31.269 -92.356  37.485  1.00  0.00     0.012 C 
ATOM      2  C   UNL     1      31.521 -93.064  38.596  1.00  0.00     0.053 C 
ENDROOT
BRANCH   1   3
ATOM      3  C   UNL     1      31.359 -90.877  37.414  1.00  0.00    -0.025 A 
ATOM      4  C   UNL     1      32.183 -90.211  36.485  1.00  0.00     0.012 A 
ATOM      5  C   UNL     1      32.224 -88.814  36.449  1.00  0.00     0.047 A 
ATOM      6  C   UNL     1      31.439 -88.063  37.328  1.00  0.00     0.115 A 
ATOM      7  C   UNL     1      30.560 -90.112  38.282  1.00  0.00     0.012 A 
ATOM      8  C   UNL     1      30.604 -88.716  38.243  1.00  0.00     0.047 A 
BRANCH   6   9
ATOM      9  O   UNL     1      31.492 -86.671  37.280  1.00  0.00    -0.508 OA
ATOM     10  H   UNL     1      32.294 -86.160  37.627  1.00  0.00     0.293 HD
ENDBRANCH   6   9
ENDBRANCH   1   3
BRANCH   2  11
ATOM     11  C   UNL     1      31.405 -94.538  38.634  1.00  0.00     0.189 C 
ATOM     12  O   UNL     1      32.400 -95.254  38.332  1.00  0.00    -0.289 OA
BRANCH  11  13
ATOM     13  C   UNL     1      30.122 -95.195  38.974  1.00  0.00     0.064 A 
ATOM     14  C   UNL     1      29.151 -95.490  37.991  1.00  0.00     0.130 A 
ATOM     15  C   UNL     1      29.850 -95.510  40.318  1.00  0.00     0.020 A 
ATOM     16  C   UNL     1      27.956 -96.126  38.358  1.00  0.00     0.093 A 
ATOM     17  C   UNL     1      28.654 -96.137  40.674  1.00  0.00     0.047 A 
ATOM     18  C   UNL     1      27.707 -96.451  39.694  1.00  0.00     0.119 A 
BRANCH  14  19
ATOM     19  O   UNL     1      29.358 -95.130  36.659  1.00  0.00    -0.507 OA
ATOM     20  H   UNL     1      29.793 -95.762  35.998  1.00  0.00     0.293 HD
ENDBRANCH  14  19
BRANCH  18  21
ATOM     21  O   UNL     1      26.512 -97.081  40.037  1.00  0.00    -0.508 OA
ATOM     22  H   UNL     1      25.824 -97.327  39.336  1.00  0.00     0.293 HD
ENDBRANCH  18  21
ENDBRANCH  11  13
ENDBRANCH   2  11
TORSDOF 6
ENDMDL
MODEL 4
REMARK VINA RESULT:    -5.940      2.588      7.240
REMARK INTER + INTRA:          -8.066
REMARK INTER:                  -7.397
REMARK INTRA:                  -0.669
REMARK UNBOUND:                -0.564
REMARK SMILES O=C(C=Cc1ccc(O)cc1)c1ccc(O)cc1O
REMARK SMILES IDX 4 1 3 2 5 3 6 4 7 5 8 6 11 7 10 8 9 9 2 11 1 12 12 13 18 14
REMARK SMILES IDX 13 15 17 16 14 17 15 18 19 19 16 21
REMARK H PARENT 9 10 19 20 16 22
REMARK Flexibility Score: inf
ROOT
ATOM      1  C   UNL     1      31.044 -92.421  38.342  1.00  0.00     0.012 C 
ATOM      2  C   UNL     1      30.414 -92.140  37.192  1.00  0.00     0.053 C 
ENDROOT
BRANCH   1   3
ATOM      3  C   UNL     1      31.831 -93.658  38.568  1.00  0.00    -0.025 A 
ATOM      4  C   UNL     1      31.259 -94.835  39.093  1.00  0.00     0.012 A 
ATOM      5  C   UNL     1      32.040 -95.980  39.276  1.00  0.00     0.047 A 
ATOM      6  C   UNL     1      33.394 -95.973  38.931  1.00  0.00     0.115 A 
ATOM      7  C   UNL     1      33.189 -93.667  38.208  1.00  0.00     0.012 A 
ATOM      8  C   UNL     1      33.967 -94.813  38.393  1.00  0.00     0.047 A 
BRANCH   6   9
ATOM      9  O   UNL     1      34.159 -97.122  39.120  1.00  0.00    -0.508 OA
ATOM     10  H   UNL     1      34.154 -97.621  40.001  1.00  0.00     0.293 HD
ENDBRANCH   6   9
ENDBRANCH   1   3
BRANCH   2  11
ATOM     11  C   UNL     1      29.624 -90.903  37.007  1.00  0.00     0.189 C 
ATOM     12  O   UNL     1      28.385 -90.978  36.781  1.00  0.00    -0.289 OA
BRANCH  11  13
ATOM     13  C   UNL     1      30.272 -89.572  37.032  1.00  0.00     0.064 A 
ATOM     14  C   UNL     1      29.634 -88.442  37.592  1.00  0.00     0.130 A 
ATOM     15  C   UNL     1      31.548 -89.422  36.459  1.00  0.00     0.020 A 
ATOM     16  C   UNL     1      30.294 -87.204  37.605  1.00  0.00     0.093 A 
ATOM     17  C   UNL     1      32.193 -88.183  36.473  1.00  0.00     0.047 A 
ATOM     18  C   UNL     1      31.569 -87.072  37.050  1.00  0.00     0.119 A 
BRANCH  14  19
ATOM     19  O   UNL     1      28.342 -88.539  38.107  1.00  0.00    -0.507 OA
ATOM     20  H   UNL     1      27.568 -88.023  37.706  1.00  0.00     0.293 HD
ENDBRANCH  14  19
BRANCH  18  21
ATOM     21  O   UNL     1      32.204 -85.832  37.073  1.00  0.00    -0.508 OA
ATOM     22  H   UNL     1      31.708 -84.988  37.331  1.00  0.00     0.293 HD
ENDBRANCH  18  21
ENDBRANCH  11  13
ENDBRANCH   2  11
TORSDOF 6
ENDMDL
MODEL 5
REMARK VINA RESULT:    -5.209     16.361     18.765
REMARK INTER + INTRA:          -7.144
REMARK INTER:                  -6.564
REMARK INTRA:                  -0.580
REMARK UNBOUND:                -0.564
REMARK SMILES O=C(C=Cc1ccc(O)cc1)c1ccc(O)cc1O
REMARK SMILES IDX 4 1 3 2 5 3 6 4 7 5 8 6 11 7 10 8 9 9 2 11 1 12 12 13 18 14
REMARK SMILES IDX 13 15 17 16 14 17 15 18 19 19 16 21
REMARK H PARENT 9 10 19 20 16 22
REMARK Flexibility Score: inf
ROOT
ATOM      1  C   UNL     1      41.210 -78.589  37.495  1.00  0.00     0.012 C 
ATOM      2  C   UNL     1      40.814 -77.513  36.800  1.00  0.00     0.053 C 
ENDROOT
BRANCH   1   3
ATOM      3  C   UNL     1      40.730 -78.908  38.862  1.00  0.00    -0.025 A 
ATOM      4  C   UNL     1      40.376 -77.912  39.793  1.00  0.00     0.012 A 
ATOM      5  C   UNL     1      39.915 -78.264  41.066  1.00  0.00     0.047 A 
ATOM      6  C   UNL     1      39.791 -79.609  41.424  1.00  0.00     0.115 A 
ATOM      7  C   UNL     1      40.585 -80.258  39.226  1.00  0.00     0.012 A 
ATOM      8  C   UNL     1      40.125 -80.606  40.499  1.00  0.00     0.047 A 
BRANCH   6   9
ATOM      9  O   UNL     1      39.332 -79.943  42.696  1.00  0.00    -0.508 OA
ATOM     10  H   UNL     1      38.642 -79.377  43.175  1.00  0.00     0.293 HD
ENDBRANCH   6   9
ENDBRANCH   1   3
BRANCH   2  11
ATOM     11  C   UNL     1      41.327 -77.216  35.445  1.00  0.00     0.189 C 
ATOM     12  O   UNL     1      42.533 -76.876  35.291  1.00  0.00    -0.289 OA
BRANCH  11  13
ATOM     13  C   UNL     1      40.436 -77.263  34.263  1.00  0.00     0.064 A 
ATOM     14  C   UNL     1      40.934 -77.494  32.961  1.00  0.00     0.130 A 
ATOM     15  C   UNL     1      39.058 -77.044  34.438  1.00  0.00     0.020 A 
ATOM     16  C   UNL     1      40.049 -77.543  31.874  1.00  0.00     0.093 A 
ATOM     17  C   UNL     1      38.186 -77.089  33.348  1.00  0.00     0.047 A 
ATOM     18  C   UNL     1      38.679 -77.343  32.064  1.00  0.00     0.119 A 
BRANCH  14  19
ATOM     19  O   UNL     1      42.303 -77.646  32.742  1.00  0.00    -0.507 OA
ATOM     20  H   UNL     1      42.833 -76.976  32.199  1.00  0.00     0.293 HD
ENDBRANCH  14  19
BRANCH  18  21
ATOM     21  O   UNL     1      37.819 -77.395  30.969  1.00  0.00    -0.508 OA
ATOM     22  H   UNL     1      38.127 -77.745  30.070  1.00  0.00     0.293 HD
ENDBRANCH  18  21
ENDBRANCH  11  13
ENDBRANCH   2  11
TORSDOF 6
ENDMDL
MODEL 6
REMARK VINA RESULT:    -5.095     15.201     16.653
REMARK INTER + INTRA:          -6.999
REMARK INTER:                  -6.343
REMARK INTRA:                  -0.656
REMARK UNBOUND:                -0.564
REMARK SMILES O=C(C=Cc1ccc(O)cc1)c1ccc(O)cc1O
REMARK SMILES IDX 4 1 3 2 5 3 6 4 7 5 8 6 11 7 10 8 9 9 2 11 1 12 12 13 18 14
REMARK SMILES IDX 13 15 17 16 14 17 15 18 19 19 16 21
REMARK H PARENT 9 10 19 20 16 22
REMARK Flexibility Score: inf
ROOT
ATOM      1  C   UNL     1      35.688 -77.248  36.865  1.00  0.00     0.012 C 
ATOM      2  C   UNL     1      36.730 -78.080  36.729  1.00  0.00     0.053 C 
ENDROOT
BRANCH   1   3
ATOM      3  C   UNL     1      34.351 -77.501  36.275  1.00  0.00    -0.025 A 
ATOM      4  C   UNL     1      34.078 -77.308  34.906  1.00  0.00     0.012 A 
ATOM      5  C   UNL     1      32.804 -77.573  34.394  1.00  0.00     0.047 A 
ATOM      6  C   UNL     1      31.790 -78.043  35.234  1.00  0.00     0.115 A 
ATOM      7  C   UNL     1      33.329 -77.990  37.107  1.00  0.00     0.012 A 
ATOM      8  C   UNL     1      32.057 -78.253  36.593  1.00  0.00     0.047 A 
BRANCH   6   9
ATOM      9  O   UNL     1      30.526 -78.301  34.709  1.00  0.00    -0.508 OA
ATOM     10  H   UNL     1      30.101 -79.218  34.780  1.00  0.00     0.293 HD
ENDBRANCH   6   9
ENDBRANCH   1   3
BRANCH   2  11
ATOM     11  C   UNL     1      38.055 -77.787  37.318  1.00  0.00     0.189 C 
ATOM     12  O   UNL     1      38.839 -76.989  36.734  1.00  0.00    -0.289 OA
BRANCH  11  13
ATOM     13  C   UNL     1      38.503 -78.455  38.562  1.00  0.00     0.064 A 
ATOM     14  C   UNL     1      39.772 -79.069  38.665  1.00  0.00     0.130 A 
ATOM     15  C   UNL     1      37.630 -78.503  39.664  1.00  0.00     0.020 A 
ATOM     16  C   UNL     1      40.157 -79.677  39.869  1.00  0.00     0.093 A 
ATOM     17  C   UNL     1      38.021 -79.117  40.856  1.00  0.00     0.047 A 
ATOM     18  C   UNL     1      39.288 -79.701  40.963  1.00  0.00     0.119 A 
BRANCH  14  19
ATOM     19  O   UNL     1      40.635 -79.100  37.571  1.00  0.00    -0.507 OA
ATOM     20  H   UNL     1      40.289 -79.110  36.619  1.00  0.00     0.293 HD
ENDBRANCH  14  19
BRANCH  18  21
ATOM     21  O   UNL     1      39.691 -80.312  42.148  1.00  0.00    -0.508 OA
ATOM     22  H   UNL     1      40.616 -80.163  42.532  1.00  0.00     0.293 HD
ENDBRANCH  18  21
ENDBRANCH  11  13
ENDBRANCH   2  11
TORSDOF 6
ENDMDL
MODEL 7
REMARK VINA RESULT:    -5.051      3.109      7.239
REMARK INTER + INTRA:          -6.944
REMARK INTER:                  -6.233
REMARK INTRA:                  -0.710
REMARK UNBOUND:                -0.564
REMARK SMILES O=C(C=Cc1ccc(O)cc1)c1ccc(O)cc1O
REMARK SMILES IDX 4 1 3 2 5 3 6 4 7 5 8 6 11 7 10 8 9 9 2 11 1 12 12 13 18 14
REMARK SMILES IDX 13 15 17 16 14 17 15 18 19 19 16 21
REMARK H PARENT 9 10 19 20 16 22
REMARK Flexibility Score: inf
ROOT
ATOM      1  C   UNL     1      28.971 -95.996  41.017  1.00  0.00     0.012 C 
ATOM      2  C   UNL     1      28.916 -96.025  39.677  1.00  0.00     0.053 C 
ENDROOT
BRANCH   1   3
ATOM      3  C   UNL     1      27.771 -95.976  41.889  1.00  0.00    -0.025 A 
ATOM      4  C   UNL     1      27.833 -95.631  43.254  1.00  0.00     0.012 A 
ATOM      5  C   UNL     1      26.671 -95.614  44.032  1.00  0.00     0.047 A 
ATOM      6  C   UNL     1      25.435 -95.930  43.462  1.00  0.00     0.115 A 
ATOM      7  C   UNL     1      26.521 -96.275  41.321  1.00  0.00     0.012 A 
ATOM      8  C   UNL     1      25.363 -96.258  42.102  1.00  0.00     0.047 A 
BRANCH   6   9
ATOM      9  O   UNL     1      24.287 -95.910  44.251  1.00  0.00    -0.508 OA
ATOM     10  H   UNL     1      23.675 -95.103  44.273  1.00  0.00     0.293 HD
ENDBRANCH   6   9
ENDBRANCH   1   3
BRANCH   2  11
ATOM     11  C   UNL     1      30.134 -96.028  38.838  1.00  0.00     0.189 C 
ATOM     12  O   UNL     1      30.643 -97.123  38.474  1.00  0.00    -0.289 OA
BRANCH  11  13
ATOM     13  C   UNL     1      30.800 -94.762  38.455  1.00  0.00     0.064 A 
ATOM     14  C   UNL     1      32.180 -94.549  38.672  1.00  0.00     0.130 A 
ATOM     15  C   UNL     1      30.032 -93.731  37.884  1.00  0.00     0.020 A 
ATOM     16  C   UNL     1      32.770 -93.338  38.280  1.00  0.00     0.093 A 
ATOM     17  C   UNL     1      30.628 -92.527  37.503  1.00  0.00     0.047 A 
ATOM     18  C   UNL     1      32.000 -92.329  37.696  1.00  0.00     0.119 A 
BRANCH  14  19
ATOM     19  O   UNL     1      32.958 -95.522  39.298  1.00  0.00    -0.507 OA
ATOM     20  H   UNL     1      33.813 -95.870  38.883  1.00  0.00     0.293 HD
ENDBRANCH  14  19
BRANCH  18  21
ATOM     21  O   UNL     1      32.606 -91.134  37.316  1.00  0.00    -0.508 OA
ATOM     22  H   UNL     1      32.182 -90.237  37.520  1.00  0.00     0.293 HD
ENDBRANCH  18  21
ENDBRANCH  11  13
ENDBRANCH   2  11
TORSDOF 6
ENDMDL
MODEL 8
REMARK VINA RESULT:    -4.917      9.040     10.738
REMARK INTER + INTRA:          -6.775
REMARK INTER:                  -6.100
REMARK INTRA:                  -0.676
REMARK UNBOUND:                -0.564
REMARK SMILES O=C(C=Cc1ccc(O)cc1)c1ccc(O)cc1O
REMARK SMILES IDX 4 1 3 2 5 3 6 4 7 5 8 6 11 7 10 8 9 9 2 11 1 12 12 13 18 14
REMARK SMILES IDX 13 15 17 16 14 17 15 18 19 19 16 21
REMARK H PARENT 9 10 19 20 16 22
REMARK Flexibility Score: inf
ROOT
ATOM      1  C   UNL     1      40.772 -95.284  34.435  1.00  0.00     0.012 C 
ATOM      2  C   UNL     1      40.188 -94.487  35.342  1.00  0.00     0.053 C 
ENDROOT
BRANCH   1   3
ATOM      3  C   UNL     1      40.614 -95.115  32.970  1.00  0.00    -0.025 A 
ATOM      4  C   UNL     1      41.455 -95.758  32.038  1.00  0.00     0.012 A 
ATOM      5  C   UNL     1      41.258 -95.577  30.666  1.00  0.00     0.047 A 
ATOM      6  C   UNL     1      40.219 -94.766  30.203  1.00  0.00     0.115 A 
ATOM      7  C   UNL     1      39.562 -94.315  32.493  1.00  0.00     0.012 A 
ATOM      8  C   UNL     1      39.369 -94.136  31.121  1.00  0.00     0.047 A 
BRANCH   6   9
ATOM      9  O   UNL     1      40.037 -94.595  28.832  1.00  0.00    -0.508 OA
ATOM     10  H   UNL     1      40.223 -95.345  28.177  1.00  0.00     0.293 HD
ENDBRANCH   6   9
ENDBRANCH   1   3
BRANCH   2  11
ATOM     11  C   UNL     1      40.354 -94.695  36.797  1.00  0.00     0.189 C 
ATOM     12  O   UNL     1      41.467 -94.458  37.342  1.00  0.00    -0.289 OA
BRANCH  11  13
ATOM     13  C   UNL     1      39.246 -95.226  37.624  1.00  0.00     0.064 A 
ATOM     14  C   UNL     1      38.968 -94.721  38.914  1.00  0.00     0.130 A 
ATOM     15  C   UNL     1      38.465 -96.283  37.122  1.00  0.00     0.020 A 
ATOM     16  C   UNL     1      37.899 -95.247  39.654  1.00  0.00     0.093 A 
ATOM     17  C   UNL     1      37.407 -96.804  37.870  1.00  0.00     0.047 A 
ATOM     18  C   UNL     1      37.119 -96.283  39.136  1.00  0.00     0.119 A 
BRANCH  14  19
ATOM     19  O   UNL     1      39.764 -93.720  39.470  1.00  0.00    -0.507 OA
ATOM     20  H   UNL     1      39.396 -93.058  40.142  1.00  0.00     0.293 HD
ENDBRANCH  14  19
BRANCH  18  21
ATOM     21  O   UNL     1      36.063 -96.792  39.890  1.00  0.00    -0.508 OA
ATOM     22  H   UNL     1      35.160 -96.985  39.473  1.00  0.00     0.293 HD
ENDBRANCH  18  21
ENDBRANCH  11  13
ENDBRANCH   2  11
TORSDOF 6
ENDMDL
MODEL 9
REMARK VINA RESULT:    -4.841      9.217     10.504
REMARK INTER + INTRA:          -6.679
REMARK INTER:                  -5.923
REMARK INTRA:                  -0.756
REMARK UNBOUND:                -0.564
REMARK SMILES O=C(C=Cc1ccc(O)cc1)c1ccc(O)cc1O
REMARK SMILES IDX 4 1 3 2 5 3 6 4 7 5 8 6 11 7 10 8 9 9 2 11 1 12 12 13 18 14
REMARK SMILES IDX 13 15 17 16 14 17 15 18 19 19 16 21
REMARK H PARENT 9 10 19 20 16 22
REMARK Flexibility Score: inf
ROOT
ATOM      1  C   UNL     1      37.758 -95.038  31.661  1.00  0.00     0.012 C 
ATOM      2  C   UNL     1      37.565 -96.263  31.150  1.00  0.00     0.053 C 
ENDROOT
BRANCH   1   3
ATOM      3  C   UNL     1      38.479 -94.781  32.932  1.00  0.00    -0.025 A 
ATOM      4  C   UNL     1      37.908 -95.045  34.193  1.00  0.00     0.012 A 
ATOM      5  C   UNL     1      38.633 -94.798  35.363  1.00  0.00     0.047 A 
ATOM      6  C   UNL     1      39.936 -94.296  35.293  1.00  0.00     0.115 A 
ATOM      7  C   UNL     1      39.795 -94.293  32.872  1.00  0.00     0.012 A 
ATOM      8  C   UNL     1      40.516 -94.046  34.043  1.00  0.00     0.047 A 
BRANCH   6   9
ATOM      9  O   UNL     1      40.645 -94.054  36.468  1.00  0.00    -0.508 OA
ATOM     10  H   UNL     1      40.176 -93.981  37.363  1.00  0.00     0.293 HD
ENDBRANCH   6   9
ENDBRANCH   1   3
BRANCH   2  11
ATOM     11  C   UNL     1      36.826 -96.483  29.888  1.00  0.00     0.189 C 
ATOM     12  O   UNL     1      37.387 -97.083  28.929  1.00  0.00    -0.289 OA
BRANCH  11  13
ATOM     13  C   UNL     1      35.450 -95.966  29.708  1.00  0.00     0.064 A 
ATOM     14  C   UNL     1      35.121 -95.064  28.672  1.00  0.00     0.130 A 
ATOM     15  C   UNL     1      34.448 -96.364  30.610  1.00  0.00     0.020 A 
ATOM     16  C   UNL     1      33.801 -94.612  28.533  1.00  0.00     0.093 A 
ATOM     17  C   UNL     1      33.137 -95.904  30.467  1.00  0.00     0.047 A 
ATOM     18  C   UNL     1      32.809 -95.030  29.424  1.00  0.00     0.119 A 
BRANCH  14  19
ATOM     19  O   UNL     1      36.104 -94.595  27.801  1.00  0.00    -0.507 OA
ATOM     20  H   UNL     1      36.106 -93.640  27.463  1.00  0.00     0.293 HD
ENDBRANCH  14  19
BRANCH  18  21
ATOM     21  O   UNL     1      31.504 -94.568  29.268  1.00  0.00    -0.508 OA
ATOM     22  H   UNL     1      31.250 -93.948  28.508  1.00  0.00     0.293 HD
ENDBRANCH  18  21
ENDBRANCH  11  13
ENDBRANCH   2  11
TORSDOF 6
ENDMDL
