MODEL 1
REMARK VINA RESULT:    -4.443      0.000      0.000
REMARK INTER + INTRA:          -8.442
REMARK INTER:                  -6.131
REMARK INTRA:                  -2.311
REMARK UNBOUND:                -2.311
REMARK SMILES CC[C@@H](CC[C@@H](C)[C@@H]1CC[C@@H]2[C@@H]3CC=C4C[C@H](O)CC[C@]4(C)[C@H]3CC[C@@]21C)C(C)C
REMARK SMILES IDX 5 1 4 2 3 3 2 4 1 5 28 6 29 7 30 8 6 9 7 10 8 11 9 12 26 13
REMARK SMILES IDX 10 14 11 15 25 16 27 17 12 18 24 19 23 20 13 21 21 22 14 23
REMARK SMILES IDX 15 24 20 25 22 26 16 27 19 28 17 29 18 30
REMARK H PARENT 18 31
REMARK Flexibility Score: inf
ROOT
ATOM      1  C   UNL     1       2.347  -7.809  -6.867  1.00  0.00     0.004 C 
ENDROOT
BRANCH   1   2
ATOM      2  C   UNL     1       2.785  -6.722  -5.847  1.00  0.00     0.004 C 
BRANCH   2   3
ATOM      3  C   UNL     1       3.012  -7.264  -4.398  1.00  0.00    -0.009 C 
BRANCH   3   4
ATOM      4  C   UNL     1       2.565  -8.753  -4.293  1.00  0.00     0.000 C 
ATOM      5  C   UNL     1       1.340  -8.989  -3.408  1.00  0.00     0.004 C 
ENDBRANCH   3   4
BRANCH   3   6
ATOM      6  C   UNL     1       2.264  -6.358  -3.351  1.00  0.00    -0.014 C 
ATOM      7  C   UNL     1       1.879  -4.990  -3.954  1.00  0.00     0.007 C 
ATOM      8  C   UNL     1       3.082  -6.097  -2.069  1.00  0.00     0.007 C 
ENDBRANCH   3   6
ENDBRANCH   2   3
ENDBRANCH   1   2
BRANCH   1   9
ATOM      9  C   UNL     1       0.885  -7.642  -7.369  1.00  0.00    -0.011 C 
ATOM     10  C   UNL     1       0.196  -9.028  -7.459  1.00  0.00     0.008 C 
BRANCH   9  11
ATOM     11  C   UNL     1       0.141  -6.565  -6.501  1.00  0.00    -0.002 C 
ATOM     12  C   UNL     1      -0.879  -7.106  -5.485  1.00  0.00     0.005 C 
ATOM     13  C   UNL     1      -0.540  -5.344  -7.191  1.00  0.00    -0.026 C 
ATOM     14  C   UNL     1      -1.879  -5.975  -5.243  1.00  0.00     0.005 C 
ATOM     15  C   UNL     1      -1.359  -4.752  -6.020  1.00  0.00    -0.001 C 
ATOM     16  C   UNL     1      -1.488  -5.758  -8.352  1.00  0.00     0.007 C 
ATOM     17  C   UNL     1       0.527  -4.338  -7.693  1.00  0.00     0.012 C 
ATOM     18  C   UNL     1      -2.439  -3.700  -6.431  1.00  0.00     0.000 C 
ATOM     19  C   UNL     1      -2.449  -4.647  -8.777  1.00  0.00     0.005 C 
ATOM     20  C   UNL     1      -3.334  -4.166  -7.603  1.00  0.00     0.003 C 
ATOM     21  C   UNL     1      -3.302  -3.300  -5.221  1.00  0.00     0.031 C 
ATOM     22  C   UNL     1      -4.382  -3.057  -8.028  1.00  0.00    -0.008 C 
ATOM     23  C   UNL     1      -4.446  -2.404  -5.585  1.00  0.00    -0.027 C 
ATOM     24  C   UNL     1      -5.038  -2.410  -6.797  1.00  0.00    -0.065 C 
ATOM     25  C   UNL     1      -5.498  -3.728  -8.891  1.00  0.00     0.014 C 
ATOM     26  C   UNL     1      -3.708  -1.925  -8.854  1.00  0.00     0.016 C 
ATOM     27  C   UNL     1      -6.295  -1.580  -6.988  1.00  0.00     0.063 C 
ATOM     28  C   UNL     1      -6.719  -2.827  -9.140  1.00  0.00     0.033 C 
ATOM     29  C   UNL     1      -7.335  -2.336  -7.826  1.00  0.00     0.118 C 
BRANCH  29  30
ATOM     30  O   UNL     1      -7.843  -3.430  -7.104  1.00  0.00    -0.393 OA
ATOM     31  H   UNL     1      -8.483  -3.896  -7.702  1.00  0.00     0.210 HD
ENDBRANCH  29  30
ENDBRANCH   9  11
ENDBRANCH   1   9
TORSDOF 7
ENDMDL
MODEL 2
REMARK VINA RESULT:    -4.360      7.478     11.554
REMARK INTER + INTRA:          -8.328
REMARK INTER:                  -6.188
REMARK INTRA:                  -2.140
REMARK UNBOUND:                -2.311
REMARK SMILES CC[C@@H](CC[C@@H](C)[C@@H]1CC[C@@H]2[C@@H]3CC=C4C[C@H](O)CC[C@]4(C)[C@H]3CC[C@@]21C)C(C)C
REMARK SMILES IDX 5 1 4 2 3 3 2 4 1 5 28 6 29 7 30 8 6 9 7 10 8 11 9 12 26 13
REMARK SMILES IDX 10 14 11 15 25 16 27 17 12 18 24 19 23 20 13 21 21 22 14 23
REMARK SMILES IDX 15 24 20 25 22 26 16 27 19 28 17 29 18 30
REMARK H PARENT 18 31
REMARK Flexibility Score: inf
ROOT
ATOM      1  C   UNL     1       8.775   1.279  -1.063  1.00  0.00     0.004 C 
ENDROOT
BRANCH   1   2
ATOM      2  C   UNL     1       8.231   2.707  -0.785  1.00  0.00     0.004 C 
BRANCH   2   3
ATOM      3  C   UNL     1       7.353   3.289  -1.941  1.00  0.00    -0.009 C 
BRANCH   3   4
ATOM      4  C   UNL     1       5.901   3.560  -1.445  1.00  0.00     0.000 C 
ATOM      5  C   UNL     1       5.734   3.539   0.076  1.00  0.00     0.004 C 
ENDBRANCH   3   4
BRANCH   3   6
ATOM      6  C   UNL     1       7.373   2.323  -3.183  1.00  0.00    -0.014 C 
ATOM      7  C   UNL     1       8.086   2.965  -4.392  1.00  0.00     0.007 C 
ATOM      8  C   UNL     1       5.967   1.883  -3.641  1.00  0.00     0.007 C 
ENDBRANCH   3   6
ENDBRANCH   2   3
ENDBRANCH   1   2
BRANCH   1   9
ATOM      9  C   UNL     1       8.096   0.173  -0.207  1.00  0.00    -0.011 C 
ATOM     10  C   UNL     1       7.805   0.711   1.217  1.00  0.00     0.008 C 
BRANCH   9  11
ATOM     11  C   UNL     1       6.861  -0.418  -0.979  1.00  0.00    -0.002 C 
ATOM     12  C   UNL     1       5.478  -0.045  -0.422  1.00  0.00     0.005 C 
ATOM     13  C   UNL     1       6.803  -1.941  -1.304  1.00  0.00    -0.026 C 
ATOM     14  C   UNL     1       4.527  -1.158  -0.865  1.00  0.00     0.005 C 
ATOM     15  C   UNL     1       5.339  -2.094  -1.780  1.00  0.00    -0.001 C 
ATOM     16  C   UNL     1       7.057  -2.835  -0.057  1.00  0.00     0.007 C 
ATOM     17  C   UNL     1       7.799  -2.295  -2.437  1.00  0.00     0.012 C 
ATOM     18  C   UNL     1       4.821  -3.565  -1.874  1.00  0.00     0.000 C 
ATOM     19  C   UNL     1       6.625  -4.288  -0.253  1.00  0.00     0.005 C 
ATOM     20  C   UNL     1       5.124  -4.404  -0.610  1.00  0.00     0.003 C 
ATOM     21  C   UNL     1       3.317  -3.597  -2.193  1.00  0.00     0.031 C 
ATOM     22  C   UNL     1       4.634  -5.902  -0.759  1.00  0.00    -0.008 C 
ATOM     23  C   UNL     1       2.735  -4.977  -2.153  1.00  0.00    -0.027 C 
ATOM     24  C   UNL     1       3.230  -5.969  -1.384  1.00  0.00    -0.065 C 
ATOM     25  C   UNL     1       4.578  -6.555   0.659  1.00  0.00     0.014 C 
ATOM     26  C   UNL     1       5.593  -6.726  -1.665  1.00  0.00     0.016 C 
ATOM     27  C   UNL     1       2.452  -7.270  -1.299  1.00  0.00     0.063 C 
ATOM     28  C   UNL     1       3.860  -7.914   0.692  1.00  0.00     0.033 C 
ATOM     29  C   UNL     1       2.437  -7.814   0.136  1.00  0.00     0.118 C 
BRANCH  29  30
ATOM     30  O   UNL     1       1.662  -6.985   0.964  1.00  0.00    -0.393 OA
ATOM     31  H   UNL     1       1.632  -6.093   0.530  1.00  0.00     0.210 HD
ENDBRANCH  29  30
ENDBRANCH   9  11
ENDBRANCH   1   9
TORSDOF 7
ENDMDL
MODEL 3
REMARK VINA RESULT:    -4.309     10.976     13.354
REMARK INTER + INTRA:          -8.258
REMARK INTER:                  -5.929
REMARK INTRA:                  -2.328
REMARK UNBOUND:                -2.311
REMARK SMILES CC[C@@H](CC[C@@H](C)[C@@H]1CC[C@@H]2[C@@H]3CC=C4C[C@H](O)CC[C@]4(C)[C@H]3CC[C@@]21C)C(C)C
REMARK SMILES IDX 5 1 4 2 3 3 2 4 1 5 28 6 29 7 30 8 6 9 7 10 8 11 9 12 26 13
REMARK SMILES IDX 10 14 11 15 25 16 27 17 12 18 24 19 23 20 13 21 21 22 14 23
REMARK SMILES IDX 15 24 20 25 22 26 16 27 19 28 17 29 18 30
REMARK H PARENT 18 31
REMARK Flexibility Score: inf
ROOT
ATOM      1  C   UNL     1       5.620   0.951  -0.276  1.00  0.00     0.004 C 
ENDROOT
BRANCH   1   2
ATOM      2  C   UNL     1       6.089  -0.076  -1.343  1.00  0.00     0.004 C 
BRANCH   2   3
ATOM      3  C   UNL     1       7.393  -0.846  -0.953  1.00  0.00    -0.009 C 
BRANCH   3   4
ATOM      4  C   UNL     1       8.057  -0.202   0.301  1.00  0.00     0.000 C 
ATOM      5  C   UNL     1       8.246  -1.157   1.482  1.00  0.00     0.004 C 
ENDBRANCH   3   4
BRANCH   3   6
ATOM      6  C   UNL     1       8.385  -0.897  -2.174  1.00  0.00    -0.014 C 
ATOM      7  C   UNL     1       9.616   0.005  -1.945  1.00  0.00     0.007 C 
ATOM      8  C   UNL     1       7.737  -0.483  -3.510  1.00  0.00     0.007 C 
ENDBRANCH   3   6
ENDBRANCH   2   3
ENDBRANCH   1   2
BRANCH   1   9
ATOM      9  C   UNL     1       5.615   2.421  -0.782  1.00  0.00    -0.011 C 
ATOM     10  C   UNL     1       5.976   3.380   0.381  1.00  0.00     0.008 C 
BRANCH   9  11
ATOM     11  C   UNL     1       6.504   2.545  -2.071  1.00  0.00    -0.002 C 
ATOM     12  C   UNL     1       7.880   3.204  -1.879  1.00  0.00     0.005 C 
ATOM     13  C   UNL     1       5.906   3.161  -3.373  1.00  0.00    -0.026 C 
ATOM     14  C   UNL     1       8.268   3.782  -3.240  1.00  0.00     0.005 C 
ATOM     15  C   UNL     1       7.177   3.343  -4.234  1.00  0.00    -0.001 C 
ATOM     16  C   UNL     1       5.221   4.536  -3.130  1.00  0.00     0.007 C 
ATOM     17  C   UNL     1       4.916   2.171  -4.037  1.00  0.00     0.012 C 
ATOM     18  C   UNL     1       7.002   4.251  -5.493  1.00  0.00     0.000 C 
ATOM     19  C   UNL     1       4.982   5.330  -4.415  1.00  0.00     0.005 C 
ATOM     20  C   UNL     1       6.297   5.594  -5.187  1.00  0.00     0.003 C 
ATOM     21  C   UNL     1       8.354   4.498  -6.183  1.00  0.00     0.031 C 
ATOM     22  C   UNL     1       6.088   6.466  -6.492  1.00  0.00    -0.008 C 
ATOM     23  C   UNL     1       8.269   5.480  -7.311  1.00  0.00    -0.027 C 
ATOM     24  C   UNL     1       7.350   6.467  -7.370  1.00  0.00    -0.065 C 
ATOM     25  C   UNL     1       5.778   7.937  -6.066  1.00  0.00     0.014 C 
ATOM     26  C   UNL     1       4.913   5.925  -7.355  1.00  0.00     0.016 C 
ATOM     27  C   UNL     1       7.473   7.500  -8.475  1.00  0.00     0.063 C 
ATOM     28  C   UNL     1       5.824   8.944  -7.227  1.00  0.00     0.033 C 
ATOM     29  C   UNL     1       7.174   8.911  -7.949  1.00  0.00     0.118 C 
BRANCH  29  30
ATOM     30  O   UNL     1       8.190   9.332  -7.074  1.00  0.00    -0.393 OA
ATOM     31  H   UNL     1       7.826   9.255  -6.154  1.00  0.00     0.210 HD
ENDBRANCH  29  30
ENDBRANCH   9  11
ENDBRANCH   1   9
TORSDOF 7
ENDMDL
MODEL 4
REMARK VINA RESULT:    -4.221      3.391      8.526
REMARK INTER + INTRA:          -8.136
REMARK INTER:                  -6.354
REMARK INTRA:                  -1.783
REMARK UNBOUND:                -2.311
REMARK SMILES CC[C@@H](CC[C@@H](C)[C@@H]1CC[C@@H]2[C@@H]3CC=C4C[C@H](O)CC[C@]4(C)[C@H]3CC[C@@]21C)C(C)C
REMARK SMILES IDX 5 1 4 2 3 3 2 4 1 5 28 6 29 7 30 8 6 9 7 10 8 11 9 12 26 13
REMARK SMILES IDX 10 14 11 15 25 16 27 17 12 18 24 19 23 20 13 21 21 22 14 23
REMARK SMILES IDX 15 24 20 25 22 26 16 27 19 28 17 29 18 30
REMARK H PARENT 18 31
REMARK Flexibility Score: inf
ROOT
ATOM      1  C   UNL     1      -6.027   2.413  -6.639  1.00  0.00     0.004 C 
ENDROOT
BRANCH   1   2
ATOM      2  C   UNL     1      -4.827   3.097  -5.930  1.00  0.00     0.004 C 
BRANCH   2   3
ATOM      3  C   UNL     1      -4.580   2.594  -4.470  1.00  0.00    -0.009 C 
BRANCH   3   4
ATOM      4  C   UNL     1      -5.142   3.615  -3.435  1.00  0.00     0.000 C 
ATOM      5  C   UNL     1      -6.083   3.011  -2.391  1.00  0.00     0.004 C 
ENDBRANCH   3   4
BRANCH   3   6
ATOM      6  C   UNL     1      -3.049   2.314  -4.238  1.00  0.00    -0.014 C 
ATOM      7  C   UNL     1      -2.412   3.370  -3.309  1.00  0.00     0.007 C 
ATOM      8  C   UNL     1      -2.227   2.273  -5.542  1.00  0.00     0.007 C 
ENDBRANCH   3   6
ENDBRANCH   2   3
ENDBRANCH   1   2
BRANCH   1   9
ATOM      9  C   UNL     1      -6.433   1.051  -6.009  1.00  0.00    -0.011 C 
ATOM     10  C   UNL     1      -7.861   1.149  -5.416  1.00  0.00     0.008 C 
BRANCH   9  11
ATOM     11  C   UNL     1      -6.202  -0.108  -7.045  1.00  0.00    -0.002 C 
ATOM     12  C   UNL     1      -7.179  -1.291  -6.960  1.00  0.00     0.005 C 
ATOM     13  C   UNL     1      -4.781  -0.728  -7.214  1.00  0.00    -0.026 C 
ATOM     14  C   UNL     1      -6.441  -2.495  -7.546  1.00  0.00     0.005 C 
ATOM     15  C   UNL     1      -5.095  -1.971  -8.080  1.00  0.00    -0.001 C 
ATOM     16  C   UNL     1      -4.148  -1.163  -5.862  1.00  0.00     0.007 C 
ATOM     17  C   UNL     1      -3.845   0.254  -7.961  1.00  0.00     0.012 C 
ATOM     18  C   UNL     1      -3.945  -3.024  -8.170  1.00  0.00     0.000 C 
ATOM     19  C   UNL     1      -2.960  -2.112  -6.025  1.00  0.00     0.005 C 
ATOM     20  C   UNL     1      -3.346  -3.398  -6.793  1.00  0.00     0.003 C 
ATOM     21  C   UNL     1      -4.415  -4.287  -8.913  1.00  0.00     0.031 C 
ATOM     22  C   UNL     1      -2.149  -4.426  -6.925  1.00  0.00    -0.008 C 
ATOM     23  C   UNL     1      -3.400  -5.388  -8.903  1.00  0.00    -0.027 C 
ATOM     24  C   UNL     1      -2.484  -5.546  -7.925  1.00  0.00    -0.065 C 
ATOM     25  C   UNL     1      -1.886  -5.071  -5.527  1.00  0.00     0.014 C 
ATOM     26  C   UNL     1      -0.850  -3.727  -7.419  1.00  0.00     0.016 C 
ATOM     27  C   UNL     1      -1.624  -6.797  -7.939  1.00  0.00     0.063 C 
ATOM     28  C   UNL     1      -0.940  -6.282  -5.567  1.00  0.00     0.033 C 
ATOM     29  C   UNL     1      -1.448  -7.364  -6.524  1.00  0.00     0.118 C 
BRANCH  29  30
ATOM     30  O   UNL     1      -2.665  -7.882  -6.050  1.00  0.00    -0.393 OA
ATOM     31  H   UNL     1      -3.240  -7.104  -5.828  1.00  0.00     0.210 HD
ENDBRANCH  29  30
ENDBRANCH   9  11
ENDBRANCH   1   9
TORSDOF 7
ENDMDL
MODEL 5
REMARK VINA RESULT:    -4.193      3.003      8.291
REMARK INTER + INTRA:          -8.097
REMARK INTER:                  -5.735
REMARK INTRA:                  -2.363
REMARK UNBOUND:                -2.311
REMARK SMILES CC[C@@H](CC[C@@H](C)[C@@H]1CC[C@@H]2[C@@H]3CC=C4C[C@H](O)CC[C@]4(C)[C@H]3CC[C@@]21C)C(C)C
REMARK SMILES IDX 5 1 4 2 3 3 2 4 1 5 28 6 29 7 30 8 6 9 7 10 8 11 9 12 26 13
REMARK SMILES IDX 10 14 11 15 25 16 27 17 12 18 24 19 23 20 13 21 21 22 14 23
REMARK SMILES IDX 15 24 20 25 22 26 16 27 19 28 17 29 18 30
REMARK H PARENT 18 31
REMARK Flexibility Score: inf
ROOT
ATOM      1  C   UNL     1      -2.479  -2.680  -8.322  1.00  0.00     0.004 C 
ENDROOT
BRANCH   1   2
ATOM      2  C   UNL     1      -1.866  -3.707  -9.313  1.00  0.00     0.004 C 
BRANCH   2   3
ATOM      3  C   UNL     1      -2.894  -4.750  -9.863  1.00  0.00    -0.009 C 
BRANCH   3   4
ATOM      4  C   UNL     1      -4.209  -4.718  -9.027  1.00  0.00     0.000 C 
ATOM      5  C   UNL     1      -5.485  -4.551  -9.855  1.00  0.00     0.004 C 
ENDBRANCH   3   4
BRANCH   3   6
ATOM      6  C   UNL     1      -2.256  -6.188  -9.886  1.00  0.00    -0.014 C 
ATOM      7  C   UNL     1      -2.912  -7.119  -8.845  1.00  0.00     0.007 C 
ATOM      8  C   UNL     1      -0.735  -6.190  -9.631  1.00  0.00     0.007 C 
ENDBRANCH   3   6
ENDBRANCH   2   3
ENDBRANCH   1   2
BRANCH   1   9
ATOM      9  C   UNL     1      -1.920  -2.796  -6.876  1.00  0.00    -0.011 C 
ATOM     10  C   UNL     1      -2.969  -2.274  -5.861  1.00  0.00     0.008 C 
BRANCH   9  11
ATOM     11  C   UNL     1      -1.393  -4.255  -6.622  1.00  0.00    -0.002 C 
ATOM     12  C   UNL     1      -2.315  -5.171  -5.802  1.00  0.00     0.005 C 
ATOM     13  C   UNL     1       0.047  -4.476  -6.066  1.00  0.00    -0.026 C 
ATOM     14  C   UNL     1      -1.408  -6.222  -5.160  1.00  0.00     0.005 C 
ATOM     15  C   UNL     1       0.008  -5.982  -5.715  1.00  0.00    -0.001 C 
ATOM     16  C   UNL     1       0.336  -3.636  -4.790  1.00  0.00     0.007 C 
ATOM     17  C   UNL     1       1.103  -4.183  -7.161  1.00  0.00     0.012 C 
ATOM     18  C   UNL     1       1.183  -6.485  -4.816  1.00  0.00     0.000 C 
ATOM     19  C   UNL     1       1.562  -4.115  -4.012  1.00  0.00     0.005 C 
ATOM     20  C   UNL     1       1.430  -5.594  -3.576  1.00  0.00     0.003 C 
ATOM     21  C   UNL     1       0.962  -7.947  -4.393  1.00  0.00     0.031 C 
ATOM     22  C   UNL     1       2.660  -6.100  -2.717  1.00  0.00    -0.008 C 
ATOM     23  C   UNL     1       1.982  -8.437  -3.412  1.00  0.00    -0.027 C 
ATOM     24  C   UNL     1       2.629  -7.629  -2.546  1.00  0.00    -0.065 C 
ATOM     25  C   UNL     1       2.587  -5.441  -1.302  1.00  0.00     0.014 C 
ATOM     26  C   UNL     1       4.014  -5.728  -3.386  1.00  0.00     0.016 C 
ATOM     27  C   UNL     1       3.511  -8.266  -1.489  1.00  0.00     0.063 C 
ATOM     28  C   UNL     1       3.559  -6.053  -0.279  1.00  0.00     0.033 C 
ATOM     29  C   UNL     1       3.348  -7.563  -0.134  1.00  0.00     0.118 C 
BRANCH  29  30
ATOM     30  O   UNL     1       2.071  -7.815   0.396  1.00  0.00    -0.393 OA
ATOM     31  H   UNL     1       1.532  -6.995   0.246  1.00  0.00     0.210 HD
ENDBRANCH  29  30
ENDBRANCH   9  11
ENDBRANCH   1   9
TORSDOF 7
ENDMDL
MODEL 6
REMARK VINA RESULT:    -4.173      6.211     10.570
REMARK INTER + INTRA:          -8.069
REMARK INTER:                  -6.334
REMARK INTRA:                  -1.736
REMARK UNBOUND:                -2.311
REMARK SMILES CC[C@@H](CC[C@@H](C)[C@@H]1CC[C@@H]2[C@@H]3CC=C4C[C@H](O)CC[C@]4(C)[C@H]3CC[C@@]21C)C(C)C
REMARK SMILES IDX 5 1 4 2 3 3 2 4 1 5 28 6 29 7 30 8 6 9 7 10 8 11 9 12 26 13
REMARK SMILES IDX 10 14 11 15 25 16 27 17 12 18 24 19 23 20 13 21 21 22 14 23
REMARK SMILES IDX 15 24 20 25 22 26 16 27 19 28 17 29 18 30
REMARK H PARENT 18 31
REMARK Flexibility Score: inf
ROOT
ATOM      1  C   UNL     1       2.929  -7.157  -2.347  1.00  0.00     0.004 C 
ENDROOT
BRANCH   1   2
ATOM      2  C   UNL     1       2.619  -6.891  -3.846  1.00  0.00     0.004 C 
BRANCH   2   3
ATOM      3  C   UNL     1       1.132  -6.498  -4.127  1.00  0.00    -0.009 C 
BRANCH   3   4
ATOM      4  C   UNL     1       0.384  -7.660  -4.846  1.00  0.00     0.000 C 
ATOM      5  C   UNL     1      -0.871  -7.233  -5.610  1.00  0.00     0.004 C 
ENDBRANCH   3   4
BRANCH   3   6
ATOM      6  C   UNL     1       1.065  -5.162  -4.957  1.00  0.00    -0.014 C 
ATOM      7  C   UNL     1       2.239  -5.053  -5.954  1.00  0.00     0.007 C 
ATOM      8  C   UNL     1       1.069  -3.893  -4.080  1.00  0.00     0.007 C 
ENDBRANCH   3   6
ENDBRANCH   2   3
ENDBRANCH   1   2
BRANCH   1   9
ATOM      9  C   UNL     1       2.997  -5.866  -1.483  1.00  0.00    -0.011 C 
ATOM     10  C   UNL     1       2.342  -6.121  -0.101  1.00  0.00     0.008 C 
BRANCH   9  11
ATOM     11  C   UNL     1       4.470  -5.321  -1.450  1.00  0.00    -0.002 C 
ATOM     12  C   UNL     1       5.220  -5.486  -0.119  1.00  0.00     0.005 C 
ATOM     13  C   UNL     1       4.775  -3.874  -1.945  1.00  0.00    -0.026 C 
ATOM     14  C   UNL     1       6.290  -4.394  -0.095  1.00  0.00     0.005 C 
ATOM     15  C   UNL     1       6.234  -3.691  -1.464  1.00  0.00    -0.001 C 
ATOM     16  C   UNL     1       3.856  -2.806  -1.287  1.00  0.00     0.007 C 
ATOM     17  C   UNL     1       4.680  -3.795  -3.489  1.00  0.00     0.012 C 
ATOM     18  C   UNL     1       6.763  -2.222  -1.493  1.00  0.00     0.000 C 
ATOM     19  C   UNL     1       4.378  -1.377  -1.443  1.00  0.00     0.005 C 
ATOM     20  C   UNL     1       5.794  -1.208  -0.842  1.00  0.00     0.003 C 
ATOM     21  C   UNL     1       8.155  -2.128  -0.846  1.00  0.00     0.031 C 
ATOM     22  C   UNL     1       6.336   0.277  -0.935  1.00  0.00    -0.008 C 
ATOM     23  C   UNL     1       8.651  -0.720  -0.715  1.00  0.00    -0.027 C 
ATOM     24  C   UNL     1       7.834   0.347  -0.592  1.00  0.00    -0.065 C 
ATOM     25  C   UNL     1       5.551   1.162   0.085  1.00  0.00     0.014 C 
ATOM     26  C   UNL     1       6.152   0.860  -2.365  1.00  0.00     0.016 C 
ATOM     27  C   UNL     1       8.455   1.699  -0.295  1.00  0.00     0.063 C 
ATOM     28  C   UNL     1       6.158   2.559   0.295  1.00  0.00     0.033 C 
ATOM     29  C   UNL     1       7.624   2.477   0.734  1.00  0.00     0.118 C 
BRANCH  29  30
ATOM     30  O   UNL     1       7.707   1.862   1.995  1.00  0.00    -0.393 OA
ATOM     31  H   UNL     1       8.489   1.251   1.965  1.00  0.00     0.210 HD
ENDBRANCH  29  30
ENDBRANCH   9  11
ENDBRANCH   1   9
TORSDOF 7
ENDMDL
MODEL 7
REMARK VINA RESULT:    -4.154      2.664      8.449
REMARK INTER + INTRA:          -8.044
REMARK INTER:                  -5.755
REMARK INTRA:                  -2.289
REMARK UNBOUND:                -2.311
REMARK SMILES CC[C@@H](CC[C@@H](C)[C@@H]1CC[C@@H]2[C@@H]3CC=C4C[C@H](O)CC[C@]4(C)[C@H]3CC[C@@]21C)C(C)C
REMARK SMILES IDX 5 1 4 2 3 3 2 4 1 5 28 6 29 7 30 8 6 9 7 10 8 11 9 12 26 13
REMARK SMILES IDX 10 14 11 15 25 16 27 17 12 18 24 19 23 20 13 21 21 22 14 23
REMARK SMILES IDX 15 24 20 25 22 26 16 27 19 28 17 29 18 30
REMARK H PARENT 18 31
REMARK Flexibility Score: inf
ROOT
ATOM      1  C   UNL     1      -4.147  -0.189  -8.356  1.00  0.00     0.004 C 
ENDROOT
BRANCH   1   2
ATOM      2  C   UNL     1      -4.526  -1.443  -9.192  1.00  0.00     0.004 C 
BRANCH   2   3
ATOM      3  C   UNL     1      -6.014  -1.893  -9.024  1.00  0.00    -0.009 C 
BRANCH   3   4
ATOM      4  C   UNL     1      -6.706  -1.087  -7.884  1.00  0.00     0.000 C 
ATOM      5  C   UNL     1      -6.994  -1.895  -6.618  1.00  0.00     0.004 C 
ENDBRANCH   3   4
BRANCH   3   6
ATOM      6  C   UNL     1      -6.092  -3.444  -8.769  1.00  0.00    -0.014 C 
ATOM      7  C   UNL     1      -4.804  -4.161  -9.226  1.00  0.00     0.007 C 
ATOM      8  C   UNL     1      -7.287  -4.123  -9.470  1.00  0.00     0.007 C 
ENDBRANCH   3   6
ENDBRANCH   2   3
ENDBRANCH   1   2
BRANCH   1   9
ATOM      9  C   UNL     1      -3.039  -0.454  -7.298  1.00  0.00    -0.011 C 
ATOM     10  C   UNL     1      -3.223   0.499  -6.090  1.00  0.00     0.008 C 
BRANCH   9  11
ATOM     11  C   UNL     1      -2.982  -1.987  -6.956  1.00  0.00    -0.002 C 
ATOM     12  C   UNL     1      -3.568  -2.395  -5.595  1.00  0.00     0.005 C 
ATOM     13  C   UNL     1      -1.640  -2.767  -7.103  1.00  0.00    -0.026 C 
ATOM     14  C   UNL     1      -2.872  -3.700  -5.207  1.00  0.00     0.005 C 
ATOM     15  C   UNL     1      -1.987  -4.101  -6.401  1.00  0.00    -0.001 C 
ATOM     16  C   UNL     1      -0.454  -2.071  -6.376  1.00  0.00     0.007 C 
ATOM     17  C   UNL     1      -1.303  -2.993  -8.599  1.00  0.00     0.012 C 
ATOM     18  C   UNL     1      -0.763  -5.011  -6.062  1.00  0.00     0.000 C 
ATOM     19  C   UNL     1       0.753  -2.987  -6.170  1.00  0.00     0.005 C 
ATOM     20  C   UNL     1       0.388  -4.253  -5.359  1.00  0.00     0.003 C 
ATOM     21  C   UNL     1      -1.198  -6.225  -5.225  1.00  0.00     0.031 C 
ATOM     22  C   UNL     1       1.632  -5.191  -5.078  1.00  0.00    -0.008 C 
ATOM     23  C   UNL     1      -0.046  -7.056  -4.748  1.00  0.00    -0.027 C 
ATOM     24  C   UNL     1       1.188  -6.557  -4.526  1.00  0.00    -0.065 C 
ATOM     25  C   UNL     1       2.550  -4.502  -4.018  1.00  0.00     0.014 C 
ATOM     26  C   UNL     1       2.453  -5.451  -6.373  1.00  0.00     0.016 C 
ATOM     27  C   UNL     1       2.224  -7.459  -3.882  1.00  0.00     0.063 C 
ATOM     28  C   UNL     1       3.645  -5.420  -3.451  1.00  0.00     0.033 C 
ATOM     29  C   UNL     1       3.054  -6.695  -2.841  1.00  0.00     0.118 C 
BRANCH  29  30
ATOM     30  O   UNL     1       2.259  -6.364  -1.730  1.00  0.00    -0.393 OA
ATOM     31  H   UNL     1       1.520  -5.792  -2.066  1.00  0.00     0.210 HD
ENDBRANCH  29  30
ENDBRANCH   9  11
ENDBRANCH   1   9
TORSDOF 7
ENDMDL
MODEL 8
REMARK VINA RESULT:    -4.153     11.327     14.734
REMARK INTER + INTRA:          -8.042
REMARK INTER:                  -5.983
REMARK INTRA:                  -2.059
REMARK UNBOUND:                -2.311
REMARK SMILES CC[C@@H](CC[C@@H](C)[C@@H]1CC[C@@H]2[C@@H]3CC=C4C[C@H](O)CC[C@]4(C)[C@H]3CC[C@@]21C)C(C)C
REMARK SMILES IDX 5 1 4 2 3 3 2 4 1 5 28 6 29 7 30 8 6 9 7 10 8 11 9 12 26 13
REMARK SMILES IDX 10 14 11 15 25 16 27 17 12 18 24 19 23 20 13 21 21 22 14 23
REMARK SMILES IDX 15 24 20 25 22 26 16 27 19 28 17 29 18 30
REMARK H PARENT 18 31
REMARK Flexibility Score: inf
ROOT
ATOM      1  C   UNL     1       3.869   6.295  -8.213  1.00  0.00     0.004 C 
ENDROOT
BRANCH   1   2
ATOM      2  C   UNL     1       5.202   7.079  -8.357  1.00  0.00     0.004 C 
BRANCH   2   3
ATOM      3  C   UNL     1       5.094   8.591  -7.972  1.00  0.00    -0.009 C 
BRANCH   3   4
ATOM      4  C   UNL     1       6.232   8.988  -6.984  1.00  0.00     0.000 C 
ATOM      5  C   UNL     1       7.467   8.087  -7.040  1.00  0.00     0.004 C 
ENDBRANCH   3   4
BRANCH   3   6
ATOM      6  C   UNL     1       3.672   8.905  -7.376  1.00  0.00    -0.014 C 
ATOM      7  C   UNL     1       2.948  10.006  -8.179  1.00  0.00     0.007 C 
ATOM      8  C   UNL     1       3.708   9.343  -5.897  1.00  0.00     0.007 C 
ENDBRANCH   3   6
ENDBRANCH   2   3
ENDBRANCH   1   2
BRANCH   1   9
ATOM      9  C   UNL     1       3.977   5.039  -7.303  1.00  0.00    -0.011 C 
ATOM     10  C   UNL     1       3.756   3.756  -8.145  1.00  0.00     0.008 C 
BRANCH   9  11
ATOM     11  C   UNL     1       5.312   5.091  -6.477  1.00  0.00    -0.002 C 
ATOM     12  C   UNL     1       6.416   4.116  -6.918  1.00  0.00     0.005 C 
ATOM     13  C   UNL     1       5.267   5.020  -4.920  1.00  0.00    -0.026 C 
ATOM     14  C   UNL     1       7.290   3.877  -5.686  1.00  0.00     0.005 C 
ATOM     15  C   UNL     1       6.762   4.812  -4.582  1.00  0.00    -0.001 C 
ATOM     16  C   UNL     1       4.427   3.821  -4.395  1.00  0.00     0.007 C 
ATOM     17  C   UNL     1       4.740   6.352  -4.330  1.00  0.00     0.012 C 
ATOM     18  C   UNL     1       7.055   4.361  -3.115  1.00  0.00     0.000 C 
ATOM     19  C   UNL     1       4.684   3.499  -2.922  1.00  0.00     0.005 C 
ATOM     20  C   UNL     1       6.173   3.179  -2.650  1.00  0.00     0.003 C 
ATOM     21  C   UNL     1       8.545   4.026  -2.933  1.00  0.00     0.031 C 
ATOM     22  C   UNL     1       6.458   2.783  -1.143  1.00  0.00    -0.008 C 
ATOM     23  C   UNL     1       8.858   3.450  -1.586  1.00  0.00    -0.027 C 
ATOM     24  C   UNL     1       7.968   2.751  -0.851  1.00  0.00    -0.065 C 
ATOM     25  C   UNL     1       5.871   1.360  -0.880  1.00  0.00     0.014 C 
ATOM     26  C   UNL     1       5.808   3.795  -0.156  1.00  0.00     0.016 C 
ATOM     27  C   UNL     1       8.454   2.074   0.417  1.00  0.00     0.063 C 
ATOM     28  C   UNL     1       6.314   0.740   0.455  1.00  0.00     0.033 C 
ATOM     29  C   UNL     1       7.840   0.675   0.569  1.00  0.00     0.118 C 
BRANCH  29  30
ATOM     30  O   UNL     1       8.352  -0.192  -0.412  1.00  0.00    -0.393 OA
ATOM     31  H   UNL     1       7.589  -0.451  -0.992  1.00  0.00     0.210 HD
ENDBRANCH  29  30
ENDBRANCH   9  11
ENDBRANCH   1   9
TORSDOF 7
ENDMDL
MODEL 9
REMARK VINA RESULT:    -4.131      7.317     11.216
REMARK INTER + INTRA:          -8.012
REMARK INTER:                  -5.669
REMARK INTRA:                  -2.343
REMARK UNBOUND:                -2.311
REMARK SMILES CC[C@@H](CC[C@@H](C)[C@@H]1CC[C@@H]2[C@@H]3CC=C4C[C@H](O)CC[C@]4(C)[C@H]3CC[C@@]21C)C(C)C
REMARK SMILES IDX 5 1 4 2 3 3 2 4 1 5 28 6 29 7 30 8 6 9 7 10 8 11 9 12 26 13
REMARK SMILES IDX 10 14 11 15 25 16 27 17 12 18 24 19 23 20 13 21 21 22 14 23
REMARK SMILES IDX 15 24 20 25 22 26 16 27 19 28 17 29 18 30
REMARK H PARENT 18 31
REMARK Flexibility Score: inf
ROOT
ATOM      1  C   UNL     1      -1.766   6.932  -1.900  1.00  0.00     0.004 C 
ENDROOT
BRANCH   1   2
ATOM      2  C   UNL     1      -2.885   7.741  -2.611  1.00  0.00     0.004 C 
BRANCH   2   3
ATOM      3  C   UNL     1      -3.958   8.332  -1.638  1.00  0.00    -0.009 C 
BRANCH   3   4
ATOM      4  C   UNL     1      -3.828   7.690  -0.223  1.00  0.00     0.000 C 
ATOM      5  C   UNL     1      -3.577   8.689   0.908  1.00  0.00     0.004 C 
ENDBRANCH   3   4
BRANCH   3   6
ATOM      6  C   UNL     1      -5.403   8.139  -2.232  1.00  0.00    -0.014 C 
ATOM      7  C   UNL     1      -6.229   7.130  -1.406  1.00  0.00     0.007 C 
ATOM      8  C   UNL     1      -5.405   7.663  -3.700  1.00  0.00     0.007 C 
ENDBRANCH   3   6
ENDBRANCH   2   3
ENDBRANCH   1   2
BRANCH   1   9
ATOM      9  C   UNL     1      -1.775   5.416  -2.242  1.00  0.00    -0.011 C 
ATOM     10  C   UNL     1      -1.368   4.590  -0.996  1.00  0.00     0.008 C 
BRANCH   9  11
ATOM     11  C   UNL     1      -3.147   5.026  -2.902  1.00  0.00    -0.002 C 
ATOM     12  C   UNL     1      -4.133   4.261  -2.003  1.00  0.00     0.005 C 
ATOM     13  C   UNL     1      -3.169   4.304  -4.284  1.00  0.00    -0.026 C 
ATOM     14  C   UNL     1      -5.038   3.466  -2.945  1.00  0.00     0.005 C 
ATOM     15  C   UNL     1      -4.652   3.876  -4.379  1.00  0.00    -0.001 C 
ATOM     16  C   UNL     1      -2.247   3.053  -4.325  1.00  0.00     0.007 C 
ATOM     17  C   UNL     1      -2.797   5.291  -5.419  1.00  0.00     0.012 C 
ATOM     18  C   UNL     1      -4.971   2.827  -5.492  1.00  0.00     0.000 C 
ATOM     19  C   UNL     1      -2.541   2.120  -5.501  1.00  0.00     0.005 C 
ATOM     20  C   UNL     1      -4.005   1.619  -5.491  1.00  0.00     0.003 C 
ATOM     21  C   UNL     1      -6.430   2.350  -5.394  1.00  0.00     0.031 C 
ATOM     22  C   UNL     1      -4.323   0.604  -6.663  1.00  0.00    -0.008 C 
ATOM     23  C   UNL     1      -6.751   1.238  -6.345  1.00  0.00    -0.027 C 
ATOM     24  C   UNL     1      -5.835   0.353  -6.789  1.00  0.00    -0.065 C 
ATOM     25  C   UNL     1      -3.618  -0.755  -6.353  1.00  0.00     0.014 C 
ATOM     26  C   UNL     1      -3.818   1.140  -8.033  1.00  0.00     0.016 C 
ATOM     27  C   UNL     1      -6.316  -0.829  -7.612  1.00  0.00     0.063 C 
ATOM     28  C   UNL     1      -4.064  -1.911  -7.264  1.00  0.00     0.033 C 
ATOM     29  C   UNL     1      -5.581  -2.116  -7.214  1.00  0.00     0.118 C 
BRANCH  29  30
ATOM     30  O   UNL     1      -5.962  -2.517  -5.922  1.00  0.00    -0.393 OA
ATOM     31  H   UNL     1      -5.413  -1.990  -5.285  1.00  0.00     0.210 HD
ENDBRANCH  29  30
ENDBRANCH   9  11
ENDBRANCH   1   9
TORSDOF 7
ENDMDL
