MODEL 1
REMARK VINA RESULT:    -3.923      0.000      0.000
REMARK INTER + INTRA:          -4.962
REMARK INTER:                  -4.841
REMARK INTRA:                  -0.122
REMARK UNBOUND:                -0.122
REMARK SMILES CCCCCC(=O)[O-]
REMARK SMILES IDX 4 1 5 2 6 3 7 4 8 5 3 6 2 7 1 8
REMARK H PARENT
REMARK Flexibility Score: inf
ROOT
ATOM      1  C   UNL     1      20.675   9.523  40.456  1.00  0.00     0.006 C 
ENDROOT
BRANCH   1   2
ATOM      2  C   UNL     1      20.554   9.315  41.971  1.00  0.00     0.053 C 
BRANCH   2   3
ATOM      3  C   UNL     1      20.915  10.554  42.733  1.00  0.00     0.041 C 
ATOM      4  O   UNL     1      21.635  11.439  42.199  1.00  0.00    -0.550 OA
ATOM      5  O   UNL     1      20.486  10.716  44.044  1.00  0.00    -0.550 OA
ENDBRANCH   2   3
ENDBRANCH   1   2
BRANCH   1   6
ATOM      6  C   UNL     1      19.303   9.716  39.786  1.00  0.00     0.000 C 
BRANCH   6   7
ATOM      7  C   UNL     1      18.678   8.388  39.332  1.00  0.00    -0.003 C 
ATOM      8  C   UNL     1      17.275   8.171  39.901  1.00  0.00     0.004 C 
ENDBRANCH   6   7
ENDBRANCH   1   6
TORSDOF 4
ENDMDL
MODEL 2
REMARK VINA RESULT:    -3.897     10.224     11.570
REMARK INTER + INTRA:          -4.930
REMARK INTER:                  -4.817
REMARK INTRA:                  -0.114
REMARK UNBOUND:                -0.122
REMARK SMILES CCCCCC(=O)[O-]
REMARK SMILES IDX 4 1 5 2 6 3 7 4 8 5 3 6 2 7 1 8
REMARK H PARENT
REMARK Flexibility Score: inf
ROOT
ATOM      1  C   UNL     1       8.489   9.724  44.468  1.00  0.00     0.006 C 
ENDROOT
BRANCH   1   2
ATOM      2  C   UNL     1       8.614   9.273  43.007  1.00  0.00     0.053 C 
BRANCH   2   3
ATOM      3  C   UNL     1       8.553  10.431  42.059  1.00  0.00     0.041 C 
ATOM      4  O   UNL     1       8.571  10.233  40.815  1.00  0.00    -0.550 OA
ATOM      5  O   UNL     1       8.514  11.731  42.547  1.00  0.00    -0.550 OA
ENDBRANCH   2   3
ENDBRANCH   1   2
BRANCH   1   6
ATOM      6  C   UNL     1       9.409   8.921  45.404  1.00  0.00     0.000 C 
BRANCH   6   7
ATOM      7  C   UNL     1      10.857   9.432  45.387  1.00  0.00    -0.003 C 
ATOM      8  C   UNL     1      11.884   8.300  45.426  1.00  0.00     0.004 C 
ENDBRANCH   6   7
ENDBRANCH   1   6
TORSDOF 4
ENDMDL
MODEL 3
REMARK VINA RESULT:    -3.728      5.562      6.512
REMARK INTER + INTRA:          -4.722
REMARK INTER:                  -4.603
REMARK INTRA:                  -0.119
REMARK UNBOUND:                -0.122
REMARK SMILES CCCCCC(=O)[O-]
REMARK SMILES IDX 4 1 5 2 6 3 7 4 8 5 3 6 2 7 1 8
REMARK H PARENT
REMARK Flexibility Score: inf
ROOT
ATOM      1  C   UNL     1      19.515  14.728  42.793  1.00  0.00     0.006 C 
ENDROOT
BRANCH   1   2
ATOM      2  C   UNL     1      19.625  16.241  42.565  1.00  0.00     0.053 C 
BRANCH   2   3
ATOM      3  C   UNL     1      20.922  16.613  41.912  1.00  0.00     0.041 C 
ATOM      4  O   UNL     1      21.176  16.224  40.741  1.00  0.00    -0.550 OA
ATOM      5  O   UNL     1      21.866  17.357  42.609  1.00  0.00    -0.550 OA
ENDBRANCH   2   3
ENDBRANCH   1   2
BRANCH   1   6
ATOM      6  C   UNL     1      20.513  14.227  43.852  1.00  0.00     0.000 C 
BRANCH   6   7
ATOM      7  C   UNL     1      20.182  12.812  44.350  1.00  0.00    -0.003 C 
ATOM      8  C   UNL     1      19.480  12.813  45.708  1.00  0.00     0.004 C 
ENDBRANCH   6   7
ENDBRANCH   1   6
TORSDOF 4
ENDMDL
MODEL 4
REMARK VINA RESULT:    -3.722     12.041     12.802
REMARK INTER + INTRA:          -4.715
REMARK INTER:                  -4.443
REMARK INTRA:                  -0.271
REMARK UNBOUND:                -0.122
REMARK SMILES CCCCCC(=O)[O-]
REMARK SMILES IDX 4 1 5 2 6 3 7 4 8 5 3 6 2 7 1 8
REMARK H PARENT
REMARK Flexibility Score: inf
ROOT
ATOM      1  C   UNL     1      10.191  15.099  41.898  1.00  0.00     0.006 C 
ENDROOT
BRANCH   1   2
ATOM      2  C   UNL     1       9.757  16.568  41.813  1.00  0.00     0.053 C 
BRANCH   2   3
ATOM      3  C   UNL     1       8.368  16.770  42.337  1.00  0.00     0.041 C 
ATOM      4  O   UNL     1       7.473  17.249  41.591  1.00  0.00    -0.550 OA
ATOM      5  O   UNL     1       8.070  16.463  43.659  1.00  0.00    -0.550 OA
ENDBRANCH   2   3
ENDBRANCH   1   2
BRANCH   1   6
ATOM      6  C   UNL     1       9.281  14.177  41.068  1.00  0.00     0.000 C 
BRANCH   6   7
ATOM      7  C   UNL     1       8.715  13.011  41.893  1.00  0.00    -0.003 C 
ATOM      8  C   UNL     1       7.238  13.195  42.241  1.00  0.00     0.004 C 
ENDBRANCH   6   7
ENDBRANCH   1   6
TORSDOF 4
ENDMDL
MODEL 5
REMARK VINA RESULT:    -3.714      4.603      5.579
REMARK INTER + INTRA:          -4.704
REMARK INTER:                  -4.656
REMARK INTRA:                  -0.048
REMARK UNBOUND:                -0.122
REMARK SMILES CCCCCC(=O)[O-]
REMARK SMILES IDX 4 1 5 2 6 3 7 4 8 5 3 6 2 7 1 8
REMARK H PARENT
REMARK Flexibility Score: inf
ROOT
ATOM      1  C   UNL     1      20.130  13.508  44.290  1.00  0.00     0.006 C 
ENDROOT
BRANCH   1   2
ATOM      2  C   UNL     1      20.414  12.001  44.295  1.00  0.00     0.053 C 
BRANCH   2   3
ATOM      3  C   UNL     1      19.823  11.327  45.496  1.00  0.00     0.041 C 
ATOM      4  O   UNL     1      19.838  10.070  45.588  1.00  0.00    -0.550 OA
ATOM      5  O   UNL     1      19.223  12.082  46.495  1.00  0.00    -0.550 OA
ENDBRANCH   2   3
ENDBRANCH   1   2
BRANCH   1   6
ATOM      6  C   UNL     1      20.181  14.104  42.873  1.00  0.00     0.000 C 
BRANCH   6   7
ATOM      7  C   UNL     1      19.091  15.161  42.638  1.00  0.00    -0.003 C 
ATOM      8  C   UNL     1      19.651  16.582  42.566  1.00  0.00     0.004 C 
ENDBRANCH   6   7
ENDBRANCH   1   6
TORSDOF 4
ENDMDL
MODEL 6
REMARK VINA RESULT:    -3.635      4.558      6.261
REMARK INTER + INTRA:          -4.607
REMARK INTER:                  -4.466
REMARK INTRA:                  -0.141
REMARK UNBOUND:                -0.122
REMARK SMILES CCCCCC(=O)[O-]
REMARK SMILES IDX 4 1 5 2 6 3 7 4 8 5 3 6 2 7 1 8
REMARK H PARENT
REMARK Flexibility Score: inf
ROOT
ATOM      1  C   UNL     1      19.341  14.998  42.722  1.00  0.00     0.006 C 
ENDROOT
BRANCH   1   2
ATOM      2  C   UNL     1      20.113  14.309  43.855  1.00  0.00     0.053 C 
BRANCH   2   3
ATOM      3  C   UNL     1      20.410  12.876  43.535  1.00  0.00     0.041 C 
ATOM      4  O   UNL     1      20.690  12.535  42.355  1.00  0.00    -0.550 OA
ATOM      5  O   UNL     1      20.342  11.910  44.531  1.00  0.00    -0.550 OA
ENDBRANCH   2   3
ENDBRANCH   1   2
BRANCH   1   6
ATOM      6  C   UNL     1      19.838  16.432  42.469  1.00  0.00     0.000 C 
BRANCH   6   7
ATOM      7  C   UNL     1      21.013  16.482  41.481  1.00  0.00    -0.003 C 
ATOM      8  C   UNL     1      22.265  17.120  42.083  1.00  0.00     0.004 C 
ENDBRANCH   6   7
ENDBRANCH   1   6
TORSDOF 4
ENDMDL
MODEL 7
REMARK VINA RESULT:    -3.628      5.467      6.813
REMARK INTER + INTRA:          -4.598
REMARK INTER:                  -4.392
REMARK INTRA:                  -0.206
REMARK UNBOUND:                -0.122
REMARK SMILES CCCCCC(=O)[O-]
REMARK SMILES IDX 4 1 5 2 6 3 7 4 8 5 3 6 2 7 1 8
REMARK H PARENT
REMARK Flexibility Score: inf
ROOT
ATOM      1  C   UNL     1      20.069  16.529  42.393  1.00  0.00     0.006 C 
ENDROOT
BRANCH   1   2
ATOM      2  C   UNL     1      21.123  16.388  41.286  1.00  0.00     0.053 C 
BRANCH   2   3
ATOM      3  C   UNL     1      22.511  16.597  41.810  1.00  0.00     0.041 C 
ATOM      4  O   UNL     1      23.145  15.639  42.326  1.00  0.00    -0.550 OA
ATOM      5  O   UNL     1      23.092  17.858  41.760  1.00  0.00    -0.550 OA
ENDBRANCH   2   3
ENDBRANCH   1   2
BRANCH   1   6
ATOM      6  C   UNL     1      19.162  15.290  42.492  1.00  0.00     0.000 C 
BRANCH   6   7
ATOM      7  C   UNL     1      19.949  14.008  42.803  1.00  0.00    -0.003 C 
ATOM      8  C   UNL     1      20.287  13.867  44.288  1.00  0.00     0.004 C 
ENDBRANCH   6   7
ENDBRANCH   1   6
TORSDOF 4
ENDMDL
MODEL 8
REMARK VINA RESULT:    -3.565     11.058     12.003
REMARK INTER + INTRA:          -4.520
REMARK INTER:                  -4.436
REMARK INTRA:                  -0.084
REMARK UNBOUND:                -0.122
REMARK SMILES CCCCCC(=O)[O-]
REMARK SMILES IDX 4 1 5 2 6 3 7 4 8 5 3 6 2 7 1 8
REMARK H PARENT
REMARK Flexibility Score: inf
ROOT
ATOM      1  C   UNL     1       8.870  13.688  40.490  1.00  0.00     0.006 C 
ENDROOT
BRANCH   1   2
ATOM      2  C   UNL     1       9.690  12.967  39.413  1.00  0.00     0.053 C 
BRANCH   2   3
ATOM      3  C   UNL     1       9.443  11.489  39.421  1.00  0.00     0.041 C 
ATOM      4  O   UNL     1       9.654  10.806  38.383  1.00  0.00    -0.550 OA
ATOM      5  O   UNL     1       8.945  10.872  40.561  1.00  0.00    -0.550 OA
ENDBRANCH   2   3
ENDBRANCH   1   2
BRANCH   1   6
ATOM      6  C   UNL     1       9.763  14.389  41.528  1.00  0.00     0.000 C 
BRANCH   6   7
ATOM      7  C   UNL     1       8.997  15.431  42.357  1.00  0.00    -0.003 C 
ATOM      8  C   UNL     1       9.394  16.867  42.015  1.00  0.00     0.004 C 
ENDBRANCH   6   7
ENDBRANCH   1   6
TORSDOF 4
ENDMDL
MODEL 9
REMARK VINA RESULT:    -3.533     12.627     13.578
REMARK INTER + INTRA:          -4.481
REMARK INTER:                  -4.353
REMARK INTRA:                  -0.128
REMARK UNBOUND:                -0.122
REMARK SMILES CCCCCC(=O)[O-]
REMARK SMILES IDX 4 1 5 2 6 3 7 4 8 5 3 6 2 7 1 8
REMARK H PARENT
REMARK Flexibility Score: inf
ROOT
ATOM      1  C   UNL     1       9.127  16.357  41.858  1.00  0.00     0.006 C 
ENDROOT
BRANCH   1   2
ATOM      2  C   UNL     1       8.276  16.518  43.125  1.00  0.00     0.053 C 
BRANCH   2   3
ATOM      3  C   UNL     1       6.824  16.700  42.801  1.00  0.00     0.041 C 
ATOM      4  O   UNL     1       6.046  15.709  42.805  1.00  0.00    -0.550 OA
ATOM      5  O   UNL     1       6.338  17.955  42.458  1.00  0.00    -0.550 OA
ENDBRANCH   2   3
ENDBRANCH   1   2
BRANCH   1   6
ATOM      6  C   UNL     1      10.050  15.129  41.933  1.00  0.00     0.000 C 
BRANCH   6   7
ATOM      7  C   UNL     1       9.310  13.816  41.636  1.00  0.00    -0.003 C 
ATOM      8  C   UNL     1       9.211  13.518  40.140  1.00  0.00     0.004 C 
ENDBRANCH   6   7
ENDBRANCH   1   6
TORSDOF 4
ENDMDL
