MODEL 1
REMARK VINA RESULT:    -5.534      0.000      0.000
REMARK INTER + INTRA:         -14.438
REMARK INTER:                 -12.652
REMARK INTRA:                  -1.786
REMARK UNBOUND:                -1.786
REMARK SMILES CCCCCCCCCCCCCCCCCCCCCCCC(=O)[O-]
REMARK SMILES IDX 13 1 14 2 15 3 16 4 17 5 18 6 19 7 20 8 21 9 22 10 23 11
REMARK SMILES IDX 24 12 25 13 26 14 12 15 11 16 10 17 9 18 8 19 7 20 6 21 5 22
REMARK SMILES IDX 4 23 3 24 2 25 1 26
REMARK H PARENT
REMARK Flexibility Score: inf
ROOT
ATOM      1  C   UNL     1      -8.426  27.851 -24.330  1.00  0.00     0.000 C 
ENDROOT
BRANCH   1   2
ATOM      2  C   UNL     1      -7.064  28.506 -24.041  1.00  0.00     0.000 C 
BRANCH   2   3
ATOM      3  C   UNL     1      -6.558  28.361 -22.591  1.00  0.00     0.000 C 
BRANCH   3   4
ATOM      4  C   UNL     1      -5.595  29.465 -22.115  1.00  0.00     0.000 C 
BRANCH   4   5
ATOM      5  C   UNL     1      -6.222  30.393 -21.061  1.00  0.00     0.000 C 
BRANCH   5   6
ATOM      6  C   UNL     1      -5.258  30.710 -19.907  1.00  0.00     0.000 C 
BRANCH   6   7
ATOM      7  C   UNL     1      -3.781  30.503 -20.287  1.00  0.00     0.000 C 
BRANCH   7   8
ATOM      8  C   UNL     1      -3.112  29.385 -19.469  1.00  0.00     0.000 C 
BRANCH   8   9
ATOM      9  C   UNL     1      -2.865  28.115 -20.298  1.00  0.00     0.000 C 
BRANCH   9  10
ATOM     10  C   UNL     1      -3.377  26.868 -19.561  1.00  0.00     0.006 C 
BRANCH  10  11
ATOM     11  C   UNL     1      -4.501  26.160 -20.329  1.00  0.00     0.053 C 
BRANCH  11  12
ATOM     12  C   UNL     1      -5.815  26.274 -19.619  1.00  0.00     0.041 C 
ATOM     13  O   UNL     1      -6.600  25.289 -19.580  1.00  0.00    -0.550 OA
ATOM     14  O   UNL     1      -6.191  27.478 -19.036  1.00  0.00    -0.550 OA
ENDBRANCH  11  12
ENDBRANCH  10  11
ENDBRANCH   9  10
ENDBRANCH   8   9
ENDBRANCH   7   8
ENDBRANCH   6   7
ENDBRANCH   5   6
ENDBRANCH   4   5
ENDBRANCH   3   4
ENDBRANCH   2   3
ENDBRANCH   1   2
BRANCH   1  15
ATOM     15  C   UNL     1      -8.734  27.753 -25.832  1.00  0.00     0.000 C 
BRANCH  15  16
ATOM     16  C   UNL     1      -7.464  27.428 -26.635  1.00  0.00     0.000 C 
BRANCH  16  17
ATOM     17  C   UNL     1      -7.768  27.048 -28.093  1.00  0.00     0.000 C 
BRANCH  17  18
ATOM     18  C   UNL     1      -8.086  25.552 -28.259  1.00  0.00    -0.000 C 
BRANCH  18  19
ATOM     19  C   UNL     1      -9.398  25.147 -27.555  1.00  0.00    -0.000 C 
BRANCH  19  20
ATOM     20  C   UNL     1      -9.208  24.111 -26.430  1.00  0.00    -0.000 C 
BRANCH  20  21
ATOM     21  C   UNL     1     -10.485  23.357 -26.013  1.00  0.00    -0.000 C 
BRANCH  21  22
ATOM     22  C   UNL     1     -10.302  22.360 -24.852  1.00  0.00    -0.000 C 
BRANCH  22  23
ATOM     23  C   UNL     1      -9.268  22.779 -23.788  1.00  0.00    -0.000 C 
BRANCH  23  24
ATOM     24  C   UNL     1      -9.897  23.302 -22.478  1.00  0.00    -0.000 C 
BRANCH  24  25
ATOM     25  C   UNL     1      -9.170  22.783 -21.230  1.00  0.00    -0.003 C 
ATOM     26  C   UNL     1     -10.110  22.731 -20.028  1.00  0.00     0.004 C 
ENDBRANCH  24  25
ENDBRANCH  23  24
ENDBRANCH  22  23
ENDBRANCH  21  22
ENDBRANCH  20  21
ENDBRANCH  19  20
ENDBRANCH  18  19
ENDBRANCH  17  18
ENDBRANCH  16  17
ENDBRANCH  15  16
ENDBRANCH   1  15
TORSDOF 22
ENDMDL
MODEL 2
REMARK VINA RESULT:    -5.324      1.666      7.943
REMARK INTER + INTRA:         -13.957
REMARK INTER:                 -11.850
REMARK INTRA:                  -2.107
REMARK UNBOUND:                -1.786
REMARK SMILES CCCCCCCCCCCCCCCCCCCCCCCC(=O)[O-]
REMARK SMILES IDX 13 1 14 2 15 3 16 4 17 5 18 6 19 7 20 8 21 9 22 10 23 11
REMARK SMILES IDX 24 12 25 13 26 14 12 15 11 16 10 17 9 18 8 19 7 20 6 21 5 22
REMARK SMILES IDX 4 23 3 24 2 25 1 26
REMARK H PARENT
REMARK Flexibility Score: inf
ROOT
ATOM      1  C   UNL     1      -6.706  28.147 -24.869  1.00  0.00     0.000 C 
ENDROOT
BRANCH   1   2
ATOM      2  C   UNL     1      -7.684  27.792 -26.003  1.00  0.00     0.000 C 
BRANCH   2   3
ATOM      3  C   UNL     1      -7.027  27.480 -27.364  1.00  0.00     0.000 C 
BRANCH   3   4
ATOM      4  C   UNL     1      -7.509  26.187 -28.047  1.00  0.00     0.000 C 
BRANCH   4   5
ATOM      5  C   UNL     1      -9.031  25.984 -27.939  1.00  0.00     0.000 C 
BRANCH   5   6
ATOM      6  C   UNL     1      -9.403  24.604 -27.374  1.00  0.00     0.000 C 
BRANCH   6   7
ATOM      7  C   UNL     1      -9.646  24.626 -25.855  1.00  0.00     0.000 C 
BRANCH   7   8
ATOM      8  C   UNL     1     -10.382  23.370 -25.358  1.00  0.00     0.000 C 
BRANCH   8   9
ATOM      9  C   UNL     1      -9.436  22.353 -24.701  1.00  0.00     0.000 C 
BRANCH   9  10
ATOM     10  C   UNL     1      -8.943  22.860 -23.336  1.00  0.00     0.006 C 
BRANCH  10  11
ATOM     11  C   UNL     1     -10.072  22.926 -22.299  1.00  0.00     0.053 C 
BRANCH  11  12
ATOM     12  C   UNL     1      -9.552  22.783 -20.902  1.00  0.00     0.041 C 
ATOM     13  O   UNL     1      -8.381  23.154 -20.622  1.00  0.00    -0.550 OA
ATOM     14  O   UNL     1     -10.345  22.205 -19.919  1.00  0.00    -0.550 OA
ENDBRANCH  11  12
ENDBRANCH  10  11
ENDBRANCH   9  10
ENDBRANCH   8   9
ENDBRANCH   7   8
ENDBRANCH   6   7
ENDBRANCH   5   6
ENDBRANCH   4   5
ENDBRANCH   3   4
ENDBRANCH   2   3
ENDBRANCH   1   2
BRANCH   1  15
ATOM     15  C   UNL     1      -7.420  28.516 -23.560  1.00  0.00     0.000 C 
BRANCH  15  16
ATOM     16  C   UNL     1      -6.442  28.500 -22.375  1.00  0.00     0.000 C 
BRANCH  16  17
ATOM     17  C   UNL     1      -5.306  29.524 -22.533  1.00  0.00     0.000 C 
BRANCH  17  18
ATOM     18  C   UNL     1      -3.926  28.930 -22.202  1.00  0.00    -0.000 C 
BRANCH  18  19
ATOM     19  C   UNL     1      -4.005  27.814 -21.139  1.00  0.00    -0.000 C 
BRANCH  19  20
ATOM     20  C   UNL     1      -3.464  28.230 -19.757  1.00  0.00    -0.000 C 
BRANCH  20  21
ATOM     21  C   UNL     1      -4.463  28.085 -18.593  1.00  0.00    -0.000 C 
BRANCH  21  22
ATOM     22  C   UNL     1      -5.949  28.119 -19.004  1.00  0.00    -0.000 C 
BRANCH  22  23
ATOM     23  C   UNL     1      -6.770  29.271 -18.395  1.00  0.00    -0.000 C 
BRANCH  23  24
ATOM     24  C   UNL     1      -6.163  30.669 -18.640  1.00  0.00    -0.000 C 
BRANCH  24  25
ATOM     25  C   UNL     1      -6.804  31.387 -19.837  1.00  0.00    -0.003 C 
ATOM     26  C   UNL     1      -6.639  32.900 -19.723  1.00  0.00     0.004 C 
ENDBRANCH  24  25
ENDBRANCH  23  24
ENDBRANCH  22  23
ENDBRANCH  21  22
ENDBRANCH  20  21
ENDBRANCH  19  20
ENDBRANCH  18  19
ENDBRANCH  17  18
ENDBRANCH  16  17
ENDBRANCH  15  16
ENDBRANCH   1  15
TORSDOF 22
ENDMDL
MODEL 3
REMARK VINA RESULT:    -5.281      1.410      2.230
REMARK INTER + INTRA:         -13.858
REMARK INTER:                 -12.401
REMARK INTRA:                  -1.457
REMARK UNBOUND:                -1.786
REMARK SMILES CCCCCCCCCCCCCCCCCCCCCCCC(=O)[O-]
REMARK SMILES IDX 13 1 14 2 15 3 16 4 17 5 18 6 19 7 20 8 21 9 22 10 23 11
REMARK SMILES IDX 24 12 25 13 26 14 12 15 11 16 10 17 9 18 8 19 7 20 6 21 5 22
REMARK SMILES IDX 4 23 3 24 2 25 1 26
REMARK H PARENT
REMARK Flexibility Score: inf
ROOT
ATOM      1  C   UNL     1      -7.517  28.546 -23.609  1.00  0.00     0.000 C 
ENDROOT
BRANCH   1   2
ATOM      2  C   UNL     1      -6.493  28.849 -22.501  1.00  0.00     0.000 C 
BRANCH   2   3
ATOM      3  C   UNL     1      -5.091  29.260 -22.995  1.00  0.00     0.000 C 
BRANCH   3   4
ATOM      4  C   UNL     1      -4.379  30.326 -22.142  1.00  0.00     0.000 C 
BRANCH   4   5
ATOM      5  C   UNL     1      -4.293  29.944 -20.655  1.00  0.00     0.000 C 
BRANCH   5   6
ATOM      6  C   UNL     1      -3.250  28.847 -20.387  1.00  0.00     0.000 C 
BRANCH   6   7
ATOM      7  C   UNL     1      -3.775  27.737 -19.459  1.00  0.00     0.000 C 
BRANCH   7   8
ATOM      8  C   UNL     1      -4.356  26.544 -20.237  1.00  0.00     0.000 C 
BRANCH   8   9
ATOM      9  C   UNL     1      -5.878  26.415 -20.068  1.00  0.00     0.000 C 
BRANCH   9  10
ATOM     10  C   UNL     1      -6.334  26.992 -18.719  1.00  0.00     0.006 C 
BRANCH  10  11
ATOM     11  C   UNL     1      -6.676  28.485 -18.812  1.00  0.00     0.053 C 
BRANCH  11  12
ATOM     12  C   UNL     1      -6.931  29.081 -17.461  1.00  0.00     0.041 C 
ATOM     13  O   UNL     1      -6.748  28.394 -16.422  1.00  0.00    -0.550 OA
ATOM     14  O   UNL     1      -7.407  30.382 -17.352  1.00  0.00    -0.550 OA
ENDBRANCH  11  12
ENDBRANCH  10  11
ENDBRANCH   9  10
ENDBRANCH   8   9
ENDBRANCH   7   8
ENDBRANCH   6   7
ENDBRANCH   5   6
ENDBRANCH   4   5
ENDBRANCH   3   4
ENDBRANCH   2   3
ENDBRANCH   1   2
BRANCH   1  15
ATOM     15  C   UNL     1      -6.859  28.101 -24.923  1.00  0.00     0.000 C 
BRANCH  15  16
ATOM     16  C   UNL     1      -7.916  27.660 -25.948  1.00  0.00     0.000 C 
BRANCH  16  17
ATOM     17  C   UNL     1      -7.348  27.543 -27.371  1.00  0.00     0.000 C 
BRANCH  17  18
ATOM     18  C   UNL     1      -7.772  26.239 -28.070  1.00  0.00    -0.000 C 
BRANCH  18  19
ATOM     19  C   UNL     1      -9.100  25.680 -27.517  1.00  0.00    -0.000 C 
BRANCH  19  20
ATOM     20  C   UNL     1      -8.953  24.327 -26.794  1.00  0.00    -0.000 C 
BRANCH  20  21
ATOM     21  C   UNL     1     -10.248  23.779 -26.164  1.00  0.00    -0.000 C 
BRANCH  21  22
ATOM     22  C   UNL     1     -10.096  22.429 -25.436  1.00  0.00    -0.000 C 
BRANCH  22  23
ATOM     23  C   UNL     1      -9.244  22.470 -24.153  1.00  0.00    -0.000 C 
BRANCH  23  24
ATOM     24  C   UNL     1      -9.937  23.167 -22.963  1.00  0.00    -0.000 C 
BRANCH  24  25
ATOM     25  C   UNL     1      -9.236  22.887 -21.627  1.00  0.00    -0.003 C 
ATOM     26  C   UNL     1     -10.237  22.864 -20.474  1.00  0.00     0.004 C 
ENDBRANCH  24  25
ENDBRANCH  23  24
ENDBRANCH  22  23
ENDBRANCH  21  22
ENDBRANCH  20  21
ENDBRANCH  19  20
ENDBRANCH  18  19
ENDBRANCH  17  18
ENDBRANCH  16  17
ENDBRANCH  15  16
ENDBRANCH   1  15
TORSDOF 22
ENDMDL
MODEL 4
REMARK VINA RESULT:    -5.192      2.674      4.581
REMARK INTER + INTRA:         -13.656
REMARK INTER:                 -11.792
REMARK INTRA:                  -1.864
REMARK UNBOUND:                -1.786
REMARK SMILES CCCCCCCCCCCCCCCCCCCCCCCC(=O)[O-]
REMARK SMILES IDX 13 1 14 2 15 3 16 4 17 5 18 6 19 7 20 8 21 9 22 10 23 11
REMARK SMILES IDX 24 12 25 13 26 14 12 15 11 16 10 17 9 18 8 19 7 20 6 21 5 22
REMARK SMILES IDX 4 23 3 24 2 25 1 26
REMARK H PARENT
REMARK Flexibility Score: inf
ROOT
ATOM      1  C   UNL     1      -5.946  27.755 -21.089  1.00  0.00     0.000 C 
ENDROOT
BRANCH   1   2
ATOM      2  C   UNL     1      -5.795  27.950 -19.570  1.00  0.00     0.000 C 
BRANCH   2   3
ATOM      3  C   UNL     1      -6.802  28.928 -18.929  1.00  0.00     0.000 C 
BRANCH   3   4
ATOM      4  C   UNL     1      -6.185  30.005 -18.017  1.00  0.00     0.000 C 
BRANCH   4   5
ATOM      5  C   UNL     1      -6.955  31.336 -18.058  1.00  0.00     0.000 C 
BRANCH   5   6
ATOM      6  C   UNL     1      -6.931  31.989 -19.449  1.00  0.00     0.000 C 
BRANCH   6   7
ATOM      7  C   UNL     1      -6.129  33.302 -19.480  1.00  0.00     0.000 C 
BRANCH   7   8
ATOM      8  C   UNL     1      -4.956  33.253 -20.473  1.00  0.00     0.000 C 
BRANCH   8   9
ATOM      9  C   UNL     1      -4.615  31.820 -20.913  1.00  0.00     0.000 C 
BRANCH   9  10
ATOM     10  C   UNL     1      -3.138  31.496 -20.637  1.00  0.00     0.006 C 
BRANCH  10  11
ATOM     11  C   UNL     1      -2.323  32.750 -20.295  1.00  0.00     0.053 C 
BRANCH  11  12
ATOM     12  C   UNL     1      -1.062  32.409 -19.561  1.00  0.00     0.041 C 
ATOM     13  O   UNL     1      -0.575  31.251 -19.645  1.00  0.00    -0.550 OA
ATOM     14  O   UNL     1      -0.447  33.358 -18.754  1.00  0.00    -0.550 OA
ENDBRANCH  11  12
ENDBRANCH  10  11
ENDBRANCH   9  10
ENDBRANCH   8   9
ENDBRANCH   7   8
ENDBRANCH   6   7
ENDBRANCH   5   6
ENDBRANCH   4   5
ENDBRANCH   3   4
ENDBRANCH   2   3
ENDBRANCH   1   2
BRANCH   1  15
ATOM     15  C   UNL     1      -6.250  29.065 -21.831  1.00  0.00     0.000 C 
BRANCH  15  16
ATOM     16  C   UNL     1      -6.161  28.869 -23.353  1.00  0.00     0.000 C 
BRANCH  16  17
ATOM     17  C   UNL     1      -7.432  28.239 -23.943  1.00  0.00     0.000 C 
BRANCH  17  18
ATOM     18  C   UNL     1      -7.281  27.891 -25.435  1.00  0.00    -0.000 C 
BRANCH  18  19
ATOM     19  C   UNL     1      -8.613  27.441 -26.072  1.00  0.00    -0.000 C 
BRANCH  19  20
ATOM     20  C   UNL     1      -8.445  26.733 -27.431  1.00  0.00    -0.000 C 
BRANCH  20  21
ATOM     21  C   UNL     1      -9.409  25.557 -27.678  1.00  0.00    -0.000 C 
BRANCH  21  22
ATOM     22  C   UNL     1      -9.173  24.324 -26.784  1.00  0.00    -0.000 C 
BRANCH  22  23
ATOM     23  C   UNL     1     -10.439  23.739 -26.130  1.00  0.00    -0.000 C 
BRANCH  23  24
ATOM     24  C   UNL     1     -10.185  22.450 -25.319  1.00  0.00    -0.000 C 
BRANCH  24  25
ATOM     25  C   UNL     1      -9.106  22.635 -24.243  1.00  0.00    -0.003 C 
ATOM     26  C   UNL     1      -9.727  23.014 -22.900  1.00  0.00     0.004 C 
ENDBRANCH  24  25
ENDBRANCH  23  24
ENDBRANCH  22  23
ENDBRANCH  21  22
ENDBRANCH  20  21
ENDBRANCH  19  20
ENDBRANCH  18  19
ENDBRANCH  17  18
ENDBRANCH  16  17
ENDBRANCH  15  16
ENDBRANCH   1  15
TORSDOF 22
ENDMDL
MODEL 5
REMARK VINA RESULT:    -5.070      2.923      9.623
REMARK INTER + INTRA:         -13.376
REMARK INTER:                 -11.540
REMARK INTRA:                  -1.836
REMARK UNBOUND:                -1.786
REMARK SMILES CCCCCCCCCCCCCCCCCCCCCCCC(=O)[O-]
REMARK SMILES IDX 13 1 14 2 15 3 16 4 17 5 18 6 19 7 20 8 21 9 22 10 23 11
REMARK SMILES IDX 24 12 25 13 26 14 12 15 11 16 10 17 9 18 8 19 7 20 6 21 5 22
REMARK SMILES IDX 4 23 3 24 2 25 1 26
REMARK H PARENT
REMARK Flexibility Score: inf
ROOT
ATOM      1  C   UNL     1      -5.896  27.941 -20.196  1.00  0.00     0.000 C 
ENDROOT
BRANCH   1   2
ATOM      2  C   UNL     1      -5.058  28.283 -21.440  1.00  0.00     0.000 C 
BRANCH   2   3
ATOM      3  C   UNL     1      -5.776  29.144 -22.501  1.00  0.00     0.000 C 
BRANCH   3   4
ATOM      4  C   UNL     1      -7.012  28.493 -23.150  1.00  0.00     0.000 C 
BRANCH   4   5
ATOM      5  C   UNL     1      -6.832  28.235 -24.655  1.00  0.00     0.000 C 
BRANCH   5   6
ATOM      6  C   UNL     1      -8.121  27.735 -25.326  1.00  0.00     0.000 C 
BRANCH   6   7
ATOM      7  C   UNL     1      -8.011  27.669 -26.860  1.00  0.00     0.000 C 
BRANCH   7   8
ATOM      8  C   UNL     1      -8.032  26.225 -27.391  1.00  0.00     0.000 C 
BRANCH   8   9
ATOM      9  C   UNL     1      -9.377  25.854 -28.036  1.00  0.00     0.000 C 
BRANCH   9  10
ATOM     10  C   UNL     1     -10.175  24.899 -27.135  1.00  0.00     0.006 C 
BRANCH  10  11
ATOM     11  C   UNL     1      -9.264  24.019 -26.270  1.00  0.00     0.053 C 
BRANCH  11  12
ATOM     12  C   UNL     1     -10.051  23.171 -25.318  1.00  0.00     0.041 C 
ATOM     13  O   UNL     1      -9.460  22.508 -24.425  1.00  0.00    -0.550 OA
ATOM     14  O   UNL     1     -11.432  23.081 -25.442  1.00  0.00    -0.550 OA
ENDBRANCH  11  12
ENDBRANCH  10  11
ENDBRANCH   9  10
ENDBRANCH   8   9
ENDBRANCH   7   8
ENDBRANCH   6   7
ENDBRANCH   5   6
ENDBRANCH   4   5
ENDBRANCH   3   4
ENDBRANCH   2   3
ENDBRANCH   1   2
BRANCH   1  15
ATOM     15  C   UNL     1      -5.539  28.807 -18.979  1.00  0.00     0.000 C 
BRANCH  15  16
ATOM     16  C   UNL     1      -6.804  29.264 -18.237  1.00  0.00     0.000 C 
BRANCH  16  17
ATOM     17  C   UNL     1      -6.887  30.791 -18.094  1.00  0.00     0.000 C 
BRANCH  17  18
ATOM     18  C   UNL     1      -6.801  31.516 -19.449  1.00  0.00    -0.000 C 
BRANCH  18  19
ATOM     19  C   UNL     1      -6.126  32.900 -19.335  1.00  0.00    -0.000 C 
BRANCH  19  20
ATOM     20  C   UNL     1      -4.834  33.032 -20.165  1.00  0.00    -0.000 C 
BRANCH  20  21
ATOM     21  C   UNL     1      -4.150  31.700 -20.527  1.00  0.00    -0.000 C 
BRANCH  21  22
ATOM     22  C   UNL     1      -2.801  31.840 -21.259  1.00  0.00    -0.000 C 
BRANCH  22  23
ATOM     23  C   UNL     1      -1.673  32.485 -20.432  1.00  0.00    -0.000 C 
BRANCH  23  24
ATOM     24  C   UNL     1      -0.689  31.468 -19.815  1.00  0.00    -0.000 C 
BRANCH  24  25
ATOM     25  C   UNL     1       0.577  32.137 -19.261  1.00  0.00    -0.003 C 
ATOM     26  C   UNL     1       1.717  32.083 -20.276  1.00  0.00     0.004 C 
ENDBRANCH  24  25
ENDBRANCH  23  24
ENDBRANCH  22  23
ENDBRANCH  21  22
ENDBRANCH  20  21
ENDBRANCH  19  20
ENDBRANCH  18  19
ENDBRANCH  17  18
ENDBRANCH  16  17
ENDBRANCH  15  16
ENDBRANCH   1  15
TORSDOF 22
ENDMDL
MODEL 6
REMARK VINA RESULT:    -5.066      5.262     10.153
REMARK INTER + INTRA:         -13.366
REMARK INTER:                  -9.182
REMARK INTRA:                  -4.184
REMARK UNBOUND:                -1.786
REMARK SMILES CCCCCCCCCCCCCCCCCCCCCCCC(=O)[O-]
REMARK SMILES IDX 13 1 14 2 15 3 16 4 17 5 18 6 19 7 20 8 21 9 22 10 23 11
REMARK SMILES IDX 24 12 25 13 26 14 12 15 11 16 10 17 9 18 8 19 7 20 6 21 5 22
REMARK SMILES IDX 4 23 3 24 2 25 1 26
REMARK H PARENT
REMARK Flexibility Score: inf
ROOT
ATOM      1  C   UNL     1      -4.053  32.428 -21.725  1.00  0.00     0.000 C 
ENDROOT
BRANCH   1   2
ATOM      2  C   UNL     1      -2.801  31.747 -21.145  1.00  0.00     0.000 C 
BRANCH   2   3
ATOM      3  C   UNL     1      -3.024  30.972 -19.829  1.00  0.00     0.000 C 
BRANCH   3   4
ATOM      4  C   UNL     1      -2.246  29.649 -19.705  1.00  0.00     0.000 C 
BRANCH   4   5
ATOM      5  C   UNL     1      -3.091  28.511 -19.107  1.00  0.00     0.000 C 
BRANCH   5   6
ATOM      6  C   UNL     1      -3.719  27.614 -20.185  1.00  0.00     0.000 C 
BRANCH   6   7
ATOM      7  C   UNL     1      -3.535  28.170 -21.608  1.00  0.00     0.000 C 
BRANCH   7   8
ATOM      8  C   UNL     1      -4.829  28.777 -22.176  1.00  0.00     0.000 C 
BRANCH   8   9
ATOM      9  C   UNL     1      -6.031  28.587 -21.237  1.00  0.00     0.000 C 
BRANCH   9  10
ATOM     10  C   UNL     1      -6.473  29.927 -20.629  1.00  0.00     0.006 C 
BRANCH  10  11
ATOM     11  C   UNL     1      -6.513  29.884 -19.096  1.00  0.00     0.053 C 
BRANCH  11  12
ATOM     12  C   UNL     1      -6.836  31.224 -18.511  1.00  0.00     0.041 C 
ATOM     13  O   UNL     1      -6.944  32.231 -19.259  1.00  0.00    -0.550 OA
ATOM     14  O   UNL     1      -6.978  31.369 -17.136  1.00  0.00    -0.550 OA
ENDBRANCH  11  12
ENDBRANCH  10  11
ENDBRANCH   9  10
ENDBRANCH   8   9
ENDBRANCH   7   8
ENDBRANCH   6   7
ENDBRANCH   5   6
ENDBRANCH   4   5
ENDBRANCH   3   4
ENDBRANCH   2   3
ENDBRANCH   1   2
BRANCH   1  15
ATOM     15  C   UNL     1      -4.317  33.812 -21.112  1.00  0.00     0.000 C 
BRANCH  15  16
ATOM     16  C   UNL     1      -3.717  34.924 -21.986  1.00  0.00     0.000 C 
BRANCH  16  17
ATOM     17  C   UNL     1      -2.644  35.741 -21.248  1.00  0.00     0.000 C 
BRANCH  17  18
ATOM     18  C   UNL     1      -2.438  35.271 -19.797  1.00  0.00    -0.000 C 
BRANCH  18  19
ATOM     19  C   UNL     1      -0.972  34.886 -19.506  1.00  0.00    -0.000 C 
BRANCH  19  20
ATOM     20  C   UNL     1      -0.821  33.650 -18.598  1.00  0.00    -0.000 C 
BRANCH  20  21
ATOM     21  C   UNL     1       0.501  32.877 -18.761  1.00  0.00    -0.000 C 
BRANCH  21  22
ATOM     22  C   UNL     1       0.584  31.989 -20.018  1.00  0.00    -0.000 C 
BRANCH  22  23
ATOM     23  C   UNL     1       1.921  32.060 -20.782  1.00  0.00    -0.000 C 
BRANCH  23  24
ATOM     24  C   UNL     1       1.789  32.591 -22.225  1.00  0.00    -0.000 C 
BRANCH  24  25
ATOM     25  C   UNL     1       0.897  33.837 -22.314  1.00  0.00    -0.003 C 
ATOM     26  C   UNL     1      -0.334  33.572 -23.179  1.00  0.00     0.004 C 
ENDBRANCH  24  25
ENDBRANCH  23  24
ENDBRANCH  22  23
ENDBRANCH  21  22
ENDBRANCH  20  21
ENDBRANCH  19  20
ENDBRANCH  18  19
ENDBRANCH  17  18
ENDBRANCH  16  17
ENDBRANCH  15  16
ENDBRANCH   1  15
TORSDOF 22
ENDMDL
MODEL 7
REMARK VINA RESULT:    -5.034      4.954      9.691
REMARK INTER + INTRA:         -13.294
REMARK INTER:                  -9.627
REMARK INTRA:                  -3.667
REMARK UNBOUND:                -1.786
REMARK SMILES CCCCCCCCCCCCCCCCCCCCCCCC(=O)[O-]
REMARK SMILES IDX 13 1 14 2 15 3 16 4 17 5 18 6 19 7 20 8 21 9 22 10 23 11
REMARK SMILES IDX 24 12 25 13 26 14 12 15 11 16 10 17 9 18 8 19 7 20 6 21 5 22
REMARK SMILES IDX 4 23 3 24 2 25 1 26
REMARK H PARENT
REMARK Flexibility Score: inf
ROOT
ATOM      1  C   UNL     1      -7.009  30.766 -18.788  1.00  0.00     0.000 C 
ENDROOT
BRANCH   1   2
ATOM      2  C   UNL     1      -7.035  29.786 -17.601  1.00  0.00     0.000 C 
BRANCH   2   3
ATOM      3  C   UNL     1      -6.698  28.321 -17.949  1.00  0.00     0.000 C 
BRANCH   3   4
ATOM      4  C   UNL     1      -6.321  28.064 -19.420  1.00  0.00     0.000 C 
BRANCH   4   5
ATOM      5  C   UNL     1      -5.558  26.744 -19.620  1.00  0.00     0.000 C 
BRANCH   5   6
ATOM      6  C   UNL     1      -4.066  26.964 -19.917  1.00  0.00     0.000 C 
BRANCH   6   7
ATOM      7  C   UNL     1      -3.377  27.868 -18.878  1.00  0.00     0.000 C 
BRANCH   7   8
ATOM      8  C   UNL     1      -2.609  29.032 -19.527  1.00  0.00     0.000 C 
BRANCH   8   9
ATOM      9  C   UNL     1      -3.493  30.268 -19.753  1.00  0.00     0.000 C 
BRANCH   9  10
ATOM     10  C   UNL     1      -3.600  30.603 -21.249  1.00  0.00     0.006 C 
BRANCH  10  11
ATOM     11  C   UNL     1      -5.025  30.416 -21.786  1.00  0.00     0.053 C 
BRANCH  11  12
ATOM     12  C   UNL     1      -5.127  29.224 -22.688  1.00  0.00     0.041 C 
ATOM     13  O   UNL     1      -4.110  28.518 -22.919  1.00  0.00    -0.550 OA
ATOM     14  O   UNL     1      -6.334  28.916 -23.303  1.00  0.00    -0.550 OA
ENDBRANCH  11  12
ENDBRANCH  10  11
ENDBRANCH   9  10
ENDBRANCH   8   9
ENDBRANCH   7   8
ENDBRANCH   6   7
ENDBRANCH   5   6
ENDBRANCH   4   5
ENDBRANCH   3   4
ENDBRANCH   2   3
ENDBRANCH   1   2
BRANCH   1  15
ATOM     15  C   UNL     1      -6.474  32.153 -18.403  1.00  0.00     0.000 C 
BRANCH  15  16
ATOM     16  C   UNL     1      -6.245  33.021 -19.651  1.00  0.00     0.000 C 
BRANCH  16  17
ATOM     17  C   UNL     1      -5.223  34.144 -19.411  1.00  0.00     0.000 C 
BRANCH  17  18
ATOM     18  C   UNL     1      -4.321  34.391 -20.633  1.00  0.00    -0.000 C 
BRANCH  18  19
ATOM     19  C   UNL     1      -2.851  34.646 -20.237  1.00  0.00    -0.000 C 
BRANCH  19  20
ATOM     20  C   UNL     1      -1.920  33.444 -20.492  1.00  0.00    -0.000 C 
BRANCH  20  21
ATOM     21  C   UNL     1      -0.982  33.085 -19.324  1.00  0.00    -0.000 C 
BRANCH  21  22
ATOM     22  C   UNL     1      -0.103  31.841 -19.555  1.00  0.00    -0.000 C 
BRANCH  22  23
ATOM     23  C   UNL     1       1.414  32.110 -19.595  1.00  0.00    -0.000 C 
BRANCH  23  24
ATOM     24  C   UNL     1       2.052  31.891 -20.983  1.00  0.00    -0.000 C 
BRANCH  24  25
ATOM     25  C   UNL     1       2.160  33.191 -21.793  1.00  0.00    -0.003 C 
ATOM     26  C   UNL     1       1.055  33.279 -22.842  1.00  0.00     0.004 C 
ENDBRANCH  24  25
ENDBRANCH  23  24
ENDBRANCH  22  23
ENDBRANCH  21  22
ENDBRANCH  20  21
ENDBRANCH  19  20
ENDBRANCH  18  19
ENDBRANCH  17  18
ENDBRANCH  16  17
ENDBRANCH  15  16
ENDBRANCH   1  15
TORSDOF 22
ENDMDL
MODEL 8
REMARK VINA RESULT:    -4.987      5.517     10.176
REMARK INTER + INTRA:         -13.186
REMARK INTER:                 -10.064
REMARK INTRA:                  -3.123
REMARK UNBOUND:                -1.786
REMARK SMILES CCCCCCCCCCCCCCCCCCCCCCCC(=O)[O-]
REMARK SMILES IDX 13 1 14 2 15 3 16 4 17 5 18 6 19 7 20 8 21 9 22 10 23 11
REMARK SMILES IDX 24 12 25 13 26 14 12 15 11 16 10 17 9 18 8 19 7 20 6 21 5 22
REMARK SMILES IDX 4 23 3 24 2 25 1 26
REMARK H PARENT
REMARK Flexibility Score: inf
ROOT
ATOM      1  C   UNL     1      -3.040  28.038 -18.967  1.00  0.00     0.000 C 
ENDROOT
BRANCH   1   2
ATOM      2  C   UNL     1      -3.316  27.109 -20.163  1.00  0.00     0.000 C 
BRANCH   2   3
ATOM      3  C   UNL     1      -4.632  26.308 -20.084  1.00  0.00     0.000 C 
BRANCH   3   4
ATOM      4  C   UNL     1      -5.914  27.156 -19.981  1.00  0.00     0.000 C 
BRANCH   4   5
ATOM      5  C   UNL     1      -6.064  28.156 -21.141  1.00  0.00     0.000 C 
BRANCH   5   6
ATOM      6  C   UNL     1      -6.435  29.567 -20.657  1.00  0.00     0.000 C 
BRANCH   6   7
ATOM      7  C   UNL     1      -6.463  29.686 -19.123  1.00  0.00     0.000 C 
BRANCH   7   8
ATOM      8  C   UNL     1      -6.678  31.132 -18.647  1.00  0.00     0.000 C 
BRANCH   8   9
ATOM      9  C   UNL     1      -6.338  32.167 -19.731  1.00  0.00     0.000 C 
BRANCH   9  10
ATOM     10  C   UNL     1      -6.759  33.579 -19.297  1.00  0.00     0.006 C 
BRANCH  10  11
ATOM     11  C   UNL     1      -6.842  33.717 -17.771  1.00  0.00     0.053 C 
BRANCH  11  12
ATOM     12  C   UNL     1      -6.499  35.103 -17.319  1.00  0.00     0.041 C 
ATOM     13  O   UNL     1      -5.638  35.278 -16.416  1.00  0.00    -0.550 OA
ATOM     14  O   UNL     1      -7.156  36.198 -17.866  1.00  0.00    -0.550 OA
ENDBRANCH  11  12
ENDBRANCH  10  11
ENDBRANCH   9  10
ENDBRANCH   8   9
ENDBRANCH   7   8
ENDBRANCH   6   7
ENDBRANCH   5   6
ENDBRANCH   4   5
ENDBRANCH   3   4
ENDBRANCH   2   3
ENDBRANCH   1   2
BRANCH   1  15
ATOM     15  C   UNL     1      -2.141  29.229 -19.333  1.00  0.00     0.000 C 
BRANCH  15  16
ATOM     16  C   UNL     1      -2.891  30.232 -20.224  1.00  0.00     0.000 C 
BRANCH  16  17
ATOM     17  C   UNL     1      -2.329  31.658 -20.112  1.00  0.00     0.000 C 
BRANCH  17  18
ATOM     18  C   UNL     1      -2.961  32.623 -21.130  1.00  0.00    -0.000 C 
BRANCH  18  19
ATOM     19  C   UNL     1      -1.954  33.090 -22.202  1.00  0.00    -0.000 C 
BRANCH  19  20
ATOM     20  C   UNL     1      -1.010  34.211 -21.725  1.00  0.00    -0.000 C 
BRANCH  20  21
ATOM     21  C   UNL     1       0.379  34.222 -22.391  1.00  0.00    -0.000 C 
BRANCH  21  22
ATOM     22  C   UNL     1       1.077  32.850 -22.464  1.00  0.00    -0.000 C 
BRANCH  22  23
ATOM     23  C   UNL     1       2.094  32.573 -21.340  1.00  0.00    -0.000 C 
BRANCH  23  24
ATOM     24  C   UNL     1       1.505  31.804 -20.138  1.00  0.00    -0.000 C 
BRANCH  24  25
ATOM     25  C   UNL     1       1.794  32.495 -18.799  1.00  0.00    -0.003 C 
ATOM     26  C   UNL     1       0.552  33.204 -18.265  1.00  0.00     0.004 C 
ENDBRANCH  24  25
ENDBRANCH  23  24
ENDBRANCH  22  23
ENDBRANCH  21  22
ENDBRANCH  20  21
ENDBRANCH  19  20
ENDBRANCH  18  19
ENDBRANCH  17  18
ENDBRANCH  16  17
ENDBRANCH  15  16
ENDBRANCH   1  15
TORSDOF 22
ENDMDL
MODEL 9
REMARK VINA RESULT:    -4.919      6.122      8.764
REMARK INTER + INTRA:         -13.031
REMARK INTER:                  -9.060
REMARK INTRA:                  -3.972
REMARK UNBOUND:                -1.786
REMARK SMILES CCCCCCCCCCCCCCCCCCCCCCCC(=O)[O-]
REMARK SMILES IDX 13 1 14 2 15 3 16 4 17 5 18 6 19 7 20 8 21 9 22 10 23 11
REMARK SMILES IDX 24 12 25 13 26 14 12 15 11 16 10 17 9 18 8 19 7 20 6 21 5 22
REMARK SMILES IDX 4 23 3 24 2 25 1 26
REMARK H PARENT
REMARK Flexibility Score: inf
ROOT
ATOM      1  C   UNL     1      -6.885  31.667 -19.738  1.00  0.00     0.000 C 
ENDROOT
BRANCH   1   2
ATOM      2  C   UNL     1      -6.632  33.185 -19.754  1.00  0.00     0.000 C 
BRANCH   2   3
ATOM      3  C   UNL     1      -6.487  33.843 -18.365  1.00  0.00     0.000 C 
BRANCH   3   4
ATOM      4  C   UNL     1      -5.566  35.076 -18.314  1.00  0.00     0.000 C 
BRANCH   4   5
ATOM      5  C   UNL     1      -5.036  35.485 -19.699  1.00  0.00     0.000 C 
BRANCH   5   6
ATOM      6  C   UNL     1      -3.509  35.657 -19.719  1.00  0.00     0.000 C 
BRANCH   6   7
ATOM      7  C   UNL     1      -2.757  34.362 -19.363  1.00  0.00     0.000 C 
BRANCH   7   8
ATOM      8  C   UNL     1      -1.253  34.448 -19.675  1.00  0.00     0.000 C 
BRANCH   8   9
ATOM      9  C   UNL     1      -0.844  33.558 -20.859  1.00  0.00     0.000 C 
BRANCH   9  10
ATOM     10  C   UNL     1       0.173  32.492 -20.421  1.00  0.00     0.006 C 
BRANCH  10  11
ATOM     11  C   UNL     1       0.445  32.535 -18.911  1.00  0.00     0.053 C 
BRANCH  11  12
ATOM     12  C   UNL     1       1.877  32.858 -18.614  1.00  0.00     0.041 C 
ATOM     13  O   UNL     1       2.329  34.009 -18.853  1.00  0.00    -0.550 OA
ATOM     14  O   UNL     1       2.723  31.878 -18.110  1.00  0.00    -0.550 OA
ENDBRANCH  11  12
ENDBRANCH  10  11
ENDBRANCH   9  10
ENDBRANCH   8   9
ENDBRANCH   7   8
ENDBRANCH   6   7
ENDBRANCH   5   6
ENDBRANCH   4   5
ENDBRANCH   3   4
ENDBRANCH   2   3
ENDBRANCH   1   2
BRANCH   1  15
ATOM     15  C   UNL     1      -6.645  31.038 -18.357  1.00  0.00     0.000 C 
BRANCH  15  16
ATOM     16  C   UNL     1      -6.554  29.507 -18.459  1.00  0.00     0.000 C 
BRANCH  16  17
ATOM     17  C   UNL     1      -6.409  29.018 -19.908  1.00  0.00     0.000 C 
BRANCH  17  18
ATOM     18  C   UNL     1      -5.893  27.570 -19.994  1.00  0.00    -0.000 C 
BRANCH  18  19
ATOM     19  C   UNL     1      -4.548  27.469 -20.744  1.00  0.00    -0.000 C 
BRANCH  19  20
ATOM     20  C   UNL     1      -3.337  27.229 -19.821  1.00  0.00    -0.000 C 
BRANCH  20  21
ATOM     21  C   UNL     1      -2.926  28.436 -18.956  1.00  0.00    -0.000 C 
BRANCH  21  22
ATOM     22  C   UNL     1      -2.314  29.616 -19.736  1.00  0.00    -0.000 C 
BRANCH  22  23
ATOM     23  C   UNL     1      -3.281  30.781 -20.023  1.00  0.00    -0.000 C 
BRANCH  23  24
ATOM     24  C   UNL     1      -3.641  30.942 -21.516  1.00  0.00    -0.000 C 
BRANCH  24  25
ATOM     25  C   UNL     1      -3.964  32.395 -21.890  1.00  0.00    -0.003 C 
ATOM     26  C   UNL     1      -3.597  32.683 -23.344  1.00  0.00     0.004 C 
ENDBRANCH  24  25
ENDBRANCH  23  24
ENDBRANCH  22  23
ENDBRANCH  21  22
ENDBRANCH  20  21
ENDBRANCH  19  20
ENDBRANCH  18  19
ENDBRANCH  17  18
ENDBRANCH  16  17
ENDBRANCH  15  16
ENDBRANCH   1  15
TORSDOF 22
ENDMDL
