MODEL 1
REMARK VINA RESULT:    -5.425      0.000      0.000
REMARK INTER + INTRA:          -5.993
REMARK INTER:                  -5.742
REMARK INTRA:                  -0.251
REMARK UNBOUND:                -0.251
REMARK SMILES CC1=C[C@H]2C(=C(C)CC[C@@H]2C(C)C)CC1
REMARK SMILES IDX 1 1 2 2 3 3 4 4 10 5 9 6 8 7 6 8 5 9 14 10 15 11 7 12 11 13
REMARK SMILES IDX 12 14 13 15
REMARK H PARENT
REMARK Flexibility Score: inf
ROOT
ATOM      1  C   UNL     1     134.009 133.545 139.238  1.00  0.00     0.039 C 
ATOM      2  C   UNL     1     133.583 133.945 137.851  1.00  0.00    -0.076 C 
ATOM      3  C   UNL     1     133.921 133.160 136.805  1.00  0.00    -0.020 C 
ATOM      4  C   UNL     1     133.501 133.427 135.363  1.00  0.00     0.041 C 
ATOM      5  C   UNL     1     134.711 133.400 134.375  1.00  0.00     0.003 C 
ATOM      6  C   UNL     1     134.179 133.742 132.970  1.00  0.00     0.009 C 
ATOM      7  C   UNL     1     133.601 135.153 132.934  1.00  0.00     0.031 C 
ATOM      8  C   UNL     1     132.675 135.461 134.090  1.00  0.00    -0.073 C 
ATOM      9  C   UNL     1     132.696 134.727 135.242  1.00  0.00    -0.064 C 
ATOM     10  C   UNL     1     131.866 135.100 136.453  1.00  0.00     0.036 C 
ATOM     11  C   UNL     1     132.799 135.219 137.652  1.00  0.00     0.035 C 
ATOM     12  C   UNL     1     131.842 136.716 133.959  1.00  0.00     0.039 C 
ENDROOT
BRANCH   5  13
ATOM     13  C   UNL     1     135.540 132.064 134.301  1.00  0.00    -0.013 C 
ATOM     14  C   UNL     1     135.653 131.498 132.875  1.00  0.00     0.007 C 
ATOM     15  C   UNL     1     136.911 132.125 134.994  1.00  0.00     0.007 C 
ENDBRANCH   5  13
TORSDOF 1
ENDMDL
MODEL 2
REMARK VINA RESULT:    -5.421      6.530      7.906
REMARK INTER + INTRA:          -5.989
REMARK INTER:                  -5.730
REMARK INTRA:                  -0.259
REMARK UNBOUND:                -0.251
REMARK SMILES CC1=C[C@H]2C(=C(C)CC[C@@H]2C(C)C)CC1
REMARK SMILES IDX 1 1 2 2 3 3 4 4 10 5 9 6 8 7 6 8 5 9 14 10 15 11 7 12 11 13
REMARK SMILES IDX 12 14 13 15
REMARK H PARENT
REMARK Flexibility Score: inf
ROOT
ATOM      1  C   UNL     1     138.599 139.032 139.209  1.00  0.00     0.039 C 
ATOM      2  C   UNL     1     139.037 138.658 137.818  1.00  0.00    -0.076 C 
ATOM      3  C   UNL     1     138.697 139.455 136.782  1.00  0.00    -0.020 C 
ATOM      4  C   UNL     1     139.128 139.214 135.338  1.00  0.00     0.041 C 
ATOM      5  C   UNL     1     137.923 139.243 134.344  1.00  0.00     0.003 C 
ATOM      6  C   UNL     1     138.467 138.927 132.938  1.00  0.00     0.009 C 
ATOM      7  C   UNL     1     139.061 137.523 132.883  1.00  0.00     0.031 C 
ATOM      8  C   UNL     1     139.983 137.208 134.041  1.00  0.00    -0.073 C 
ATOM      9  C   UNL     1     139.948 137.924 135.203  1.00  0.00    -0.064 C 
ATOM     10  C   UNL     1     140.775 137.542 136.413  1.00  0.00     0.036 C 
ATOM     11  C   UNL     1     139.836 137.395 137.605  1.00  0.00     0.035 C 
ATOM     12  C   UNL     1     140.830 135.964 133.895  1.00  0.00     0.039 C 
ENDROOT
BRANCH   5  13
ATOM     13  C   UNL     1     137.080 140.571 134.285  1.00  0.00    -0.013 C 
ATOM     14  C   UNL     1     137.010 141.183 132.875  1.00  0.00     0.007 C 
ATOM     15  C   UNL     1     135.687 140.471 134.928  1.00  0.00     0.007 C 
ENDBRANCH   5  13
TORSDOF 1
ENDMDL
MODEL 3
REMARK VINA RESULT:    -5.420      3.924      5.563
REMARK INTER + INTRA:          -5.988
REMARK INTER:                  -5.732
REMARK INTRA:                  -0.256
REMARK UNBOUND:                -0.251
REMARK SMILES CC1=C[C@H]2C(=C(C)CC[C@@H]2C(C)C)CC1
REMARK SMILES IDX 1 1 2 2 3 3 4 4 10 5 9 6 8 7 6 8 5 9 14 10 15 11 7 12 11 13
REMARK SMILES IDX 12 14 13 15
REMARK H PARENT
REMARK Flexibility Score: inf
ROOT
ATOM      1  C   UNL     1     138.999 134.005 139.208  1.00  0.00     0.039 C 
ATOM      2  C   UNL     1     138.622 133.574 137.816  1.00  0.00    -0.076 C 
ATOM      3  C   UNL     1     139.421 133.912 136.781  1.00  0.00    -0.020 C 
ATOM      4  C   UNL     1     139.178 133.488 135.336  1.00  0.00     0.041 C 
ATOM      5  C   UNL     1     139.215 134.695 134.346  1.00  0.00     0.003 C 
ATOM      6  C   UNL     1     138.895 134.158 132.937  1.00  0.00     0.009 C 
ATOM      7  C   UNL     1     137.487 133.574 132.881  1.00  0.00     0.031 C 
ATOM      8  C   UNL     1     137.165 132.650 134.035  1.00  0.00    -0.073 C 
ATOM      9  C   UNL     1     137.882 132.677 135.197  1.00  0.00    -0.064 C 
ATOM     10  C   UNL     1     137.494 131.849 136.405  1.00  0.00     0.036 C 
ATOM     11  C   UNL     1     137.353 132.784 137.600  1.00  0.00     0.035 C 
ATOM     12  C   UNL     1     135.916 131.812 133.886  1.00  0.00     0.039 C 
ENDROOT
BRANCH   5  13
ATOM     13  C   UNL     1     140.548 135.529 134.289  1.00  0.00    -0.013 C 
ATOM     14  C   UNL     1     141.149 135.618 132.876  1.00  0.00     0.007 C 
ATOM     15  C   UNL     1     140.464 136.912 134.956  1.00  0.00     0.007 C 
ENDBRANCH   5  13
TORSDOF 1
ENDMDL
MODEL 4
REMARK VINA RESULT:    -5.420      3.939      5.581
REMARK INTER + INTRA:          -5.988
REMARK INTER:                  -5.718
REMARK INTRA:                  -0.269
REMARK UNBOUND:                -0.251
REMARK SMILES CC1=C[C@H]2C(=C(C)CC[C@@H]2C(C)C)CC1
REMARK SMILES IDX 1 1 2 2 3 3 4 4 10 5 9 6 8 7 6 8 5 9 14 10 15 11 7 12 11 13
REMARK SMILES IDX 12 14 13 15
REMARK H PARENT
REMARK Flexibility Score: inf
ROOT
ATOM      1  C   UNL     1     133.575 138.640 139.214  1.00  0.00     0.039 C 
ATOM      2  C   UNL     1     133.969 139.068 137.826  1.00  0.00    -0.076 C 
ATOM      3  C   UNL     1     133.196 138.707 136.779  1.00  0.00    -0.020 C 
ATOM      4  C   UNL     1     133.458 139.124 135.335  1.00  0.00     0.041 C 
ATOM      5  C   UNL     1     133.462 137.909 134.354  1.00  0.00     0.003 C 
ATOM      6  C   UNL     1     133.797 138.441 132.947  1.00  0.00     0.009 C 
ATOM      7  C   UNL     1     135.195 139.052 132.912  1.00  0.00     0.031 C 
ATOM      8  C   UNL     1     135.478 139.991 134.065  1.00  0.00    -0.073 C 
ATOM      9  C   UNL     1     134.740 139.959 135.214  1.00  0.00    -0.064 C 
ATOM     10  C   UNL     1     135.090 140.804 136.422  1.00  0.00     0.036 C 
ATOM     11  C   UNL     1     135.226 139.880 137.627  1.00  0.00     0.035 C 
ATOM     12  C   UNL     1     136.713 140.852 133.933  1.00  0.00     0.039 C 
ENDROOT
BRANCH   5  13
ATOM     13  C   UNL     1     132.147 137.049 134.280  1.00  0.00    -0.013 C 
ATOM     14  C   UNL     1     131.520 137.018 132.875  1.00  0.00     0.007 C 
ATOM     15  C   UNL     1     132.274 135.636 134.872  1.00  0.00     0.007 C 
ENDBRANCH   5  13
TORSDOF 1
ENDMDL
MODEL 5
REMARK VINA RESULT:    -5.190      6.034      7.318
REMARK INTER + INTRA:          -5.744
REMARK INTER:                  -5.471
REMARK INTRA:                  -0.274
REMARK UNBOUND:                -0.251
REMARK SMILES CC1=C[C@H]2C(=C(C)CC[C@@H]2C(C)C)CC1
REMARK SMILES IDX 1 1 2 2 3 3 4 4 10 5 9 6 8 7 6 8 5 9 14 10 15 11 7 12 11 13
REMARK SMILES IDX 12 14 13 15
REMARK H PARENT
REMARK Flexibility Score: inf
ROOT
ATOM      1  C   UNL     1     140.715 138.102 136.248  1.00  0.00     0.039 C 
ATOM      2  C   UNL     1     139.294 138.412 136.638  1.00  0.00    -0.076 C 
ATOM      3  C   UNL     1     138.361 138.555 135.672  1.00  0.00    -0.020 C 
ATOM      4  C   UNL     1     136.881 138.813 135.941  1.00  0.00     0.041 C 
ATOM      5  C   UNL     1     136.334 140.035 135.138  1.00  0.00     0.003 C 
ATOM      6  C   UNL     1     134.859 140.237 135.536  1.00  0.00     0.009 C 
ATOM      7  C   UNL     1     134.734 140.581 137.016  1.00  0.00     0.031 C 
ATOM      8  C   UNL     1     135.551 139.684 137.920  1.00  0.00    -0.073 C 
ATOM      9  C   UNL     1     136.597 138.945 137.444  1.00  0.00    -0.064 C 
ATOM     10  C   UNL     1     137.501 138.142 138.356  1.00  0.00     0.036 C 
ATOM     11  C   UNL     1     138.941 138.570 138.097  1.00  0.00     0.035 C 
ATOM     12  C   UNL     1     135.245 139.772 139.398  1.00  0.00     0.039 C 
ENDROOT
BRANCH   5  13
ATOM     13  C   UNL     1     136.439 139.961 133.569  1.00  0.00    -0.013 C 
ATOM     14  C   UNL     1     135.090 139.687 132.883  1.00  0.00     0.007 C 
ATOM     15  C   UNL     1     137.171 141.148 132.922  1.00  0.00     0.007 C 
ENDBRANCH   5  13
TORSDOF 1
ENDMDL
MODEL 6
REMARK VINA RESULT:    -5.169      1.427      2.225
REMARK INTER + INTRA:          -5.722
REMARK INTER:                  -5.448
REMARK INTRA:                  -0.274
REMARK UNBOUND:                -0.251
REMARK SMILES CC1=C[C@H]2C(=C(C)CC[C@@H]2C(C)C)CC1
REMARK SMILES IDX 1 1 2 2 3 3 4 4 10 5 9 6 8 7 6 8 5 9 14 10 15 11 7 12 11 13
REMARK SMILES IDX 12 14 13 15
REMARK H PARENT
REMARK Flexibility Score: inf
ROOT
ATOM      1  C   UNL     1     132.991 135.123 139.408  1.00  0.00     0.039 C 
ATOM      2  C   UNL     1     133.224 134.697 137.984  1.00  0.00    -0.076 C 
ATOM      3  C   UNL     1     134.214 133.819 137.711  1.00  0.00    -0.020 C 
ATOM      4  C   UNL     1     134.512 133.268 136.319  1.00  0.00     0.041 C 
ATOM      5  C   UNL     1     136.016 133.420 135.928  1.00  0.00     0.003 C 
ATOM      6  C   UNL     1     136.183 132.892 134.490  1.00  0.00     0.009 C 
ATOM      7  C   UNL     1     135.375 133.729 133.503  1.00  0.00     0.031 C 
ATOM      8  C   UNL     1     133.956 133.998 133.953  1.00  0.00    -0.073 C 
ATOM      9  C   UNL     1     133.583 133.878 135.261  1.00  0.00    -0.064 C 
ATOM     10  C   UNL     1     132.201 134.266 135.746  1.00  0.00     0.036 C 
ATOM     11  C   UNL     1     132.358 135.265 136.886  1.00  0.00     0.035 C 
ATOM     12  C   UNL     1     133.020 134.555 132.904  1.00  0.00     0.039 C 
ENDROOT
BRANCH   5  13
ATOM     13  C   UNL     1     137.070 132.717 136.861  1.00  0.00    -0.013 C 
ATOM     14  C   UNL     1     137.872 131.614 136.148  1.00  0.00     0.007 C 
ATOM     15  C   UNL     1     137.991 133.682 137.624  1.00  0.00     0.007 C 
ENDBRANCH   5  13
TORSDOF 1
ENDMDL
MODEL 7
REMARK VINA RESULT:    -5.169      5.224      6.780
REMARK INTER + INTRA:          -5.722
REMARK INTER:                  -5.448
REMARK INTRA:                  -0.274
REMARK UNBOUND:                -0.251
REMARK SMILES CC1=C[C@H]2C(=C(C)CC[C@@H]2C(C)C)CC1
REMARK SMILES IDX 1 1 2 2 3 3 4 4 10 5 9 6 8 7 6 8 5 9 14 10 15 11 7 12 11 13
REMARK SMILES IDX 12 14 13 15
REMARK H PARENT
REMARK Flexibility Score: inf
ROOT
ATOM      1  C   UNL     1     138.126 131.923 136.204  1.00  0.00     0.039 C 
ATOM      2  C   UNL     1     138.424 133.343 136.602  1.00  0.00    -0.076 C 
ATOM      3  C   UNL     1     138.571 134.281 135.642  1.00  0.00    -0.020 C 
ATOM      4  C   UNL     1     138.819 135.761 135.919  1.00  0.00     0.041 C 
ATOM      5  C   UNL     1     140.046 136.319 135.129  1.00  0.00     0.003 C 
ATOM      6  C   UNL     1     140.235 137.793 135.535  1.00  0.00     0.009 C 
ATOM      7  C   UNL     1     140.565 137.913 137.020  1.00  0.00     0.031 C 
ATOM      8  C   UNL     1     139.663 137.087 137.912  1.00  0.00    -0.073 C 
ATOM      9  C   UNL     1     138.935 136.040 137.424  1.00  0.00    -0.064 C 
ATOM     10  C   UNL     1     138.128 135.127 138.325  1.00  0.00     0.036 C 
ATOM     11  C   UNL     1     138.566 133.691 138.064  1.00  0.00     0.035 C 
ATOM     12  C   UNL     1     139.736 137.388 139.392  1.00  0.00     0.039 C 
ENDROOT
BRANCH   5  13
ATOM     13  C   UNL     1     139.987 136.219 133.560  1.00  0.00    -0.013 C 
ATOM     14  C   UNL     1     139.738 137.574 132.875  1.00  0.00     0.007 C 
ATOM     15  C   UNL     1     141.170 135.473 132.923  1.00  0.00     0.007 C 
ENDBRANCH   5  13
TORSDOF 1
ENDMDL
MODEL 8
REMARK VINA RESULT:    -5.136      2.589      4.968
REMARK INTER + INTRA:          -5.688
REMARK INTER:                  -5.414
REMARK INTRA:                  -0.273
REMARK UNBOUND:                -0.251
REMARK SMILES CC1=C[C@H]2C(=C(C)CC[C@@H]2C(C)C)CC1
REMARK SMILES IDX 1 1 2 2 3 3 4 4 10 5 9 6 8 7 6 8 5 9 14 10 15 11 7 12 11 13
REMARK SMILES IDX 12 14 13 15
REMARK H PARENT
REMARK Flexibility Score: inf
ROOT
ATOM      1  C   UNL     1     134.570 140.706 136.210  1.00  0.00     0.039 C 
ATOM      2  C   UNL     1     134.254 139.289 136.607  1.00  0.00    -0.076 C 
ATOM      3  C   UNL     1     134.110 138.351 135.647  1.00  0.00    -0.020 C 
ATOM      4  C   UNL     1     133.845 136.874 135.924  1.00  0.00     0.041 C 
ATOM      5  C   UNL     1     132.623 136.326 135.120  1.00  0.00     0.003 C 
ATOM      6  C   UNL     1     132.415 134.854 135.526  1.00  0.00     0.009 C 
ATOM      7  C   UNL     1     132.067 134.740 137.007  1.00  0.00     0.031 C 
ATOM      8  C   UNL     1     132.965 135.559 137.908  1.00  0.00    -0.073 C 
ATOM      9  C   UNL     1     133.709 136.598 137.427  1.00  0.00    -0.064 C 
ATOM     10  C   UNL     1     134.513 137.505 138.336  1.00  0.00     0.036 C 
ATOM     11  C   UNL     1     134.091 138.945 138.068  1.00  0.00     0.035 C 
ATOM     12  C   UNL     1     132.871 135.261 139.388  1.00  0.00     0.039 C 
ENDROOT
BRANCH   5  13
ATOM     13  C   UNL     1     132.701 136.422 133.552  1.00  0.00    -0.013 C 
ATOM     14  C   UNL     1     132.997 135.073 132.875  1.00  0.00     0.007 C 
ATOM     15  C   UNL     1     131.507 137.133 132.895  1.00  0.00     0.007 C 
ENDBRANCH   5  13
TORSDOF 1
ENDMDL
MODEL 9
REMARK VINA RESULT:    -5.135      1.816      4.131
REMARK INTER + INTRA:          -5.686
REMARK INTER:                  -5.411
REMARK INTRA:                  -0.275
REMARK UNBOUND:                -0.251
REMARK SMILES CC1=C[C@H]2C(=C(C)CC[C@@H]2C(C)C)CC1
REMARK SMILES IDX 1 1 2 2 3 3 4 4 10 5 9 6 8 7 6 8 5 9 14 10 15 11 7 12 11 13
REMARK SMILES IDX 12 14 13 15
REMARK H PARENT
REMARK Flexibility Score: inf
ROOT
ATOM      1  C   UNL     1     131.906 134.507 136.220  1.00  0.00     0.039 C 
ATOM      2  C   UNL     1     133.327 134.215 136.622  1.00  0.00    -0.076 C 
ATOM      3  C   UNL     1     134.262 134.044 135.663  1.00  0.00    -0.020 C 
ATOM      4  C   UNL     1     135.742 133.800 135.943  1.00  0.00     0.041 C 
ATOM      5  C   UNL     1     136.295 132.553 135.182  1.00  0.00     0.003 C 
ATOM      6  C   UNL     1     137.770 132.370 135.589  1.00  0.00     0.009 C 
ATOM      7  C   UNL     1     137.893 132.076 137.080  1.00  0.00     0.031 C 
ATOM      8  C   UNL     1     137.072 133.000 137.952  1.00  0.00    -0.073 C 
ATOM      9  C   UNL     1     136.024 133.719 137.450  1.00  0.00    -0.064 C 
ATOM     10  C   UNL     1     135.116 134.549 138.333  1.00  0.00     0.036 C 
ATOM     11  C   UNL     1     133.678 134.108 138.086  1.00  0.00     0.035 C 
ATOM     12  C   UNL     1     137.376 132.962 139.433  1.00  0.00     0.039 C 
ENDROOT
BRANCH   5  13
ATOM     13  C   UNL     1     136.192 132.575 133.612  1.00  0.00    -0.013 C 
ATOM     14  C   UNL     1     137.561 132.665 132.915  1.00  0.00     0.007 C 
ATOM     15  C   UNL     1     135.327 131.454 133.014  1.00  0.00     0.007 C 
ENDBRANCH   5  13
TORSDOF 1
ENDMDL
