MODEL 1
REMARK VINA RESULT:    -3.152      0.000      0.000
REMARK INTER + INTRA:         -13.260
REMARK INTER:                  -8.219
REMARK INTRA:                  -5.040
REMARK UNBOUND:                -5.040
REMARK SMILES CCCCCCCCCCCCCCCCCCCCCCCCCCCCCO
REMARK SMILES IDX 16 1 15 2 14 3 13 4 12 5 11 6 10 7 9 8 8 9 7 10 6 11 5 12
REMARK SMILES IDX 4 13 3 14 2 15 1 16 17 17 18 18 19 19 20 20 21 21 22 22
REMARK SMILES IDX 23 23 24 24 25 25 26 26 27 27 28 28 29 29 30 30
REMARK H PARENT 30 31
REMARK Flexibility Score: inf
ROOT
ATOM      1  C   UNL     1      28.537 -23.928  23.655  1.00  0.00     0.000 C 
ENDROOT
BRANCH   1   2
ATOM      2  C   UNL     1      27.699 -23.341  24.806  1.00  0.00     0.000 C 
BRANCH   2   3
ATOM      3  C   UNL     1      28.554 -22.618  25.861  1.00  0.00     0.000 C 
BRANCH   3   4
ATOM      4  C   UNL     1      27.831 -21.418  26.493  1.00  0.00     0.000 C 
BRANCH   4   5
ATOM      5  C   UNL     1      28.793 -20.282  26.888  1.00  0.00     0.000 C 
BRANCH   5   6
ATOM      6  C   UNL     1      30.268 -20.702  26.745  1.00  0.00     0.000 C 
BRANCH   6   7
ATOM      7  C   UNL     1      30.951 -20.988  28.096  1.00  0.00     0.000 C 
BRANCH   7   8
ATOM      8  C   UNL     1      30.151 -20.428  29.287  1.00  0.00    -0.000 C 
BRANCH   8   9
ATOM      9  C   UNL     1      30.670 -19.052  29.758  1.00  0.00    -0.000 C 
BRANCH   9  10
ATOM     10  C   UNL     1      32.181 -18.832  29.535  1.00  0.00    -0.000 C 
BRANCH  10  11
ATOM     11  C   UNL     1      32.544 -17.838  28.419  1.00  0.00    -0.000 C 
BRANCH  11  12
ATOM     12  C   UNL     1      31.428 -16.811  28.145  1.00  0.00    -0.000 C 
BRANCH  12  13
ATOM     13  C   UNL     1      30.766 -17.009  26.769  1.00  0.00    -0.000 C 
BRANCH  13  14
ATOM     14  C   UNL     1      31.734 -17.471  25.663  1.00  0.00    -0.000 C 
BRANCH  14  15
ATOM     15  C   UNL     1      32.543 -16.313  25.057  1.00  0.00    -0.003 C 
ATOM     16  C   UNL     1      34.028 -16.459  25.373  1.00  0.00     0.004 C 
ENDBRANCH  14  15
ENDBRANCH  13  14
ENDBRANCH  12  13
ENDBRANCH  11  12
ENDBRANCH  10  11
ENDBRANCH   9  10
ENDBRANCH   8   9
ENDBRANCH   7   8
ENDBRANCH   6   7
ENDBRANCH   5   6
ENDBRANCH   4   5
ENDBRANCH   3   4
ENDBRANCH   2   3
ENDBRANCH   1   2
BRANCH   1  17
ATOM     17  C   UNL     1      27.944 -23.739  22.246  1.00  0.00     0.000 C 
BRANCH  17  18
ATOM     18  C   UNL     1      28.992 -23.308  21.206  1.00  0.00     0.000 C 
BRANCH  18  19
ATOM     19  C   UNL     1      30.433 -23.441  21.727  1.00  0.00     0.000 C 
BRANCH  19  20
ATOM     20  C   UNL     1      31.151 -22.086  21.852  1.00  0.00     0.000 C 
BRANCH  20  21
ATOM     21  C   UNL     1      30.209 -20.891  21.614  1.00  0.00     0.000 C 
BRANCH  21  22
ATOM     22  C   UNL     1      29.669 -20.214  22.890  1.00  0.00     0.000 C 
BRANCH  22  23
ATOM     23  C   UNL     1      28.134 -20.160  23.003  1.00  0.00     0.000 C 
BRANCH  23  24
ATOM     24  C   UNL     1      27.579 -18.919  23.731  1.00  0.00     0.000 C 
BRANCH  24  25
ATOM     25  C   UNL     1      28.586 -17.751  23.831  1.00  0.00     0.000 C 
BRANCH  25  26
ATOM     26  C   UNL     1      27.901 -16.396  24.064  1.00  0.00     0.000 C 
BRANCH  26  27
ATOM     27  C   UNL     1      28.918 -15.246  24.008  1.00  0.00     0.002 C 
BRANCH  27  28
ATOM     28  C   UNL     1      29.866 -15.352  22.803  1.00  0.00     0.028 C 
BRANCH  28  29
ATOM     29  C   UNL     1      30.226 -13.984  22.209  1.00  0.00     0.156 C 
BRANCH  29  30
ATOM     30  O   UNL     1      29.351 -13.671  21.159  1.00  0.00    -0.396 OA
ATOM     31  H   UNL     1      28.484 -14.108  21.370  1.00  0.00     0.210 HD
ENDBRANCH  29  30
ENDBRANCH  28  29
ENDBRANCH  27  28
ENDBRANCH  26  27
ENDBRANCH  25  26
ENDBRANCH  24  25
ENDBRANCH  23  24
ENDBRANCH  22  23
ENDBRANCH  21  22
ENDBRANCH  20  21
ENDBRANCH  19  20
ENDBRANCH  18  19
ENDBRANCH  17  18
ENDBRANCH   1  17
TORSDOF 28
ENDMDL
MODEL 2
REMARK VINA RESULT:    -3.129      9.728     12.755
REMARK INTER + INTRA:         -13.201
REMARK INTER:                  -8.887
REMARK INTRA:                  -4.314
REMARK UNBOUND:                -5.040
REMARK SMILES CCCCCCCCCCCCCCCCCCCCCCCCCCCCCO
REMARK SMILES IDX 16 1 15 2 14 3 13 4 12 5 11 6 10 7 9 8 8 9 7 10 6 11 5 12
REMARK SMILES IDX 4 13 3 14 2 15 1 16 17 17 18 18 19 19 20 20 21 21 22 22
REMARK SMILES IDX 23 23 24 24 25 25 26 26 27 27 28 28 29 29 30 30
REMARK H PARENT 30 31
REMARK Flexibility Score: inf
ROOT
ATOM      1  C   UNL     1      28.183 -20.070  33.253  1.00  0.00     0.000 C 
ENDROOT
BRANCH   1   2
ATOM      2  C   UNL     1      27.998 -21.530  33.710  1.00  0.00     0.000 C 
BRANCH   2   3
ATOM      3  C   UNL     1      29.178 -22.435  33.315  1.00  0.00     0.000 C 
BRANCH   3   4
ATOM      4  C   UNL     1      29.262 -23.709  34.170  1.00  0.00     0.000 C 
BRANCH   4   5
ATOM      5  C   UNL     1      29.739 -23.431  35.608  1.00  0.00     0.000 C 
BRANCH   5   6
ATOM      6  C   UNL     1      28.768 -24.004  36.658  1.00  0.00     0.000 C 
BRANCH   6   7
ATOM      7  C   UNL     1      27.687 -22.998  37.096  1.00  0.00     0.000 C 
BRANCH   7   8
ATOM      8  C   UNL     1      26.305 -23.325  36.499  1.00  0.00    -0.000 C 
BRANCH   8   9
ATOM      9  C   UNL     1      25.361 -22.102  36.482  1.00  0.00    -0.000 C 
BRANCH   9  10
ATOM     10  C   UNL     1      25.855 -20.906  37.320  1.00  0.00    -0.000 C 
BRANCH  10  11
ATOM     11  C   UNL     1      25.414 -19.521  36.815  1.00  0.00    -0.000 C 
BRANCH  11  12
ATOM     12  C   UNL     1      24.982 -19.533  35.336  1.00  0.00    -0.000 C 
BRANCH  12  13
ATOM     13  C   UNL     1      25.159 -18.162  34.657  1.00  0.00    -0.000 C 
BRANCH  13  14
ATOM     14  C   UNL     1      26.117 -17.210  35.396  1.00  0.00    -0.000 C 
BRANCH  14  15
ATOM     15  C   UNL     1      25.404 -15.981  35.980  1.00  0.00    -0.003 C 
ATOM     16  C   UNL     1      25.690 -15.838  37.472  1.00  0.00     0.004 C 
ENDBRANCH  14  15
ENDBRANCH  13  14
ENDBRANCH  12  13
ENDBRANCH  11  12
ENDBRANCH  10  11
ENDBRANCH   9  10
ENDBRANCH   8   9
ENDBRANCH   7   8
ENDBRANCH   6   7
ENDBRANCH   5   6
ENDBRANCH   4   5
ENDBRANCH   3   4
ENDBRANCH   2   3
ENDBRANCH   1   2
BRANCH   1  17
ATOM     17  C   UNL     1      28.884 -19.147  34.267  1.00  0.00     0.000 C 
BRANCH  17  18
ATOM     18  C   UNL     1      28.908 -19.728  35.692  1.00  0.00     0.000 C 
BRANCH  18  19
ATOM     19  C   UNL     1      29.063 -18.644  36.771  1.00  0.00     0.000 C 
BRANCH  19  20
ATOM     20  C   UNL     1      29.720 -17.360  36.239  1.00  0.00     0.000 C 
BRANCH  20  21
ATOM     21  C   UNL     1      29.433 -16.134  37.126  1.00  0.00     0.000 C 
BRANCH  21  22
ATOM     22  C   UNL     1      29.121 -14.830  36.363  1.00  0.00     0.000 C 
BRANCH  22  23
ATOM     23  C   UNL     1      30.347 -14.093  35.794  1.00  0.00     0.000 C 
BRANCH  23  24
ATOM     24  C   UNL     1      30.497 -12.629  36.253  1.00  0.00     0.000 C 
BRANCH  24  25
ATOM     25  C   UNL     1      31.597 -11.849  35.499  1.00  0.00     0.000 C 
BRANCH  25  26
ATOM     26  C   UNL     1      33.012 -12.349  35.830  1.00  0.00     0.000 C 
BRANCH  26  27
ATOM     27  C   UNL     1      33.363 -12.080  37.302  1.00  0.00     0.002 C 
BRANCH  27  28
ATOM     28  C   UNL     1      34.778 -11.507  37.478  1.00  0.00     0.028 C 
BRANCH  28  29
ATOM     29  C   UNL     1      35.876 -12.537  37.181  1.00  0.00     0.156 C 
BRANCH  29  30
ATOM     30  O   UNL     1      36.185 -13.258  38.343  1.00  0.00    -0.396 OA
ATOM     31  H   UNL     1      36.396 -12.589  39.046  1.00  0.00     0.210 HD
ENDBRANCH  29  30
ENDBRANCH  28  29
ENDBRANCH  27  28
ENDBRANCH  26  27
ENDBRANCH  25  26
ENDBRANCH  24  25
ENDBRANCH  23  24
ENDBRANCH  22  23
ENDBRANCH  21  22
ENDBRANCH  20  21
ENDBRANCH  19  20
ENDBRANCH  18  19
ENDBRANCH  17  18
ENDBRANCH   1  17
TORSDOF 28
ENDMDL
MODEL 3
REMARK VINA RESULT:    -3.106      2.456      7.010
REMARK INTER + INTRA:         -13.139
REMARK INTER:                  -8.334
REMARK INTRA:                  -4.805
REMARK UNBOUND:                -5.040
REMARK SMILES CCCCCCCCCCCCCCCCCCCCCCCCCCCCCO
REMARK SMILES IDX 16 1 15 2 14 3 13 4 12 5 11 6 10 7 9 8 8 9 7 10 6 11 5 12
REMARK SMILES IDX 4 13 3 14 2 15 1 16 17 17 18 18 19 19 20 20 21 21 22 22
REMARK SMILES IDX 23 23 24 24 25 25 26 26 27 27 28 28 29 29 30 30
REMARK H PARENT 30 31
REMARK Flexibility Score: inf
ROOT
ATOM      1  C   UNL     1      28.263 -17.386  22.925  1.00  0.00     0.000 C 
ENDROOT
BRANCH   1   2
ATOM      2  C   UNL     1      28.499 -18.909  22.894  1.00  0.00     0.000 C 
BRANCH   2   3
ATOM      3  C   UNL     1      28.257 -19.524  21.504  1.00  0.00     0.000 C 
BRANCH   3   4
ATOM      4  C   UNL     1      29.493 -20.249  20.951  1.00  0.00     0.000 C 
BRANCH   4   5
ATOM      5  C   UNL     1      30.394 -20.824  22.061  1.00  0.00     0.000 C 
BRANCH   5   6
ATOM      6  C   UNL     1      31.055 -22.149  21.638  1.00  0.00     0.000 C 
BRANCH   6   7
ATOM      7  C   UNL     1      30.380 -23.388  22.255  1.00  0.00     0.000 C 
BRANCH   7   8
ATOM      8  C   UNL     1      29.035 -23.721  21.580  1.00  0.00    -0.000 C 
BRANCH   8   9
ATOM      9  C   UNL     1      27.825 -23.451  22.501  1.00  0.00    -0.000 C 
BRANCH   9  10
ATOM     10  C   UNL     1      28.148 -23.510  24.008  1.00  0.00    -0.000 C 
BRANCH  10  11
ATOM     11  C   UNL     1      27.036 -22.996  24.940  1.00  0.00    -0.000 C 
BRANCH  11  12
ATOM     12  C   UNL     1      26.925 -21.460  24.949  1.00  0.00    -0.000 C 
BRANCH  12  13
ATOM     13  C   UNL     1      27.274 -20.848  26.318  1.00  0.00    -0.000 C 
BRANCH  13  14
ATOM     14  C   UNL     1      28.529 -19.954  26.308  1.00  0.00    -0.000 C 
BRANCH  14  15
ATOM     15  C   UNL     1      29.794 -20.707  25.869  1.00  0.00    -0.003 C 
ATOM     16  C   UNL     1      30.198 -21.751  26.905  1.00  0.00     0.004 C 
ENDBRANCH  14  15
ENDBRANCH  13  14
ENDBRANCH  12  13
ENDBRANCH  11  12
ENDBRANCH  10  11
ENDBRANCH   9  10
ENDBRANCH   8   9
ENDBRANCH   7   8
ENDBRANCH   6   7
ENDBRANCH   5   6
ENDBRANCH   4   5
ENDBRANCH   3   4
ENDBRANCH   2   3
ENDBRANCH   1   2
BRANCH   1  17
ATOM     17  C   UNL     1      28.948 -16.591  21.798  1.00  0.00     0.000 C 
BRANCH  17  18
ATOM     18  C   UNL     1      28.169 -15.326  21.396  1.00  0.00     0.000 C 
BRANCH  18  19
ATOM     19  C   UNL     1      28.887 -14.031  21.809  1.00  0.00     0.000 C 
BRANCH  19  20
ATOM     20  C   UNL     1      30.273 -14.287  22.426  1.00  0.00     0.000 C 
BRANCH  20  21
ATOM     21  C   UNL     1      30.360 -13.839  23.897  1.00  0.00     0.000 C 
BRANCH  21  22
ATOM     22  C   UNL     1      30.567 -14.976  24.919  1.00  0.00     0.000 C 
BRANCH  22  23
ATOM     23  C   UNL     1      31.472 -16.127  24.446  1.00  0.00     0.000 C 
BRANCH  23  24
ATOM     24  C   UNL     1      31.268 -17.463  25.188  1.00  0.00     0.000 C 
BRANCH  24  25
ATOM     25  C   UNL     1      31.222 -17.322  26.726  1.00  0.00     0.000 C 
BRANCH  25  26
ATOM     26  C   UNL     1      32.532 -17.760  27.400  1.00  0.00     0.000 C 
BRANCH  26  27
ATOM     27  C   UNL     1      32.299 -18.962  28.329  1.00  0.00     0.002 C 
BRANCH  27  28
ATOM     28  C   UNL     1      30.962 -18.879  29.081  1.00  0.00     0.028 C 
BRANCH  28  29
ATOM     29  C   UNL     1      31.001 -19.590  30.440  1.00  0.00     0.156 C 
BRANCH  29  30
ATOM     30  O   UNL     1      31.172 -20.969  30.256  1.00  0.00    -0.396 OA
ATOM     31  H   UNL     1      30.447 -21.417  30.766  1.00  0.00     0.210 HD
ENDBRANCH  29  30
ENDBRANCH  28  29
ENDBRANCH  27  28
ENDBRANCH  26  27
ENDBRANCH  25  26
ENDBRANCH  24  25
ENDBRANCH  23  24
ENDBRANCH  22  23
ENDBRANCH  21  22
ENDBRANCH  20  21
ENDBRANCH  19  20
ENDBRANCH  18  19
ENDBRANCH  17  18
ENDBRANCH   1  17
TORSDOF 28
ENDMDL
MODEL 4
REMARK VINA RESULT:    -3.093      1.481      3.067
REMARK INTER + INTRA:         -13.105
REMARK INTER:                  -8.423
REMARK INTRA:                  -4.682
REMARK UNBOUND:                -5.040
REMARK SMILES CCCCCCCCCCCCCCCCCCCCCCCCCCCCCO
REMARK SMILES IDX 16 1 15 2 14 3 13 4 12 5 11 6 10 7 9 8 8 9 7 10 6 11 5 12
REMARK SMILES IDX 4 13 3 14 2 15 1 16 17 17 18 18 19 19 20 20 21 21 22 22
REMARK SMILES IDX 23 23 24 24 25 25 26 26 27 27 28 28 29 29 30 30
REMARK H PARENT 30 31
REMARK Flexibility Score: inf
ROOT
ATOM      1  C   UNL     1      28.064 -19.675  24.747  1.00  0.00     0.000 C 
ENDROOT
BRANCH   1   2
ATOM      2  C   UNL     1      29.597 -19.830  24.740  1.00  0.00     0.000 C 
BRANCH   2   3
ATOM      3  C   UNL     1      30.101 -20.844  25.782  1.00  0.00     0.000 C 
BRANCH   3   4
ATOM      4  C   UNL     1      29.163 -20.968  26.993  1.00  0.00     0.000 C 
BRANCH   4   5
ATOM      5  C   UNL     1      29.574 -22.100  27.953  1.00  0.00     0.000 C 
BRANCH   5   6
ATOM      6  C   UNL     1      29.846 -21.578  29.376  1.00  0.00     0.000 C 
BRANCH   6   7
ATOM      7  C   UNL     1      31.211 -20.877  29.515  1.00  0.00     0.000 C 
BRANCH   7   8
ATOM      8  C   UNL     1      31.070 -19.363  29.764  1.00  0.00    -0.000 C 
BRANCH   8   9
ATOM      9  C   UNL     1      32.285 -18.562  29.249  1.00  0.00    -0.000 C 
BRANCH   9  10
ATOM     10  C   UNL     1      32.252 -18.256  27.738  1.00  0.00    -0.000 C 
BRANCH  10  11
ATOM     11  C   UNL     1      33.160 -17.103  27.279  1.00  0.00    -0.000 C 
BRANCH  11  12
ATOM     12  C   UNL     1      33.306 -17.029  25.746  1.00  0.00    -0.000 C 
BRANCH  12  13
ATOM     13  C   UNL     1      32.674 -15.756  25.152  1.00  0.00    -0.000 C 
BRANCH  13  14
ATOM     14  C   UNL     1      31.454 -16.020  24.249  1.00  0.00    -0.000 C 
BRANCH  14  15
ATOM     15  C   UNL     1      30.147 -16.178  25.042  1.00  0.00    -0.003 C 
ATOM     16  C   UNL     1      29.684 -14.838  25.606  1.00  0.00     0.004 C 
ENDBRANCH  14  15
ENDBRANCH  13  14
ENDBRANCH  12  13
ENDBRANCH  11  12
ENDBRANCH  10  11
ENDBRANCH   9  10
ENDBRANCH   8   9
ENDBRANCH   7   8
ENDBRANCH   6   7
ENDBRANCH   5   6
ENDBRANCH   4   5
ENDBRANCH   3   4
ENDBRANCH   2   3
ENDBRANCH   1   2
BRANCH   1  17
ATOM     17  C   UNL     1      27.311 -20.537  23.716  1.00  0.00     0.000 C 
BRANCH  17  18
ATOM     18  C   UNL     1      27.015 -21.959  24.224  1.00  0.00     0.000 C 
BRANCH  18  19
ATOM     19  C   UNL     1      27.547 -23.049  23.278  1.00  0.00     0.000 C 
BRANCH  19  20
ATOM     20  C   UNL     1      28.962 -23.523  23.650  1.00  0.00     0.000 C 
BRANCH  20  21
ATOM     21  C   UNL     1      29.883 -23.662  22.424  1.00  0.00     0.000 C 
BRANCH  21  22
ATOM     22  C   UNL     1      30.925 -22.537  22.253  1.00  0.00     0.000 C 
BRANCH  22  23
ATOM     23  C   UNL     1      30.433 -21.298  21.484  1.00  0.00     0.000 C 
BRANCH  23  24
ATOM     24  C   UNL     1      29.324 -21.573  20.449  1.00  0.00     0.000 C 
BRANCH  24  25
ATOM     25  C   UNL     1      28.359 -20.386  20.237  1.00  0.00     0.000 C 
BRANCH  25  26
ATOM     26  C   UNL     1      29.039 -19.024  20.447  1.00  0.00     0.000 C 
BRANCH  26  27
ATOM     27  C   UNL     1      28.081 -18.027  21.118  1.00  0.00     0.002 C 
BRANCH  27  28
ATOM     28  C   UNL     1      28.819 -16.856  21.787  1.00  0.00     0.028 C 
BRANCH  28  29
ATOM     29  C   UNL     1      28.265 -15.489  21.367  1.00  0.00     0.156 C 
BRANCH  29  30
ATOM     30  O   UNL     1      29.281 -14.524  21.409  1.00  0.00    -0.396 OA
ATOM     31  H   UNL     1      28.859 -13.678  21.712  1.00  0.00     0.210 HD
ENDBRANCH  29  30
ENDBRANCH  28  29
ENDBRANCH  27  28
ENDBRANCH  26  27
ENDBRANCH  25  26
ENDBRANCH  24  25
ENDBRANCH  23  24
ENDBRANCH  22  23
ENDBRANCH  21  22
ENDBRANCH  20  21
ENDBRANCH  19  20
ENDBRANCH  18  19
ENDBRANCH  17  18
ENDBRANCH   1  17
TORSDOF 28
ENDMDL
MODEL 5
REMARK VINA RESULT:    -3.066     10.534     13.506
REMARK INTER + INTRA:         -13.035
REMARK INTER:                  -7.746
REMARK INTRA:                  -5.289
REMARK UNBOUND:                -5.040
REMARK SMILES CCCCCCCCCCCCCCCCCCCCCCCCCCCCCO
REMARK SMILES IDX 16 1 15 2 14 3 13 4 12 5 11 6 10 7 9 8 8 9 7 10 6 11 5 12
REMARK SMILES IDX 4 13 3 14 2 15 1 16 17 17 18 18 19 19 20 20 21 21 22 22
REMARK SMILES IDX 23 23 24 24 25 25 26 26 27 27 28 28 29 29 30 30
REMARK H PARENT 30 31
REMARK Flexibility Score: inf
ROOT
ATOM      1  C   UNL     1      30.181 -11.168  31.456  1.00  0.00     0.000 C 
ENDROOT
BRANCH   1   2
ATOM      2  C   UNL     1      31.072 -11.934  32.452  1.00  0.00     0.000 C 
BRANCH   2   3
ATOM      3  C   UNL     1      32.552 -11.965  32.031  1.00  0.00     0.000 C 
BRANCH   3   4
ATOM      4  C   UNL     1      33.512 -11.977  33.231  1.00  0.00     0.000 C 
BRANCH   4   5
ATOM      5  C   UNL     1      32.877 -11.395  34.508  1.00  0.00     0.000 C 
BRANCH   5   6
ATOM      6  C   UNL     1      32.993 -12.362  35.701  1.00  0.00     0.000 C 
BRANCH   6   7
ATOM      7  C   UNL     1      31.895 -12.152  36.761  1.00  0.00     0.000 C 
BRANCH   7   8
ATOM      8  C   UNL     1      30.978 -13.381  36.905  1.00  0.00    -0.000 C 
BRANCH   8   9
ATOM      9  C   UNL     1      29.929 -13.475  35.775  1.00  0.00    -0.000 C 
BRANCH   9  10
ATOM     10  C   UNL     1      28.657 -12.638  36.017  1.00  0.00    -0.000 C 
BRANCH  10  11
ATOM     11  C   UNL     1      27.870 -12.255  34.752  1.00  0.00    -0.000 C 
BRANCH  11  12
ATOM     12  C   UNL     1      27.993 -10.760  34.399  1.00  0.00    -0.000 C 
BRANCH  12  13
ATOM     13  C   UNL     1      28.969 -10.012  35.326  1.00  0.00    -0.000 C 
BRANCH  13  14
ATOM     14  C   UNL     1      28.410  -8.695  35.899  1.00  0.00    -0.000 C 
BRANCH  14  15
ATOM     15  C   UNL     1      26.880  -8.708  36.041  1.00  0.00    -0.003 C 
ATOM     16  C   UNL     1      26.462  -9.229  37.412  1.00  0.00     0.004 C 
ENDBRANCH  14  15
ENDBRANCH  13  14
ENDBRANCH  12  13
ENDBRANCH  11  12
ENDBRANCH  10  11
ENDBRANCH   9  10
ENDBRANCH   8   9
ENDBRANCH   7   8
ENDBRANCH   6   7
ENDBRANCH   5   6
ENDBRANCH   4   5
ENDBRANCH   3   4
ENDBRANCH   2   3
ENDBRANCH   1   2
BRANCH   1  17
ATOM     17  C   UNL     1      30.471 -11.442  29.968  1.00  0.00     0.000 C 
BRANCH  17  18
ATOM     18  C   UNL     1      29.920 -10.347  29.038  1.00  0.00     0.000 C 
BRANCH  18  19
ATOM     19  C   UNL     1      30.746  -9.051  29.093  1.00  0.00     0.000 C 
BRANCH  19  20
ATOM     20  C   UNL     1      29.878  -7.785  29.002  1.00  0.00     0.000 C 
BRANCH  20  21
ATOM     21  C   UNL     1      28.418  -8.034  29.423  1.00  0.00     0.000 C 
BRANCH  21  22
ATOM     22  C   UNL     1      27.964  -7.286  30.694  1.00  0.00     0.000 C 
BRANCH  22  23
ATOM     23  C   UNL     1      28.433  -7.908  32.022  1.00  0.00     0.000 C 
BRANCH  23  24
ATOM     24  C   UNL     1      29.687  -7.256  32.639  1.00  0.00     0.000 C 
BRANCH  24  25
ATOM     25  C   UNL     1      30.804  -8.264  32.992  1.00  0.00     0.000 C 
BRANCH  25  26
ATOM     26  C   UNL     1      32.161  -7.883  32.378  1.00  0.00     0.000 C 
BRANCH  26  27
ATOM     27  C   UNL     1      32.171  -6.413  31.931  1.00  0.00     0.002 C 
BRANCH  27  28
ATOM     28  C   UNL     1      33.359  -5.626  32.508  1.00  0.00     0.028 C 
BRANCH  28  29
ATOM     29  C   UNL     1      34.547  -6.527  32.868  1.00  0.00     0.156 C 
BRANCH  29  30
ATOM     30  O   UNL     1      35.039  -6.190  34.137  1.00  0.00    -0.396 OA
ATOM     31  H   UNL     1      35.617  -5.392  34.015  1.00  0.00     0.210 HD
ENDBRANCH  29  30
ENDBRANCH  28  29
ENDBRANCH  27  28
ENDBRANCH  26  27
ENDBRANCH  25  26
ENDBRANCH  24  25
ENDBRANCH  23  24
ENDBRANCH  22  23
ENDBRANCH  21  22
ENDBRANCH  20  21
ENDBRANCH  19  20
ENDBRANCH  18  19
ENDBRANCH  17  18
ENDBRANCH   1  17
TORSDOF 28
ENDMDL
MODEL 6
REMARK VINA RESULT:    -3.064      2.503      6.538
REMARK INTER + INTRA:         -13.031
REMARK INTER:                  -7.267
REMARK INTRA:                  -5.764
REMARK UNBOUND:                -5.040
REMARK SMILES CCCCCCCCCCCCCCCCCCCCCCCCCCCCCO
REMARK SMILES IDX 16 1 15 2 14 3 13 4 12 5 11 6 10 7 9 8 8 9 7 10 6 11 5 12
REMARK SMILES IDX 4 13 3 14 2 15 1 16 17 17 18 18 19 19 20 20 21 21 22 22
REMARK SMILES IDX 23 23 24 24 25 25 26 26 27 27 28 28 29 29 30 30
REMARK H PARENT 30 31
REMARK Flexibility Score: inf
ROOT
ATOM      1  C   UNL     1      28.230 -17.234  23.585  1.00  0.00     0.000 C 
ENDROOT
BRANCH   1   2
ATOM      2  C   UNL     1      28.797 -17.735  22.243  1.00  0.00     0.000 C 
BRANCH   2   3
ATOM      3  C   UNL     1      28.300 -19.144  21.872  1.00  0.00     0.000 C 
BRANCH   3   4
ATOM      4  C   UNL     1      29.383 -19.997  21.195  1.00  0.00     0.000 C 
BRANCH   4   5
ATOM      5  C   UNL     1      30.387 -20.595  22.199  1.00  0.00     0.000 C 
BRANCH   5   6
ATOM      6  C   UNL     1      30.949 -21.945  21.717  1.00  0.00     0.000 C 
BRANCH   6   7
ATOM      7  C   UNL     1      30.071 -22.621  20.647  1.00  0.00     0.000 C 
BRANCH   7   8
ATOM      8  C   UNL     1      29.206 -23.755  21.229  1.00  0.00    -0.000 C 
BRANCH   8   9
ATOM      9  C   UNL     1      27.767 -23.297  21.553  1.00  0.00    -0.000 C 
BRANCH   9  10
ATOM     10  C   UNL     1      27.446 -23.227  23.060  1.00  0.00    -0.000 C 
BRANCH  10  11
ATOM     11  C   UNL     1      28.571 -23.700  23.996  1.00  0.00    -0.000 C 
BRANCH  11  12
ATOM     12  C   UNL     1      28.502 -23.050  25.391  1.00  0.00    -0.000 C 
BRANCH  12  13
ATOM     13  C   UNL     1      29.390 -21.797  25.505  1.00  0.00    -0.000 C 
BRANCH  13  14
ATOM     14  C   UNL     1      28.623 -20.467  25.381  1.00  0.00    -0.000 C 
BRANCH  14  15
ATOM     15  C   UNL     1      27.166 -20.571  25.859  1.00  0.00    -0.003 C 
ATOM     16  C   UNL     1      26.199 -20.102  24.776  1.00  0.00     0.004 C 
ENDBRANCH  14  15
ENDBRANCH  13  14
ENDBRANCH  12  13
ENDBRANCH  11  12
ENDBRANCH  10  11
ENDBRANCH   9  10
ENDBRANCH   8   9
ENDBRANCH   7   8
ENDBRANCH   6   7
ENDBRANCH   5   6
ENDBRANCH   4   5
ENDBRANCH   3   4
ENDBRANCH   2   3
ENDBRANCH   1   2
BRANCH   1  17
ATOM     17  C   UNL     1      29.277 -16.965  24.682  1.00  0.00     0.000 C 
BRANCH  17  18
ATOM     18  C   UNL     1      30.674 -17.501  24.324  1.00  0.00     0.000 C 
BRANCH  18  19
ATOM     19  C   UNL     1      31.710 -16.380  24.141  1.00  0.00     0.000 C 
BRANCH  19  20
ATOM     20  C   UNL     1      31.243 -15.034  24.722  1.00  0.00     0.000 C 
BRANCH  20  21
ATOM     21  C   UNL     1      31.152 -13.926  23.656  1.00  0.00     0.000 C 
BRANCH  21  22
ATOM     22  C   UNL     1      30.389 -14.310  22.371  1.00  0.00     0.000 C 
BRANCH  22  23
ATOM     23  C   UNL     1      29.250 -13.354  21.975  1.00  0.00     0.000 C 
BRANCH  23  24
ATOM     24  C   UNL     1      28.092 -14.008  21.197  1.00  0.00     0.000 C 
BRANCH  24  25
ATOM     25  C   UNL     1      26.810 -14.208  22.036  1.00  0.00     0.000 C 
BRANCH  25  26
ATOM     26  C   UNL     1      26.713 -13.225  23.213  1.00  0.00     0.000 C 
BRANCH  26  27
ATOM     27  C   UNL     1      26.699 -13.970  24.556  1.00  0.00     0.002 C 
BRANCH  27  28
ATOM     28  C   UNL     1      27.876 -13.578  25.464  1.00  0.00     0.028 C 
BRANCH  28  29
ATOM     29  C   UNL     1      28.189 -12.077  25.411  1.00  0.00     0.156 C 
BRANCH  29  30
ATOM     30  O   UNL     1      29.472 -11.835  25.923  1.00  0.00    -0.396 OA
ATOM     31  H   UNL     1      30.116 -12.137  25.230  1.00  0.00     0.210 HD
ENDBRANCH  29  30
ENDBRANCH  28  29
ENDBRANCH  27  28
ENDBRANCH  26  27
ENDBRANCH  25  26
ENDBRANCH  24  25
ENDBRANCH  23  24
ENDBRANCH  22  23
ENDBRANCH  21  22
ENDBRANCH  20  21
ENDBRANCH  19  20
ENDBRANCH  18  19
ENDBRANCH  17  18
ENDBRANCH   1  17
TORSDOF 28
ENDMDL
MODEL 7
REMARK VINA RESULT:    -3.052      1.330      6.359
REMARK INTER + INTRA:         -12.998
REMARK INTER:                  -8.511
REMARK INTRA:                  -4.487
REMARK UNBOUND:                -5.040
REMARK SMILES CCCCCCCCCCCCCCCCCCCCCCCCCCCCCO
REMARK SMILES IDX 16 1 15 2 14 3 13 4 12 5 11 6 10 7 9 8 8 9 7 10 6 11 5 12
REMARK SMILES IDX 4 13 3 14 2 15 1 16 17 17 18 18 19 19 20 20 21 21 22 22
REMARK SMILES IDX 23 23 24 24 25 25 26 26 27 27 28 28 29 29 30 30
REMARK H PARENT 30 31
REMARK Flexibility Score: inf
ROOT
ATOM      1  C   UNL     1      28.715 -19.282  30.676  1.00  0.00     0.000 C 
ENDROOT
BRANCH   1   2
ATOM      2  C   UNL     1      28.343 -20.206  29.501  1.00  0.00     0.000 C 
BRANCH   2   3
ATOM      3  C   UNL     1      28.928 -21.622  29.644  1.00  0.00     0.000 C 
BRANCH   3   4
ATOM      4  C   UNL     1      29.299 -22.252  28.292  1.00  0.00     0.000 C 
BRANCH   4   5
ATOM      5  C   UNL     1      30.426 -21.492  27.569  1.00  0.00     0.000 C 
BRANCH   5   6
ATOM      6  C   UNL     1      30.093 -21.243  26.086  1.00  0.00     0.000 C 
BRANCH   6   7
ATOM      7  C   UNL     1      28.654 -20.741  25.862  1.00  0.00     0.000 C 
BRANCH   7   8
ATOM      8  C   UNL     1      27.827 -21.701  24.987  1.00  0.00    -0.000 C 
BRANCH   8   9
ATOM      9  C   UNL     1      28.568 -23.023  24.692  1.00  0.00    -0.000 C 
BRANCH   9  10
ATOM     10  C   UNL     1      28.024 -23.800  23.476  1.00  0.00    -0.000 C 
BRANCH  10  11
ATOM     11  C   UNL     1      28.888 -23.725  22.205  1.00  0.00    -0.000 C 
BRANCH  11  12
ATOM     12  C   UNL     1      30.266 -23.083  22.456  1.00  0.00    -0.000 C 
BRANCH  12  13
ATOM     13  C   UNL     1      30.497 -21.822  21.603  1.00  0.00    -0.000 C 
BRANCH  13  14
ATOM     14  C   UNL     1      30.210 -20.500  22.339  1.00  0.00    -0.000 C 
BRANCH  14  15
ATOM     15  C   UNL     1      29.211 -19.604  21.590  1.00  0.00    -0.003 C 
ATOM     16  C   UNL     1      27.814 -20.216  21.598  1.00  0.00     0.004 C 
ENDBRANCH  14  15
ENDBRANCH  13  14
ENDBRANCH  12  13
ENDBRANCH  11  12
ENDBRANCH  10  11
ENDBRANCH   9  10
ENDBRANCH   8   9
ENDBRANCH   7   8
ENDBRANCH   6   7
ENDBRANCH   5   6
ENDBRANCH   4   5
ENDBRANCH   3   4
ENDBRANCH   2   3
ENDBRANCH   1   2
BRANCH   1  17
ATOM     17  C   UNL     1      29.749 -19.855  31.663  1.00  0.00     0.000 C 
BRANCH  17  18
ATOM     18  C   UNL     1      31.114 -19.150  31.578  1.00  0.00     0.000 C 
BRANCH  18  19
ATOM     19  C   UNL     1      31.922 -19.570  30.339  1.00  0.00     0.000 C 
BRANCH  19  20
ATOM     20  C   UNL     1      32.301 -18.380  29.440  1.00  0.00     0.000 C 
BRANCH  20  21
ATOM     21  C   UNL     1      31.231 -18.076  28.376  1.00  0.00     0.000 C 
BRANCH  21  22
ATOM     22  C   UNL     1      31.741 -18.052  26.920  1.00  0.00     0.000 C 
BRANCH  22  23
ATOM     23  C   UNL     1      32.902 -17.079  26.648  1.00  0.00     0.000 C 
BRANCH  23  24
ATOM     24  C   UNL     1      33.175 -16.792  25.158  1.00  0.00     0.000 C 
BRANCH  24  25
ATOM     25  C   UNL     1      31.998 -17.154  24.226  1.00  0.00     0.000 C 
BRANCH  25  26
ATOM     26  C   UNL     1      31.011 -15.990  24.038  1.00  0.00     0.000 C 
BRANCH  26  27
ATOM     27  C   UNL     1      29.823 -16.411  23.159  1.00  0.00     0.002 C 
BRANCH  27  28
ATOM     28  C   UNL     1      29.655 -15.515  21.921  1.00  0.00     0.028 C 
BRANCH  28  29
ATOM     29  C   UNL     1      29.813 -14.024  22.244  1.00  0.00     0.156 C 
BRANCH  29  30
ATOM     30  O   UNL     1      29.480 -13.251  21.122  1.00  0.00    -0.396 OA
ATOM     31  H   UNL     1      30.225 -12.607  20.989  1.00  0.00     0.210 HD
ENDBRANCH  29  30
ENDBRANCH  28  29
ENDBRANCH  27  28
ENDBRANCH  26  27
ENDBRANCH  25  26
ENDBRANCH  24  25
ENDBRANCH  23  24
ENDBRANCH  22  23
ENDBRANCH  21  22
ENDBRANCH  20  21
ENDBRANCH  19  20
ENDBRANCH  18  19
ENDBRANCH  17  18
ENDBRANCH   1  17
TORSDOF 28
ENDMDL
MODEL 8
REMARK VINA RESULT:    -3.039     10.855     13.853
REMARK INTER + INTRA:         -12.965
REMARK INTER:                  -7.597
REMARK INTRA:                  -5.368
REMARK UNBOUND:                -5.040
REMARK SMILES CCCCCCCCCCCCCCCCCCCCCCCCCCCCCO
REMARK SMILES IDX 16 1 15 2 14 3 13 4 12 5 11 6 10 7 9 8 8 9 7 10 6 11 5 12
REMARK SMILES IDX 4 13 3 14 2 15 1 16 17 17 18 18 19 19 20 20 21 21 22 22
REMARK SMILES IDX 23 23 24 24 25 25 26 26 27 27 28 28 29 29 30 30
REMARK H PARENT 30 31
REMARK Flexibility Score: inf
ROOT
ATOM      1  C   UNL     1      31.240 -11.149  31.745  1.00  0.00     0.000 C 
ENDROOT
BRANCH   1   2
ATOM      2  C   UNL     1      31.111  -9.645  32.053  1.00  0.00     0.000 C 
BRANCH   2   3
ATOM      3  C   UNL     1      31.160  -8.768  30.790  1.00  0.00     0.000 C 
BRANCH   3   4
ATOM      4  C   UNL     1      31.165  -7.265  31.109  1.00  0.00     0.000 C 
BRANCH   4   5
ATOM      5  C   UNL     1      31.767  -6.950  32.492  1.00  0.00     0.000 C 
BRANCH   5   6
ATOM      6  C   UNL     1      32.893  -5.903  32.405  1.00  0.00     0.000 C 
BRANCH   6   7
ATOM      7  C   UNL     1      34.226  -6.395  33.001  1.00  0.00     0.000 C 
BRANCH   7   8
ATOM      8  C   UNL     1      34.383  -7.924  32.903  1.00  0.00    -0.000 C 
BRANCH   8   9
ATOM      9  C   UNL     1      34.966  -8.375  31.545  1.00  0.00    -0.000 C 
BRANCH   9  10
ATOM     10  C   UNL     1      35.356  -9.866  31.484  1.00  0.00    -0.000 C 
BRANCH  10  11
ATOM     11  C   UNL     1      34.721 -10.666  30.334  1.00  0.00    -0.000 C 
BRANCH  11  12
ATOM     12  C   UNL     1      34.154  -9.765  29.220  1.00  0.00    -0.000 C 
BRANCH  12  13
ATOM     13  C   UNL     1      33.256 -10.536  28.235  1.00  0.00    -0.000 C 
BRANCH  13  14
ATOM     14  C   UNL     1      32.972  -9.785  26.920  1.00  0.00    -0.000 C 
BRANCH  14  15
ATOM     15  C   UNL     1      31.522  -9.284  26.820  1.00  0.00    -0.003 C 
ATOM     16  C   UNL     1      31.130  -9.028  25.368  1.00  0.00     0.004 C 
ENDBRANCH  14  15
ENDBRANCH  13  14
ENDBRANCH  12  13
ENDBRANCH  11  12
ENDBRANCH  10  11
ENDBRANCH   9  10
ENDBRANCH   8   9
ENDBRANCH   7   8
ENDBRANCH   6   7
ENDBRANCH   5   6
ENDBRANCH   4   5
ENDBRANCH   3   4
ENDBRANCH   2   3
ENDBRANCH   1   2
BRANCH   1  17
ATOM     17  C   UNL     1      32.225 -11.922  32.642  1.00  0.00     0.000 C 
BRANCH  17  18
ATOM     18  C   UNL     1      32.715 -11.097  33.846  1.00  0.00     0.000 C 
BRANCH  18  19
ATOM     19  C   UNL     1      34.020 -11.646  34.447  1.00  0.00     0.000 C 
BRANCH  19  20
ATOM     20  C   UNL     1      33.809 -12.328  35.810  1.00  0.00     0.000 C 
BRANCH  20  21
ATOM     21  C   UNL     1      32.573 -11.794  36.557  1.00  0.00     0.000 C 
BRANCH  21  22
ATOM     22  C   UNL     1      31.553 -12.867  36.992  1.00  0.00     0.000 C 
BRANCH  22  23
ATOM     23  C   UNL     1      31.070 -13.804  35.870  1.00  0.00     0.000 C 
BRANCH  23  24
ATOM     24  C   UNL     1      29.813 -13.324  35.118  1.00  0.00     0.000 C 
BRANCH  24  25
ATOM     25  C   UNL     1      29.154 -12.072  35.738  1.00  0.00     0.000 C 
BRANCH  25  26
ATOM     26  C   UNL     1      28.944 -10.945  34.715  1.00  0.00     0.000 C 
BRANCH  26  27
ATOM     27  C   UNL     1      29.454  -9.602  35.261  1.00  0.00     0.002 C 
BRANCH  27  28
ATOM     28  C   UNL     1      28.553  -8.421  34.867  1.00  0.00     0.028 C 
BRANCH  28  29
ATOM     29  C   UNL     1      27.238  -8.390  35.656  1.00  0.00     0.156 C 
BRANCH  29  30
ATOM     30  O   UNL     1      27.503  -8.370  37.032  1.00  0.00    -0.396 OA
ATOM     31  H   UNL     1      27.239  -7.470  37.360  1.00  0.00     0.210 HD
ENDBRANCH  29  30
ENDBRANCH  28  29
ENDBRANCH  27  28
ENDBRANCH  26  27
ENDBRANCH  25  26
ENDBRANCH  24  25
ENDBRANCH  23  24
ENDBRANCH  22  23
ENDBRANCH  21  22
ENDBRANCH  20  21
ENDBRANCH  19  20
ENDBRANCH  18  19
ENDBRANCH  17  18
ENDBRANCH   1  17
TORSDOF 28
ENDMDL
MODEL 9
REMARK VINA RESULT:    -3.009     11.664     14.840
REMARK INTER + INTRA:         -12.887
REMARK INTER:                  -7.846
REMARK INTRA:                  -5.042
REMARK UNBOUND:                -5.040
REMARK SMILES CCCCCCCCCCCCCCCCCCCCCCCCCCCCCO
REMARK SMILES IDX 16 1 15 2 14 3 13 4 12 5 11 6 10 7 9 8 8 9 7 10 6 11 5 12
REMARK SMILES IDX 4 13 3 14 2 15 1 16 17 17 18 18 19 19 20 20 21 21 22 22
REMARK SMILES IDX 23 23 24 24 25 25 26 26 27 27 28 28 29 29 30 30
REMARK H PARENT 30 31
REMARK Flexibility Score: inf
ROOT
ATOM      1  C   UNL     1      28.076  -8.460  35.539  1.00  0.00     0.000 C 
ENDROOT
BRANCH   1   2
ATOM      2  C   UNL     1      28.731  -9.854  35.500  1.00  0.00     0.000 C 
BRANCH   2   3
ATOM      3  C   UNL     1      29.971  -9.908  34.591  1.00  0.00     0.000 C 
BRANCH   3   4
ATOM      4  C   UNL     1      29.813 -10.901  33.428  1.00  0.00     0.000 C 
BRANCH   4   5
ATOM      5  C   UNL     1      28.474 -11.660  33.470  1.00  0.00     0.000 C 
BRANCH   5   6
ATOM      6  C   UNL     1      27.630 -11.408  32.207  1.00  0.00     0.000 C 
BRANCH   6   7
ATOM      7  C   UNL     1      26.809 -10.106  32.275  1.00  0.00     0.000 C 
BRANCH   7   8
ATOM      8  C   UNL     1      27.070  -9.185  31.068  1.00  0.00    -0.000 C 
BRANCH   8   9
ATOM      9  C   UNL     1      27.553  -7.779  31.487  1.00  0.00    -0.000 C 
BRANCH   9  10
ATOM     10  C   UNL     1      29.070  -7.679  31.746  1.00  0.00    -0.000 C 
BRANCH  10  11
ATOM     11  C   UNL     1      29.961  -8.421  30.735  1.00  0.00    -0.000 C 
BRANCH  11  12
ATOM     12  C   UNL     1      30.188  -7.622  29.438  1.00  0.00    -0.000 C 
BRANCH  12  13
ATOM     13  C   UNL     1      29.728  -8.386  28.183  1.00  0.00    -0.000 C 
BRANCH  13  14
ATOM     14  C   UNL     1      28.305  -8.030  27.713  1.00  0.00    -0.000 C 
BRANCH  14  15
ATOM     15  C   UNL     1      28.144  -6.539  27.377  1.00  0.00    -0.003 C 
ATOM     16  C   UNL     1      26.955  -5.936  28.117  1.00  0.00     0.004 C 
ENDBRANCH  14  15
ENDBRANCH  13  14
ENDBRANCH  12  13
ENDBRANCH  11  12
ENDBRANCH  10  11
ENDBRANCH   9  10
ENDBRANCH   8   9
ENDBRANCH   7   8
ENDBRANCH   6   7
ENDBRANCH   5   6
ENDBRANCH   4   5
ENDBRANCH   3   4
ENDBRANCH   2   3
ENDBRANCH   1   2
BRANCH   1  17
ATOM     17  C   UNL     1      26.561  -8.437  35.265  1.00  0.00     0.000 C 
BRANCH  17  18
ATOM     18  C   UNL     1      25.787  -9.484  36.086  1.00  0.00     0.000 C 
BRANCH  18  19
ATOM     19  C   UNL     1      25.751  -9.152  37.587  1.00  0.00     0.000 C 
BRANCH  19  20
ATOM     20  C   UNL     1      26.098 -10.360  38.474  1.00  0.00     0.000 C 
BRANCH  20  21
ATOM     21  C   UNL     1      25.998 -11.699  37.720  1.00  0.00     0.000 C 
BRANCH  21  22
ATOM     22  C   UNL     1      27.152 -12.689  37.982  1.00  0.00     0.000 C 
BRANCH  22  23
ATOM     23  C   UNL     1      27.977 -13.077  36.742  1.00  0.00     0.000 C 
BRANCH  23  24
ATOM     24  C   UNL     1      28.849 -14.337  36.908  1.00  0.00     0.000 C 
BRANCH  24  25
ATOM     25  C   UNL     1      30.366 -14.048  36.934  1.00  0.00     0.000 C 
BRANCH  25  26
ATOM     26  C   UNL     1      30.976 -13.956  35.526  1.00  0.00     0.000 C 
BRANCH  26  27
ATOM     27  C   UNL     1      32.213 -13.046  35.519  1.00  0.00     0.002 C 
BRANCH  27  28
ATOM     28  C   UNL     1      32.229 -12.058  36.696  1.00  0.00     0.028 C 
BRANCH  28  29
ATOM     29  C   UNL     1      33.616 -11.920  37.337  1.00  0.00     0.156 C 
BRANCH  29  30
ATOM     30  O   UNL     1      34.154 -10.658  37.053  1.00  0.00    -0.396 OA
ATOM     31  H   UNL     1      34.318 -10.632  36.074  1.00  0.00     0.210 HD
ENDBRANCH  29  30
ENDBRANCH  28  29
ENDBRANCH  27  28
ENDBRANCH  26  27
ENDBRANCH  25  26
ENDBRANCH  24  25
ENDBRANCH  23  24
ENDBRANCH  22  23
ENDBRANCH  21  22
ENDBRANCH  20  21
ENDBRANCH  19  20
ENDBRANCH  18  19
ENDBRANCH  17  18
ENDBRANCH   1  17
TORSDOF 28
ENDMDL
