MODEL 1
REMARK VINA RESULT:    -5.200      0.000      0.000
REMARK INTER + INTRA:         -10.097
REMARK INTER:                  -9.152
REMARK INTRA:                  -0.945
REMARK UNBOUND:                -0.945
REMARK SMILES CCCCCCC=CCCCCCCCC(=O)[O-]
REMARK SMILES IDX 10 1 11 2 12 3 13 4 14 5 15 6 16 7 17 8 18 9 9 10 8 11 7 12
REMARK SMILES IDX 6 13 5 14 4 15 3 16 2 17 1 18
REMARK H PARENT
REMARK Flexibility Score: inf
ROOT
ATOM      1  C   UNL     1      -0.405  -0.460   9.271  1.00  0.00     0.004 C 
ENDROOT
BRANCH   1   2
ATOM      2  C   UNL     1      -1.234  -0.573   7.975  1.00  0.00     0.000 C 
BRANCH   2   3
ATOM      3  C   UNL     1      -1.179   0.657   7.048  1.00  0.00     0.000 C 
BRANCH   3   4
ATOM      4  C   UNL     1      -1.157   0.337   5.543  1.00  0.00     0.000 C 
BRANCH   4   5
ATOM      5  C   UNL     1      -1.519  -1.124   5.237  1.00  0.00     0.006 C 
BRANCH   5   6
ATOM      6  C   UNL     1      -1.484  -1.392   3.730  1.00  0.00     0.053 C 
BRANCH   6   7
ATOM      7  C   UNL     1      -1.482  -2.863   3.459  1.00  0.00     0.041 C 
ATOM      8  O   UNL     1      -1.527  -3.684   4.414  1.00  0.00    -0.550 OA
ATOM      9  O   UNL     1      -1.380  -3.330   2.154  1.00  0.00    -0.550 OA
ENDBRANCH   6   7
ENDBRANCH   5   6
ENDBRANCH   4   5
ENDBRANCH   3   4
ENDBRANCH   2   3
ENDBRANCH   1   2
BRANCH   1  10
ATOM     10  C   UNL     1      -0.194  -1.786  10.022  1.00  0.00     0.027 C 
BRANCH  10  11
ATOM     11  C   UNL     1       1.249  -2.233   9.981  1.00  0.00    -0.031 C 
ATOM     12  C   UNL     1       1.672  -3.487   9.729  1.00  0.00    -0.031 C 
BRANCH  12  13
ATOM     13  C   UNL     1       0.781  -4.667   9.419  1.00  0.00     0.027 C 
BRANCH  13  14
ATOM     14  C   UNL     1       1.230  -5.452   8.177  1.00  0.00     0.004 C 
BRANCH  14  15
ATOM     15  C   UNL     1       0.105  -5.593   7.137  1.00  0.00     0.000 C 
BRANCH  15  16
ATOM     16  C   UNL     1      -0.462  -7.022   7.065  1.00  0.00    -0.000 C 
BRANCH  16  17
ATOM     17  C   UNL     1      -1.869  -7.192   7.668  1.00  0.00    -0.003 C 
ATOM     18  C   UNL     1      -1.866  -7.219   9.197  1.00  0.00     0.004 C 
ENDBRANCH  16  17
ENDBRANCH  15  16
ENDBRANCH  14  15
ENDBRANCH  13  14
ENDBRANCH  12  13
ENDBRANCH  10  11
ENDBRANCH   1  10
TORSDOF 13
ENDMDL
MODEL 2
REMARK VINA RESULT:    -4.907      2.395      4.050
REMARK INTER + INTRA:          -9.580
REMARK INTER:                  -8.908
REMARK INTRA:                  -0.672
REMARK UNBOUND:                -0.945
REMARK SMILES CCCCCCC=CCCCCCCCC(=O)[O-]
REMARK SMILES IDX 10 1 11 2 12 3 13 4 14 5 15 6 16 7 17 8 18 9 9 10 8 11 7 12
REMARK SMILES IDX 6 13 5 14 4 15 3 16 2 17 1 18
REMARK H PARENT
REMARK Flexibility Score: inf
ROOT
ATOM      1  C   UNL     1      -0.220  -3.913   9.133  1.00  0.00     0.004 C 
ENDROOT
BRANCH   1   2
ATOM      2  C   UNL     1       0.452  -2.626   9.652  1.00  0.00     0.000 C 
BRANCH   2   3
ATOM      3  C   UNL     1      -0.488  -1.418   9.828  1.00  0.00     0.000 C 
BRANCH   3   4
ATOM      4  C   UNL     1      -0.170  -0.209   8.930  1.00  0.00     0.000 C 
BRANCH   4   5
ATOM      5  C   UNL     1      -1.269   0.071   7.894  1.00  0.00     0.006 C 
BRANCH   5   6
ATOM      6  C   UNL     1      -1.166  -0.898   6.713  1.00  0.00     0.053 C 
BRANCH   6   7
ATOM      7  C   UNL     1      -1.318  -0.163   5.418  1.00  0.00     0.041 C 
ATOM      8  O   UNL     1      -1.055   1.066   5.352  1.00  0.00    -0.550 OA
ATOM      9  O   UNL     1      -1.800  -0.826   4.295  1.00  0.00    -0.550 OA
ENDBRANCH   6   7
ENDBRANCH   5   6
ENDBRANCH   4   5
ENDBRANCH   3   4
ENDBRANCH   2   3
ENDBRANCH   1   2
BRANCH   1  10
ATOM     10  C   UNL     1       0.747  -4.957   8.547  1.00  0.00     0.027 C 
BRANCH  10  11
ATOM     11  C   UNL     1       0.259  -5.497   7.222  1.00  0.00    -0.031 C 
ATOM     12  C   UNL     1      -0.660  -6.469   7.065  1.00  0.00    -0.031 C 
BRANCH  12  13
ATOM     13  C   UNL     1      -1.386  -7.179   8.183  1.00  0.00     0.027 C 
BRANCH  13  14
ATOM     14  C   UNL     1      -1.946  -8.547   7.765  1.00  0.00     0.004 C 
BRANCH  14  15
ATOM     15  C   UNL     1      -3.105  -9.004   8.668  1.00  0.00     0.000 C 
BRANCH  15  16
ATOM     16  C   UNL     1      -4.483  -8.821   8.006  1.00  0.00    -0.000 C 
BRANCH  16  17
ATOM     17  C   UNL     1      -5.269 -10.125   7.775  1.00  0.00    -0.003 C 
ATOM     18  C   UNL     1      -6.085 -10.112   6.482  1.00  0.00     0.004 C 
ENDBRANCH  16  17
ENDBRANCH  15  16
ENDBRANCH  14  15
ENDBRANCH  13  14
ENDBRANCH  12  13
ENDBRANCH  10  11
ENDBRANCH   1  10
TORSDOF 13
ENDMDL
MODEL 3
REMARK VINA RESULT:    -4.838      2.679      4.664
REMARK INTER + INTRA:          -9.460
REMARK INTER:                  -8.008
REMARK INTRA:                  -1.453
REMARK UNBOUND:                -0.945
REMARK SMILES CCCCCCC=CCCCCCCCC(=O)[O-]
REMARK SMILES IDX 10 1 11 2 12 3 13 4 14 5 15 6 16 7 17 8 18 9 9 10 8 11 7 12
REMARK SMILES IDX 6 13 5 14 4 15 3 16 2 17 1 18
REMARK H PARENT
REMARK Flexibility Score: inf
ROOT
ATOM      1  C   UNL     1      -1.321  -3.585   4.937  1.00  0.00     0.004 C 
ENDROOT
BRANCH   1   2
ATOM      2  C   UNL     1      -2.169  -2.297   4.899  1.00  0.00     0.000 C 
BRANCH   2   3
ATOM      3  C   UNL     1      -1.415  -1.025   4.463  1.00  0.00     0.000 C 
BRANCH   3   4
ATOM      4  C   UNL     1      -1.138  -0.014   5.591  1.00  0.00     0.000 C 
BRANCH   4   5
ATOM      5  C   UNL     1      -1.434  -0.581   6.987  1.00  0.00     0.006 C 
BRANCH   5   6
ATOM      6  C   UNL     1      -1.153   0.462   8.072  1.00  0.00     0.053 C 
BRANCH   6   7
ATOM      7  C   UNL     1      -0.294  -0.119   9.150  1.00  0.00     0.041 C 
ATOM      8  O   UNL     1       0.948   0.088   9.152  1.00  0.00    -0.550 OA
ATOM      9  O   UNL     1      -0.858  -0.934  10.125  1.00  0.00    -0.550 OA
ENDBRANCH   6   7
ENDBRANCH   5   6
ENDBRANCH   4   5
ENDBRANCH   3   4
ENDBRANCH   2   3
ENDBRANCH   1   2
BRANCH   1  10
ATOM     10  C   UNL     1      -1.083  -4.162   6.343  1.00  0.00     0.027 C 
BRANCH  10  11
ATOM     11  C   UNL     1      -0.215  -5.399   6.305  1.00  0.00    -0.031 C 
ATOM     12  C   UNL     1      -0.180  -6.358   7.250  1.00  0.00    -0.031 C 
BRANCH  12  13
ATOM     13  C   UNL     1      -1.019  -6.383   8.506  1.00  0.00     0.027 C 
BRANCH  13  14
ATOM     14  C   UNL     1      -0.281  -5.829   9.734  1.00  0.00     0.004 C 
BRANCH  14  15
ATOM     15  C   UNL     1      -0.110  -4.301   9.674  1.00  0.00     0.000 C 
BRANCH  15  16
ATOM     16  C   UNL     1       1.366  -3.866   9.709  1.00  0.00    -0.000 C 
BRANCH  16  17
ATOM     17  C   UNL     1       2.384  -5.016   9.601  1.00  0.00    -0.003 C 
ATOM     18  C   UNL     1       3.028  -5.118   8.218  1.00  0.00     0.004 C 
ENDBRANCH  16  17
ENDBRANCH  15  16
ENDBRANCH  14  15
ENDBRANCH  13  14
ENDBRANCH  12  13
ENDBRANCH  10  11
ENDBRANCH   1  10
TORSDOF 13
ENDMDL
MODEL 4
REMARK VINA RESULT:    -4.785      2.537      5.827
REMARK INTER + INTRA:          -9.366
REMARK INTER:                  -8.310
REMARK INTRA:                  -1.056
REMARK UNBOUND:                -0.945
REMARK SMILES CCCCCCC=CCCCCCCCC(=O)[O-]
REMARK SMILES IDX 10 1 11 2 12 3 13 4 14 5 15 6 16 7 17 8 18 9 9 10 8 11 7 12
REMARK SMILES IDX 6 13 5 14 4 15 3 16 2 17 1 18
REMARK H PARENT
REMARK Flexibility Score: inf
ROOT
ATOM      1  C   UNL     1       1.875  -3.337  10.124  1.00  0.00     0.004 C 
ENDROOT
BRANCH   1   2
ATOM      2  C   UNL     1       0.927  -4.396   9.524  1.00  0.00     0.000 C 
BRANCH   2   3
ATOM      3  C   UNL     1       1.432  -5.080   8.239  1.00  0.00     0.000 C 
BRANCH   3   4
ATOM      4  C   UNL     1       0.362  -5.857   7.452  1.00  0.00     0.000 C 
BRANCH   4   5
ATOM      5  C   UNL     1      -0.861  -6.222   8.307  1.00  0.00     0.006 C 
BRANCH   5   6
ATOM      6  C   UNL     1      -1.656  -7.361   7.664  1.00  0.00     0.053 C 
BRANCH   6   7
ATOM      7  C   UNL     1      -2.611  -7.955   8.651  1.00  0.00     0.041 C 
ATOM      8  O   UNL     1      -3.700  -7.376   8.908  1.00  0.00    -0.550 OA
ATOM      9  O   UNL     1      -2.276  -9.124   9.326  1.00  0.00    -0.550 OA
ENDBRANCH   6   7
ENDBRANCH   5   6
ENDBRANCH   4   5
ENDBRANCH   3   4
ENDBRANCH   2   3
ENDBRANCH   1   2
BRANCH   1  10
ATOM     10  C   UNL     1       1.348  -1.893  10.074  1.00  0.00     0.027 C 
BRANCH  10  11
ATOM     11  C   UNL     1      -0.162  -1.844  10.059  1.00  0.00    -0.031 C 
ATOM     12  C   UNL     1      -0.908  -0.938   9.398  1.00  0.00    -0.031 C 
BRANCH  12  13
ATOM     13  C   UNL     1      -0.371   0.179   8.534  1.00  0.00     0.027 C 
BRANCH  13  14
ATOM     14  C   UNL     1      -1.173   0.379   7.239  1.00  0.00     0.004 C 
BRANCH  14  15
ATOM     15  C   UNL     1      -1.406  -0.942   6.486  1.00  0.00     0.000 C 
BRANCH  15  16
ATOM     16  C   UNL     1      -1.405  -0.763   4.958  1.00  0.00    -0.000 C 
BRANCH  16  17
ATOM     17  C   UNL     1      -1.559  -2.066   4.153  1.00  0.00    -0.003 C 
ATOM     18  C   UNL     1      -1.521  -3.320   5.029  1.00  0.00     0.004 C 
ENDBRANCH  16  17
ENDBRANCH  15  16
ENDBRANCH  14  15
ENDBRANCH  13  14
ENDBRANCH  12  13
ENDBRANCH  10  11
ENDBRANCH   1  10
TORSDOF 13
ENDMDL
MODEL 5
REMARK VINA RESULT:    -4.773      2.732      6.502
REMARK INTER + INTRA:          -9.345
REMARK INTER:                  -8.437
REMARK INTRA:                  -0.907
REMARK UNBOUND:                -0.945
REMARK SMILES CCCCCCC=CCCCCCCCC(=O)[O-]
REMARK SMILES IDX 10 1 11 2 12 3 13 4 14 5 15 6 16 7 17 8 18 9 9 10 8 11 7 12
REMARK SMILES IDX 6 13 5 14 4 15 3 16 2 17 1 18
REMARK H PARENT
REMARK Flexibility Score: inf
ROOT
ATOM      1  C   UNL     1       0.227  -5.166   8.843  1.00  0.00     0.004 C 
ENDROOT
BRANCH   1   2
ATOM      2  C   UNL     1      -0.114  -5.807   7.482  1.00  0.00     0.000 C 
BRANCH   2   3
ATOM      3  C   UNL     1      -1.177  -6.922   7.528  1.00  0.00     0.000 C 
BRANCH   3   4
ATOM      4  C   UNL     1      -1.867  -7.108   8.892  1.00  0.00     0.000 C 
BRANCH   4   5
ATOM      5  C   UNL     1      -2.388  -8.537   9.107  1.00  0.00     0.006 C 
BRANCH   5   6
ATOM      6  C   UNL     1      -3.196  -9.012   7.896  1.00  0.00     0.053 C 
BRANCH   6   7
ATOM      7  C   UNL     1      -4.649  -8.705   8.082  1.00  0.00     0.041 C 
ATOM      8  O   UNL     1      -5.186  -7.765   7.438  1.00  0.00    -0.550 OA
ATOM      9  O   UNL     1      -5.399  -9.424   9.005  1.00  0.00    -0.550 OA
ENDBRANCH   6   7
ENDBRANCH   5   6
ENDBRANCH   4   5
ENDBRANCH   3   4
ENDBRANCH   2   3
ENDBRANCH   1   2
BRANCH   1  10
ATOM     10  C   UNL     1       0.450  -3.644   8.804  1.00  0.00     0.027 C 
BRANCH  10  11
ATOM     11  C   UNL     1      -0.233  -2.944   9.956  1.00  0.00    -0.031 C 
ATOM     12  C   UNL     1      -0.390  -1.612  10.078  1.00  0.00    -0.031 C 
BRANCH  12  13
ATOM     13  C   UNL     1       0.068  -0.579   9.076  1.00  0.00     0.027 C 
BRANCH  13  14
ATOM     14  C   UNL     1      -1.042  -0.149   8.104  1.00  0.00     0.004 C 
BRANCH  14  15
ATOM     15  C   UNL     1      -1.090  -1.032   6.845  1.00  0.00     0.000 C 
BRANCH  15  16
ATOM     16  C   UNL     1      -1.382  -0.228   5.565  1.00  0.00    -0.000 C 
BRANCH  16  17
ATOM     17  C   UNL     1      -1.474  -1.068   4.279  1.00  0.00    -0.003 C 
ATOM     18  C   UNL     1      -1.595  -2.568   4.550  1.00  0.00     0.004 C 
ENDBRANCH  16  17
ENDBRANCH  15  16
ENDBRANCH  14  15
ENDBRANCH  13  14
ENDBRANCH  12  13
ENDBRANCH  10  11
ENDBRANCH   1  10
TORSDOF 13
ENDMDL
MODEL 6
REMARK VINA RESULT:    -4.607      2.768      6.547
REMARK INTER + INTRA:          -9.053
REMARK INTER:                  -8.991
REMARK INTRA:                  -0.062
REMARK UNBOUND:                -0.945
REMARK SMILES CCCCCCC=CCCCCCCCC(=O)[O-]
REMARK SMILES IDX 10 1 11 2 12 3 13 4 14 5 15 6 16 7 17 8 18 9 9 10 8 11 7 12
REMARK SMILES IDX 6 13 5 14 4 15 3 16 2 17 1 18
REMARK H PARENT
REMARK Flexibility Score: inf
ROOT
ATOM      1  C   UNL     1      -1.258  -3.456   5.861  1.00  0.00     0.004 C 
ENDROOT
BRANCH   1   2
ATOM      2  C   UNL     1      -0.655  -4.873   5.958  1.00  0.00     0.000 C 
BRANCH   2   3
ATOM      3  C   UNL     1       0.187  -5.144   7.220  1.00  0.00     0.000 C 
BRANCH   3   4
ATOM      4  C   UNL     1      -0.291  -6.328   8.080  1.00  0.00     0.000 C 
BRANCH   4   5
ATOM      5  C   UNL     1      -1.567  -6.986   7.533  1.00  0.00     0.006 C 
BRANCH   5   6
ATOM      6  C   UNL     1      -2.141  -7.986   8.541  1.00  0.00     0.053 C 
BRANCH   6   7
ATOM      7  C   UNL     1      -2.325  -9.326   7.902  1.00  0.00     0.041 C 
ATOM      8  O   UNL     1      -1.355  -9.900   7.341  1.00  0.00    -0.550 OA
ATOM      9  O   UNL     1      -3.582  -9.920   7.881  1.00  0.00    -0.550 OA
ENDBRANCH   6   7
ENDBRANCH   5   6
ENDBRANCH   4   5
ENDBRANCH   3   4
ENDBRANCH   2   3
ENDBRANCH   1   2
BRANCH   1  10
ATOM     10  C   UNL     1      -1.654  -3.017   4.440  1.00  0.00     0.027 C 
BRANCH  10  11
ATOM     11  C   UNL     1      -1.521  -1.524   4.253  1.00  0.00    -0.031 C 
ATOM     12  C   UNL     1      -1.327  -0.626   5.239  1.00  0.00    -0.031 C 
BRANCH  12  13
ATOM     13  C   UNL     1      -1.183  -0.954   6.707  1.00  0.00     0.027 C 
BRANCH  13  14
ATOM     14  C   UNL     1      -1.449   0.251   7.622  1.00  0.00     0.004 C 
BRANCH  14  15
ATOM     15  C   UNL     1      -1.175  -0.068   9.102  1.00  0.00     0.000 C 
BRANCH  15  16
ATOM     16  C   UNL     1       0.323  -0.032   9.452  1.00  0.00    -0.000 C 
BRANCH  16  17
ATOM     17  C   UNL     1       0.871  -1.320  10.092  1.00  0.00    -0.003 C 
ATOM     18  C   UNL     1      -0.022  -2.537   9.847  1.00  0.00     0.004 C 
ENDBRANCH  16  17
ENDBRANCH  15  16
ENDBRANCH  14  15
ENDBRANCH  13  14
ENDBRANCH  12  13
ENDBRANCH  10  11
ENDBRANCH   1  10
TORSDOF 13
ENDMDL
MODEL 7
REMARK VINA RESULT:    -4.449      2.719      6.778
REMARK INTER + INTRA:          -8.775
REMARK INTER:                  -7.960
REMARK INTRA:                  -0.815
REMARK UNBOUND:                -0.945
REMARK SMILES CCCCCCC=CCCCCCCCC(=O)[O-]
REMARK SMILES IDX 10 1 11 2 12 3 13 4 14 5 15 6 16 7 17 8 18 9 9 10 8 11 7 12
REMARK SMILES IDX 6 13 5 14 4 15 3 16 2 17 1 18
REMARK H PARENT
REMARK Flexibility Score: inf
ROOT
ATOM      1  C   UNL     1      -0.427  -5.639   7.119  1.00  0.00     0.004 C 
ENDROOT
BRANCH   1   2
ATOM      2  C   UNL     1      -0.735  -7.147   7.026  1.00  0.00     0.000 C 
BRANCH   2   3
ATOM      3  C   UNL     1      -1.714  -7.686   8.087  1.00  0.00     0.000 C 
BRANCH   3   4
ATOM      4  C   UNL     1      -2.159  -9.146   7.881  1.00  0.00     0.000 C 
BRANCH   4   5
ATOM      5  C   UNL     1      -3.638  -9.373   8.225  1.00  0.00     0.006 C 
BRANCH   5   6
ATOM      6  C   UNL     1      -4.273  -8.096   8.783  1.00  0.00     0.053 C 
BRANCH   6   7
ATOM      7  C   UNL     1      -5.496  -7.734   8.000  1.00  0.00     0.041 C 
ATOM      8  O   UNL     1      -6.406  -8.585   7.817  1.00  0.00    -0.550 OA
ATOM      9  O   UNL     1      -5.608  -6.471   7.430  1.00  0.00    -0.550 OA
ENDBRANCH   6   7
ENDBRANCH   5   6
ENDBRANCH   4   5
ENDBRANCH   3   4
ENDBRANCH   2   3
ENDBRANCH   1   2
BRANCH   1  10
ATOM     10  C   UNL     1       0.972  -5.296   7.661  1.00  0.00     0.027 C 
BRANCH  10  11
ATOM     11  C   UNL     1       1.057  -5.479   9.159  1.00  0.00    -0.031 C 
ATOM     12  C   UNL     1       0.525  -4.652  10.079  1.00  0.00    -0.031 C 
BRANCH  12  13
ATOM     13  C   UNL     1      -0.274  -3.405   9.780  1.00  0.00     0.027 C 
BRANCH  13  14
ATOM     14  C   UNL     1       0.543  -2.113   9.938  1.00  0.00     0.004 C 
BRANCH  14  15
ATOM     15  C   UNL     1      -0.348  -0.860   9.980  1.00  0.00     0.000 C 
BRANCH  15  16
ATOM     16  C   UNL     1      -0.260  -0.024   8.691  1.00  0.00    -0.000 C 
BRANCH  16  17
ATOM     17  C   UNL     1      -1.449  -0.191   7.727  1.00  0.00    -0.003 C 
ATOM     18  C   UNL     1      -1.170   0.361   6.328  1.00  0.00     0.004 C 
ENDBRANCH  16  17
ENDBRANCH  15  16
ENDBRANCH  14  15
ENDBRANCH  13  14
ENDBRANCH  12  13
ENDBRANCH  10  11
ENDBRANCH   1  10
TORSDOF 13
ENDMDL
MODEL 8
REMARK VINA RESULT:    -4.448      2.768      4.523
REMARK INTER + INTRA:          -8.772
REMARK INTER:                  -8.392
REMARK INTRA:                  -0.380
REMARK UNBOUND:                -0.945
REMARK SMILES CCCCCCC=CCCCCCCCC(=O)[O-]
REMARK SMILES IDX 10 1 11 2 12 3 13 4 14 5 15 6 16 7 17 8 18 9 9 10 8 11 7 12
REMARK SMILES IDX 6 13 5 14 4 15 3 16 2 17 1 18
REMARK H PARENT
REMARK Flexibility Score: inf
ROOT
ATOM      1  C   UNL     1      -1.773  -3.743   5.183  1.00  0.00     0.004 C 
ENDROOT
BRANCH   1   2
ATOM      2  C   UNL     1      -1.427  -2.552   4.267  1.00  0.00     0.000 C 
BRANCH   2   3
ATOM      3  C   UNL     1      -1.519  -1.163   4.929  1.00  0.00     0.000 C 
BRANCH   3   4
ATOM      4  C   UNL     1      -1.197  -1.138   6.435  1.00  0.00     0.000 C 
BRANCH   4   5
ATOM      5  C   UNL     1      -1.233   0.278   7.029  1.00  0.00     0.006 C 
BRANCH   5   6
ATOM      6  C   UNL     1      -1.421   0.228   8.548  1.00  0.00     0.053 C 
BRANCH   6   7
ATOM      7  C   UNL     1      -0.166  -0.238   9.216  1.00  0.00     0.041 C 
ATOM      8  O   UNL     1      -0.131  -1.359   9.788  1.00  0.00    -0.550 OA
ATOM      9  O   UNL     1       0.952   0.588   9.251  1.00  0.00    -0.550 OA
ENDBRANCH   6   7
ENDBRANCH   5   6
ENDBRANCH   4   5
ENDBRANCH   3   4
ENDBRANCH   2   3
ENDBRANCH   1   2
BRANCH   1  10
ATOM     10  C   UNL     1      -0.736  -4.038   6.282  1.00  0.00     0.027 C 
BRANCH  10  11
ATOM     11  C   UNL     1      -0.302  -5.485   6.274  1.00  0.00    -0.031 C 
ATOM     12  C   UNL     1      -0.256  -6.293   7.351  1.00  0.00    -0.031 C 
BRANCH  12  13
ATOM     13  C   UNL     1      -0.653  -5.905   8.756  1.00  0.00     0.027 C 
BRANCH  13  14
ATOM     14  C   UNL     1      -1.802  -6.758   9.315  1.00  0.00     0.004 C 
BRANCH  14  15
ATOM     15  C   UNL     1      -2.150  -7.943   8.398  1.00  0.00     0.000 C 
BRANCH  15  16
ATOM     16  C   UNL     1      -3.645  -7.999   8.038  1.00  0.00    -0.000 C 
BRANCH  16  17
ATOM     17  C   UNL     1      -4.568  -7.205   8.980  1.00  0.00    -0.003 C 
ATOM     18  C   UNL     1      -5.915  -6.856   8.345  1.00  0.00     0.004 C 
ENDBRANCH  16  17
ENDBRANCH  15  16
ENDBRANCH  14  15
ENDBRANCH  13  14
ENDBRANCH  12  13
ENDBRANCH  10  11
ENDBRANCH   1  10
TORSDOF 13
ENDMDL
MODEL 9
REMARK VINA RESULT:    -4.356      5.049      6.457
REMARK INTER + INTRA:          -8.610
REMARK INTER:                  -7.953
REMARK INTRA:                  -0.657
REMARK UNBOUND:                -0.945
REMARK SMILES CCCCCCC=CCCCCCCCC(=O)[O-]
REMARK SMILES IDX 10 1 11 2 12 3 13 4 14 5 15 6 16 7 17 8 18 9 9 10 8 11 7 12
REMARK SMILES IDX 6 13 5 14 4 15 3 16 2 17 1 18
REMARK H PARENT
REMARK Flexibility Score: inf
ROOT
ATOM      1  C   UNL     1       3.013  -2.500  10.125  1.00  0.00     0.004 C 
ENDROOT
BRANCH   1   2
ATOM      2  C   UNL     1       4.180  -1.492  10.123  1.00  0.00     0.000 C 
BRANCH   2   3
ATOM      3  C   UNL     1       3.796  -0.041   9.770  1.00  0.00     0.000 C 
BRANCH   3   4
ATOM      4  C   UNL     1       4.857   0.735   8.969  1.00  0.00     0.000 C 
BRANCH   4   5
ATOM      5  C   UNL     1       5.876  -0.184   8.280  1.00  0.00     0.006 C 
BRANCH   5   6
ATOM      6  C   UNL     1       7.265  -0.024   8.905  1.00  0.00     0.053 C 
BRANCH   6   7
ATOM      7  C   UNL     1       8.293   0.214   7.844  1.00  0.00     0.041 C 
ATOM      8  O   UNL     1       8.226  -0.400   6.746  1.00  0.00    -0.550 OA
ATOM      9  O   UNL     1       9.354   1.078   8.086  1.00  0.00    -0.550 OA
ENDBRANCH   6   7
ENDBRANCH   5   6
ENDBRANCH   4   5
ENDBRANCH   3   4
ENDBRANCH   2   3
ENDBRANCH   1   2
BRANCH   1  10
ATOM     10  C   UNL     1       3.308  -3.833   9.415  1.00  0.00     0.027 C 
BRANCH  10  11
ATOM     11  C   UNL     1       2.582  -4.990  10.062  1.00  0.00    -0.031 C 
ATOM     12  C   UNL     1       1.383  -5.471   9.682  1.00  0.00    -0.031 C 
BRANCH  12  13
ATOM     13  C   UNL     1       0.558  -4.957   8.526  1.00  0.00     0.027 C 
BRANCH  13  14
ATOM     14  C   UNL     1       0.609  -5.874   7.294  1.00  0.00     0.004 C 
BRANCH  14  15
ATOM     15  C   UNL     1      -0.775  -6.437   6.927  1.00  0.00     0.000 C 
BRANCH  15  16
ATOM     16  C   UNL     1      -1.488  -7.090   8.125  1.00  0.00    -0.000 C 
BRANCH  16  17
ATOM     17  C   UNL     1      -1.981  -8.528   7.880  1.00  0.00    -0.003 C 
ATOM     18  C   UNL     1      -3.197  -8.898   8.731  1.00  0.00     0.004 C 
ENDBRANCH  16  17
ENDBRANCH  15  16
ENDBRANCH  14  15
ENDBRANCH  13  14
ENDBRANCH  12  13
ENDBRANCH  10  11
ENDBRANCH   1  10
TORSDOF 13
ENDMDL
