MODEL 1
REMARK VINA RESULT:    -3.381      0.000      0.000
REMARK INTER + INTRA:          -3.381
REMARK INTER:                  -3.381
REMARK INTRA:                   0.000
REMARK UNBOUND:                 0.000
REMARK SMILES CC1(C)[C@@H]2CC[C@@]1(C)C(=O)C2
REMARK SMILES IDX 1 1 2 2 4 3 5 4 6 5 7 6 9 7 10 8 11 9 8 10 3 11
REMARK H PARENT
REMARK Flexibility Score: inf
ROOT
ATOM      1  C   UNL     1      -8.126  23.095  14.712  1.00  0.00     0.012 C 
ATOM      2  C   UNL     1      -8.826  22.840  13.341  1.00  0.00    -0.020 C 
ATOM      3  C   UNL     1      -8.185  23.616  12.165  1.00  0.00     0.003 C 
ATOM      4  C   UNL     1      -8.946  23.057  10.932  1.00  0.00     0.005 C 
ATOM      5  C   UNL     1      -9.165  21.569  11.304  1.00  0.00     0.015 C 
ATOM      6  C   UNL     1      -8.512  21.470  12.703  1.00  0.00     0.032 C 
ATOM      7  C   UNL     1      -7.032  21.613  12.448  1.00  0.00     0.139 C 
ATOM      8  O   UNL     1      -6.212  20.707  12.448  1.00  0.00    -0.299 OA
ATOM      9  C   UNL     1      -6.745  23.039  12.090  1.00  0.00     0.080 C 
ATOM     10  C   UNL     1      -8.913  20.231  13.512  1.00  0.00     0.020 C 
ATOM     11  C   UNL     1     -10.337  23.152  13.553  1.00  0.00     0.012 C 
ENDROOT
TORSDOF 0
ENDMDL
MODEL 2
REMARK VINA RESULT:    -3.207      0.916      2.865
REMARK INTER + INTRA:          -3.207
REMARK INTER:                  -3.207
REMARK INTRA:                   0.000
REMARK UNBOUND:                 0.000
REMARK SMILES CC1(C)[C@@H]2CC[C@@]1(C)C(=O)C2
REMARK SMILES IDX 1 1 2 2 4 3 5 4 6 5 7 6 9 7 10 8 11 9 8 10 3 11
REMARK H PARENT
REMARK Flexibility Score: inf
ROOT
ATOM      1  C   UNL     1      -9.737  22.270  11.244  1.00  0.00     0.012 C 
ATOM      2  C   UNL     1      -9.442  22.619  12.735  1.00  0.00    -0.020 C 
ATOM      3  C   UNL     1      -9.659  21.431  13.704  1.00  0.00     0.003 C 
ATOM      4  C   UNL     1      -9.140  21.994  15.056  1.00  0.00     0.005 C 
ATOM      5  C   UNL     1      -7.948  22.885  14.627  1.00  0.00     0.015 C 
ATOM      6  C   UNL     1      -7.943  22.727  13.088  1.00  0.00     0.032 C 
ATOM      7  C   UNL     1      -7.497  21.306  12.848  1.00  0.00     0.139 C 
ATOM      8  O   UNL     1      -6.385  20.954  12.482  1.00  0.00    -0.299 OA
ATOM      9  C   UNL     1      -8.612  20.384  13.235  1.00  0.00     0.080 C 
ATOM     10  C   UNL     1      -7.139  23.794  12.336  1.00  0.00     0.020 C 
ATOM     11  C   UNL     1     -10.303  23.873  13.073  1.00  0.00     0.012 C 
ENDROOT
TORSDOF 0
ENDMDL
MODEL 3
REMARK VINA RESULT:    -3.055      1.422      2.446
REMARK INTER + INTRA:          -3.055
REMARK INTER:                  -3.055
REMARK INTRA:                   0.000
REMARK UNBOUND:                 0.000
REMARK SMILES CC1(C)[C@@H]2CC[C@@]1(C)C(=O)C2
REMARK SMILES IDX 1 1 2 2 4 3 5 4 6 5 7 6 9 7 10 8 11 9 8 10 3 11
REMARK H PARENT
REMARK Flexibility Score: inf
ROOT
ATOM      1  C   UNL     1     -10.376  22.936  12.124  1.00  0.00     0.012 C 
ATOM      2  C   UNL     1      -8.926  22.441  11.831  1.00  0.00    -0.020 C 
ATOM      3  C   UNL     1      -7.849  23.539  12.009  1.00  0.00     0.003 C 
ATOM      4  C   UNL     1      -6.523  22.749  11.828  1.00  0.00     0.005 C 
ATOM      5  C   UNL     1      -6.844  21.379  12.477  1.00  0.00     0.015 C 
ATOM      6  C   UNL     1      -8.311  21.556  12.935  1.00  0.00     0.032 C 
ATOM      7  C   UNL     1      -8.243  22.540  14.076  1.00  0.00     0.139 C 
ATOM      8  O   UNL     1      -8.329  22.270  15.264  1.00  0.00    -0.299 OA
ATOM      9  C   UNL     1      -7.943  23.897  13.518  1.00  0.00     0.080 C 
ATOM     10  C   UNL     1      -9.047  20.248  13.252  1.00  0.00     0.020 C 
ATOM     11  C   UNL     1      -8.955  21.813  10.405  1.00  0.00     0.012 C 
ENDROOT
TORSDOF 0
ENDMDL
MODEL 4
REMARK VINA RESULT:    -2.974      1.509      2.955
REMARK INTER + INTRA:          -2.974
REMARK INTER:                  -2.974
REMARK INTRA:                   0.000
REMARK UNBOUND:                 0.000
REMARK SMILES CC1(C)[C@@H]2CC[C@@]1(C)C(=O)C2
REMARK SMILES IDX 1 1 2 2 4 3 5 4 6 5 7 6 9 7 10 8 11 9 8 10 3 11
REMARK H PARENT
REMARK Flexibility Score: inf
ROOT
ATOM      1  C   UNL     1      -8.705  24.581  11.703  1.00  0.00     0.012 C 
ATOM      2  C   UNL     1      -8.130  23.305  12.391  1.00  0.00    -0.020 C 
ATOM      3  C   UNL     1      -9.035  22.058  12.239  1.00  0.00     0.003 C 
ATOM      4  C   UNL     1      -8.163  20.927  12.850  1.00  0.00     0.005 C 
ATOM      5  C   UNL     1      -6.727  21.327  12.426  1.00  0.00     0.015 C 
ATOM      6  C   UNL     1      -6.960  22.638  11.637  1.00  0.00     0.032 C 
ATOM      7  C   UNL     1      -7.654  22.207  10.369  1.00  0.00     0.139 C 
ATOM      8  O   UNL     1      -7.140  22.110   9.265  1.00  0.00    -0.299 OA
ATOM      9  C   UNL     1      -9.060  21.812  10.705  1.00  0.00     0.080 C 
ATOM     10  C   UNL     1      -5.704  23.493  11.429  1.00  0.00     0.020 C 
ATOM     11  C   UNL     1      -7.839  23.696  13.871  1.00  0.00     0.012 C 
ENDROOT
TORSDOF 0
ENDMDL
MODEL 5
REMARK VINA RESULT:    -2.967      1.909      3.290
REMARK INTER + INTRA:          -2.967
REMARK INTER:                  -2.967
REMARK INTRA:                   0.000
REMARK UNBOUND:                 0.000
REMARK SMILES CC1(C)[C@@H]2CC[C@@]1(C)C(=O)C2
REMARK SMILES IDX 1 1 2 2 4 3 5 4 6 5 7 6 9 7 10 8 11 9 8 10 3 11
REMARK H PARENT
REMARK Flexibility Score: inf
ROOT
ATOM      1  C   UNL     1      -8.756  21.774  10.910  1.00  0.00     0.012 C 
ATOM      2  C   UNL     1      -8.294  21.946  12.390  1.00  0.00    -0.020 C 
ATOM      3  C   UNL     1      -8.447  23.392  12.922  1.00  0.00     0.003 C 
ATOM      4  C   UNL     1      -8.088  23.241  14.426  1.00  0.00     0.005 C 
ATOM      5  C   UNL     1      -8.666  21.850  14.784  1.00  0.00     0.015 C 
ATOM      6  C   UNL     1      -9.272  21.378  13.440  1.00  0.00     0.032 C 
ATOM      7  C   UNL     1     -10.467  22.272  13.222  1.00  0.00     0.139 C 
ATOM      8  O   UNL     1     -11.637  21.963  13.392  1.00  0.00    -0.299 OA
ATOM      9  C   UNL     1      -9.979  23.641  12.860  1.00  0.00     0.080 C 
ATOM     10  C   UNL     1      -9.564  19.875  13.360  1.00  0.00     0.020 C 
ATOM     11  C   UNL     1      -6.837  21.399  12.463  1.00  0.00     0.012 C 
ENDROOT
TORSDOF 0
ENDMDL
MODEL 6
REMARK VINA RESULT:    -2.926      1.633      2.897
REMARK INTER + INTRA:          -2.926
REMARK INTER:                  -2.926
REMARK INTRA:                   0.000
REMARK UNBOUND:                 0.000
REMARK SMILES CC1(C)[C@@H]2CC[C@@]1(C)C(=O)C2
REMARK SMILES IDX 1 1 2 2 4 3 5 4 6 5 7 6 9 7 10 8 11 9 8 10 3 11
REMARK H PARENT
REMARK Flexibility Score: inf
ROOT
ATOM      1  C   UNL     1      -6.720  21.471  12.346  1.00  0.00     0.012 C 
ATOM      2  C   UNL     1      -8.135  21.690  12.965  1.00  0.00    -0.020 C 
ATOM      3  C   UNL     1      -8.151  22.720  14.121  1.00  0.00     0.003 C 
ATOM      4  C   UNL     1      -9.668  22.867  14.425  1.00  0.00     0.005 C 
ATOM      5  C   UNL     1     -10.317  22.748  13.024  1.00  0.00     0.015 C 
ATOM      6  C   UNL     1      -9.093  22.537  12.100  1.00  0.00     0.032 C 
ATOM      7  C   UNL     1      -8.374  23.863  12.105  1.00  0.00     0.139 C 
ATOM      8  O   UNL     1      -8.396  24.695  11.210  1.00  0.00    -0.299 OA
ATOM      9  C   UNL     1      -7.711  24.043  13.436  1.00  0.00     0.080 C 
ATOM     10  C   UNL     1      -9.426  21.986  10.709  1.00  0.00     0.020 C 
ATOM     11  C   UNL     1      -8.663  20.281  13.369  1.00  0.00     0.012 C 
ENDROOT
TORSDOF 0
ENDMDL
MODEL 7
REMARK VINA RESULT:    -2.896      1.344      2.731
REMARK INTER + INTRA:          -2.896
REMARK INTER:                  -2.896
REMARK INTRA:                   0.000
REMARK UNBOUND:                 0.000
REMARK SMILES CC1(C)[C@@H]2CC[C@@]1(C)C(=O)C2
REMARK SMILES IDX 1 1 2 2 4 3 5 4 6 5 7 6 9 7 10 8 11 9 8 10 3 11
REMARK H PARENT
REMARK Flexibility Score: inf
ROOT
ATOM      1  C   UNL     1      -8.798  24.224  13.116  1.00  0.00     0.012 C 
ATOM      2  C   UNL     1      -8.873  22.748  13.613  1.00  0.00    -0.020 C 
ATOM      3  C   UNL     1     -10.277  22.113  13.459  1.00  0.00     0.003 C 
ATOM      4  C   UNL     1     -10.028  20.632  13.856  1.00  0.00     0.005 C 
ATOM      5  C   UNL     1      -8.608  20.357  13.301  1.00  0.00     0.015 C 
ATOM      6  C   UNL     1      -8.223  21.715  12.668  1.00  0.00     0.032 C 
ATOM      7  C   UNL     1      -9.115  21.843  11.458  1.00  0.00     0.139 C 
ATOM      8  O   UNL     1      -8.781  21.666  10.296  1.00  0.00    -0.299 OA
ATOM      9  C   UNL     1     -10.512  22.121  11.923  1.00  0.00     0.080 C 
ATOM     10  C   UNL     1      -6.726  21.892  12.388  1.00  0.00     0.020 C 
ATOM     11  C   UNL     1      -8.340  22.747  15.077  1.00  0.00     0.012 C 
ENDROOT
TORSDOF 0
ENDMDL
MODEL 8
REMARK VINA RESULT:    -2.892      1.735      2.938
REMARK INTER + INTRA:          -2.892
REMARK INTER:                  -2.892
REMARK INTRA:                   0.000
REMARK UNBOUND:                 0.000
REMARK SMILES CC1(C)[C@@H]2CC[C@@]1(C)C(=O)C2
REMARK SMILES IDX 1 1 2 2 4 3 5 4 6 5 7 6 9 7 10 8 11 9 8 10 3 11
REMARK H PARENT
REMARK Flexibility Score: inf
ROOT
ATOM      1  C   UNL     1     -10.139  22.670  14.378  1.00  0.00     0.012 C 
ATOM      2  C   UNL     1      -8.867  22.527  13.488  1.00  0.00    -0.020 C 
ATOM      3  C   UNL     1      -8.192  21.137  13.591  1.00  0.00     0.003 C 
ATOM      4  C   UNL     1      -7.086  21.212  12.502  1.00  0.00     0.005 C 
ATOM      5  C   UNL     1      -7.755  22.051  11.385  1.00  0.00     0.015 C 
ATOM      6  C   UNL     1      -9.151  22.357  11.980  1.00  0.00     0.032 C 
ATOM      7  C   UNL     1      -9.869  21.031  11.978  1.00  0.00     0.139 C 
ATOM      8  O   UNL     1     -10.730  20.681  11.186  1.00  0.00    -0.299 OA
ATOM      9  C   UNL     1      -9.276  20.165  13.048  1.00  0.00     0.080 C 
ATOM     10  C   UNL     1      -9.904  23.502  11.293  1.00  0.00     0.020 C 
ATOM     11  C   UNL     1      -7.928  23.712  13.865  1.00  0.00     0.012 C 
ENDROOT
TORSDOF 0
ENDMDL
MODEL 9
REMARK VINA RESULT:    -1.678      2.049      3.447
REMARK INTER + INTRA:          -1.678
REMARK INTER:                  -1.678
REMARK INTRA:                   0.000
REMARK UNBOUND:                 0.000
REMARK SMILES CC1(C)[C@@H]2CC[C@@]1(C)C(=O)C2
REMARK SMILES IDX 1 1 2 2 4 3 5 4 6 5 7 6 9 7 10 8 11 9 8 10 3 11
REMARK H PARENT
REMARK Flexibility Score: inf
ROOT
ATOM      1  C   UNL     1      -7.767  23.348  13.829  1.00  0.00     0.012 C 
ATOM      2  C   UNL     1      -8.232  21.995  13.210  1.00  0.00    -0.020 C 
ATOM      3  C   UNL     1      -8.888  21.038  14.235  1.00  0.00     0.003 C 
ATOM      4  C   UNL     1      -9.397  19.875  13.338  1.00  0.00     0.005 C 
ATOM      5  C   UNL     1      -9.839  20.602  12.043  1.00  0.00     0.015 C 
ATOM      6  C   UNL     1      -9.517  22.082  12.359  1.00  0.00     0.032 C 
ATOM      7  C   UNL     1     -10.522  22.479  13.412  1.00  0.00     0.139 C 
ATOM      8  O   UNL     1     -11.523  23.157  13.231  1.00  0.00    -0.299 OA
ATOM      9  C   UNL     1     -10.149  21.815  14.702  1.00  0.00     0.080 C 
ATOM     10  C   UNL     1      -9.465  23.003  11.134  1.00  0.00     0.020 C 
ATOM     11  C   UNL     1      -6.990  21.390  12.489  1.00  0.00     0.012 C 
ENDROOT
TORSDOF 0
ENDMDL
