MODEL 1
REMARK VINA RESULT:    -6.980      0.000      0.000
REMARK INTER + INTRA:          -6.980
REMARK INTER:                  -6.980
REMARK INTRA:                   0.000
REMARK UNBOUND:                 0.000
REMARK SMILES O=c1ccc2ccccc2o1
REMARK SMILES IDX 7 1 8 2 9 3 10 4 5 5 6 6 4 7 3 8 2 9 1 10 11 11
REMARK H PARENT
REMARK Flexibility Score: inf
ROOT
ATOM      1  C   UNL     1     -20.118 -14.406 -10.392  1.00  0.00     0.001 A 
ATOM      2  C   UNL     1     -19.344 -14.528 -11.551  1.00  0.00     0.004 A 
ATOM      3  C   UNL     1     -19.937 -14.926 -12.754  1.00  0.00     0.048 A 
ATOM      4  C   UNL     1     -21.307 -15.204 -12.801  1.00  0.00     0.138 A 
ATOM      5  C   UNL     1     -22.089 -15.082 -11.631  1.00  0.00     0.018 A 
ATOM      6  C   UNL     1     -21.489 -14.683 -10.428  1.00  0.00     0.012 A 
ATOM      7  C   UNL     1     -23.455 -15.367 -11.709  1.00  0.00     0.019 A 
ATOM      8  C   UNL     1     -24.003 -15.760 -12.929  1.00  0.00     0.094 A 
ATOM      9  C   UNL     1     -23.168 -15.860 -14.048  1.00  0.00     0.336 A 
ATOM     10  O   UNL     1     -23.645 -16.214 -15.158  1.00  0.00    -0.246 OA
ATOM     11  O   UNL     1     -21.871 -15.583 -13.946  1.00  0.00    -0.423 OA
ENDROOT
TORSDOF 0
ENDMDL
MODEL 2
REMARK VINA RESULT:    -6.830      2.103      3.085
REMARK INTER + INTRA:          -6.830
REMARK INTER:                  -6.830
REMARK INTRA:                   0.000
REMARK UNBOUND:                 0.000
REMARK SMILES O=c1ccc2ccccc2o1
REMARK SMILES IDX 7 1 8 2 9 3 10 4 5 5 6 6 4 7 3 8 2 9 1 10 11 11
REMARK H PARENT
REMARK Flexibility Score: inf
ROOT
ATOM      1  C   UNL     1     -20.747 -13.584  -8.210  1.00  0.00     0.001 A 
ATOM      2  C   UNL     1     -22.006 -13.005  -8.019  1.00  0.00     0.004 A 
ATOM      3  C   UNL     1     -22.989 -13.115  -9.008  1.00  0.00     0.048 A 
ATOM      4  C   UNL     1     -22.714 -13.806 -10.193  1.00  0.00     0.138 A 
ATOM      5  C   UNL     1     -21.442 -14.390 -10.388  1.00  0.00     0.018 A 
ATOM      6  C   UNL     1     -20.461 -14.275  -9.392  1.00  0.00     0.012 A 
ATOM      7  C   UNL     1     -21.198 -15.073 -11.582  1.00  0.00     0.019 A 
ATOM      8  C   UNL     1     -22.207 -15.158 -12.540  1.00  0.00     0.094 A 
ATOM      9  C   UNL     1     -23.443 -14.555 -12.281  1.00  0.00     0.336 A 
ATOM     10  O   UNL     1     -24.366 -14.622 -13.134  1.00  0.00    -0.246 OA
ATOM     11  O   UNL     1     -23.649 -13.911 -11.135  1.00  0.00    -0.423 OA
ENDROOT
TORSDOF 0
ENDMDL
MODEL 3
REMARK VINA RESULT:    -6.749      1.671      3.827
REMARK INTER + INTRA:          -6.749
REMARK INTER:                  -6.749
REMARK INTRA:                   0.000
REMARK UNBOUND:                 0.000
REMARK SMILES O=c1ccc2ccccc2o1
REMARK SMILES IDX 7 1 8 2 9 3 10 4 5 5 6 6 4 7 3 8 2 9 1 10 11 11
REMARK H PARENT
REMARK Flexibility Score: inf
ROOT
ATOM      1  C   UNL     1     -23.827 -15.493 -12.454  1.00  0.00     0.001 A 
ATOM      2  C   UNL     1     -23.286 -15.709 -13.727  1.00  0.00     0.004 A 
ATOM      3  C   UNL     1     -21.913 -15.553 -13.943  1.00  0.00     0.048 A 
ATOM      4  C   UNL     1     -21.075 -15.181 -12.887  1.00  0.00     0.138 A 
ATOM      5  C   UNL     1     -21.621 -14.961 -11.601  1.00  0.00     0.018 A 
ATOM      6  C   UNL     1     -22.998 -15.119 -11.391  1.00  0.00     0.012 A 
ATOM      7  C   UNL     1     -20.759 -14.590 -10.566  1.00  0.00     0.019 A 
ATOM      8  C   UNL     1     -19.397 -14.446 -10.828  1.00  0.00     0.094 A 
ATOM      9  C   UNL     1     -18.926 -14.679 -12.125  1.00  0.00     0.336 A 
ATOM     10  O   UNL     1     -17.700 -14.555 -12.380  1.00  0.00    -0.246 OA
ATOM     11  O   UNL     1     -19.769 -15.032 -13.093  1.00  0.00    -0.423 OA
ENDROOT
TORSDOF 0
ENDMDL
MODEL 4
REMARK VINA RESULT:    -6.660      2.084      4.381
REMARK INTER + INTRA:          -6.660
REMARK INTER:                  -6.660
REMARK INTRA:                   0.000
REMARK UNBOUND:                 0.000
REMARK SMILES O=c1ccc2ccccc2o1
REMARK SMILES IDX 7 1 8 2 9 3 10 4 5 5 6 6 4 7 3 8 2 9 1 10 11 11
REMARK H PARENT
REMARK Flexibility Score: inf
ROOT
ATOM      1  C   UNL     1     -22.844 -15.861 -14.231  1.00  0.00     0.001 A 
ATOM      2  C   UNL     1     -23.861 -15.821 -13.271  1.00  0.00     0.004 A 
ATOM      3  C   UNL     1     -23.574 -15.433 -11.958  1.00  0.00     0.048 A 
ATOM      4  C   UNL     1     -22.267 -15.084 -11.601  1.00  0.00     0.138 A 
ATOM      5  C   UNL     1     -21.239 -15.125 -12.569  1.00  0.00     0.018 A 
ATOM      6  C   UNL     1     -21.533 -15.515 -13.884  1.00  0.00     0.012 A 
ATOM      7  C   UNL     1     -19.943 -14.771 -12.183  1.00  0.00     0.019 A 
ATOM      8  C   UNL     1     -19.704 -14.391 -10.863  1.00  0.00     0.094 A 
ATOM      9  C   UNL     1     -20.770 -14.373  -9.957  1.00  0.00     0.336 A 
ATOM     10  O   UNL     1     -20.572 -14.032  -8.761  1.00  0.00    -0.246 OA
ATOM     11  O   UNL     1     -21.994 -14.715 -10.352  1.00  0.00    -0.423 OA
ENDROOT
TORSDOF 0
ENDMDL
MODEL 5
REMARK VINA RESULT:    -6.410      2.599      3.805
REMARK INTER + INTRA:          -6.410
REMARK INTER:                  -6.410
REMARK INTRA:                   0.000
REMARK UNBOUND:                 0.000
REMARK SMILES O=c1ccc2ccccc2o1
REMARK SMILES IDX 7 1 8 2 9 3 10 4 5 5 6 6 4 7 3 8 2 9 1 10 11 11
REMARK H PARENT
REMARK Flexibility Score: inf
ROOT
ATOM      1  C   UNL     1     -23.352 -13.267  -9.139  1.00  0.00     0.001 A 
ATOM      2  C   UNL     1     -22.203 -12.928  -8.416  1.00  0.00     0.004 A 
ATOM      3  C   UNL     1     -20.936 -13.219  -8.930  1.00  0.00     0.048 A 
ATOM      4  C   UNL     1     -20.813 -13.852 -10.172  1.00  0.00     0.138 A 
ATOM      5  C   UNL     1     -21.972 -14.196 -10.903  1.00  0.00     0.018 A 
ATOM      6  C   UNL     1     -23.240 -13.901 -10.382  1.00  0.00     0.012 A 
ATOM      7  C   UNL     1     -21.817 -14.827 -12.140  1.00  0.00     0.019 A 
ATOM      8  C   UNL     1     -20.534 -15.098 -12.614  1.00  0.00     0.094 A 
ATOM      9  C   UNL     1     -19.431 -14.729 -11.836  1.00  0.00     0.336 A 
ATOM     10  O   UNL     1     -18.265 -14.965 -12.247  1.00  0.00    -0.246 OA
ATOM     11  O   UNL     1     -19.607 -14.129 -10.662  1.00  0.00    -0.423 OA
ENDROOT
TORSDOF 0
ENDMDL
MODEL 6
REMARK VINA RESULT:    -6.391      3.180      4.526
REMARK INTER + INTRA:          -6.391
REMARK INTER:                  -6.391
REMARK INTRA:                   0.000
REMARK UNBOUND:                 0.000
REMARK SMILES O=c1ccc2ccccc2o1
REMARK SMILES IDX 7 1 8 2 9 3 10 4 5 5 6 6 4 7 3 8 2 9 1 10 11 11
REMARK H PARENT
REMARK Flexibility Score: inf
ROOT
ATOM      1  C   UNL     1     -21.575 -15.018 -12.713  1.00  0.00     0.001 A 
ATOM      2  C   UNL     1     -20.246 -15.125 -12.287  1.00  0.00     0.004 A 
ATOM      3  C   UNL     1     -19.881 -14.699 -11.006  1.00  0.00     0.048 A 
ATOM      4  C   UNL     1     -20.845 -14.164 -10.145  1.00  0.00     0.138 A 
ATOM      5  C   UNL     1     -22.187 -14.054 -10.574  1.00  0.00     0.018 A 
ATOM      6  C   UNL     1     -22.547 -14.483 -11.860  1.00  0.00     0.012 A 
ATOM      7  C   UNL     1     -23.127 -13.515  -9.692  1.00  0.00     0.019 A 
ATOM      8  C   UNL     1     -22.718 -13.104  -8.424  1.00  0.00     0.094 A 
ATOM      9  C   UNL     1     -21.373 -13.241  -8.067  1.00  0.00     0.336 A 
ATOM     10  O   UNL     1     -20.985 -12.875  -6.926  1.00  0.00    -0.246 OA
ATOM     11  O   UNL     1     -20.498 -13.758  -8.926  1.00  0.00    -0.423 OA
ENDROOT
TORSDOF 0
ENDMDL
MODEL 7
REMARK VINA RESULT:    -6.315      7.503      8.371
REMARK INTER + INTRA:          -6.315
REMARK INTER:                  -6.315
REMARK INTRA:                   0.000
REMARK UNBOUND:                 0.000
REMARK SMILES O=c1ccc2ccccc2o1
REMARK SMILES IDX 7 1 8 2 9 3 10 4 5 5 6 6 4 7 3 8 2 9 1 10 11 11
REMARK H PARENT
REMARK Flexibility Score: inf
ROOT
ATOM      1  C   UNL     1     -25.345 -22.634  -8.256  1.00  0.00     0.001 A 
ATOM      2  C   UNL     1     -24.647 -23.842  -8.366  1.00  0.00     0.004 A 
ATOM      3  C   UNL     1     -23.953 -24.148  -9.541  1.00  0.00     0.048 A 
ATOM      4  C   UNL     1     -23.955 -23.247 -10.611  1.00  0.00     0.138 A 
ATOM      5  C   UNL     1     -24.661 -22.028 -10.501  1.00  0.00     0.018 A 
ATOM      6  C   UNL     1     -25.355 -21.726  -9.320  1.00  0.00     0.012 A 
ATOM      7  C   UNL     1     -24.645 -21.148 -11.587  1.00  0.00     0.019 A 
ATOM      8  C   UNL     1     -23.939 -21.495 -12.738  1.00  0.00     0.094 A 
ATOM      9  C   UNL     1     -23.264 -22.720 -12.777  1.00  0.00     0.336 A 
ATOM     10  O   UNL     1     -22.621 -23.050 -13.808  1.00  0.00    -0.246 OA
ATOM     11  O   UNL     1     -23.295 -23.539 -11.729  1.00  0.00    -0.423 OA
ENDROOT
TORSDOF 0
ENDMDL
MODEL 8
REMARK VINA RESULT:    -6.251      1.096      2.083
REMARK INTER + INTRA:          -6.251
REMARK INTER:                  -6.251
REMARK INTRA:                   0.000
REMARK UNBOUND:                 0.000
REMARK SMILES O=c1ccc2ccccc2o1
REMARK SMILES IDX 7 1 8 2 9 3 10 4 5 5 6 6 4 7 3 8 2 9 1 10 11 11
REMARK H PARENT
REMARK Flexibility Score: inf
ROOT
ATOM      1  C   UNL     1     -19.455 -14.382 -10.946  1.00  0.00     0.001 A 
ATOM      2  C   UNL     1     -20.500 -14.338 -10.016  1.00  0.00     0.004 A 
ATOM      3  C   UNL     1     -21.803 -14.664 -10.406  1.00  0.00     0.048 A 
ATOM      4  C   UNL     1     -22.065 -15.035 -11.729  1.00  0.00     0.138 A 
ATOM      5  C   UNL     1     -21.011 -15.079 -12.669  1.00  0.00     0.018 A 
ATOM      6  C   UNL     1     -19.707 -14.751 -12.272  1.00  0.00     0.012 A 
ATOM      7  C   UNL     1     -21.304 -15.453 -13.984  1.00  0.00     0.019 A 
ATOM      8  C   UNL     1     -22.618 -15.770 -14.328  1.00  0.00     0.094 A 
ATOM      9  C   UNL     1     -23.612 -15.704 -13.345  1.00  0.00     0.336 A 
ATOM     10  O   UNL     1     -24.803 -15.987 -13.637  1.00  0.00    -0.246 OA
ATOM     11  O   UNL     1     -23.305 -15.346 -12.101  1.00  0.00    -0.423 OA
ENDROOT
TORSDOF 0
ENDMDL
MODEL 9
REMARK VINA RESULT:    -6.163      7.129      8.099
REMARK INTER + INTRA:          -6.163
REMARK INTER:                  -6.163
REMARK INTRA:                   0.000
REMARK UNBOUND:                 0.000
REMARK SMILES O=c1ccc2ccccc2o1
REMARK SMILES IDX 7 1 8 2 9 3 10 4 5 5 6 6 4 7 3 8 2 9 1 10 11 11
REMARK H PARENT
REMARK Flexibility Score: inf
ROOT
ATOM      1  C   UNL     1     -24.359 -23.858  -8.742  1.00  0.00     0.001 A 
ATOM      2  C   UNL     1     -24.957 -22.624  -8.464  1.00  0.00     0.004 A 
ATOM      3  C   UNL     1     -25.052 -21.648  -9.461  1.00  0.00     0.048 A 
ATOM      4  C   UNL     1     -24.550 -21.903 -10.741  1.00  0.00     0.138 A 
ATOM      5  C   UNL     1     -23.945 -23.149 -11.023  1.00  0.00     0.018 A 
ATOM      6  C   UNL     1     -23.852 -24.123 -10.019  1.00  0.00     0.012 A 
ATOM      7  C   UNL     1     -23.452 -23.374 -12.311  1.00  0.00     0.019 A 
ATOM      8  C   UNL     1     -23.570 -22.372 -13.274  1.00  0.00     0.094 A 
ATOM      9  C   UNL     1     -24.179 -21.162 -12.924  1.00  0.00     0.336 A 
ATOM     10  O   UNL     1     -24.294 -20.246 -13.779  1.00  0.00    -0.246 OA
ATOM     11  O   UNL     1     -24.641 -20.974 -11.690  1.00  0.00    -0.423 OA
ENDROOT
TORSDOF 0
ENDMDL
