MODEL 1
REMARK VINA RESULT:    -4.389      0.000      0.000
REMARK INTER + INTRA:          -6.313
REMARK INTER:                  -5.928
REMARK INTRA:                  -0.385
REMARK UNBOUND:                -0.385
REMARK SMILES CCCCCCCC(=O)[O-]
REMARK SMILES IDX 5 1 6 2 7 3 8 4 9 5 10 6 4 7 3 8 2 9 1 10
REMARK H PARENT
REMARK Flexibility Score: inf
ROOT
ATOM      1  C   UNL     1      73.641  13.153  18.671  1.00  0.00     0.000 C 
ENDROOT
BRANCH   1   2
ATOM      2  C   UNL     1      74.510  13.252  17.407  1.00  0.00     0.006 C 
BRANCH   2   3
ATOM      3  C   UNL     1      75.149  14.636  17.234  1.00  0.00     0.053 C 
BRANCH   3   4
ATOM      4  C   UNL     1      74.997  15.108  15.822  1.00  0.00     0.041 C 
ATOM      5  O   UNL     1      74.309  16.131  15.567  1.00  0.00    -0.550 OA
ATOM      6  O   UNL     1      75.573  14.389  14.784  1.00  0.00    -0.550 OA
ENDBRANCH   3   4
ENDBRANCH   2   3
ENDBRANCH   1   2
BRANCH   1   7
ATOM      7  C   UNL     1      74.115  12.048  19.631  1.00  0.00     0.000 C 
BRANCH   7   8
ATOM      8  C   UNL     1      75.508  11.510  19.268  1.00  0.00    -0.000 C 
BRANCH   8   9
ATOM      9  C   UNL     1      76.524  11.676  20.408  1.00  0.00    -0.003 C 
ATOM     10  C   UNL     1      77.676  12.584  19.988  1.00  0.00     0.004 C 
ENDBRANCH   8   9
ENDBRANCH   7   8
ENDBRANCH   1   7
TORSDOF 6
ENDMDL
MODEL 2
REMARK VINA RESULT:    -4.371      0.671      1.280
REMARK INTER + INTRA:          -6.289
REMARK INTER:                  -6.048
REMARK INTRA:                  -0.241
REMARK UNBOUND:                -0.385
REMARK SMILES CCCCCCCC(=O)[O-]
REMARK SMILES IDX 5 1 6 2 7 3 8 4 9 5 10 6 4 7 3 8 2 9 1 10
REMARK H PARENT
REMARK Flexibility Score: inf
ROOT
ATOM      1  C   UNL     1      73.592  13.227  18.254  1.00  0.00     0.000 C 
ENDROOT
BRANCH   1   2
ATOM      2  C   UNL     1      74.699  13.408  17.203  1.00  0.00     0.006 C 
BRANCH   2   3
ATOM      3  C   UNL     1      75.050  14.883  16.960  1.00  0.00     0.053 C 
BRANCH   3   4
ATOM      4  C   UNL     1      75.161  15.158  15.494  1.00  0.00     0.041 C 
ATOM      5  O   UNL     1      75.600  14.272  14.714  1.00  0.00    -0.550 OA
ATOM      6  O   UNL     1      74.826  16.410  14.995  1.00  0.00    -0.550 OA
ENDBRANCH   3   4
ENDBRANCH   2   3
ENDBRANCH   1   2
BRANCH   1   7
ATOM      7  C   UNL     1      74.024  12.315  19.416  1.00  0.00     0.000 C 
BRANCH   7   8
ATOM      8  C   UNL     1      75.320  11.548  19.113  1.00  0.00    -0.000 C 
BRANCH   8   9
ATOM      9  C   UNL     1      76.311  11.569  20.286  1.00  0.00    -0.003 C 
ATOM     10  C   UNL     1      77.278  10.391  20.210  1.00  0.00     0.004 C 
ENDBRANCH   8   9
ENDBRANCH   7   8
ENDBRANCH   1   7
TORSDOF 6
ENDMDL
MODEL 3
REMARK VINA RESULT:    -4.155      3.021      5.076
REMARK INTER + INTRA:          -5.998
REMARK INTER:                  -5.756
REMARK INTRA:                  -0.242
REMARK UNBOUND:                -0.385
REMARK SMILES CCCCCCCC(=O)[O-]
REMARK SMILES IDX 5 1 6 2 7 3 8 4 9 5 10 6 4 7 3 8 2 9 1 10
REMARK H PARENT
REMARK Flexibility Score: inf
ROOT
ATOM      1  C   UNL     1      73.848  13.235  18.626  1.00  0.00     0.000 C 
ENDROOT
BRANCH   1   2
ATOM      2  C   UNL     1      74.286  12.059  19.513  1.00  0.00     0.006 C 
BRANCH   2   3
ATOM      3  C   UNL     1      75.511  11.321  18.956  1.00  0.00     0.053 C 
BRANCH   3   4
ATOM      4  C   UNL     1      76.650  11.396  19.924  1.00  0.00     0.041 C 
ATOM      5  O   UNL     1      77.204  12.501  20.166  1.00  0.00    -0.550 OA
ATOM      6  O   UNL     1      77.131  10.239  20.521  1.00  0.00    -0.550 OA
ENDBRANCH   3   4
ENDBRANCH   2   3
ENDBRANCH   1   2
BRANCH   1   7
ATOM      7  C   UNL     1      74.746  13.410  17.389  1.00  0.00     0.000 C 
BRANCH   7   8
ATOM      8  C   UNL     1      74.998  14.886  17.046  1.00  0.00    -0.000 C 
BRANCH   8   9
ATOM      9  C   UNL     1      75.061  15.142  15.533  1.00  0.00    -0.003 C 
ATOM     10  C   UNL     1      74.819  16.614  15.215  1.00  0.00     0.004 C 
ENDBRANCH   8   9
ENDBRANCH   7   8
ENDBRANCH   1   7
TORSDOF 6
ENDMDL
MODEL 4
REMARK VINA RESULT:    -4.137      1.221      1.868
REMARK INTER + INTRA:          -5.973
REMARK INTER:                  -5.685
REMARK INTRA:                  -0.288
REMARK UNBOUND:                -0.385
REMARK SMILES CCCCCCCC(=O)[O-]
REMARK SMILES IDX 5 1 6 2 7 3 8 4 9 5 10 6 4 7 3 8 2 9 1 10
REMARK H PARENT
REMARK Flexibility Score: inf
ROOT
ATOM      1  C   UNL     1      74.313  12.373  19.217  1.00  0.00     0.000 C 
ENDROOT
BRANCH   1   2
ATOM      2  C   UNL     1      73.801  13.150  17.994  1.00  0.00     0.006 C 
BRANCH   2   3
ATOM      3  C   UNL     1      74.811  14.188  17.485  1.00  0.00     0.053 C 
BRANCH   3   4
ATOM      4  C   UNL     1      75.090  13.974  16.031  1.00  0.00     0.041 C 
ATOM      5  O   UNL     1      75.083  12.811  15.548  1.00  0.00    -0.550 OA
ATOM      6  O   UNL     1      75.407  15.055  15.219  1.00  0.00    -0.550 OA
ENDBRANCH   3   4
ENDBRANCH   2   3
ENDBRANCH   1   2
BRANCH   1   7
ATOM      7  C   UNL     1      75.848  12.398  19.333  1.00  0.00     0.000 C 
BRANCH   7   8
ATOM      8  C   UNL     1      76.367  11.515  20.478  1.00  0.00    -0.000 C 
BRANCH   8   9
ATOM      9  C   UNL     1      77.300  10.398  19.990  1.00  0.00    -0.003 C 
ATOM     10  C   UNL     1      76.708   9.677  18.782  1.00  0.00     0.004 C 
ENDBRANCH   8   9
ENDBRANCH   7   8
ENDBRANCH   1   7
TORSDOF 6
ENDMDL
MODEL 5
REMARK VINA RESULT:    -4.119      2.924      4.547
REMARK INTER + INTRA:          -5.949
REMARK INTER:                  -5.576
REMARK INTRA:                  -0.374
REMARK UNBOUND:                -0.385
REMARK SMILES CCCCCCCC(=O)[O-]
REMARK SMILES IDX 5 1 6 2 7 3 8 4 9 5 10 6 4 7 3 8 2 9 1 10
REMARK H PARENT
REMARK Flexibility Score: inf
ROOT
ATOM      1  C   UNL     1      74.183  12.059  19.554  1.00  0.00     0.000 C 
ENDROOT
BRANCH   1   2
ATOM      2  C   UNL     1      75.569  11.501  19.193  1.00  0.00     0.006 C 
BRANCH   2   3
ATOM      3  C   UNL     1      76.572  11.610  20.350  1.00  0.00     0.053 C 
BRANCH   3   4
ATOM      4  C   UNL     1      77.903  12.067  19.845  1.00  0.00     0.041 C 
ATOM      5  O   UNL     1      78.310  13.233  20.093  1.00  0.00    -0.550 OA
ATOM      6  O   UNL     1      78.675  11.222  19.058  1.00  0.00    -0.550 OA
ENDBRANCH   3   4
ENDBRANCH   2   3
ENDBRANCH   1   2
BRANCH   1   7
ATOM      7  C   UNL     1      73.715  13.156  18.582  1.00  0.00     0.000 C 
BRANCH   7   8
ATOM      8  C   UNL     1      74.884  13.971  18.005  1.00  0.00    -0.000 C 
BRANCH   8   9
ATOM      9  C   UNL     1      74.743  14.226  16.498  1.00  0.00    -0.003 C 
ATOM     10  C   UNL     1      75.373  13.097  15.688  1.00  0.00     0.004 C 
ENDBRANCH   8   9
ENDBRANCH   7   8
ENDBRANCH   1   7
TORSDOF 6
ENDMDL
MODEL 6
REMARK VINA RESULT:    -4.077      1.620      2.696
REMARK INTER + INTRA:          -5.892
REMARK INTER:                  -5.414
REMARK INTRA:                  -0.479
REMARK UNBOUND:                -0.385
REMARK SMILES CCCCCCCC(=O)[O-]
REMARK SMILES IDX 5 1 6 2 7 3 8 4 9 5 10 6 4 7 3 8 2 9 1 10
REMARK H PARENT
REMARK Flexibility Score: inf
ROOT
ATOM      1  C   UNL     1      75.553  11.973  20.213  1.00  0.00     0.000 C 
ENDROOT
BRANCH   1   2
ATOM      2  C   UNL     1      74.302  11.788  19.339  1.00  0.00     0.006 C 
BRANCH   2   3
ATOM      3  C   UNL     1      73.808  13.106  18.726  1.00  0.00     0.053 C 
BRANCH   3   4
ATOM      4  C   UNL     1      74.874  13.716  17.874  1.00  0.00     0.041 C 
ATOM      5  O   UNL     1      75.338  13.083  16.888  1.00  0.00    -0.550 OA
ATOM      6  O   UNL     1      75.392  14.964  18.196  1.00  0.00    -0.550 OA
ENDBRANCH   3   4
ENDBRANCH   2   3
ENDBRANCH   1   2
BRANCH   1   7
ATOM      7  C   UNL     1      76.641  10.925  19.917  1.00  0.00     0.000 C 
BRANCH   7   8
ATOM      8  C   UNL     1      77.975  11.563  19.498  1.00  0.00    -0.000 C 
BRANCH   8   9
ATOM      9  C   UNL     1      78.025  13.072  19.777  1.00  0.00    -0.003 C 
ATOM     10  C   UNL     1      79.462  13.585  19.768  1.00  0.00     0.004 C 
ENDBRANCH   8   9
ENDBRANCH   7   8
ENDBRANCH   1   7
TORSDOF 6
ENDMDL
MODEL 7
REMARK VINA RESULT:    -3.985      1.903      2.298
REMARK INTER + INTRA:          -5.767
REMARK INTER:                  -5.299
REMARK INTRA:                  -0.468
REMARK UNBOUND:                -0.385
REMARK SMILES CCCCCCCC(=O)[O-]
REMARK SMILES IDX 5 1 6 2 7 3 8 4 9 5 10 6 4 7 3 8 2 9 1 10
REMARK H PARENT
REMARK Flexibility Score: inf
ROOT
ATOM      1  C   UNL     1      74.491  13.085  17.266  1.00  0.00     0.000 C 
ENDROOT
BRANCH   1   2
ATOM      2  C   UNL     1      74.754  14.524  16.796  1.00  0.00     0.006 C 
BRANCH   2   3
ATOM      3  C   UNL     1      75.527  15.353  17.831  1.00  0.00     0.053 C 
BRANCH   3   4
ATOM      4  C   UNL     1      76.977  14.986  17.815  1.00  0.00     0.041 C 
ATOM      5  O   UNL     1      77.625  14.915  18.892  1.00  0.00    -0.550 OA
ATOM      6  O   UNL     1      77.626  14.771  16.606  1.00  0.00    -0.550 OA
ENDBRANCH   3   4
ENDBRANCH   2   3
ENDBRANCH   1   2
BRANCH   1   7
ATOM      7  C   UNL     1      73.892  13.025  18.682  1.00  0.00     0.000 C 
BRANCH   7   8
ATOM      8  C   UNL     1      74.411  11.826  19.491  1.00  0.00    -0.000 C 
BRANCH   8   9
ATOM      9  C   UNL     1      75.801  12.075  20.096  1.00  0.00    -0.003 C 
ATOM     10  C   UNL     1      76.712  10.867  19.893  1.00  0.00     0.004 C 
ENDBRANCH   8   9
ENDBRANCH   7   8
ENDBRANCH   1   7
TORSDOF 6
ENDMDL
MODEL 8
REMARK VINA RESULT:    -3.957      2.959      4.761
REMARK INTER + INTRA:          -5.730
REMARK INTER:                  -5.399
REMARK INTRA:                  -0.331
REMARK UNBOUND:                -0.385
REMARK SMILES CCCCCCCC(=O)[O-]
REMARK SMILES IDX 5 1 6 2 7 3 8 4 9 5 10 6 4 7 3 8 2 9 1 10
REMARK H PARENT
REMARK Flexibility Score: inf
ROOT
ATOM      1  C   UNL     1      75.896  12.204  19.707  1.00  0.00     0.000 C 
ENDROOT
BRANCH   1   2
ATOM      2  C   UNL     1      76.623  10.932  20.172  1.00  0.00     0.006 C 
BRANCH   2   3
ATOM      3  C   UNL     1      77.671  10.446  19.161  1.00  0.00     0.053 C 
BRANCH   3   4
ATOM      4  C   UNL     1      77.015   9.673  18.061  1.00  0.00     0.041 C 
ATOM      5  O   UNL     1      77.214   9.988  16.858  1.00  0.00    -0.550 OA
ATOM      6  O   UNL     1      76.143   8.635  18.366  1.00  0.00    -0.550 OA
ENDBRANCH   3   4
ENDBRANCH   2   3
ENDBRANCH   1   2
BRANCH   1   7
ATOM      7  C   UNL     1      74.394  11.972  19.465  1.00  0.00     0.000 C 
BRANCH   7   8
ATOM      8  C   UNL     1      73.758  13.076  18.607  1.00  0.00    -0.000 C 
BRANCH   8   9
ATOM      9  C   UNL     1      74.773  14.137  18.156  1.00  0.00    -0.003 C 
ATOM     10  C   UNL     1      74.897  14.167  16.635  1.00  0.00     0.004 C 
ENDBRANCH   8   9
ENDBRANCH   7   8
ENDBRANCH   1   7
TORSDOF 6
ENDMDL
MODEL 9
REMARK VINA RESULT:    -3.855      1.653      2.202
REMARK INTER + INTRA:          -5.592
REMARK INTER:                  -5.229
REMARK INTRA:                  -0.363
REMARK UNBOUND:                -0.385
REMARK SMILES CCCCCCCC(=O)[O-]
REMARK SMILES IDX 5 1 6 2 7 3 8 4 9 5 10 6 4 7 3 8 2 9 1 10
REMARK H PARENT
REMARK Flexibility Score: inf
ROOT
ATOM      1  C   UNL     1      74.730  14.080  18.258  1.00  0.00     0.000 C 
ENDROOT
BRANCH   1   2
ATOM      2  C   UNL     1      75.146  14.312  16.797  1.00  0.00     0.006 C 
BRANCH   2   3
ATOM      3  C   UNL     1      75.067  13.035  15.949  1.00  0.00     0.053 C 
BRANCH   3   4
ATOM      4  C   UNL     1      76.370  12.787  15.257  1.00  0.00     0.041 C 
ATOM      5  O   UNL     1      76.979  13.733  14.692  1.00  0.00    -0.550 OA
ATOM      6  O   UNL     1      76.890  11.500  15.195  1.00  0.00    -0.550 OA
ENDBRANCH   3   4
ENDBRANCH   2   3
ENDBRANCH   1   2
BRANCH   1   7
ATOM      7  C   UNL     1      74.044  12.719  18.469  1.00  0.00     0.000 C 
BRANCH   7   8
ATOM      8  C   UNL     1      74.557  11.987  19.719  1.00  0.00    -0.000 C 
BRANCH   8   9
ATOM      9  C   UNL     1      76.088  12.023  19.841  1.00  0.00    -0.003 C 
ATOM     10  C   UNL     1      76.681  10.623  19.720  1.00  0.00     0.004 C 
ENDBRANCH   8   9
ENDBRANCH   7   8
ENDBRANCH   1   7
TORSDOF 6
ENDMDL
