MODEL 1
REMARK VINA RESULT:    -3.615      0.000      0.000
REMARK INTER + INTRA:          -6.130
REMARK INTER:                  -5.200
REMARK INTRA:                  -0.930
REMARK UNBOUND:                -0.930
REMARK SMILES O=C(CO)[C@H](O)[C@@H](O)[C@@H](O)CO
REMARK SMILES IDX 7 1 9 2 11 3 12 4 10 6 5 8 2 9 1 10 3 11 4 12 6 14 8 16
REMARK H PARENT 12 5 10 7 4 13 6 15 8 17
REMARK Flexibility Score: inf
ROOT
ATOM      1  C   UNL     1      66.180  34.921  46.733  1.00  0.00     0.181 C 
ENDROOT
BRANCH   1   2
ATOM      2  C   UNL     1      66.644  35.654  45.447  1.00  0.00     0.171 C 
BRANCH   2   3
ATOM      3  C   UNL     1      68.172  35.659  45.288  1.00  0.00     0.190 C 
BRANCH   3   4
ATOM      4  O   UNL     1      68.633  34.371  44.976  1.00  0.00    -0.394 OA
ATOM      5  H   UNL     1      69.331  34.479  44.279  1.00  0.00     0.210 HD
ENDBRANCH   3   4
ENDBRANCH   2   3
BRANCH   2   6
ATOM      6  O   UNL     1      66.170  36.977  45.418  1.00  0.00    -0.388 OA
ATOM      7  H   UNL     1      65.369  37.011  46.004  1.00  0.00     0.211 HD
ENDBRANCH   2   6
ENDBRANCH   1   2
BRANCH   1   8
ATOM      8  C   UNL     1      64.826  35.437  47.299  1.00  0.00     0.214 C 
BRANCH   8   9
ATOM      9  C   UNL     1      64.356  34.590  48.466  1.00  0.00     0.189 C 
ATOM     10  O   UNL     1      65.177  33.917  49.074  1.00  0.00    -0.294 OA
BRANCH   9  11
ATOM     11  C   UNL     1      62.906  34.554  48.887  1.00  0.00     0.234 C 
BRANCH  11  12
ATOM     12  O   UNL     1      62.083  34.114  47.839  1.00  0.00    -0.388 OA
ATOM     13  H   UNL     1      61.826  33.179  48.053  1.00  0.00     0.211 HD
ENDBRANCH  11  12
ENDBRANCH   9  11
ENDBRANCH   8   9
BRANCH   8  14
ATOM     14  O   UNL     1      63.840  35.530  46.297  1.00  0.00    -0.382 OA
ATOM     15  H   UNL     1      63.335  34.677  46.284  1.00  0.00     0.211 HD
ENDBRANCH   8  14
ENDBRANCH   1   8
BRANCH   1  16
ATOM     16  O   UNL     1      66.102  33.542  46.462  1.00  0.00    -0.387 OA
ATOM     17  H   UNL     1      65.484  33.427  45.694  1.00  0.00     0.211 HD
ENDBRANCH   1  16
TORSDOF 10
ENDMDL
MODEL 2
REMARK VINA RESULT:    -3.442      1.474      2.526
REMARK INTER + INTRA:          -5.880
REMARK INTER:                  -4.948
REMARK INTRA:                  -0.932
REMARK UNBOUND:                -0.930
REMARK SMILES O=C(CO)[C@H](O)[C@@H](O)[C@@H](O)CO
REMARK SMILES IDX 7 1 9 2 11 3 12 4 10 6 5 8 2 9 1 10 3 11 4 12 6 14 8 16
REMARK H PARENT 12 5 10 7 4 13 6 15 8 17
REMARK Flexibility Score: inf
ROOT
ATOM      1  C   UNL     1      64.674  34.847  48.191  1.00  0.00     0.181 C 
ENDROOT
BRANCH   1   2
ATOM      2  C   UNL     1      64.740  35.084  46.659  1.00  0.00     0.171 C 
BRANCH   2   3
ATOM      3  C   UNL     1      66.119  35.580  46.196  1.00  0.00     0.190 C 
BRANCH   3   4
ATOM      4  O   UNL     1      65.988  36.781  45.483  1.00  0.00    -0.394 OA
ATOM      5  H   UNL     1      65.035  36.851  45.215  1.00  0.00     0.210 HD
ENDBRANCH   3   4
ENDBRANCH   2   3
BRANCH   2   6
ATOM      6  O   UNL     1      63.755  35.996  46.244  1.00  0.00    -0.388 OA
ATOM      7  H   UNL     1      63.464  35.714  45.336  1.00  0.00     0.211 HD
ENDBRANCH   2   6
ENDBRANCH   1   2
BRANCH   1   8
ATOM      8  C   UNL     1      63.241  34.562  48.723  1.00  0.00     0.214 C 
BRANCH   8   9
ATOM      9  C   UNL     1      63.259  33.530  49.835  1.00  0.00     0.189 C 
ATOM     10  O   UNL     1      63.708  33.849  50.928  1.00  0.00    -0.294 OA
BRANCH   9  11
ATOM     11  C   UNL     1      62.747  32.125  49.622  1.00  0.00     0.234 C 
BRANCH  11  12
ATOM     12  O   UNL     1      63.399  31.503  48.547  1.00  0.00    -0.388 OA
ATOM     13  H   UNL     1      63.045  30.576  48.498  1.00  0.00     0.211 HD
ENDBRANCH  11  12
ENDBRANCH   9  11
ENDBRANCH   8   9
BRANCH   8  14
ATOM     14  O   UNL     1      62.360  34.191  47.689  1.00  0.00    -0.382 OA
ATOM     15  H   UNL     1      62.482  34.830  46.939  1.00  0.00     0.211 HD
ENDBRANCH   8  14
ENDBRANCH   1   8
BRANCH   1  16
ATOM     16  O   UNL     1      65.538  33.785  48.520  1.00  0.00    -0.387 OA
ATOM     17  H   UNL     1      66.460  34.150  48.533  1.00  0.00     0.211 HD
ENDBRANCH   1  16
TORSDOF 10
ENDMDL
MODEL 3
REMARK VINA RESULT:    -3.423     13.590     15.360
REMARK INTER + INTRA:          -5.854
REMARK INTER:                  -4.852
REMARK INTRA:                  -1.002
REMARK UNBOUND:                -0.930
REMARK SMILES O=C(CO)[C@H](O)[C@@H](O)[C@@H](O)CO
REMARK SMILES IDX 7 1 9 2 11 3 12 4 10 6 5 8 2 9 1 10 3 11 4 12 6 14 8 16
REMARK H PARENT 12 5 10 7 4 13 6 15 8 17
REMARK Flexibility Score: inf
ROOT
ATOM      1  C   UNL     1      71.461  31.326  59.994  1.00  0.00     0.181 C 
ENDROOT
BRANCH   1   2
ATOM      2  C   UNL     1      71.265  30.618  61.360  1.00  0.00     0.171 C 
BRANCH   2   3
ATOM      3  C   UNL     1      72.596  30.311  62.064  1.00  0.00     0.190 C 
BRANCH   3   4
ATOM      4  O   UNL     1      73.125  31.479  62.635  1.00  0.00    -0.394 OA
ATOM      5  H   UNL     1      73.467  31.227  63.532  1.00  0.00     0.210 HD
ENDBRANCH   3   4
ENDBRANCH   2   3
BRANCH   2   6
ATOM      6  O   UNL     1      70.532  29.428  61.215  1.00  0.00    -0.388 OA
ATOM      7  H   UNL     1      69.922  29.366  61.997  1.00  0.00     0.211 HD
ENDBRANCH   2   6
ENDBRANCH   1   2
BRANCH   1   8
ATOM      8  C   UNL     1      71.149  32.849  60.024  1.00  0.00     0.214 C 
BRANCH   8   9
ATOM      9  C   UNL     1      70.878  33.385  58.631  1.00  0.00     0.189 C 
ATOM     10  O   UNL     1      71.150  32.684  57.666  1.00  0.00    -0.294 OA
BRANCH   9  11
ATOM     11  C   UNL     1      70.290  34.759  58.410  1.00  0.00     0.234 C 
BRANCH  11  12
ATOM     12  O   UNL     1      70.108  35.436  59.625  1.00  0.00    -0.388 OA
ATOM     13  H   UNL     1      70.769  36.178  59.638  1.00  0.00     0.211 HD
ENDBRANCH  11  12
ENDBRANCH   9  11
ENDBRANCH   8   9
BRANCH   8  14
ATOM     14  O   UNL     1      72.164  33.581  60.671  1.00  0.00    -0.382 OA
ATOM     15  H   UNL     1      73.038  33.193  60.406  1.00  0.00     0.211 HD
ENDBRANCH   8  14
ENDBRANCH   1   8
BRANCH   1  16
ATOM     16  O   UNL     1      72.781  31.106  59.558  1.00  0.00    -0.387 OA
ATOM     17  H   UNL     1      73.385  31.506  60.237  1.00  0.00     0.211 HD
ENDBRANCH   1  16
TORSDOF 10
ENDMDL
MODEL 4
REMARK VINA RESULT:    -3.379      4.109      5.755
REMARK INTER + INTRA:          -5.790
REMARK INTER:                  -4.993
REMARK INTRA:                  -0.797
REMARK UNBOUND:                -0.930
REMARK SMILES O=C(CO)[C@H](O)[C@@H](O)[C@@H](O)CO
REMARK SMILES IDX 7 1 9 2 11 3 12 4 10 6 5 8 2 9 1 10 3 11 4 12 6 14 8 16
REMARK H PARENT 12 5 10 7 4 13 6 15 8 17
REMARK Flexibility Score: inf
ROOT
ATOM      1  C   UNL     1      63.230  33.426  49.542  1.00  0.00     0.181 C 
ENDROOT
BRANCH   1   2
ATOM      2  C   UNL     1      62.230  34.573  49.236  1.00  0.00     0.171 C 
BRANCH   2   3
ATOM      3  C   UNL     1      61.515  35.084  50.497  1.00  0.00     0.190 C 
BRANCH   3   4
ATOM      4  O   UNL     1      60.294  35.683  50.153  1.00  0.00    -0.394 OA
ATOM      5  H   UNL     1      60.339  36.623  50.467  1.00  0.00     0.210 HD
ENDBRANCH   3   4
ENDBRANCH   2   3
BRANCH   2   6
ATOM      6  O   UNL     1      61.273  34.174  48.289  1.00  0.00    -0.388 OA
ATOM      7  H   UNL     1      61.452  34.690  47.460  1.00  0.00     0.211 HD
ENDBRANCH   2   6
ENDBRANCH   1   2
BRANCH   1   8
ATOM      8  C   UNL     1      62.571  32.173  50.187  1.00  0.00     0.214 C 
BRANCH   8   9
ATOM      9  C   UNL     1      63.573  31.045  50.351  1.00  0.00     0.189 C 
ATOM     10  O   UNL     1      64.420  31.133  51.229  1.00  0.00    -0.294 OA
BRANCH   9  11
ATOM     11  C   UNL     1      63.551  29.829  49.456  1.00  0.00     0.234 C 
BRANCH  11  12
ATOM     12  O   UNL     1      63.653  30.190  48.104  1.00  0.00    -0.388 OA
ATOM     13  H   UNL     1      64.072  29.421  47.636  1.00  0.00     0.211 HD
ENDBRANCH  11  12
ENDBRANCH   9  11
ENDBRANCH   8   9
BRANCH   8  14
ATOM     14  O   UNL     1      61.432  31.753  49.474  1.00  0.00    -0.382 OA
ATOM     15  H   UNL     1      61.027  32.551  49.045  1.00  0.00     0.211 HD
ENDBRANCH   8  14
ENDBRANCH   1   8
BRANCH   1  16
ATOM     16  O   UNL     1      63.888  33.072  48.349  1.00  0.00    -0.387 OA
ATOM     17  H   UNL     1      64.860  33.202  48.501  1.00  0.00     0.211 HD
ENDBRANCH   1  16
TORSDOF 10
ENDMDL
MODEL 5
REMARK VINA RESULT:    -3.364      3.865      5.792
REMARK INTER + INTRA:          -5.769
REMARK INTER:                  -4.586
REMARK INTRA:                  -1.183
REMARK UNBOUND:                -0.930
REMARK SMILES O=C(CO)[C@H](O)[C@@H](O)[C@@H](O)CO
REMARK SMILES IDX 7 1 9 2 11 3 12 4 10 6 5 8 2 9 1 10 3 11 4 12 6 14 8 16
REMARK H PARENT 12 5 10 7 4 13 6 15 8 17
REMARK Flexibility Score: inf
ROOT
ATOM      1  C   UNL     1      63.621  32.048  49.499  1.00  0.00     0.181 C 
ENDROOT
BRANCH   1   2
ATOM      2  C   UNL     1      62.318  32.856  49.262  1.00  0.00     0.171 C 
BRANCH   2   3
ATOM      3  C   UNL     1      62.591  34.317  48.872  1.00  0.00     0.190 C 
BRANCH   3   4
ATOM      4  O   UNL     1      62.765  34.426  47.484  1.00  0.00    -0.394 OA
ATOM      5  H   UNL     1      62.230  35.208  47.191  1.00  0.00     0.210 HD
ENDBRANCH   3   4
ENDBRANCH   2   3
BRANCH   2   6
ATOM      6  O   UNL     1      61.487  32.825  50.394  1.00  0.00    -0.388 OA
ATOM      7  H   UNL     1      62.058  33.043  51.178  1.00  0.00     0.211 HD
ENDBRANCH   2   6
ENDBRANCH   1   2
BRANCH   1   8
ATOM      8  C   UNL     1      63.378  30.556  49.868  1.00  0.00     0.214 C 
BRANCH   8   9
ATOM      9  C   UNL     1      64.467  29.663  49.304  1.00  0.00     0.189 C 
ATOM     10  O   UNL     1      65.588  29.721  49.791  1.00  0.00    -0.294 OA
BRANCH   9  11
ATOM     11  C   UNL     1      64.202  28.717  48.157  1.00  0.00     0.234 C 
BRANCH  11  12
ATOM     12  O   UNL     1      63.783  29.411  47.012  1.00  0.00    -0.388 OA
ATOM     13  H   UNL     1      64.504  29.307  46.337  1.00  0.00     0.211 HD
ENDBRANCH  11  12
ENDBRANCH   9  11
ENDBRANCH   8   9
BRANCH   8  14
ATOM     14  O   UNL     1      62.098  30.120  49.477  1.00  0.00    -0.382 OA
ATOM     15  H   UNL     1      61.580  29.915  50.298  1.00  0.00     0.211 HD
ENDBRANCH   8  14
ENDBRANCH   1   8
BRANCH   1  16
ATOM     16  O   UNL     1      64.426  32.142  48.349  1.00  0.00    -0.387 OA
ATOM     17  H   UNL     1      64.193  32.993  47.896  1.00  0.00     0.211 HD
ENDBRANCH   1  16
TORSDOF 10
ENDMDL
MODEL 6
REMARK VINA RESULT:    -3.356      2.850      5.277
REMARK INTER + INTRA:          -5.758
REMARK INTER:                  -4.939
REMARK INTRA:                  -0.818
REMARK UNBOUND:                -0.930
REMARK SMILES O=C(CO)[C@H](O)[C@@H](O)[C@@H](O)CO
REMARK SMILES IDX 7 1 9 2 11 3 12 4 10 6 5 8 2 9 1 10 3 11 4 12 6 14 8 16
REMARK H PARENT 12 5 10 7 4 13 6 15 8 17
REMARK Flexibility Score: inf
ROOT
ATOM      1  C   UNL     1      63.430  34.537  48.610  1.00  0.00     0.181 C 
ENDROOT
BRANCH   1   2
ATOM      2  C   UNL     1      61.939  34.888  48.857  1.00  0.00     0.171 C 
BRANCH   2   3
ATOM      3  C   UNL     1      61.596  34.993  50.351  1.00  0.00     0.190 C 
BRANCH   3   4
ATOM      4  O   UNL     1      60.310  35.529  50.518  1.00  0.00    -0.394 OA
ATOM      5  H   UNL     1      60.426  36.500  50.686  1.00  0.00     0.210 HD
ENDBRANCH   3   4
ENDBRANCH   2   3
BRANCH   2   6
ATOM      6  O   UNL     1      61.089  33.948  48.251  1.00  0.00    -0.388 OA
ATOM      7  H   UNL     1      61.655  33.178  47.979  1.00  0.00     0.211 HD
ENDBRANCH   2   6
ENDBRANCH   1   2
BRANCH   1   8
ATOM      8  C   UNL     1      63.857  33.158  49.192  1.00  0.00     0.214 C 
BRANCH   8   9
ATOM      9  C   UNL     1      65.366  33.035  49.270  1.00  0.00     0.189 C 
ATOM     10  O   UNL     1      65.966  33.669  50.128  1.00  0.00    -0.294 OA
BRANCH   9  11
ATOM     11  C   UNL     1      66.141  32.158  48.315  1.00  0.00     0.234 C 
BRANCH  11  12
ATOM     12  O   UNL     1      65.992  32.594  46.990  1.00  0.00    -0.388 OA
ATOM     13  H   UNL     1      65.465  31.896  46.519  1.00  0.00     0.211 HD
ENDBRANCH  11  12
ENDBRANCH   9  11
ENDBRANCH   8   9
BRANCH   8  14
ATOM     14  O   UNL     1      63.286  32.088  48.476  1.00  0.00    -0.382 OA
ATOM     15  H   UNL     1      62.319  32.276  48.361  1.00  0.00     0.211 HD
ENDBRANCH   8  14
ENDBRANCH   1   8
BRANCH   1  16
ATOM     16  O   UNL     1      63.681  34.581  47.226  1.00  0.00    -0.387 OA
ATOM     17  H   UNL     1      63.771  35.537  46.975  1.00  0.00     0.211 HD
ENDBRANCH   1  16
TORSDOF 10
ENDMDL
MODEL 7
REMARK VINA RESULT:    -3.348     17.344     18.881
REMARK INTER + INTRA:          -5.746
REMARK INTER:                  -4.577
REMARK INTRA:                  -1.169
REMARK UNBOUND:                -0.930
REMARK SMILES O=C(CO)[C@H](O)[C@@H](O)[C@@H](O)CO
REMARK SMILES IDX 7 1 9 2 11 3 12 4 10 6 5 8 2 9 1 10 3 11 4 12 6 14 8 16
REMARK H PARENT 12 5 10 7 4 13 6 15 8 17
REMARK Flexibility Score: inf
ROOT
ATOM      1  C   UNL     1      58.065  26.702  61.392  1.00  0.00     0.181 C 
ENDROOT
BRANCH   1   2
ATOM      2  C   UNL     1      57.349  28.064  61.591  1.00  0.00     0.171 C 
BRANCH   2   3
ATOM      3  C   UNL     1      55.862  27.902  61.946  1.00  0.00     0.190 C 
BRANCH   3   4
ATOM      4  O   UNL     1      55.701  27.820  63.338  1.00  0.00    -0.394 OA
ATOM      5  H   UNL     1      55.179  28.618  63.612  1.00  0.00     0.210 HD
ENDBRANCH   3   4
ENDBRANCH   2   3
BRANCH   2   6
ATOM      6  O   UNL     1      57.467  28.872  60.448  1.00  0.00    -0.388 OA
ATOM      7  H   UNL     1      56.883  28.474  59.749  1.00  0.00     0.211 HD
ENDBRANCH   2   6
ENDBRANCH   1   2
BRANCH   1   8
ATOM      8  C   UNL     1      59.597  26.826  61.150  1.00  0.00     0.214 C 
BRANCH   8   9
ATOM      9  C   UNL     1      60.343  25.629  61.709  1.00  0.00     0.189 C 
ATOM     10  O   UNL     1      60.222  24.546  61.152  1.00  0.00    -0.294 OA
BRANCH   9  11
ATOM     11  C   UNL     1      61.220  25.742  62.933  1.00  0.00     0.234 C 
BRANCH  11  12
ATOM     12  O   UNL     1      60.478  26.139  64.055  1.00  0.00    -0.388 OA
ATOM     13  H   UNL     1      60.333  27.118  63.968  1.00  0.00     0.211 HD
ENDBRANCH  11  12
ENDBRANCH   9  11
ENDBRANCH   8   9
BRANCH   8  14
ATOM     14  O   UNL     1      60.111  28.037  61.653  1.00  0.00    -0.382 OA
ATOM     15  H   UNL     1      60.921  28.267  61.128  1.00  0.00     0.211 HD
ENDBRANCH   8  14
ENDBRANCH   1   8
BRANCH   1  16
ATOM     16  O   UNL     1      57.811  25.891  62.513  1.00  0.00    -0.387 OA
ATOM     17  H   UNL     1      58.691  25.605  62.874  1.00  0.00     0.211 HD
ENDBRANCH   1  16
TORSDOF 10
ENDMDL
MODEL 8
REMARK VINA RESULT:    -3.324      1.453      4.418
REMARK INTER + INTRA:          -5.712
REMARK INTER:                  -4.656
REMARK INTRA:                  -1.056
REMARK UNBOUND:                -0.930
REMARK SMILES O=C(CO)[C@H](O)[C@@H](O)[C@@H](O)CO
REMARK SMILES IDX 7 1 9 2 11 3 12 4 10 6 5 8 2 9 1 10 3 11 4 12 6 14 8 16
REMARK H PARENT 12 5 10 7 4 13 6 15 8 17
REMARK Flexibility Score: inf
ROOT
ATOM      1  C   UNL     1      64.808  33.887  48.581  1.00  0.00     0.181 C 
ENDROOT
BRANCH   1   2
ATOM      2  C   UNL     1      63.630  34.847  48.266  1.00  0.00     0.171 C 
BRANCH   2   3
ATOM      3  C   UNL     1      62.365  34.513  49.071  1.00  0.00     0.190 C 
BRANCH   3   4
ATOM      4  O   UNL     1      61.337  34.098  48.212  1.00  0.00    -0.394 OA
ATOM      5  H   UNL     1      61.429  33.115  48.112  1.00  0.00     0.210 HD
ENDBRANCH   3   4
ENDBRANCH   2   3
BRANCH   2   6
ATOM      6  O   UNL     1      63.322  34.840  46.895  1.00  0.00    -0.388 OA
ATOM      7  H   UNL     1      63.857  35.563  46.474  1.00  0.00     0.211 HD
ENDBRANCH   2   6
ENDBRANCH   1   2
BRANCH   1   8
ATOM      8  C   UNL     1      66.097  34.183  47.762  1.00  0.00     0.214 C 
BRANCH   8   9
ATOM      9  C   UNL     1      66.504  35.639  47.880  1.00  0.00     0.189 C 
ATOM     10  O   UNL     1      66.683  36.113  48.994  1.00  0.00    -0.294 OA
BRANCH   9  11
ATOM     11  C   UNL     1      66.684  36.513  46.662  1.00  0.00     0.234 C 
BRANCH  11  12
ATOM     12  O   UNL     1      65.528  36.524  45.868  1.00  0.00    -0.388 OA
ATOM     13  H   UNL     1      65.676  35.863  45.141  1.00  0.00     0.211 HD
ENDBRANCH  11  12
ENDBRANCH   9  11
ENDBRANCH   8   9
BRANCH   8  14
ATOM     14  O   UNL     1      65.968  33.789  46.417  1.00  0.00    -0.382 OA
ATOM     15  H   UNL     1      66.786  33.288  46.163  1.00  0.00     0.211 HD
ENDBRANCH   8  14
ENDBRANCH   1   8
BRANCH   1  16
ATOM     16  O   UNL     1      65.080  33.945  49.960  1.00  0.00    -0.387 OA
ATOM     17  H   UNL     1      65.463  33.067  50.221  1.00  0.00     0.211 HD
ENDBRANCH   1  16
TORSDOF 10
ENDMDL
MODEL 9
REMARK VINA RESULT:    -3.285     18.403     19.771
REMARK INTER + INTRA:          -5.655
REMARK INTER:                  -4.900
REMARK INTRA:                  -0.755
REMARK UNBOUND:                -0.930
REMARK SMILES O=C(CO)[C@H](O)[C@@H](O)[C@@H](O)CO
REMARK SMILES IDX 7 1 9 2 11 3 12 4 10 6 5 8 2 9 1 10 3 11 4 12 6 14 8 16
REMARK H PARENT 12 5 10 7 4 13 6 15 8 17
REMARK Flexibility Score: inf
ROOT
ATOM      1  C   UNL     1      55.682  19.572  52.446  1.00  0.00     0.181 C 
ENDROOT
BRANCH   1   2
ATOM      2  C   UNL     1      54.211  20.056  52.551  1.00  0.00     0.171 C 
BRANCH   2   3
ATOM      3  C   UNL     1      53.569  19.705  53.903  1.00  0.00     0.190 C 
BRANCH   3   4
ATOM      4  O   UNL     1      53.486  18.313  54.055  1.00  0.00    -0.394 OA
ATOM      5  H   UNL     1      54.051  18.078  54.837  1.00  0.00     0.210 HD
ENDBRANCH   3   4
ENDBRANCH   2   3
BRANCH   2   6
ATOM      6  O   UNL     1      53.427  19.525  51.514  1.00  0.00    -0.388 OA
ATOM      7  H   UNL     1      52.760  18.919  51.935  1.00  0.00     0.211 HD
ENDBRANCH   2   6
ENDBRANCH   1   2
BRANCH   1   8
ATOM      8  C   UNL     1      55.986  18.758  51.156  1.00  0.00     0.214 C 
BRANCH   8   9
ATOM      9  C   UNL     1      57.401  18.212  51.168  1.00  0.00     0.189 C 
ATOM     10  O   UNL     1      57.934  17.980  52.245  1.00  0.00    -0.294 OA
BRANCH   9  11
ATOM     11  C   UNL     1      58.164  17.957  49.890  1.00  0.00     0.234 C 
BRANCH  11  12
ATOM     12  O   UNL     1      57.385  17.246  48.966  1.00  0.00    -0.388 OA
ATOM     13  H   UNL     1      56.453  17.259  49.310  1.00  0.00     0.211 HD
ENDBRANCH  11  12
ENDBRANCH   9  11
ENDBRANCH   8   9
BRANCH   8  14
ATOM     14  O   UNL     1      55.730  19.506  49.991  1.00  0.00    -0.382 OA
ATOM     15  H   UNL     1      55.503  18.872  49.263  1.00  0.00     0.211 HD
ENDBRANCH   8  14
ENDBRANCH   1   8
BRANCH   1  16
ATOM     16  O   UNL     1      56.531  20.691  52.529  1.00  0.00    -0.387 OA
ATOM     17  H   UNL     1      57.073  20.711  51.698  1.00  0.00     0.211 HD
ENDBRANCH   1  16
TORSDOF 10
ENDMDL
