MODEL 1
REMARK VINA RESULT:    -2.359      0.000      0.000
REMARK INTER + INTRA:          -2.359
REMARK INTER:                  -2.359
REMARK INTRA:                   0.000
REMARK UNBOUND:                 0.000
REMARK SMILES CC(=O)[O-]
REMARK SMILES IDX 1 1 2 2 3 3 4 4
REMARK H PARENT
REMARK Flexibility Score: inf
ROOT
ATOM      1  C   UNL     1     -44.303  30.996  23.943  1.00  0.00     0.063 C 
ATOM      2  C   UNL     1     -43.944  29.548  23.937  1.00  0.00     0.038 C 
ATOM      3  O   UNL     1     -44.395  28.790  23.039  1.00  0.00    -0.550 OA
ATOM      4  O   UNL     1     -43.156  29.023  24.952  1.00  0.00    -0.550 OA
ENDROOT
TORSDOF 0
ENDMDL
MODEL 2
REMARK VINA RESULT:    -2.357      0.096      1.621
REMARK INTER + INTRA:          -2.357
REMARK INTER:                  -2.357
REMARK INTRA:                   0.000
REMARK UNBOUND:                 0.000
REMARK SMILES CC(=O)[O-]
REMARK SMILES IDX 1 1 2 2 3 3 4 4
REMARK H PARENT
REMARK Flexibility Score: inf
ROOT
ATOM      1  C   UNL     1     -44.300  30.983  23.939  1.00  0.00     0.063 C 
ATOM      2  C   UNL     1     -43.976  29.527  23.959  1.00  0.00     0.038 C 
ATOM      3  O   UNL     1     -43.235  29.057  24.861  1.00  0.00    -0.550 OA
ATOM      4  O   UNL     1     -44.448  28.695  22.952  1.00  0.00    -0.550 OA
ENDROOT
TORSDOF 0
ENDMDL
MODEL 3
REMARK VINA RESULT:    -2.328      2.083      2.334
REMARK INTER + INTRA:          -2.328
REMARK INTER:                  -2.328
REMARK INTRA:                   0.000
REMARK UNBOUND:                 0.000
REMARK SMILES CC(=O)[O-]
REMARK SMILES IDX 1 1 2 2 3 3 4 4
REMARK H PARENT
REMARK Flexibility Score: inf
ROOT
ATOM      1  C   UNL     1     -43.656  29.339  24.823  1.00  0.00     0.063 C 
ATOM      2  C   UNL     1     -43.995  30.791  24.852  1.00  0.00     0.038 C 
ATOM      3  O   UNL     1     -44.197  31.414  23.778  1.00  0.00    -0.550 OA
ATOM      4  O   UNL     1     -44.034  31.472  26.062  1.00  0.00    -0.550 OA
ENDROOT
TORSDOF 0
ENDMDL
MODEL 4
REMARK VINA RESULT:    -2.231      2.406      2.703
REMARK INTER + INTRA:          -2.231
REMARK INTER:                  -2.231
REMARK INTRA:                   0.000
REMARK UNBOUND:                 0.000
REMARK SMILES CC(=O)[O-]
REMARK SMILES IDX 1 1 2 2 3 3 4 4
REMARK H PARENT
REMARK Flexibility Score: inf
ROOT
ATOM      1  C   UNL     1     -43.774  29.424  24.673  1.00  0.00     0.063 C 
ATOM      2  C   UNL     1     -42.938  29.322  25.904  1.00  0.00     0.038 C 
ATOM      3  O   UNL     1     -42.186  30.276  26.238  1.00  0.00    -0.550 OA
ATOM      4  O   UNL     1     -42.945  28.155  26.656  1.00  0.00    -0.550 OA
ENDROOT
TORSDOF 0
ENDMDL
MODEL 5
REMARK VINA RESULT:    -2.210      1.829      2.037
REMARK INTER + INTRA:          -2.210
REMARK INTER:                  -2.210
REMARK INTRA:                   0.000
REMARK UNBOUND:                 0.000
REMARK SMILES CC(=O)[O-]
REMARK SMILES IDX 1 1 2 2 3 3 4 4
REMARK H PARENT
REMARK Flexibility Score: inf
ROOT
ATOM      1  C   UNL     1     -43.928  29.483  24.116  1.00  0.00     0.063 C 
ATOM      2  C   UNL     1     -43.146  28.962  25.274  1.00  0.00     0.038 C 
ATOM      3  O   UNL     1     -43.121  27.727  25.516  1.00  0.00    -0.550 OA
ATOM      4  O   UNL     1     -42.487  29.843  26.121  1.00  0.00    -0.550 OA
ENDROOT
TORSDOF 0
ENDMDL
MODEL 6
REMARK VINA RESULT:    -1.992     12.362     13.027
REMARK INTER + INTRA:          -1.992
REMARK INTER:                  -1.992
REMARK INTRA:                   0.000
REMARK UNBOUND:                 0.000
REMARK SMILES CC(=O)[O-]
REMARK SMILES IDX 1 1 2 2 3 3 4 4
REMARK H PARENT
REMARK Flexibility Score: inf
ROOT
ATOM      1  C   UNL     1     -32.578  24.991  30.409  1.00  0.00     0.063 C 
ATOM      2  C   UNL     1     -33.924  25.403  30.900  1.00  0.00     0.038 C 
ATOM      3  O   UNL     1     -34.804  25.786  30.085  1.00  0.00    -0.550 OA
ATOM      4  O   UNL     1     -34.194  25.418  32.262  1.00  0.00    -0.550 OA
ENDROOT
TORSDOF 0
ENDMDL
MODEL 7
REMARK VINA RESULT:    -1.988     12.578     12.952
REMARK INTER + INTRA:          -1.988
REMARK INTER:                  -1.988
REMARK INTRA:                   0.000
REMARK UNBOUND:                 0.000
REMARK SMILES CC(=O)[O-]
REMARK SMILES IDX 1 1 2 2 3 3 4 4
REMARK H PARENT
REMARK Flexibility Score: inf
ROOT
ATOM      1  C   UNL     1     -35.007  25.814  30.057  1.00  0.00     0.063 C 
ATOM      2  C   UNL     1     -33.906  25.583  31.035  1.00  0.00     0.038 C 
ATOM      3  O   UNL     1     -32.723  25.436  30.632  1.00  0.00    -0.550 OA
ATOM      4  O   UNL     1     -34.190  25.473  32.390  1.00  0.00    -0.550 OA
ENDROOT
TORSDOF 0
ENDMDL
MODEL 8
REMARK VINA RESULT:    -1.986     12.284     13.039
REMARK INTER + INTRA:          -1.986
REMARK INTER:                  -1.986
REMARK INTRA:                   0.000
REMARK UNBOUND:                 0.000
REMARK SMILES CC(=O)[O-]
REMARK SMILES IDX 1 1 2 2 3 3 4 4
REMARK H PARENT
REMARK Flexibility Score: inf
ROOT
ATOM      1  C   UNL     1     -32.615  25.000  30.401  1.00  0.00     0.063 C 
ATOM      2  C   UNL     1     -33.970  25.388  30.888  1.00  0.00     0.038 C 
ATOM      3  O   UNL     1     -34.237  25.339  32.117  1.00  0.00    -0.550 OA
ATOM      4  O   UNL     1     -34.957  25.753  29.982  1.00  0.00    -0.550 OA
ENDROOT
TORSDOF 0
ENDMDL
MODEL 9
REMARK VINA RESULT:    -1.970     13.518     14.260
REMARK INTER + INTRA:          -1.970
REMARK INTER:                  -1.970
REMARK INTRA:                   0.000
REMARK UNBOUND:                 0.000
REMARK SMILES CC(=O)[O-]
REMARK SMILES IDX 1 1 2 2 3 3 4 4
REMARK H PARENT
REMARK Flexibility Score: inf
ROOT
ATOM      1  C   UNL     1     -31.596  24.239  29.633  1.00  0.00     0.063 C 
ATOM      2  C   UNL     1     -32.446  24.921  30.651  1.00  0.00     0.038 C 
ATOM      3  O   UNL     1     -32.056  25.004  31.845  1.00  0.00    -0.550 OA
ATOM      4  O   UNL     1     -33.693  25.417  30.297  1.00  0.00    -0.550 OA
ENDROOT
TORSDOF 0
ENDMDL
