MODEL 1
REMARK VINA RESULT:    -5.089      0.000      0.000
REMARK INTER + INTRA:          -8.135
REMARK INTER:                  -7.766
REMARK INTRA:                  -0.369
REMARK UNBOUND:                -0.369
REMARK SMILES CCCCCCCCCCC(=O)[O-]
REMARK SMILES IDX 7 1 8 2 9 3 10 4 11 5 12 6 13 7 6 8 5 9 4 10 3 11 2 12 1 13
REMARK H PARENT
REMARK Flexibility Score: inf
ROOT
ATOM      1  C   UNL     1      23.327 -14.177  21.268  1.00  0.00     0.000 C 
ENDROOT
BRANCH   1   2
ATOM      2  C   UNL     1      23.370 -12.684  21.642  1.00  0.00     0.000 C 
BRANCH   2   3
ATOM      3  C   UNL     1      22.005 -11.972  21.619  1.00  0.00     0.006 C 
BRANCH   3   4
ATOM      4  C   UNL     1      21.846 -10.948  22.750  1.00  0.00     0.053 C 
BRANCH   4   5
ATOM      5  C   UNL     1      20.570 -11.184  23.494  1.00  0.00     0.041 C 
ATOM      6  O   UNL     1      19.638 -11.842  22.963  1.00  0.00    -0.550 OA
ATOM      7  O   UNL     1      20.430 -10.720  24.796  1.00  0.00    -0.550 OA
ENDBRANCH   4   5
ENDBRANCH   3   4
ENDBRANCH   2   3
ENDBRANCH   1   2
BRANCH   1   8
ATOM      8  C   UNL     1      22.315 -14.483  20.150  1.00  0.00     0.000 C 
BRANCH   8   9
ATOM      9  C   UNL     1      22.868 -15.467  19.107  1.00  0.00    -0.000 C 
BRANCH   9  10
ATOM     10  C   UNL     1      23.130 -16.863  19.694  1.00  0.00    -0.000 C 
BRANCH  10  11
ATOM     11  C   UNL     1      23.535 -17.852  18.595  1.00  0.00    -0.000 C 
BRANCH  11  12
ATOM     12  C   UNL     1      22.994 -17.410  17.230  1.00  0.00    -0.003 C 
ATOM     13  C   UNL     1      22.523 -18.607  16.410  1.00  0.00     0.004 C 
ENDBRANCH  11  12
ENDBRANCH  10  11
ENDBRANCH   9  10
ENDBRANCH   8   9
ENDBRANCH   1   8
TORSDOF 9
ENDMDL
MODEL 2
REMARK VINA RESULT:    -4.887      3.434      7.996
REMARK INTER + INTRA:          -7.828
REMARK INTER:                  -7.412
REMARK INTRA:                  -0.416
REMARK UNBOUND:                -0.369
REMARK SMILES CCCCCCCCCCC(=O)[O-]
REMARK SMILES IDX 7 1 8 2 9 3 10 4 11 5 12 6 13 7 6 8 5 9 4 10 3 11 2 12 1 13
REMARK H PARENT
REMARK Flexibility Score: inf
ROOT
ATOM      1  C   UNL     1      22.484 -11.972  21.672  1.00  0.00     0.000 C 
ENDROOT
BRANCH   1   2
ATOM      2  C   UNL     1      21.213 -12.663  21.145  1.00  0.00     0.000 C 
BRANCH   2   3
ATOM      3  C   UNL     1      21.468 -13.853  20.201  1.00  0.00     0.006 C 
BRANCH   3   4
ATOM      4  C   UNL     1      22.737 -14.636  20.557  1.00  0.00     0.053 C 
BRANCH   4   5
ATOM      5  C   UNL     1      22.971 -15.731  19.565  1.00  0.00     0.041 C 
ATOM      6  O   UNL     1      22.846 -15.508  18.333  1.00  0.00    -0.550 OA
ATOM      7  O   UNL     1      23.378 -16.987  19.999  1.00  0.00    -0.550 OA
ENDBRANCH   4   5
ENDBRANCH   3   4
ENDBRANCH   2   3
ENDBRANCH   1   2
BRANCH   1   8
ATOM      8  C   UNL     1      22.178 -10.731  22.528  1.00  0.00     0.000 C 
BRANCH   8   9
ATOM      9  C   UNL     1      21.163 -11.020  23.646  1.00  0.00    -0.000 C 
BRANCH   9  10
ATOM     10  C   UNL     1      20.716  -9.746  24.381  1.00  0.00    -0.000 C 
BRANCH  10  11
ATOM     11  C   UNL     1      21.442  -8.513  23.830  1.00  0.00    -0.000 C 
BRANCH  11  12
ATOM     12  C   UNL     1      21.236  -7.300  24.746  1.00  0.00    -0.003 C 
ATOM     13  C   UNL     1      19.863  -7.338  25.410  1.00  0.00     0.004 C 
ENDBRANCH  11  12
ENDBRANCH  10  11
ENDBRANCH   9  10
ENDBRANCH   8   9
ENDBRANCH   1   8
TORSDOF 9
ENDMDL
MODEL 3
REMARK VINA RESULT:    -4.825      3.777      8.084
REMARK INTER + INTRA:          -7.733
REMARK INTER:                  -7.525
REMARK INTRA:                  -0.208
REMARK UNBOUND:                -0.369
REMARK SMILES CCCCCCCCCCC(=O)[O-]
REMARK SMILES IDX 7 1 8 2 9 3 10 4 11 5 12 6 13 7 6 8 5 9 4 10 3 11 2 12 1 13
REMARK H PARENT
REMARK Flexibility Score: inf
ROOT
ATOM      1  C   UNL     1      21.652 -13.372  20.840  1.00  0.00     0.000 C 
ENDROOT
BRANCH   1   2
ATOM      2  C   UNL     1      22.800 -14.385  20.671  1.00  0.00     0.000 C 
BRANCH   2   3
ATOM      3  C   UNL     1      22.700 -15.272  19.416  1.00  0.00     0.006 C 
BRANCH   3   4
ATOM      4  C   UNL     1      23.119 -16.724  19.677  1.00  0.00     0.053 C 
BRANCH   4   5
ATOM      5  C   UNL     1      23.409 -17.424  18.386  1.00  0.00     0.041 C 
ATOM      6  O   UNL     1      24.072 -18.494  18.380  1.00  0.00    -0.550 OA
ATOM      7  O   UNL     1      22.905 -16.919  17.194  1.00  0.00    -0.550 OA
ENDBRANCH   4   5
ENDBRANCH   3   4
ENDBRANCH   2   3
ENDBRANCH   1   2
BRANCH   1   8
ATOM      8  C   UNL     1      22.081 -12.105  21.599  1.00  0.00     0.000 C 
BRANCH   8   9
ATOM      9  C   UNL     1      20.982 -11.574  22.532  1.00  0.00    -0.000 C 
BRANCH   9  10
ATOM     10  C   UNL     1      21.458 -10.395  23.395  1.00  0.00    -0.000 C 
BRANCH  10  11
ATOM     11  C   UNL     1      20.525 -10.179  24.591  1.00  0.00    -0.000 C 
BRANCH  11  12
ATOM     12  C   UNL     1      20.701  -8.773  25.179  1.00  0.00    -0.003 C 
ATOM     13  C   UNL     1      21.683  -7.949  24.352  1.00  0.00     0.004 C 
ENDBRANCH  11  12
ENDBRANCH  10  11
ENDBRANCH   9  10
ENDBRANCH   8   9
ENDBRANCH   1   8
TORSDOF 9
ENDMDL
MODEL 4
REMARK VINA RESULT:    -4.778      2.277      4.161
REMARK INTER + INTRA:          -7.662
REMARK INTER:                  -7.289
REMARK INTRA:                  -0.373
REMARK UNBOUND:                -0.369
REMARK SMILES CCCCCCCCCCC(=O)[O-]
REMARK SMILES IDX 7 1 8 2 9 3 10 4 11 5 12 6 13 7 6 8 5 9 4 10 3 11 2 12 1 13
REMARK H PARENT
REMARK Flexibility Score: inf
ROOT
ATOM      1  C   UNL     1      22.939 -17.741  19.083  1.00  0.00     0.000 C 
ENDROOT
BRANCH   1   2
ATOM      2  C   UNL     1      23.271 -16.566  20.021  1.00  0.00     0.000 C 
BRANCH   2   3
ATOM      3  C   UNL     1      22.635 -15.221  19.624  1.00  0.00     0.006 C 
BRANCH   3   4
ATOM      4  C   UNL     1      22.592 -14.216  20.782  1.00  0.00     0.053 C 
BRANCH   4   5
ATOM      5  C   UNL     1      21.383 -13.341  20.669  1.00  0.00     0.041 C 
ATOM      6  O   UNL     1      21.168 -12.444  21.525  1.00  0.00    -0.550 OA
ATOM      7  O   UNL     1      20.521 -13.484  19.589  1.00  0.00    -0.550 OA
ENDBRANCH   4   5
ENDBRANCH   3   4
ENDBRANCH   2   3
ENDBRANCH   1   2
BRANCH   1   8
ATOM      8  C   UNL     1      22.964 -17.344  17.597  1.00  0.00     0.000 C 
BRANCH   8   9
ATOM      9  C   UNL     1      22.611 -18.515  16.667  1.00  0.00    -0.000 C 
BRANCH   9  10
ATOM     10  C   UNL     1      22.035 -19.720  17.428  1.00  0.00    -0.000 C 
BRANCH  10  11
ATOM     11  C   UNL     1      20.980 -20.446  16.586  1.00  0.00    -0.000 C 
BRANCH  11  12
ATOM     12  C   UNL     1      20.189 -21.446  17.438  1.00  0.00    -0.003 C 
ATOM     13  C   UNL     1      18.897 -20.824  17.959  1.00  0.00     0.004 C 
ENDBRANCH  11  12
ENDBRANCH  10  11
ENDBRANCH   9  10
ENDBRANCH   8   9
ENDBRANCH   1   8
TORSDOF 9
ENDMDL
MODEL 5
REMARK VINA RESULT:    -4.765      3.464      8.467
REMARK INTER + INTRA:          -7.641
REMARK INTER:                  -7.115
REMARK INTRA:                  -0.525
REMARK UNBOUND:                -0.369
REMARK SMILES CCCCCCCCCCC(=O)[O-]
REMARK SMILES IDX 7 1 8 2 9 3 10 4 11 5 12 6 13 7 6 8 5 9 4 10 3 11 2 12 1 13
REMARK H PARENT
REMARK Flexibility Score: inf
ROOT
ATOM      1  C   UNL     1      20.593 -10.597  23.595  1.00  0.00     0.000 C 
ENDROOT
BRANCH   1   2
ATOM      2  C   UNL     1      20.432 -11.818  22.671  1.00  0.00     0.000 C 
BRANCH   2   3
ATOM      3  C   UNL     1      21.555 -11.997  21.633  1.00  0.00     0.006 C 
BRANCH   3   4
ATOM      4  C   UNL     1      21.360 -13.235  20.749  1.00  0.00     0.053 C 
BRANCH   4   5
ATOM      5  C   UNL     1      22.581 -14.099  20.785  1.00  0.00     0.041 C 
ATOM      6  O   UNL     1      22.733 -15.019  19.939  1.00  0.00    -0.550 OA
ATOM      7  O   UNL     1      23.577 -13.856  21.723  1.00  0.00    -0.550 OA
ENDBRANCH   4   5
ENDBRANCH   3   4
ENDBRANCH   2   3
ENDBRANCH   1   2
BRANCH   1   8
ATOM      8  C   UNL     1      21.762  -9.686  23.181  1.00  0.00     0.000 C 
BRANCH   8   9
ATOM      9  C   UNL     1      21.818  -8.387  24.002  1.00  0.00    -0.000 C 
BRANCH   9  10
ATOM     10  C   UNL     1      20.943  -8.449  25.264  1.00  0.00    -0.000 C 
BRANCH  10  11
ATOM     11  C   UNL     1      19.940  -7.291  25.292  1.00  0.00    -0.000 C 
BRANCH  11  12
ATOM     12  C   UNL     1      20.373  -6.166  24.343  1.00  0.00    -0.003 C 
ATOM     13  C   UNL     1      19.166  -5.394  23.817  1.00  0.00     0.004 C 
ENDBRANCH  11  12
ENDBRANCH  10  11
ENDBRANCH   9  10
ENDBRANCH   8   9
ENDBRANCH   1   8
TORSDOF 9
ENDMDL
MODEL 6
REMARK VINA RESULT:    -4.707      2.340      3.878
REMARK INTER + INTRA:          -7.553
REMARK INTER:                  -7.227
REMARK INTRA:                  -0.326
REMARK UNBOUND:                -0.369
REMARK SMILES CCCCCCCCCCC(=O)[O-]
REMARK SMILES IDX 7 1 8 2 9 3 10 4 11 5 12 6 13 7 6 8 5 9 4 10 3 11 2 12 1 13
REMARK H PARENT
REMARK Flexibility Score: inf
ROOT
ATOM      1  C   UNL     1      21.123 -11.096  22.844  1.00  0.00     0.000 C 
ENDROOT
BRANCH   1   2
ATOM      2  C   UNL     1      21.986  -9.820  22.848  1.00  0.00     0.000 C 
BRANCH   2   3
ATOM      3  C   UNL     1      21.342  -8.607  23.544  1.00  0.00     0.006 C 
BRANCH   3   4
ATOM      4  C   UNL     1      21.023  -8.867  25.022  1.00  0.00     0.053 C 
BRANCH   4   5
ATOM      5  C   UNL     1      20.474  -7.631  25.663  1.00  0.00     0.041 C 
ATOM      6  O   UNL     1      19.520  -7.009  25.127  1.00  0.00    -0.550 OA
ATOM      7  O   UNL     1      20.984  -7.195  26.879  1.00  0.00    -0.550 OA
ENDBRANCH   4   5
ENDBRANCH   3   4
ENDBRANCH   2   3
ENDBRANCH   1   2
BRANCH   1   8
ATOM      8  C   UNL     1      21.504 -12.070  21.716  1.00  0.00     0.000 C 
BRANCH   8   9
ATOM      9  C   UNL     1      23.019 -12.313  21.630  1.00  0.00    -0.000 C 
BRANCH   9  10
ATOM     10  C   UNL     1      23.364 -13.773  21.298  1.00  0.00    -0.000 C 
BRANCH  10  11
ATOM     11  C   UNL     1      22.280 -14.406  20.419  1.00  0.00    -0.000 C 
BRANCH  11  12
ATOM     12  C   UNL     1      22.901 -15.297  19.336  1.00  0.00    -0.003 C 
ATOM     13  C   UNL     1      23.132 -16.714  19.853  1.00  0.00     0.004 C 
ENDBRANCH  11  12
ENDBRANCH  10  11
ENDBRANCH   9  10
ENDBRANCH   8   9
ENDBRANCH   1   8
TORSDOF 9
ENDMDL
MODEL 7
REMARK VINA RESULT:    -4.678      4.519      7.934
REMARK INTER + INTRA:          -7.508
REMARK INTER:                  -7.227
REMARK INTRA:                  -0.281
REMARK UNBOUND:                -0.369
REMARK SMILES CCCCCCCCCCC(=O)[O-]
REMARK SMILES IDX 7 1 8 2 9 3 10 4 11 5 12 6 13 7 6 8 5 9 4 10 3 11 2 12 1 13
REMARK H PARENT
REMARK Flexibility Score: inf
ROOT
ATOM      1  C   UNL     1      23.039 -16.612  20.170  1.00  0.00     0.000 C 
ENDROOT
BRANCH   1   2
ATOM      2  C   UNL     1      23.426 -17.602  19.056  1.00  0.00     0.000 C 
BRANCH   2   3
ATOM      3  C   UNL     1      23.010 -17.173  17.637  1.00  0.00     0.006 C 
BRANCH   3   4
ATOM      4  C   UNL     1      23.494 -18.144  16.553  1.00  0.00     0.053 C 
BRANCH   4   5
ATOM      5  C   UNL     1      22.862 -19.488  16.736  1.00  0.00     0.041 C 
ATOM      6  O   UNL     1      23.545 -20.459  17.156  1.00  0.00    -0.550 OA
ATOM      7  O   UNL     1      21.505 -19.657  16.489  1.00  0.00    -0.550 OA
ENDBRANCH   4   5
ENDBRANCH   3   4
ENDBRANCH   2   3
ENDBRANCH   1   2
BRANCH   1   8
ATOM      8  C   UNL     1      22.835 -15.179  19.651  1.00  0.00     0.000 C 
BRANCH   8   9
ATOM      9  C   UNL     1      22.829 -14.137  20.781  1.00  0.00    -0.000 C 
BRANCH   9  10
ATOM     10  C   UNL     1      21.507 -13.355  20.854  1.00  0.00    -0.000 C 
BRANCH  10  11
ATOM     11  C   UNL     1      21.674 -12.073  21.677  1.00  0.00    -0.000 C 
BRANCH  11  12
ATOM     12  C   UNL     1      20.452 -11.831  22.572  1.00  0.00    -0.003 C 
ATOM     13  C   UNL     1      20.798 -10.910  23.738  1.00  0.00     0.004 C 
ENDBRANCH  11  12
ENDBRANCH  10  11
ENDBRANCH   9  10
ENDBRANCH   8   9
ENDBRANCH   1   8
TORSDOF 9
ENDMDL
MODEL 8
REMARK VINA RESULT:    -4.635      3.665      8.866
REMARK INTER + INTRA:          -7.442
REMARK INTER:                  -6.998
REMARK INTRA:                  -0.445
REMARK UNBOUND:                -0.369
REMARK SMILES CCCCCCCCCCC(=O)[O-]
REMARK SMILES IDX 7 1 8 2 9 3 10 4 11 5 12 6 13 7 6 8 5 9 4 10 3 11 2 12 1 13
REMARK H PARENT
REMARK Flexibility Score: inf
ROOT
ATOM      1  C   UNL     1      20.827 -11.024  23.728  1.00  0.00     0.000 C 
ENDROOT
BRANCH   1   2
ATOM      2  C   UNL     1      21.687 -10.811  22.469  1.00  0.00     0.000 C 
BRANCH   2   3
ATOM      3  C   UNL     1      22.390 -12.077  21.945  1.00  0.00     0.006 C 
BRANCH   3   4
ATOM      4  C   UNL     1      21.480 -12.947  21.070  1.00  0.00     0.053 C 
BRANCH   4   5
ATOM      5  C   UNL     1      22.242 -14.111  20.518  1.00  0.00     0.041 C 
ATOM      6  O   UNL     1      23.130 -14.673  21.211  1.00  0.00    -0.550 OA
ATOM      7  O   UNL     1      21.935 -14.606  19.257  1.00  0.00    -0.550 OA
ENDBRANCH   4   5
ENDBRANCH   3   4
ENDBRANCH   2   3
ENDBRANCH   1   2
BRANCH   1   8
ATOM      8  C   UNL     1      20.728  -9.763  24.604  1.00  0.00     0.000 C 
BRANCH   8   9
ATOM      9  C   UNL     1      21.445  -8.554  23.982  1.00  0.00    -0.000 C 
BRANCH   9  10
ATOM     10  C   UNL     1      21.011  -7.222  24.615  1.00  0.00    -0.000 C 
BRANCH  10  11
ATOM     11  C   UNL     1      20.441  -7.443  26.020  1.00  0.00    -0.000 C 
BRANCH  11  12
ATOM     12  C   UNL     1      21.433  -6.981  27.095  1.00  0.00    -0.003 C 
ATOM     13  C   UNL     1      22.133  -5.690  26.679  1.00  0.00     0.004 C 
ENDBRANCH  11  12
ENDBRANCH  10  11
ENDBRANCH   9  10
ENDBRANCH   8   9
ENDBRANCH   1   8
TORSDOF 9
ENDMDL
MODEL 9
REMARK VINA RESULT:    -4.554      1.556      2.131
REMARK INTER + INTRA:          -7.319
REMARK INTER:                  -7.063
REMARK INTRA:                  -0.256
REMARK UNBOUND:                -0.369
REMARK SMILES CCCCCCCCCCC(=O)[O-]
REMARK SMILES IDX 7 1 8 2 9 3 10 4 11 5 12 6 13 7 6 8 5 9 4 10 3 11 2 12 1 13
REMARK H PARENT
REMARK Flexibility Score: inf
ROOT
ATOM      1  C   UNL     1      21.954 -12.839  21.269  1.00  0.00     0.000 C 
ENDROOT
BRANCH   1   2
ATOM      2  C   UNL     1      22.080 -11.677  22.271  1.00  0.00     0.000 C 
BRANCH   2   3
ATOM      3  C   UNL     1      20.741 -11.141  22.812  1.00  0.00     0.006 C 
BRANCH   3   4
ATOM      4  C   UNL     1      20.828 -10.684  24.273  1.00  0.00     0.053 C 
BRANCH   4   5
ATOM      5  C   UNL     1      21.004  -9.200  24.347  1.00  0.00     0.041 C 
ATOM      6  O   UNL     1      21.920  -8.636  23.692  1.00  0.00    -0.550 OA
ATOM      7  O   UNL     1      20.123  -8.433  25.099  1.00  0.00    -0.550 OA
ENDBRANCH   4   5
ENDBRANCH   3   4
ENDBRANCH   2   3
ENDBRANCH   1   2
BRANCH   1   8
ATOM      8  C   UNL     1      23.204 -13.734  21.232  1.00  0.00     0.000 C 
BRANCH   8   9
ATOM      9  C   UNL     1      22.972 -15.043  20.460  1.00  0.00    -0.000 C 
BRANCH   9  10
ATOM     10  C   UNL     1      22.149 -14.833  19.179  1.00  0.00    -0.000 C 
BRANCH  10  11
ATOM     11  C   UNL     1      22.831 -15.493  17.976  1.00  0.00    -0.000 C 
BRANCH  11  12
ATOM     12  C   UNL     1      23.043 -16.992  18.218  1.00  0.00    -0.003 C 
ATOM     13  C   UNL     1      23.159 -17.752  16.900  1.00  0.00     0.004 C 
ENDBRANCH  11  12
ENDBRANCH  10  11
ENDBRANCH   9  10
ENDBRANCH   8   9
ENDBRANCH   1   8
TORSDOF 9
ENDMDL
