MODEL 1
REMARK VINA RESULT:    22.211      0.000      0.000
REMARK INTER + INTRA:          30.496
REMARK INTER:                  29.353
REMARK INTRA:                   1.144
REMARK UNBOUND:                 1.144
REMARK SMILES CC(C)=CCC[C@H](C(=O)[O-])[C@H]1CC[C@@]2(C)C3=C(CC[C@]12C)[C@@]1(C)CC[C@H](O)C(C)(C)[C@@H]1CC3
REMARK SMILES IDX 6 1 7 2 8 3 9 4 10 5 11 6 12 7 20 8 13 9 14 10 19 11 21 12
REMARK SMILES IDX 15 13 16 14 18 15 17 16 33 17 22 18 32 19 31 20 24 21 23 22
REMARK SMILES IDX 28 23 25 24 26 25 29 26 30 27 27 28 5 30 4 31 2 32 1 33 3 34
REMARK H PARENT 27 29
REMARK Flexibility Score: inf
ROOT
ATOM      1  C   UNL     1      62.125 -46.206 318.453  1.00  0.00     0.014 C 
ENDROOT
BRANCH   1   2
ATOM      2  C   UNL     1      60.920 -46.843 317.685  1.00  0.00     0.039 C 
BRANCH   2   3
ATOM      3  C   UNL     1      60.868 -48.318 317.994  1.00  0.00     0.045 C 
ATOM      4  O   UNL     1      61.838 -48.898 318.554  1.00  0.00    -0.550 OA
ATOM      5  O   UNL     1      59.746 -49.058 317.635  1.00  0.00    -0.550 OA
ENDBRANCH   2   3
BRANCH   2   6
ATOM      6  C   UNL     1      60.689 -46.608 316.141  1.00  0.00     0.004 C 
ATOM      7  C   UNL     1      61.481 -45.426 315.525  1.00  0.00     0.006 C 
ATOM      8  C   UNL     1      60.781 -47.741 315.066  1.00  0.00    -0.020 C 
ATOM      9  C   UNL     1      61.749 -45.782 314.052  1.00  0.00     0.012 C 
ATOM     10  C   UNL     1      60.764 -46.919 313.737  1.00  0.00    -0.006 C 
ATOM     11  C   UNL     1      59.604 -48.735 315.002  1.00  0.00     0.012 C 
ATOM     12  C   UNL     1      62.106 -48.554 315.243  1.00  0.00     0.012 C 
ATOM     13  C   UNL     1      59.397 -46.255 313.366  1.00  0.00     0.017 C 
ATOM     14  C   UNL     1      61.090 -47.840 312.570  1.00  0.00    -0.064 C 
ATOM     15  C   UNL     1      59.618 -49.578 313.692  1.00  0.00     0.032 C 
ATOM     16  C   UNL     1      60.478 -49.063 312.512  1.00  0.00    -0.064 C 
ATOM     17  C   UNL     1      62.123 -47.426 311.542  1.00  0.00     0.032 C 
ATOM     18  C   UNL     1      60.727 -49.975 311.291  1.00  0.00    -0.008 C 
ATOM     19  C   UNL     1      61.893 -47.975 310.120  1.00  0.00     0.009 C 
ATOM     20  C   UNL     1      60.774 -49.046 310.018  1.00  0.00     0.007 C 
ATOM     21  C   UNL     1      59.556 -50.992 311.130  1.00  0.00     0.014 C 
ATOM     22  C   UNL     1      62.051 -50.746 311.566  1.00  0.00     0.016 C 
ATOM     23  C   UNL     1      60.687 -49.758 308.606  1.00  0.00    -0.006 C 
ATOM     24  C   UNL     1      59.568 -51.739 309.793  1.00  0.00     0.033 C 
ATOM     25  C   UNL     1      59.492 -50.765 308.616  1.00  0.00     0.120 C 
ATOM     26  C   UNL     1      62.001 -50.472 308.183  1.00  0.00     0.014 C 
ATOM     27  C   UNL     1      60.387 -48.691 307.518  1.00  0.00     0.014 C 
BRANCH  25  28
ATOM     28  O   UNL     1      59.441 -51.511 307.422  1.00  0.00    -0.393 OA
ATOM     29  H   UNL     1      60.168 -52.185 307.460  1.00  0.00     0.210 HD
ENDBRANCH  25  28
ENDBRANCH   2   6
ENDBRANCH   1   2
BRANCH   1  30
ATOM     30  C   UNL     1      62.125 -44.679 318.648  1.00  0.00     0.028 C 
BRANCH  30  31
ATOM     31  C   UNL     1      61.396 -44.248 319.901  1.00  0.00    -0.028 C 
ATOM     32  C   UNL     1      60.892 -43.014 320.118  1.00  0.00    -0.080 C 
ATOM     33  C   UNL     1      60.231 -42.738 321.442  1.00  0.00     0.039 C 
ATOM     34  C   UNL     1      60.953 -41.923 319.076  1.00  0.00     0.039 C 
ENDBRANCH  30  31
ENDBRANCH   1  30
TORSDOF 6
ENDMDL
