MODEL 1
REMARK VINA RESULT:    -5.452      0.000      0.000
REMARK INTER + INTRA:          -8.252
REMARK INTER:                  -8.320
REMARK INTRA:                   0.068
REMARK UNBOUND:                 0.068
REMARK SMILES CC1=CCC[C@@H](C)C(=O)C[C@@H](C(C)C)C(=O)C1
REMARK SMILES IDX 8 1 9 2 6 3 7 4 5 5 4 6 3 7 2 8 1 9 10 11 11 12 15 13 16 14
REMARK SMILES IDX 17 15 12 17 13 18 14 19
REMARK H PARENT
REMARK Flexibility Score: 70.00
ROOT
ATOM      1  C   UNL     1      -8.381  33.559  22.686  1.00  0.00     0.136 C 
ATOM      2  O   UNL     1      -9.230  33.156  21.906  1.00  0.00    -0.299 OA
ENDROOT
BRANCH   1   3
ATOM      3  C   UNL     1      -8.285  35.038  23.000  1.00  0.00     0.053 C 
ATOM      4  C   UNL     1      -7.470  35.738  21.909  1.00  0.00     0.016 C 
BRANCH   3   5
ATOM      5  C   UNL     1      -7.658  35.302  24.388  1.00  0.00     0.015 C 
BRANCH   5   6
ATOM      6  C   UNL     1      -8.700  35.494  25.498  1.00  0.00     0.028 C 
BRANCH   6   7
ATOM      7  C   UNL     1      -8.284  34.790  26.767  1.00  0.00    -0.028 C 
ATOM      8  C   UNL     1      -8.556  33.506  27.096  1.00  0.00    -0.070 CG0
ATOM      9  C   UNL     1      -8.066  33.004  28.431  1.00  0.00     0.039 C 
ATOM     10  G   UNL     1      -9.342  32.553  26.211  1.00  0.00     0.000 G0
ENDBRANCH   6   7
ENDBRANCH   5   6
ENDBRANCH   3   5
ENDBRANCH   1   3
BRANCH   1  11
ATOM     11  C   UNL     1      -7.513  32.564  23.417  1.00  0.00     0.087 C 
BRANCH  11  12
ATOM     12  C   UNL     1      -8.293  31.362  24.008  1.00  0.00     0.066 C 
BRANCH  12  13
ATOM     13  C   UNL     1      -8.422  31.531  25.523  1.00  0.00     0.140 C 
ATOM     14  O   UNL     1      -7.713  30.829  26.230  1.00  0.00    -0.299 OA
BRANCH  13  15
ATOM     15  C   UNL     1      -9.337  32.525  26.207  1.00  0.00     0.106 CG0
ATOM     16  G   UNL     1      -8.556  33.497  27.074  1.00  0.00     0.000 G0
ENDBRANCH  13  15
ENDBRANCH  12  13
BRANCH  12  17
ATOM     17  C   UNL     1      -7.802  29.957  23.517  1.00  0.00    -0.006 C 
ATOM     18  C   UNL     1      -8.631  29.466  22.314  1.00  0.00     0.008 C 
ATOM     19  C   UNL     1      -6.321  29.981  23.092  1.00  0.00     0.008 C 
ENDBRANCH  12  17
ENDBRANCH  11  12
ENDBRANCH   1  11
TORSDOF 1
ENDMDL
MODEL 2
REMARK VINA RESULT:    -5.147      1.820      3.827
REMARK INTER + INTRA:          -7.787
REMARK INTER:                  -8.005
REMARK INTRA:                   0.219
REMARK UNBOUND:                 0.068
REMARK SMILES CC1=CCC[C@@H](C)C(=O)C[C@@H](C(C)C)C(=O)C1
REMARK SMILES IDX 8 1 9 2 6 3 7 4 5 5 4 6 3 7 2 8 1 9 10 11 11 12 15 13 16 14
REMARK SMILES IDX 17 15 12 17 13 18 14 19
REMARK H PARENT
REMARK Flexibility Score: 70.00
ROOT
ATOM      1  C   UNL     1      -7.478  30.832  23.912  1.00  0.00     0.136 C 
ATOM      2  O   UNL     1      -6.293  30.877  23.617  1.00  0.00    -0.299 OA
ENDROOT
BRANCH   1   3
ATOM      3  C   UNL     1      -7.928  30.019  25.107  1.00  0.00     0.053 C 
ATOM      4  C   UNL     1      -9.288  29.381  24.808  1.00  0.00     0.016 C 
BRANCH   3   5
ATOM      5  C   UNL     1      -8.008  30.869  26.396  1.00  0.00     0.015 C 
BRANCH   5   6
ATOM      6  C   UNL     1      -9.155  31.888  26.382  1.00  0.00     0.028 C 
BRANCH   6   7
ATOM      7  C   UNL     1      -8.664  33.269  26.743  1.00  0.00    -0.028 C 
ATOM      8  C   UNL     1      -8.625  34.344  25.923  1.00  0.00    -0.070 CG0
ATOM      9  C   UNL     1      -8.071  35.632  26.479  1.00  0.00     0.039 C 
ATOM     10  G   UNL     1      -9.084  34.323  24.475  1.00  0.00     0.000 G0
ENDBRANCH   6   7
ENDBRANCH   5   6
ENDBRANCH   3   5
ENDBRANCH   1   3
BRANCH   1  11
ATOM     11  C   UNL     1      -8.465  31.682  23.150  1.00  0.00     0.087 C 
BRANCH  11  12
ATOM     12  C   UNL     1      -7.847  32.956  22.520  1.00  0.00     0.066 C 
BRANCH  12  13
ATOM     13  C   UNL     1      -7.934  34.112  23.517  1.00  0.00     0.140 C 
ATOM     14  O   UNL     1      -7.022  34.928  23.516  1.00  0.00    -0.299 OA
BRANCH  13  15
ATOM     15  C   UNL     1      -9.081  34.340  24.480  1.00  0.00     0.106 CG0
ATOM     16  G   UNL     1      -8.607  34.342  25.923  1.00  0.00     0.000 G0
ENDBRANCH  13  15
ENDBRANCH  12  13
BRANCH  12  17
ATOM     17  C   UNL     1      -8.333  33.271  21.065  1.00  0.00    -0.006 C 
ATOM     18  C   UNL     1      -7.143  33.398  20.094  1.00  0.00     0.008 C 
ATOM     19  C   UNL     1      -9.272  32.176  20.522  1.00  0.00     0.008 C 
ENDBRANCH  12  17
ENDBRANCH  11  12
ENDBRANCH   1  11
TORSDOF 1
ENDMDL
MODEL 3
REMARK VINA RESULT:    -4.987      1.829      4.354
REMARK INTER + INTRA:          -7.544
REMARK INTER:                  -7.507
REMARK INTRA:                  -0.037
REMARK UNBOUND:                 0.068
REMARK SMILES CC1=CCC[C@@H](C)C(=O)C[C@@H](C(C)C)C(=O)C1
REMARK SMILES IDX 8 1 9 2 6 3 7 4 5 5 4 6 3 7 2 8 1 9 10 11 11 12 15 13 16 14
REMARK SMILES IDX 17 15 12 17 13 18 14 19
REMARK H PARENT
REMARK Flexibility Score: 70.00
ROOT
ATOM      1  C   UNL     1      -8.285  34.456  22.059  1.00  0.00     0.136 C 
ATOM      2  O   UNL     1      -7.875  35.583  21.824  1.00  0.00    -0.299 OA
ENDROOT
BRANCH   1   3
ATOM      3  C   UNL     1      -7.818  33.291  21.213  1.00  0.00     0.053 C 
ATOM      4  C   UNL     1      -6.891  33.804  20.106  1.00  0.00     0.016 C 
BRANCH   3   5
ATOM      5  C   UNL     1      -8.997  32.503  20.599  1.00  0.00     0.015 C 
BRANCH   5   6
ATOM      6  C   UNL     1      -9.190  31.114  21.223  1.00  0.00     0.028 C 
BRANCH   6   7
ATOM      7  C   UNL     1      -8.019  30.742  22.101  1.00  0.00    -0.028 C 
ATOM      8  C   UNL     1      -7.949  30.887  23.444  1.00  0.00    -0.070 CG0
ATOM      9  C   UNL     1      -6.670  30.473  24.129  1.00  0.00     0.039 C 
ATOM     10  G   UNL     1      -9.070  31.459  24.295  1.00  0.00     0.000 G0
ENDBRANCH   6   7
ENDBRANCH   5   6
ENDBRANCH   3   5
ENDBRANCH   1   3
BRANCH   1  11
ATOM     11  C   UNL     1      -9.162  34.223  23.265  1.00  0.00     0.087 C 
BRANCH  11  12
ATOM     12  C   UNL     1      -8.378  34.052  24.591  1.00  0.00     0.066 C 
BRANCH  12  13
ATOM     13  C   UNL     1      -8.588  32.636  25.130  1.00  0.00     0.140 C 
ATOM     14  O   UNL     1      -8.379  32.449  26.320  1.00  0.00    -0.299 OA
BRANCH  13  15
ATOM     15  C   UNL     1      -9.069  31.460  24.306  1.00  0.00     0.106 CG0
ATOM     16  G   UNL     1      -7.951  30.879  23.457  1.00  0.00     0.000 G0
ENDBRANCH  13  15
ENDBRANCH  12  13
BRANCH  12  17
ATOM     17  C   UNL     1      -8.576  35.212  25.625  1.00  0.00    -0.006 C 
ATOM     18  C   UNL     1      -7.223  35.723  26.156  1.00  0.00     0.008 C 
ATOM     19  C   UNL     1      -9.325  36.410  25.009  1.00  0.00     0.008 C 
ENDBRANCH  12  17
ENDBRANCH  11  12
ENDBRANCH   1  11
TORSDOF 1
ENDMDL
MODEL 4
REMARK VINA RESULT:    -4.955      2.387      5.484
REMARK INTER + INTRA:          -7.494
REMARK INTER:                  -7.540
REMARK INTRA:                   0.046
REMARK UNBOUND:                 0.068
REMARK SMILES CC1=CCC[C@@H](C)C(=O)C[C@@H](C(C)C)C(=O)C1
REMARK SMILES IDX 8 1 9 2 6 3 7 4 5 5 4 6 3 7 2 8 1 9 10 11 11 12 15 13 16 14
REMARK SMILES IDX 17 15 12 17 13 18 14 19
REMARK H PARENT
REMARK Flexibility Score: 70.00
ROOT
ATOM      1  C   UNL     1      -8.315  31.619  24.312  1.00  0.00     0.136 C 
ATOM      2  O   UNL     1      -9.448  31.681  24.766  1.00  0.00    -0.299 OA
ENDROOT
BRANCH   1   3
ATOM      3  C   UNL     1      -7.870  30.383  23.558  1.00  0.00     0.053 C 
ATOM      4  C   UNL     1      -6.347  30.407  23.395  1.00  0.00     0.016 C 
BRANCH   3   5
ATOM      5  C   UNL     1      -8.554  30.262  22.178  1.00  0.00     0.015 C 
BRANCH   5   6
ATOM      6  C   UNL     1      -9.088  31.599  21.645  1.00  0.00     0.028 C 
BRANCH   6   7
ATOM      7  C   UNL     1      -8.069  32.284  20.766  1.00  0.00    -0.028 C 
ATOM      8  C   UNL     1      -7.790  33.607  20.747  1.00  0.00    -0.070 CG0
ATOM      9  C   UNL     1      -6.749  34.092  19.769  1.00  0.00     0.039 C 
ATOM     10  G   UNL     1      -8.479  34.632  21.633  1.00  0.00     0.000 G0
ENDBRANCH   6   7
ENDBRANCH   5   6
ENDBRANCH   3   5
ENDBRANCH   1   3
BRANCH   1  11
ATOM     11  C   UNL     1      -7.411  32.824  24.408  1.00  0.00     0.087 C 
BRANCH  11  12
ATOM     12  C   UNL     1      -8.150  34.179  24.276  1.00  0.00     0.066 C 
BRANCH  12  13
ATOM     13  C   UNL     1      -7.763  34.846  22.955  1.00  0.00     0.140 C 
ATOM     14  O   UNL     1      -6.786  35.582  22.961  1.00  0.00    -0.299 OA
BRANCH  13  15
ATOM     15  C   UNL     1      -8.480  34.636  21.637  1.00  0.00     0.106 CG0
ATOM     16  G   UNL     1      -7.776  33.599  20.779  1.00  0.00     0.000 G0
ENDBRANCH  13  15
ENDBRANCH  12  13
BRANCH  12  17
ATOM     17  C   UNL     1      -8.080  35.092  25.548  1.00  0.00    -0.006 C 
ATOM     18  C   UNL     1      -9.028  36.300  25.420  1.00  0.00     0.008 C 
ATOM     19  C   UNL     1      -8.462  34.325  26.829  1.00  0.00     0.008 C 
ENDBRANCH  12  17
ENDBRANCH  11  12
ENDBRANCH   1  11
TORSDOF 1
ENDMDL
MODEL 5
REMARK VINA RESULT:    -4.783      1.906      4.702
REMARK INTER + INTRA:          -7.232
REMARK INTER:                  -7.393
REMARK INTRA:                   0.161
REMARK UNBOUND:                 0.068
REMARK SMILES CC1=CCC[C@@H](C)C(=O)C[C@@H](C(C)C)C(=O)C1
REMARK SMILES IDX 8 1 9 2 6 3 7 4 5 5 4 6 3 7 2 8 1 9 10 11 11 12 15 13 16 14
REMARK SMILES IDX 17 15 12 17 13 18 14 19
REMARK H PARENT
REMARK Flexibility Score: 70.00
ROOT
ATOM      1  C   UNL     1      -8.346  30.366  24.538  1.00  0.00     0.136 C 
ATOM      2  O   UNL     1      -9.422  29.841  24.780  1.00  0.00    -0.299 OA
ENDROOT
BRANCH   1   3
ATOM      3  C   UNL     1      -7.557  29.942  23.317  1.00  0.00     0.053 C 
ATOM      4  C   UNL     1      -6.209  30.669  23.304  1.00  0.00     0.016 C 
BRANCH   3   5
ATOM      5  C   UNL     1      -8.323  30.213  22.002  1.00  0.00     0.015 C 
BRANCH   5   6
ATOM      6  C   UNL     1      -9.178  31.487  22.049  1.00  0.00     0.028 C 
BRANCH   6   7
ATOM      7  C   UNL     1      -8.361  32.707  21.694  1.00  0.00    -0.028 C 
ATOM      8  C   UNL     1      -8.389  33.901  22.330  1.00  0.00    -0.070 CG0
ATOM      9  C   UNL     1      -7.508  35.002  21.795  1.00  0.00     0.039 C 
ATOM     10  G   UNL     1      -9.269  34.201  23.531  1.00  0.00     0.000 G0
ENDBRANCH   6   7
ENDBRANCH   5   6
ENDBRANCH   3   5
ENDBRANCH   1   3
BRANCH   1  11
ATOM     11  C   UNL     1      -7.872  31.514  25.395  1.00  0.00     0.087 C 
BRANCH  11  12
ATOM     12  C   UNL     1      -8.954  32.590  25.664  1.00  0.00     0.066 C 
BRANCH  12  13
ATOM     13  C   UNL     1      -8.639  33.847  24.851  1.00  0.00     0.140 C 
ATOM     14  O   UNL     1      -7.774  34.596  25.284  1.00  0.00    -0.299 OA
BRANCH  13  15
ATOM     15  C   UNL     1      -9.294  34.212  23.535  1.00  0.00     0.106 CG0
ATOM     16  G   UNL     1      -8.386  33.907  22.356  1.00  0.00     0.000 G0
ENDBRANCH  13  15
ENDBRANCH  12  13
BRANCH  12  17
ATOM     17  C   UNL     1      -9.287  32.822  27.177  1.00  0.00    -0.006 C 
ATOM     18  C   UNL     1     -10.073  31.634  27.764  1.00  0.00     0.008 C 
ATOM     19  C   UNL     1      -8.013  33.011  28.024  1.00  0.00     0.008 C 
ENDBRANCH  12  17
ENDBRANCH  11  12
ENDBRANCH   1  11
TORSDOF 1
ENDMDL
MODEL 6
REMARK VINA RESULT:    -4.628      1.750      2.809
REMARK INTER + INTRA:          -6.996
REMARK INTER:                  -7.187
REMARK INTRA:                   0.191
REMARK UNBOUND:                 0.068
REMARK SMILES CC1=CCC[C@@H](C)C(=O)C[C@@H](C(C)C)C(=O)C1
REMARK SMILES IDX 8 1 9 2 6 3 7 4 5 5 4 6 3 7 2 8 1 9 10 11 11 12 15 13 16 14
REMARK SMILES IDX 17 15 12 17 13 18 14 19
REMARK H PARENT
REMARK Flexibility Score: 70.00
ROOT
ATOM      1  C   UNL     1      -7.922  34.723  23.919  1.00  0.00     0.136 C 
ATOM      2  O   UNL     1      -7.716  35.665  23.170  1.00  0.00    -0.299 OA
ENDROOT
BRANCH   1   3
ATOM      3  C   UNL     1      -8.740  34.924  25.178  1.00  0.00     0.053 C 
ATOM      4  C   UNL     1      -8.608  36.376  25.645  1.00  0.00     0.016 C 
BRANCH   3   5
ATOM      5  C   UNL     1      -8.320  33.958  26.309  1.00  0.00     0.015 C 
BRANCH   5   6
ATOM      6  C   UNL     1      -9.442  33.005  26.742  1.00  0.00     0.028 C 
BRANCH   6   7
ATOM      7  C   UNL     1      -8.888  31.675  27.190  1.00  0.00    -0.028 C 
ATOM      8  C   UNL     1      -8.828  30.543  26.451  1.00  0.00    -0.070 CG0
ATOM      9  C   UNL     1      -8.256  29.308  27.101  1.00  0.00     0.039 C 
ATOM     10  G   UNL     1      -9.322  30.440  25.018  1.00  0.00     0.000 G0
ENDBRANCH   6   7
ENDBRANCH   5   6
ENDBRANCH   3   5
ENDBRANCH   1   3
BRANCH   1  11
ATOM     11  C   UNL     1      -7.457  33.344  23.521  1.00  0.00     0.087 C 
BRANCH  11  12
ATOM     12  C   UNL     1      -8.608  32.347  23.238  1.00  0.00     0.066 C 
BRANCH  12  13
ATOM     13  C   UNL     1      -8.361  31.048  24.007  1.00  0.00     0.140 C 
ATOM     14  O   UNL     1      -7.291  30.483  23.830  1.00  0.00    -0.299 OA
BRANCH  13  15
ATOM     15  C   UNL     1      -9.330  30.431  24.996  1.00  0.00     0.106 CG0
ATOM     16  G   UNL     1      -8.831  30.567  26.424  1.00  0.00     0.000 G0
ENDBRANCH  13  15
ENDBRANCH  12  13
BRANCH  12  17
ATOM     17  C   UNL     1      -8.977  32.183  21.724  1.00  0.00    -0.006 C 
ATOM     18  C   UNL     1      -7.986  32.946  20.823  1.00  0.00     0.008 C 
ATOM     19  C   UNL     1      -8.971  30.705  21.287  1.00  0.00     0.008 C 
ENDBRANCH  12  17
ENDBRANCH  11  12
ENDBRANCH   1  11
TORSDOF 1
ENDMDL
MODEL 7
REMARK VINA RESULT:    -4.490      1.994      4.109
REMARK INTER + INTRA:          -6.784
REMARK INTER:                  -7.279
REMARK INTRA:                   0.494
REMARK UNBOUND:                 0.068
REMARK SMILES CC1=CCC[C@@H](C)C(=O)C[C@@H](C(C)C)C(=O)C1
REMARK SMILES IDX 8 1 9 2 6 3 7 4 5 5 4 6 3 7 2 8 1 9 10 11 11 12 15 13 16 14
REMARK SMILES IDX 17 15 12 17 13 18 14 19
REMARK H PARENT
REMARK Flexibility Score: 70.00
ROOT
ATOM      1  C   UNL     1      -8.984  34.046  24.583  1.00  0.00     0.136 C 
ATOM      2  O   UNL     1      -8.937  35.097  25.204  1.00  0.00    -0.299 OA
ENDROOT
BRANCH   1   3
ATOM      3  C   UNL     1      -8.355  33.953  23.209  1.00  0.00     0.053 C 
ATOM      4  C   UNL     1      -7.860  35.337  22.780  1.00  0.00     0.016 C 
BRANCH   3   5
ATOM      5  C   UNL     1      -9.333  33.384  22.155  1.00  0.00     0.015 C 
BRANCH   5   6
ATOM      6  C   UNL     1      -8.767  32.182  21.387  1.00  0.00     0.028 C 
BRANCH   6   7
ATOM      7  C   UNL     1      -7.506  31.663  22.037  1.00  0.00    -0.028 C 
ATOM      8  C   UNL     1      -7.438  30.765  23.046  1.00  0.00    -0.070 CG0
ATOM      9  C   UNL     1      -6.071  30.398  23.569  1.00  0.00     0.039 C 
ATOM     10  G   UNL     1      -8.653  30.123  23.694  1.00  0.00     0.000 G0
ENDBRANCH   6   7
ENDBRANCH   5   6
ENDBRANCH   3   5
ENDBRANCH   1   3
BRANCH   1  11
ATOM     11  C   UNL     1      -9.566  32.820  25.243  1.00  0.00     0.087 C 
BRANCH  11  12
ATOM     12  C   UNL     1      -8.504  31.834  25.790  1.00  0.00     0.066 C 
BRANCH  12  13
ATOM     13  C   UNL     1      -8.729  30.450  25.181  1.00  0.00     0.140 C 
ATOM     14  O   UNL     1      -9.020  29.538  25.943  1.00  0.00    -0.299 OA
BRANCH  13  15
ATOM     15  C   UNL     1      -8.651  30.133  23.701  1.00  0.00     0.106 CG0
ATOM     16  G   UNL     1      -7.434  30.776  23.057  1.00  0.00     0.000 G0
ENDBRANCH  13  15
ENDBRANCH  12  13
BRANCH  12  17
ATOM     17  C   UNL     1      -8.313  31.872  27.345  1.00  0.00    -0.006 C 
ATOM     18  C   UNL     1      -7.880  33.273  27.820  1.00  0.00     0.008 C 
ATOM     19  C   UNL     1      -9.608  31.499  28.093  1.00  0.00     0.008 C 
ENDBRANCH  12  17
ENDBRANCH  11  12
ENDBRANCH   1  11
TORSDOF 1
ENDMDL
MODEL 8
REMARK VINA RESULT:    -4.455      1.856      2.735
REMARK INTER + INTRA:          -6.731
REMARK INTER:                  -7.047
REMARK INTRA:                   0.317
REMARK UNBOUND:                 0.068
REMARK SMILES CC1=CCC[C@@H](C)C(=O)C[C@@H](C(C)C)C(=O)C1
REMARK SMILES IDX 8 1 9 2 6 3 7 4 5 5 4 6 3 7 2 8 1 9 10 11 11 12 15 13 16 14
REMARK SMILES IDX 17 15 12 17 13 18 14 19
REMARK H PARENT
REMARK Flexibility Score: 70.00
ROOT
ATOM      1  C   UNL     1      -8.536  31.546  21.694  1.00  0.00     0.136 C 
ATOM      2  O   UNL     1      -9.173  30.603  21.248  1.00  0.00    -0.299 OA
ENDROOT
BRANCH   1   3
ATOM      3  C   UNL     1      -8.449  32.837  20.908  1.00  0.00     0.053 C 
ATOM      4  C   UNL     1      -6.993  33.096  20.511  1.00  0.00     0.016 C 
BRANCH   3   5
ATOM      5  C   UNL     1      -9.010  34.042  21.699  1.00  0.00     0.015 C 
BRANCH   5   6
ATOM      6  C   UNL     1      -7.930  35.048  22.118  1.00  0.00     0.028 C 
BRANCH   6   7
ATOM      7  C   UNL     1      -8.274  35.702  23.435  1.00  0.00    -0.028 C 
ATOM      8  C   UNL     1      -8.161  35.140  24.661  1.00  0.00    -0.070 CG0
ATOM      9  C   UNL     1      -8.585  35.963  25.852  1.00  0.00     0.039 C 
ATOM     10  G   UNL     1      -7.654  33.729  24.903  1.00  0.00     0.000 G0
ENDBRANCH   6   7
ENDBRANCH   5   6
ENDBRANCH   3   5
ENDBRANCH   1   3
BRANCH   1  11
ATOM     11  C   UNL     1      -7.941  31.450  23.078  1.00  0.00     0.087 C 
BRANCH  11  12
ATOM     12  C   UNL     1      -8.990  31.468  24.218  1.00  0.00     0.066 C 
BRANCH  12  13
ATOM     13  C   UNL     1      -8.798  32.723  25.070  1.00  0.00     0.140 C 
ATOM     14  O   UNL     1      -9.607  32.928  25.964  1.00  0.00    -0.299 OA
BRANCH  13  15
ATOM     15  C   UNL     1      -7.661  33.712  24.909  1.00  0.00     0.106 CG0
ATOM     16  G   UNL     1      -8.177  35.118  24.656  1.00  0.00     0.000 G0
ENDBRANCH  13  15
ENDBRANCH  12  13
BRANCH  12  17
ATOM     17  C   UNL     1      -9.123  30.122  25.008  1.00  0.00    -0.006 C 
ATOM     18  C   UNL     1      -8.911  28.908  24.082  1.00  0.00     0.008 C 
ATOM     19  C   UNL     1      -8.099  30.024  26.156  1.00  0.00     0.008 C 
ENDBRANCH  12  17
ENDBRANCH  11  12
ENDBRANCH   1  11
TORSDOF 1
ENDMDL
MODEL 9
REMARK VINA RESULT:    -4.156      1.968      4.447
REMARK INTER + INTRA:          -6.275
REMARK INTER:                  -7.565
REMARK INTRA:                   1.290
REMARK UNBOUND:                 0.068
REMARK SMILES CC1=CCC[C@@H](C)C(=O)C[C@@H](C(C)C)C(=O)C1
REMARK SMILES IDX 8 1 9 2 6 3 7 4 5 5 4 6 3 7 2 8 1 9 10 11 11 12 15 13 16 14
REMARK SMILES IDX 17 15 12 17 13 18 14 19
REMARK H PARENT
REMARK Flexibility Score: 70.00
ROOT
ATOM      1  C   UNL     1      -8.536  34.696  25.229  1.00  0.00     0.136 C 
ATOM      2  O   UNL     1      -9.142  35.746  25.077  1.00  0.00    -0.299 OA
ENDROOT
BRANCH   1   3
ATOM      3  C   UNL     1      -8.814  33.832  26.440  1.00  0.00     0.053 C 
ATOM      4  C   UNL     1      -7.932  34.288  27.606  1.00  0.00     0.016 C 
BRANCH   3   5
ATOM      5  C   UNL     1      -8.587  32.330  26.153  1.00  0.00     0.015 C 
BRANCH   5   6
ATOM      6  C   UNL     1      -9.802  31.642  25.517  1.00  0.00     0.028 C 
BRANCH   6   7
ATOM      7  C   UNL     1      -9.400  30.377  24.798  1.00  0.00    -0.028 C 
ATOM      8  C   UNL     1      -8.367  30.240  23.936  1.00  0.00    -0.070 CG0
ATOM      9  C   UNL     1      -8.153  28.888  23.304  1.00  0.00     0.039 C 
ATOM     10  G   UNL     1      -7.428  31.371  23.553  1.00  0.00     0.000 G0
ENDBRANCH   6   7
ENDBRANCH   5   6
ENDBRANCH   3   5
ENDBRANCH   1   3
BRANCH   1  11
ATOM     11  C   UNL     1      -7.601  34.217  24.145  1.00  0.00     0.087 C 
BRANCH  11  12
ATOM     12  C   UNL     1      -8.316  33.794  22.837  1.00  0.00     0.066 C 
BRANCH  12  13
ATOM     13  C   UNL     1      -8.050  32.312  22.565  1.00  0.00     0.140 C 
ATOM     14  O   UNL     1      -8.353  31.879  21.462  1.00  0.00    -0.299 OA
BRANCH  13  15
ATOM     15  C   UNL     1      -7.410  31.354  23.549  1.00  0.00     0.106 CG0
ATOM     16  G   UNL     1      -8.355  30.224  23.921  1.00  0.00     0.000 G0
ENDBRANCH  13  15
ENDBRANCH  12  13
BRANCH  12  17
ATOM     17  C   UNL     1      -8.091  34.761  21.625  1.00  0.00    -0.006 C 
ATOM     18  C   UNL     1      -7.344  36.036  22.060  1.00  0.00     0.008 C 
ATOM     19  C   UNL     1      -7.275  34.094  20.500  1.00  0.00     0.008 C 
ENDBRANCH  12  17
ENDBRANCH  11  12
ENDBRANCH   1  11
TORSDOF 1
ENDMDL
