MODEL 1
REMARK VINA RESULT:   102.577      0.000      0.000
REMARK INTER + INTRA:         115.679
REMARK INTER:                 114.571
REMARK INTRA:                   1.109
REMARK UNBOUND:                 1.109
REMARK SMILES CC1(C)CC[C@@]2(CO)CC=C3[C@](C)(CC[C@H]4[C@]5(C)CC[C@@H](O)C(C)(C)[C@@H]5CC[C@@]34C)[C@@H]2C1
REMARK SMILES IDX 1 1 2 2 4 3 5 4 6 5 9 6 10 7 11 8 29 9 28 10 27 11 26 12
REMARK SMILES IDX 23 13 21 14 20 15 19 16 17 17 16 18 15 19 14 20 12 21 31 22
REMARK SMILES IDX 32 23 13 24 18 25 24 26 25 27 30 28 3 29 7 30 8 31 22 33
REMARK H PARENT 8 32 22 34
REMARK Flexibility Score: inf
ROOT
ATOM      1  C   UNL     1     -42.125  23.812   8.988  1.00  0.00     0.011 C 
ATOM      2  C   UNL     1     -41.083  22.986   8.201  1.00  0.00    -0.035 C 
ATOM      3  C   UNL     1     -41.516  22.975   6.705  1.00  0.00     0.007 C 
ATOM      4  C   UNL     1     -40.413  22.467   5.761  1.00  0.00     0.010 C 
ATOM      5  C   UNL     1     -38.995  23.135   5.960  1.00  0.00     0.001 C 
ATOM      6  C   UNL     1     -38.632  23.914   4.675  1.00  0.00     0.037 C 
ATOM      7  C   UNL     1     -37.382  24.735   4.827  1.00  0.00    -0.026 C 
ATOM      8  C   UNL     1     -36.893  25.185   6.018  1.00  0.00    -0.062 C 
ATOM      9  C   UNL     1     -35.493  25.870   6.035  1.00  0.00    -0.008 C 
ATOM     10  C   UNL     1     -34.433  24.925   5.357  1.00  0.00     0.012 C 
ATOM     11  C   UNL     1     -33.688  24.049   6.366  1.00  0.00     0.006 C 
ATOM     12  C   UNL     1     -32.767  24.848   7.352  1.00  0.00     0.003 C 
ATOM     13  C   UNL     1     -31.198  24.790   7.044  1.00  0.00    -0.006 C 
ATOM     14  C   UNL     1     -30.773  25.936   6.077  1.00  0.00     0.120 C 
ATOM     15  C   UNL     1     -31.213  27.310   6.582  1.00  0.00     0.033 C 
ATOM     16  C   UNL     1     -32.736  27.377   6.707  1.00  0.00     0.010 C 
ATOM     17  C   UNL     1     -33.364  26.295   7.651  1.00  0.00    -0.025 C 
ATOM     18  C   UNL     1     -34.964  26.268   7.492  1.00  0.00     0.005 C 
ATOM     19  C   UNL     1     -35.610  25.464   8.682  1.00  0.00     0.006 C 
ATOM     20  C   UNL     1     -36.850  24.604   8.416  1.00  0.00     0.012 C 
ATOM     21  C   UNL     1     -37.757  25.117   7.285  1.00  0.00    -0.008 C 
ATOM     22  C   UNL     1     -39.051  24.203   7.103  1.00  0.00     0.008 C 
ATOM     23  C   UNL     1     -39.656  23.612   8.402  1.00  0.00     0.011 C 
ATOM     24  C   UNL     1     -38.259  26.552   7.627  1.00  0.00     0.016 C 
ATOM     25  C   UNL     1     -33.041  26.753   9.116  1.00  0.00     0.012 C 
ATOM     26  C   UNL     1     -30.778  23.438   6.401  1.00  0.00     0.014 C 
ATOM     27  C   UNL     1     -30.388  24.869   8.372  1.00  0.00     0.014 C 
ATOM     28  C   UNL     1     -35.691  27.162   5.173  1.00  0.00     0.016 C 
ATOM     29  C   UNL     1     -41.101  21.543   8.755  1.00  0.00     0.011 C 
ENDROOT
BRANCH   5  30
ATOM     30  C   UNL     1     -37.980  21.966   6.209  1.00  0.00     0.163 C 
BRANCH  30  31
ATOM     31  O   UNL     1     -37.129  22.191   7.295  1.00  0.00    -0.396 OA
ATOM     32  H   UNL     1     -37.713  22.371   8.076  1.00  0.00     0.210 HD
ENDBRANCH  30  31
ENDBRANCH   5  30
BRANCH  14  33
ATOM     33  O   UNL     1     -29.376  25.956   5.899  1.00  0.00    -0.393 OA
ATOM     34  H   UNL     1     -28.964  25.918   6.800  1.00  0.00     0.210 HD
ENDBRANCH  14  33
TORSDOF 3
ENDMDL
