MODEL 1
REMARK VINA RESULT:    -4.229      0.000      0.000
REMARK INTER + INTRA:          -7.138
REMARK INTER:                  -6.701
REMARK INTRA:                  -0.438
REMARK UNBOUND:                -0.438
REMARK SMILES CCCCCCCCCCCC(=O)[O-]
REMARK SMILES IDX 7 1 8 2 9 3 10 4 11 5 12 6 13 7 14 8 6 9 5 10 4 11 3 12 2 13
REMARK SMILES IDX 1 14
REMARK H PARENT
REMARK Flexibility Score: inf
ROOT
ATOM      1  C   UNL     1       0.285  -0.337  -0.327  1.00  0.00     0.000 C 
ENDROOT
BRANCH   1   2
ATOM      2  C   UNL     1       0.657   0.936  -1.109  1.00  0.00     0.000 C 
BRANCH   2   3
ATOM      3  C   UNL     1       2.082   0.889  -1.688  1.00  0.00     0.000 C 
BRANCH   3   4
ATOM      4  C   UNL     1       2.930   2.101  -1.267  1.00  0.00     0.006 C 
BRANCH   4   5
ATOM      5  C   UNL     1       2.219   2.990  -0.239  1.00  0.00     0.053 C 
BRANCH   5   6
ATOM      6  C   UNL     1       2.708   4.401  -0.343  1.00  0.00     0.041 C 
ATOM      7  O   UNL     1       1.939   5.310  -0.752  1.00  0.00    -0.550 OA
ATOM      8  O   UNL     1       3.999   4.720   0.060  1.00  0.00    -0.550 OA
ENDBRANCH   5   6
ENDBRANCH   4   5
ENDBRANCH   3   4
ENDBRANCH   2   3
ENDBRANCH   1   2
BRANCH   1   9
ATOM      9  C   UNL     1      -0.623  -1.326  -1.081  1.00  0.00     0.000 C 
BRANCH   9  10
ATOM     10  C   UNL     1      -1.997  -0.733  -1.428  1.00  0.00    -0.000 C 
BRANCH  10  11
ATOM     11  C   UNL     1      -3.128  -1.591  -0.848  1.00  0.00    -0.000 C 
BRANCH  11  12
ATOM     12  C   UNL     1      -3.060  -3.028  -1.385  1.00  0.00    -0.000 C 
BRANCH  12  13
ATOM     13  C   UNL     1      -2.926  -4.072  -0.265  1.00  0.00    -0.003 C 
ATOM     14  C   UNL     1      -2.931  -5.506  -0.792  1.00  0.00     0.004 C 
ENDBRANCH  12  13
ENDBRANCH  11  12
ENDBRANCH  10  11
ENDBRANCH   9  10
ENDBRANCH   1   9
TORSDOF 10
ENDMDL
MODEL 2
REMARK VINA RESULT:    -4.207      0.944      1.561
REMARK INTER + INTRA:          -7.105
REMARK INTER:                  -6.526
REMARK INTRA:                  -0.579
REMARK UNBOUND:                -0.438
REMARK SMILES CCCCCCCCCCCC(=O)[O-]
REMARK SMILES IDX 7 1 8 2 9 3 10 4 11 5 12 6 13 7 14 8 6 9 5 10 4 11 3 12 2 13
REMARK SMILES IDX 1 14
REMARK H PARENT
REMARK Flexibility Score: inf
ROOT
ATOM      1  C   UNL     1      -0.458  -0.951  -1.039  1.00  0.00     0.000 C 
ENDROOT
BRANCH   1   2
ATOM      2  C   UNL     1       0.257   0.393  -0.809  1.00  0.00     0.000 C 
BRANCH   2   3
ATOM      3  C   UNL     1       1.586   0.505  -1.577  1.00  0.00     0.000 C 
BRANCH   3   4
ATOM      4  C   UNL     1       2.680   1.215  -0.763  1.00  0.00     0.006 C 
BRANCH   4   5
ATOM      5  C   UNL     1       3.054   2.584  -1.344  1.00  0.00     0.053 C 
BRANCH   5   6
ATOM      6  C   UNL     1       2.645   3.677  -0.407  1.00  0.00     0.041 C 
ATOM      7  O   UNL     1       3.507   4.471   0.056  1.00  0.00    -0.550 OA
ATOM      8  O   UNL     1       1.306   3.851  -0.084  1.00  0.00    -0.550 OA
ENDBRANCH   5   6
ENDBRANCH   4   5
ENDBRANCH   3   4
ENDBRANCH   2   3
ENDBRANCH   1   2
BRANCH   1   9
ATOM      9  C   UNL     1      -1.884  -0.844  -1.608  1.00  0.00     0.000 C 
BRANCH   9  10
ATOM     10  C   UNL     1      -2.922  -1.612  -0.775  1.00  0.00    -0.000 C 
BRANCH  10  11
ATOM     11  C   UNL     1      -3.265  -2.956  -1.429  1.00  0.00    -0.000 C 
BRANCH  11  12
ATOM     12  C   UNL     1      -3.220  -4.096  -0.401  1.00  0.00    -0.000 C 
BRANCH  12  13
ATOM     13  C   UNL     1      -2.148  -5.147  -0.730  1.00  0.00    -0.003 C 
ATOM     14  C   UNL     1      -0.732  -4.661  -0.428  1.00  0.00     0.004 C 
ENDBRANCH  12  13
ENDBRANCH  11  12
ENDBRANCH  10  11
ENDBRANCH   9  10
ENDBRANCH   1   9
TORSDOF 10
ENDMDL
MODEL 3
REMARK VINA RESULT:    -4.198      4.475      8.141
REMARK INTER + INTRA:          -7.090
REMARK INTER:                  -6.577
REMARK INTRA:                  -0.513
REMARK UNBOUND:                -0.438
REMARK SMILES CCCCCCCCCCCC(=O)[O-]
REMARK SMILES IDX 7 1 8 2 9 3 10 4 11 5 12 6 13 7 14 8 6 9 5 10 4 11 3 12 2 13
REMARK SMILES IDX 1 14
REMARK H PARENT
REMARK Flexibility Score: inf
ROOT
ATOM      1  C   UNL     1      -0.275  -0.109  -0.281  1.00  0.00     0.000 C 
ENDROOT
BRANCH   1   2
ATOM      2  C   UNL     1      -0.723  -1.329  -1.106  1.00  0.00     0.000 C 
BRANCH   2   3
ATOM      3  C   UNL     1      -2.106  -1.139  -1.755  1.00  0.00     0.000 C 
BRANCH   3   4
ATOM      4  C   UNL     1      -3.088  -2.264  -1.390  1.00  0.00     0.006 C 
BRANCH   4   5
ATOM      5  C   UNL     1      -2.559  -3.169  -0.269  1.00  0.00     0.053 C 
BRANCH   5   6
ATOM      6  C   UNL     1      -2.906  -4.598  -0.547  1.00  0.00     0.041 C 
ATOM      7  O   UNL     1      -2.072  -5.355  -1.112  1.00  0.00    -0.550 OA
ATOM      8  O   UNL     1      -4.130  -5.109  -0.136  1.00  0.00    -0.550 OA
ENDBRANCH   5   6
ENDBRANCH   4   5
ENDBRANCH   3   4
ENDBRANCH   2   3
ENDBRANCH   1   2
BRANCH   1   9
ATOM      9  C   UNL     1       0.333   1.046  -1.098  1.00  0.00     0.000 C 
BRANCH   9  10
ATOM     10  C   UNL     1       1.688   0.687  -1.725  1.00  0.00    -0.000 C 
BRANCH  10  11
ATOM     11  C   UNL     1       2.769   1.693  -1.310  1.00  0.00    -0.000 C 
BRANCH  11  12
ATOM     12  C   UNL     1       2.178   2.808  -0.435  1.00  0.00    -0.000 C 
BRANCH  12  13
ATOM     13  C   UNL     1       3.069   4.059  -0.387  1.00  0.00    -0.003 C 
ATOM     14  C   UNL     1       2.295   5.346  -0.669  1.00  0.00     0.004 C 
ENDBRANCH  12  13
ENDBRANCH  11  12
ENDBRANCH  10  11
ENDBRANCH   9  10
ENDBRANCH   1   9
TORSDOF 10
ENDMDL
MODEL 4
REMARK VINA RESULT:    -4.143      4.227      7.978
REMARK INTER + INTRA:          -7.003
REMARK INTER:                  -6.459
REMARK INTRA:                  -0.545
REMARK UNBOUND:                -0.438
REMARK SMILES CCCCCCCCCCCC(=O)[O-]
REMARK SMILES IDX 7 1 8 2 9 3 10 4 11 5 12 6 13 7 14 8 6 9 5 10 4 11 3 12 2 13
REMARK SMILES IDX 1 14
REMARK H PARENT
REMARK Flexibility Score: inf
ROOT
ATOM      1  C   UNL     1       0.255   0.464  -0.750  1.00  0.00     0.000 C 
ENDROOT
BRANCH   1   2
ATOM      2  C   UNL     1      -0.440  -0.905  -0.861  1.00  0.00     0.000 C 
BRANCH   2   3
ATOM      3  C   UNL     1      -1.794  -0.833  -1.590  1.00  0.00     0.000 C 
BRANCH   3   4
ATOM      4  C   UNL     1      -2.896  -1.623  -0.865  1.00  0.00     0.006 C 
BRANCH   4   5
ATOM      5  C   UNL     1      -3.181  -2.979  -1.524  1.00  0.00     0.053 C 
BRANCH   5   6
ATOM      6  C   UNL     1      -2.786  -4.096  -0.609  1.00  0.00     0.041 C 
ATOM      7  O   UNL     1      -1.571  -4.305  -0.353  1.00  0.00    -0.550 OA
ATOM      8  O   UNL     1      -3.762  -4.874   0.000  1.00  0.00    -0.550 OA
ENDBRANCH   5   6
ENDBRANCH   4   5
ENDBRANCH   3   4
ENDBRANCH   2   3
ENDBRANCH   1   2
BRANCH   1   9
ATOM      9  C   UNL     1       1.556   0.605  -1.561  1.00  0.00     0.000 C 
BRANCH   9  10
ATOM     10  C   UNL     1       2.684   1.285  -0.771  1.00  0.00    -0.000 C 
BRANCH  10  11
ATOM     11  C   UNL     1       3.023   2.657  -1.368  1.00  0.00    -0.000 C 
BRANCH  11  12
ATOM     12  C   UNL     1       3.044   3.740  -0.279  1.00  0.00    -0.000 C 
BRANCH  12  13
ATOM     13  C   UNL     1       2.054   4.881  -0.560  1.00  0.00    -0.003 C 
ATOM     14  C   UNL     1       0.609   4.501  -0.240  1.00  0.00     0.004 C 
ENDBRANCH  12  13
ENDBRANCH  11  12
ENDBRANCH  10  11
ENDBRANCH   9  10
ENDBRANCH   1   9
TORSDOF 10
ENDMDL
MODEL 5
REMARK VINA RESULT:    -3.519      1.346      2.299
REMARK INTER + INTRA:          -6.014
REMARK INTER:                  -5.305
REMARK INTRA:                  -0.709
REMARK UNBOUND:                -0.438
REMARK SMILES CCCCCCCCCCCC(=O)[O-]
REMARK SMILES IDX 7 1 8 2 9 3 10 4 11 5 12 6 13 7 14 8 6 9 5 10 4 11 3 12 2 13
REMARK SMILES IDX 1 14
REMARK H PARENT
REMARK Flexibility Score: inf
ROOT
ATOM      1  C   UNL     1      -0.573  -1.416  -1.253  1.00  0.00     0.000 C 
ENDROOT
BRANCH   1   2
ATOM      2  C   UNL     1       0.174  -0.722  -0.100  1.00  0.00     0.000 C 
BRANCH   2   3
ATOM      3  C   UNL     1      -0.167   0.774   0.021  1.00  0.00     0.000 C 
BRANCH   3   4
ATOM      4  C   UNL     1       0.447   1.612  -1.112  1.00  0.00     0.006 C 
BRANCH   4   5
ATOM      5  C   UNL     1       1.835   1.112  -1.533  1.00  0.00     0.053 C 
BRANCH   5   6
ATOM      6  C   UNL     1       2.902   1.836  -0.773  1.00  0.00     0.041 C 
ATOM      7  O   UNL     1       3.862   1.198  -0.265  1.00  0.00    -0.550 OA
ATOM      8  O   UNL     1       2.863   3.220  -0.670  1.00  0.00    -0.550 OA
ENDBRANCH   5   6
ENDBRANCH   4   5
ENDBRANCH   3   4
ENDBRANCH   2   3
ENDBRANCH   1   2
BRANCH   1   9
ATOM      9  C   UNL     1      -1.949  -0.816  -1.596  1.00  0.00     0.000 C 
BRANCH   9  10
ATOM     10  C   UNL     1      -3.107  -1.525  -0.878  1.00  0.00    -0.000 C 
BRANCH  10  11
ATOM     11  C   UNL     1      -3.323  -2.935  -1.442  1.00  0.00    -0.000 C 
BRANCH  11  12
ATOM     12  C   UNL     1      -3.168  -3.997  -0.343  1.00  0.00    -0.000 C 
BRANCH  12  13
ATOM     13  C   UNL     1      -2.236  -5.146  -0.759  1.00  0.00    -0.003 C 
ATOM     14  C   UNL     1      -0.776  -4.883  -0.396  1.00  0.00     0.004 C 
ENDBRANCH  12  13
ENDBRANCH  11  12
ENDBRANCH  10  11
ENDBRANCH   9  10
ENDBRANCH   1   9
TORSDOF 10
ENDMDL
MODEL 6
REMARK VINA RESULT:    -1.672      1.684      2.239
REMARK INTER + INTRA:          -3.087
REMARK INTER:                  -2.604
REMARK INTRA:                  -0.483
REMARK UNBOUND:                -0.438
REMARK SMILES CCCCCCCCCCCC(=O)[O-]
REMARK SMILES IDX 7 1 8 2 9 3 10 4 11 5 12 6 13 7 14 8 6 9 5 10 4 11 3 12 2 13
REMARK SMILES IDX 1 14
REMARK H PARENT
REMARK Flexibility Score: inf
ROOT
ATOM      1  C   UNL     1      -0.394   1.354  -1.315  1.00  0.00     0.000 C 
ENDROOT
BRANCH   1   2
ATOM      2  C   UNL     1      -0.598   2.743  -0.685  1.00  0.00     0.000 C 
BRANCH   2   3
ATOM      3  C   UNL     1       0.592   3.188   0.185  1.00  0.00     0.000 C 
BRANCH   3   4
ATOM      4  C   UNL     1       1.511   4.185  -0.539  1.00  0.00     0.006 C 
BRANCH   4   5
ATOM      5  C   UNL     1       2.971   3.717  -0.586  1.00  0.00     0.053 C 
BRANCH   5   6
ATOM      6  C   UNL     1       3.045   2.280  -0.996  1.00  0.00     0.041 C 
ATOM      7  O   UNL     1       2.626   1.921  -2.128  1.00  0.00    -0.550 OA
ATOM      8  O   UNL     1       3.623   1.344  -0.147  1.00  0.00    -0.550 OA
ENDBRANCH   5   6
ENDBRANCH   4   5
ENDBRANCH   3   4
ENDBRANCH   2   3
ENDBRANCH   1   2
BRANCH   1   9
ATOM      9  C   UNL     1      -0.335   0.184  -0.316  1.00  0.00     0.000 C 
BRANCH   9  10
ATOM     10  C   UNL     1      -0.588  -1.181  -0.974  1.00  0.00    -0.000 C 
BRANCH  10  11
ATOM     11  C   UNL     1      -1.864  -1.152  -1.824  1.00  0.00    -0.000 C 
BRANCH  11  12
ATOM     12  C   UNL     1      -2.971  -2.003  -1.185  1.00  0.00    -0.000 C 
BRANCH  12  13
ATOM     13  C   UNL     1      -2.415  -3.174  -0.360  1.00  0.00    -0.003 C 
ATOM     14  C   UNL     1      -3.082  -4.506  -0.702  1.00  0.00     0.004 C 
ENDBRANCH  12  13
ENDBRANCH  11  12
ENDBRANCH  10  11
ENDBRANCH   9  10
ENDBRANCH   1   9
TORSDOF 10
ENDMDL
MODEL 7
REMARK VINA RESULT:    -1.565      1.210      2.106
REMARK INTER + INTRA:          -2.918
REMARK INTER:                  -2.597
REMARK INTRA:                  -0.321
REMARK UNBOUND:                -0.438
REMARK SMILES CCCCCCCCCCCC(=O)[O-]
REMARK SMILES IDX 7 1 8 2 9 3 10 4 11 5 12 6 13 7 14 8 6 9 5 10 4 11 3 12 2 13
REMARK SMILES IDX 1 14
REMARK H PARENT
REMARK Flexibility Score: inf
ROOT
ATOM      1  C   UNL     1       1.553   0.671  -1.022  1.00  0.00     0.000 C 
ENDROOT
BRANCH   1   2
ATOM      2  C   UNL     1       2.309   1.681  -1.905  1.00  0.00     0.000 C 
BRANCH   2   3
ATOM      3  C   UNL     1       3.212   2.628  -1.095  1.00  0.00     0.000 C 
BRANCH   3   4
ATOM      4  C   UNL     1       2.413   3.540  -0.149  1.00  0.00     0.006 C 
BRANCH   4   5
ATOM      5  C   UNL     1       2.179   4.939  -0.735  1.00  0.00     0.053 C 
BRANCH   5   6
ATOM      6  C   UNL     1       3.316   5.847  -0.386  1.00  0.00     0.041 C 
ATOM      7  O   UNL     1       3.241   7.080  -0.630  1.00  0.00    -0.550 OA
ATOM      8  O   UNL     1       4.438   5.340   0.257  1.00  0.00    -0.550 OA
ENDBRANCH   5   6
ENDBRANCH   4   5
ENDBRANCH   3   4
ENDBRANCH   2   3
ENDBRANCH   1   2
BRANCH   1   9
ATOM      9  C   UNL     1       0.958  -0.534  -1.772  1.00  0.00     0.000 C 
BRANCH   9  10
ATOM     10  C   UNL     1       0.291  -1.553  -0.835  1.00  0.00    -0.000 C 
BRANCH  10  11
ATOM     11  C   UNL     1      -1.076  -1.047  -0.357  1.00  0.00    -0.000 C 
BRANCH  11  12
ATOM     12  C   UNL     1      -1.994  -0.732  -1.547  1.00  0.00    -0.000 C 
BRANCH  12  13
ATOM     13  C   UNL     1      -2.998  -1.860  -1.833  1.00  0.00    -0.003 C 
ATOM     14  C   UNL     1      -2.964  -2.963  -0.776  1.00  0.00     0.004 C 
ENDBRANCH  12  13
ENDBRANCH  11  12
ENDBRANCH  10  11
ENDBRANCH   9  10
ENDBRANCH   1   9
TORSDOF 10
ENDMDL
MODEL 8
REMARK VINA RESULT:    -1.488      3.939      7.885
REMARK INTER + INTRA:          -2.795
REMARK INTER:                  -2.301
REMARK INTRA:                  -0.494
REMARK UNBOUND:                -0.438
REMARK SMILES CCCCCCCCCCCC(=O)[O-]
REMARK SMILES IDX 7 1 8 2 9 3 10 4 11 5 12 6 13 7 14 8 6 9 5 10 4 11 3 12 2 13
REMARK SMILES IDX 1 14
REMARK H PARENT
REMARK Flexibility Score: inf
ROOT
ATOM      1  C   UNL     1       0.153   1.560  -1.168  1.00  0.00     0.000 C 
ENDROOT
BRANCH   1   2
ATOM      2  C   UNL     1       1.008   0.281  -1.196  1.00  0.00     0.000 C 
BRANCH   2   3
ATOM      3  C   UNL     1       0.171  -1.003  -1.056  1.00  0.00     0.000 C 
BRANCH   3   4
ATOM      4  C   UNL     1      -1.339  -0.720  -0.999  1.00  0.00     0.006 C 
BRANCH   4   5
ATOM      5  C   UNL     1      -2.162  -1.736  -1.803  1.00  0.00     0.053 C 
BRANCH   5   6
ATOM      6  C   UNL     1      -3.180  -2.393  -0.925  1.00  0.00     0.041 C 
ATOM      7  O   UNL     1      -3.125  -3.633  -0.708  1.00  0.00    -0.550 OA
ATOM      8  O   UNL     1      -4.159  -1.629  -0.304  1.00  0.00    -0.550 OA
ENDBRANCH   5   6
ENDBRANCH   4   5
ENDBRANCH   3   4
ENDBRANCH   2   3
ENDBRANCH   1   2
BRANCH   1   9
ATOM      9  C   UNL     1       0.431   2.507   0.014  1.00  0.00     0.000 C 
BRANCH   9  10
ATOM     10  C   UNL     1       0.061   3.967  -0.288  1.00  0.00    -0.000 C 
BRANCH  10  11
ATOM     11  C   UNL     1       1.317   4.808  -0.554  1.00  0.00    -0.000 C 
BRANCH  11  12
ATOM     12  C   UNL     1       2.589   3.964  -0.393  1.00  0.00    -0.000 C 
BRANCH  12  13
ATOM     13  C   UNL     1       3.810   4.805   0.013  1.00  0.00    -0.003 C 
ATOM     14  C   UNL     1       3.670   6.275  -0.378  1.00  0.00     0.004 C 
ENDBRANCH  12  13
ENDBRANCH  11  12
ENDBRANCH  10  11
ENDBRANCH   9  10
ENDBRANCH   1   9
TORSDOF 10
ENDMDL
MODEL 9
REMARK VINA RESULT:    -1.324     12.649     14.088
REMARK INTER + INTRA:          -2.535
REMARK INTER:                  -1.931
REMARK INTRA:                  -0.604
REMARK UNBOUND:                -0.438
REMARK SMILES CCCCCCCCCCCC(=O)[O-]
REMARK SMILES IDX 7 1 8 2 9 3 10 4 11 5 12 6 13 7 14 8 6 9 5 10 4 11 3 12 2 13
REMARK SMILES IDX 1 14
REMARK H PARENT
REMARK Flexibility Score: inf
ROOT
ATOM      1  C   UNL     1       8.697   3.575   7.679  1.00  0.00     0.000 C 
ENDROOT
BRANCH   1   2
ATOM      2  C   UNL     1       9.245   4.994   7.911  1.00  0.00     0.000 C 
BRANCH   2   3
ATOM      3  C   UNL     1      10.076   5.114   9.201  1.00  0.00     0.000 C 
BRANCH   3   4
ATOM      4  C   UNL     1       9.602   6.265  10.103  1.00  0.00     0.006 C 
BRANCH   4   5
ATOM      5  C   UNL     1      10.053   7.640   9.592  1.00  0.00     0.053 C 
BRANCH   5   6
ATOM      6  C   UNL     1       8.865   8.475   9.228  1.00  0.00     0.041 C 
ATOM      7  O   UNL     1       8.203   9.061  10.125  1.00  0.00    -0.550 OA
ATOM      8  O   UNL     1       8.520   8.648   7.894  1.00  0.00    -0.550 OA
ENDBRANCH   5   6
ENDBRANCH   4   5
ENDBRANCH   3   4
ENDBRANCH   2   3
ENDBRANCH   1   2
BRANCH   1   9
ATOM      9  C   UNL     1       9.242   2.499   8.636  1.00  0.00     0.000 C 
BRANCH   9  10
ATOM     10  C   UNL     1       9.757   1.251   7.904  1.00  0.00    -0.000 C 
BRANCH  10  11
ATOM     11  C   UNL     1      10.123   0.142   8.900  1.00  0.00    -0.000 C 
BRANCH  11  12
ATOM     12  C   UNL     1       9.152   0.127  10.089  1.00  0.00    -0.000 C 
BRANCH  12  13
ATOM     13  C   UNL     1       8.246  -1.115  10.096  1.00  0.00    -0.003 C 
ATOM     14  C   UNL     1       6.776  -0.775   9.860  1.00  0.00     0.004 C 
ENDBRANCH  12  13
ENDBRANCH  11  12
ENDBRANCH  10  11
ENDBRANCH   9  10
ENDBRANCH   1   9
TORSDOF 10
ENDMDL
