MODEL 1
REMARK VINA RESULT:    -3.488      0.000      0.000
REMARK INTER + INTRA:          -3.919
REMARK INTER:                  -3.793
REMARK INTRA:                  -0.126
REMARK UNBOUND:                -0.126
REMARK SMILES Cc1ccc(C(C)C)cc1O
REMARK SMILES IDX 1 1 2 2 10 3 9 4 5 5 4 6 3 7 11 8 6 10 7 11 8 12
REMARK H PARENT 11 9
REMARK Flexibility Score: inf
ROOT
ATOM      1  C   UNL     1     131.035 141.884 139.818  1.00  0.00     0.048 C 
ATOM      2  C   UNL     1     132.359 141.925 140.525  1.00  0.00    -0.009 A 
ATOM      3  C   UNL     1     133.022 143.149 140.717  1.00  0.00     0.118 A 
ATOM      4  C   UNL     1     134.260 143.179 141.379  1.00  0.00     0.050 A 
ATOM      5  C   UNL     1     134.847 141.995 141.857  1.00  0.00    -0.042 A 
ATOM      6  C   UNL     1     134.175 140.775 141.660  1.00  0.00     0.004 A 
ATOM      7  C   UNL     1     132.943 140.741 141.001  1.00  0.00     0.007 A 
ENDROOT
BRANCH   3   8
ATOM      8  O   UNL     1     132.453 144.333 140.249  1.00  0.00    -0.508 OA
ATOM      9  H   UNL     1     132.230 144.465 139.270  1.00  0.00     0.293 HD
ENDBRANCH   3   8
BRANCH   5  10
ATOM     10  C   UNL     1     136.185 142.046 142.571  1.00  0.00     0.013 C 
ATOM     11  C   UNL     1     137.101 140.907 142.109  1.00  0.00     0.012 C 
ATOM     12  C   UNL     1     136.000 142.023 144.093  1.00  0.00     0.012 C 
ENDBRANCH   5  10
TORSDOF 2
ENDMDL
MODEL 2
REMARK VINA RESULT:    -3.451      1.386      1.842
REMARK INTER + INTRA:          -3.879
REMARK INTER:                  -3.754
REMARK INTRA:                  -0.126
REMARK UNBOUND:                -0.126
REMARK SMILES Cc1ccc(C(C)C)cc1O
REMARK SMILES IDX 1 1 2 2 10 3 9 4 5 5 4 6 3 7 11 8 6 10 7 11 8 12
REMARK H PARENT 11 9
REMARK Flexibility Score: inf
ROOT
ATOM      1  C   UNL     1     133.045 140.968 139.609  1.00  0.00     0.048 C 
ATOM      2  C   UNL     1     134.089 141.244 140.653  1.00  0.00    -0.009 A 
ATOM      3  C   UNL     1     133.848 142.190 141.664  1.00  0.00     0.118 A 
ATOM      4  C   UNL     1     134.828 142.443 142.636  1.00  0.00     0.050 A 
ATOM      5  C   UNL     1     136.054 141.757 142.614  1.00  0.00    -0.042 A 
ATOM      6  C   UNL     1     136.286 140.810 141.599  1.00  0.00     0.004 A 
ATOM      7  C   UNL     1     135.312 140.557 140.629  1.00  0.00     0.007 A 
ENDROOT
BRANCH   3   8
ATOM      8  O   UNL     1     132.637 142.881 141.700  1.00  0.00    -0.508 OA
ATOM      9  H   UNL     1     132.451 143.594 142.395  1.00  0.00     0.293 HD
ENDBRANCH   3   8
BRANCH   5  10
ATOM     10  C   UNL     1     137.103 142.041 143.673  1.00  0.00     0.013 C 
ATOM     11  C   UNL     1     137.978 140.809 143.929  1.00  0.00     0.012 C 
ATOM     12  C   UNL     1     136.456 142.538 144.972  1.00  0.00     0.012 C 
ENDBRANCH   5  10
TORSDOF 2
ENDMDL
MODEL 3
REMARK VINA RESULT:    -3.425     11.562     14.425
REMARK INTER + INTRA:          -3.851
REMARK INTER:                  -3.725
REMARK INTRA:                  -0.126
REMARK UNBOUND:                -0.126
REMARK SMILES Cc1ccc(C(C)C)cc1O
REMARK SMILES IDX 1 1 2 2 10 3 9 4 5 5 4 6 3 7 11 8 6 10 7 11 8 12
REMARK H PARENT 11 9
REMARK Flexibility Score: inf
ROOT
ATOM      1  C   UNL     1     150.586 139.778 139.835  1.00  0.00     0.048 C 
ATOM      2  C   UNL     1     149.270 139.713 140.555  1.00  0.00    -0.009 A 
ATOM      3  C   UNL     1     148.638 138.475 140.766  1.00  0.00     0.118 A 
ATOM      4  C   UNL     1     147.408 138.422 141.441  1.00  0.00     0.050 A 
ATOM      5  C   UNL     1     146.797 139.596 141.911  1.00  0.00    -0.042 A 
ATOM      6  C   UNL     1     147.438 140.830 141.696  1.00  0.00     0.004 A 
ATOM      7  C   UNL     1     148.662 140.887 141.024  1.00  0.00     0.007 A 
ENDROOT
BRANCH   3   8
ATOM      8  O   UNL     1     149.231 137.300 140.305  1.00  0.00    -0.508 OA
ATOM      9  H   UNL     1     150.206 137.090 140.484  1.00  0.00     0.293 HD
ENDBRANCH   3   8
BRANCH   5  10
ATOM     10  C   UNL     1     145.468 139.521 142.639  1.00  0.00     0.013 C 
ATOM     11  C   UNL     1     144.531 140.650 142.195  1.00  0.00     0.012 C 
ATOM     12  C   UNL     1     145.668 139.536 144.159  1.00  0.00     0.012 C 
ENDBRANCH   5  10
TORSDOF 2
ENDMDL
MODEL 4
REMARK VINA RESULT:    -3.422      8.675     10.136
REMARK INTER + INTRA:          -3.847
REMARK INTER:                  -3.722
REMARK INTRA:                  -0.126
REMARK UNBOUND:                -0.126
REMARK SMILES Cc1ccc(C(C)C)cc1O
REMARK SMILES IDX 1 1 2 2 10 3 9 4 5 5 4 6 3 7 11 8 6 10 7 11 8 12
REMARK H PARENT 11 9
REMARK Flexibility Score: inf
ROOT
ATOM      1  C   UNL     1     141.844 150.590 139.854  1.00  0.00     0.048 C 
ATOM      2  C   UNL     1     141.872 149.265 140.562  1.00  0.00    -0.009 A 
ATOM      3  C   UNL     1     143.090 148.595 140.763  1.00  0.00     0.118 A 
ATOM      4  C   UNL     1     143.108 147.357 141.425  1.00  0.00     0.050 A 
ATOM      5  C   UNL     1     141.917 146.777 141.894  1.00  0.00    -0.042 A 
ATOM      6  C   UNL     1     140.702 147.457 141.688  1.00  0.00     0.004 A 
ATOM      7  C   UNL     1     140.681 148.688 141.029  1.00  0.00     0.007 A 
ENDROOT
BRANCH   3   8
ATOM      8  O   UNL     1     144.281 149.157 140.304  1.00  0.00    -0.508 OA
ATOM      9  H   UNL     1     145.179 148.724 140.485  1.00  0.00     0.293 HD
ENDBRANCH   3   8
BRANCH   5  10
ATOM     10  C   UNL     1     141.954 145.439 142.608  1.00  0.00     0.013 C 
ATOM     11  C   UNL     1     140.801 144.538 142.153  1.00  0.00     0.012 C 
ATOM     12  C   UNL     1     141.942 145.624 144.131  1.00  0.00     0.012 C 
ENDBRANCH   5  10
TORSDOF 2
ENDMDL
MODEL 5
REMARK VINA RESULT:    -3.410      7.946      9.086
REMARK INTER + INTRA:          -3.834
REMARK INTER:                  -3.708
REMARK INTRA:                  -0.126
REMARK UNBOUND:                -0.126
REMARK SMILES Cc1ccc(C(C)C)cc1O
REMARK SMILES IDX 1 1 2 2 10 3 9 4 5 5 4 6 3 7 11 8 6 10 7 11 8 12
REMARK H PARENT 11 9
REMARK Flexibility Score: inf
ROOT
ATOM      1  C   UNL     1     140.838 148.700 139.701  1.00  0.00     0.048 C 
ATOM      2  C   UNL     1     141.167 147.607 140.677  1.00  0.00    -0.009 A 
ATOM      3  C   UNL     1     142.194 147.785 141.620  1.00  0.00     0.118 A 
ATOM      4  C   UNL     1     142.496 146.759 142.529  1.00  0.00     0.050 A 
ATOM      5  C   UNL     1     141.780 145.551 142.511  1.00  0.00    -0.042 A 
ATOM      6  C   UNL     1     140.752 145.383 141.565  1.00  0.00     0.004 A 
ATOM      7  C   UNL     1     140.450 146.401 140.658  1.00  0.00     0.007 A 
ENDROOT
BRANCH   3   8
ATOM      8  O   UNL     1     142.915 148.978 141.650  1.00  0.00    -0.508 OA
ATOM      9  H   UNL     1     143.895 149.015 141.395  1.00  0.00     0.293 HD
ENDBRANCH   3   8
BRANCH   5  10
ATOM     10  C   UNL     1     142.118 144.453 143.502  1.00  0.00     0.013 C 
ATOM     11  C   UNL     1     140.907 143.551 143.763  1.00  0.00     0.012 C 
ATOM     12  C   UNL     1     142.663 145.037 144.812  1.00  0.00     0.012 C 
ENDBRANCH   5  10
TORSDOF 2
ENDMDL
MODEL 6
REMARK VINA RESULT:    -3.401     10.863     13.146
REMARK INTER + INTRA:          -3.825
REMARK INTER:                  -3.699
REMARK INTRA:                  -0.126
REMARK UNBOUND:                -0.126
REMARK SMILES Cc1ccc(C(C)C)cc1O
REMARK SMILES IDX 1 1 2 2 10 3 9 4 5 5 4 6 3 7 11 8 6 10 7 11 8 12
REMARK H PARENT 11 9
REMARK Flexibility Score: inf
ROOT
ATOM      1  C   UNL     1     148.672 140.919 139.578  1.00  0.00     0.048 C 
ATOM      2  C   UNL     1     147.604 140.571 140.575  1.00  0.00    -0.009 A 
ATOM      3  C   UNL     1     147.852 139.611 141.572  1.00  0.00     0.118 A 
ATOM      4  C   UNL     1     146.850 139.291 142.501  1.00  0.00     0.050 A 
ATOM      5  C   UNL     1     145.596 139.921 142.449  1.00  0.00    -0.042 A 
ATOM      6  C   UNL     1     145.357 140.881 141.448  1.00  0.00     0.004 A 
ATOM      7  C   UNL     1     146.352 141.202 140.521  1.00  0.00     0.007 A 
ENDROOT
BRANCH   3   8
ATOM      8  O   UNL     1     149.092 138.976 141.637  1.00  0.00    -0.508 OA
ATOM      9  H   UNL     1     149.173 137.987 141.843  1.00  0.00     0.293 HD
ENDBRANCH   3   8
BRANCH   5  10
ATOM     10  C   UNL     1     144.523 139.564 143.461  1.00  0.00     0.013 C 
ATOM     11  C   UNL     1     143.576 140.744 143.703  1.00  0.00     0.012 C 
ATOM     12  C   UNL     1     145.144 139.076 144.776  1.00  0.00     0.012 C 
ENDBRANCH   5  10
TORSDOF 2
ENDMDL
MODEL 7
REMARK VINA RESULT:    -3.392      9.104     11.162
REMARK INTER + INTRA:          -3.816
REMARK INTER:                  -3.703
REMARK INTRA:                  -0.113
REMARK UNBOUND:                -0.126
REMARK SMILES Cc1ccc(C(C)C)cc1O
REMARK SMILES IDX 1 1 2 2 10 3 9 4 5 5 4 6 3 7 11 8 6 10 7 11 8 12
REMARK H PARENT 11 9
REMARK Flexibility Score: inf
ROOT
ATOM      1  C   UNL     1     139.618 135.337 143.024  1.00  0.00     0.048 C 
ATOM      2  C   UNL     1     139.859 134.416 141.862  1.00  0.00    -0.009 A 
ATOM      3  C   UNL     1     138.801 134.060 141.009  1.00  0.00     0.118 A 
ATOM      4  C   UNL     1     139.034 133.199 139.925  1.00  0.00     0.050 A 
ATOM      5  C   UNL     1     140.318 132.687 139.679  1.00  0.00    -0.042 A 
ATOM      6  C   UNL     1     141.372 133.049 140.539  1.00  0.00     0.004 A 
ATOM      7  C   UNL     1     141.143 133.906 141.619  1.00  0.00     0.007 A 
ENDROOT
BRANCH   3   8
ATOM      8  O   UNL     1     137.519 134.560 141.239  1.00  0.00    -0.508 OA
ATOM      9  H   UNL     1     137.337 135.555 141.290  1.00  0.00     0.293 HD
ENDBRANCH   3   8
BRANCH   5  10
ATOM     10  C   UNL     1     140.553 131.757 138.503  1.00  0.00     0.013 C 
ATOM     11  C   UNL     1     141.425 132.428 137.435  1.00  0.00     0.012 C 
ATOM     12  C   UNL     1     139.226 131.273 137.907  1.00  0.00     0.012 C 
ENDBRANCH   5  10
TORSDOF 2
ENDMDL
MODEL 8
REMARK VINA RESULT:    -3.378      8.723     10.178
REMARK INTER + INTRA:          -3.799
REMARK INTER:                  -3.675
REMARK INTRA:                  -0.125
REMARK UNBOUND:                -0.126
REMARK SMILES Cc1ccc(C(C)C)cc1O
REMARK SMILES IDX 1 1 2 2 10 3 9 4 5 5 4 6 3 7 11 8 6 10 7 11 8 12
REMARK H PARENT 11 9
REMARK Flexibility Score: inf
ROOT
ATOM      1  C   UNL     1     139.752 131.184 139.667  1.00  0.00     0.048 C 
ATOM      2  C   UNL     1     139.719 132.446 140.480  1.00  0.00    -0.009 A 
ATOM      3  C   UNL     1     138.496 133.086 140.744  1.00  0.00     0.118 A 
ATOM      4  C   UNL     1     138.473 134.266 141.505  1.00  0.00     0.050 A 
ATOM      5  C   UNL     1     139.662 134.817 142.010  1.00  0.00    -0.042 A 
ATOM      6  C   UNL     1     140.881 134.169 141.741  1.00  0.00     0.004 A 
ATOM      7  C   UNL     1     140.908 132.995 140.983  1.00  0.00     0.007 A 
ENDROOT
BRANCH   3   8
ATOM      8  O   UNL     1     137.307 132.552 140.249  1.00  0.00    -0.508 OA
ATOM      9  H   UNL     1     136.803 132.990 139.488  1.00  0.00     0.293 HD
ENDBRANCH   3   8
BRANCH   5  10
ATOM     10  C   UNL     1     139.618 136.092 142.831  1.00  0.00     0.013 C 
ATOM     11  C   UNL     1     140.548 137.160 142.243  1.00  0.00     0.012 C 
ATOM     12  C   UNL     1     139.957 135.816 144.301  1.00  0.00     0.012 C 
ENDBRANCH   5  10
TORSDOF 2
ENDMDL
MODEL 9
REMARK VINA RESULT:    -3.362     12.981     14.999
REMARK INTER + INTRA:          -3.782
REMARK INTER:                  -3.665
REMARK INTRA:                  -0.117
REMARK UNBOUND:                -0.126
REMARK SMILES Cc1ccc(C(C)C)cc1O
REMARK SMILES IDX 1 1 2 2 10 3 9 4 5 5 4 6 3 7 11 8 6 10 7 11 8 12
REMARK H PARENT 11 9
REMARK Flexibility Score: inf
ROOT
ATOM      1  C   UNL     1     146.339 139.818 143.030  1.00  0.00     0.048 C 
ATOM      2  C   UNL     1     147.280 139.967 141.869  1.00  0.00    -0.009 A 
ATOM      3  C   UNL     1     147.655 138.844 141.112  1.00  0.00     0.118 A 
ATOM      4  C   UNL     1     148.535 138.991 140.029  1.00  0.00     0.050 A 
ATOM      5  C   UNL     1     149.048 140.253 139.688  1.00  0.00    -0.042 A 
ATOM      6  C   UNL     1     148.666 141.372 140.451  1.00  0.00     0.004 A 
ATOM      7  C   UNL     1     147.791 141.229 141.530  1.00  0.00     0.007 A 
ENDROOT
BRANCH   3   8
ATOM      8  O   UNL     1     147.155 137.583 141.438  1.00  0.00    -0.508 OA
ATOM      9  H   UNL     1     147.199 136.809 140.788  1.00  0.00     0.293 HD
ENDBRANCH   3   8
BRANCH   5  10
ATOM     10  C   UNL     1     149.997 140.395 138.513  1.00  0.00     0.013 C 
ATOM     11  C   UNL     1     149.427 141.343 137.452  1.00  0.00     0.012 C 
ATOM     12  C   UNL     1     150.335 139.027 137.906  1.00  0.00     0.012 C 
ENDBRANCH   5  10
TORSDOF 2
ENDMDL
