MODEL 1
REMARK VINA RESULT:    -4.686      0.000      0.000
REMARK INTER + INTRA:          -5.285
REMARK INTER:                  -5.097
REMARK INTRA:                  -0.188
REMARK UNBOUND:                -0.188
REMARK SMILES C=C(C)[C@@H]1CC[C@@H](C)C[C@H]1O
REMARK SMILES IDX 8 1 7 2 6 3 5 4 4 5 10 6 9 7 11 8 2 10 1 11 3 12
REMARK H PARENT 11 9
REMARK Flexibility Score: inf
ROOT
ATOM      1  C   UNL     1     185.366 192.298 187.753  1.00  0.00     0.008 C 
ATOM      2  C   UNL     1     185.272 190.940 188.457  1.00  0.00    -0.012 C 
ATOM      3  C   UNL     1     184.973 189.823 187.441  1.00  0.00     0.004 C 
ATOM      4  C   UNL     1     184.860 188.462 188.138  1.00  0.00     0.011 C 
ATOM      5  C   UNL     1     183.781 188.494 189.240  1.00  0.00     0.043 C 
ATOM      6  C   UNL     1     184.071 189.615 190.265  1.00  0.00     0.121 C 
ATOM      7  C   UNL     1     184.191 190.976 189.555  1.00  0.00     0.035 C 
ENDROOT
BRANCH   6   8
ATOM      8  O   UNL     1     183.030 189.666 191.206  1.00  0.00    -0.392 OA
ATOM      9  H   UNL     1     182.435 188.893 191.019  1.00  0.00     0.210 HD
ENDBRANCH   6   8
BRANCH   5  10
ATOM     10  C   UNL     1     183.648 187.133 189.915  1.00  0.00    -0.075 C 
ATOM     11  C   UNL     1     184.656 186.606 190.630  1.00  0.00     0.008 C 
ATOM     12  C   UNL     1     182.367 186.349 189.789  1.00  0.00     0.039 C 
ENDBRANCH   5  10
TORSDOF 2
ENDMDL
MODEL 2
REMARK VINA RESULT:    -4.401      1.407      2.145
REMARK INTER + INTRA:          -4.975
REMARK INTER:                  -4.795
REMARK INTRA:                  -0.180
REMARK UNBOUND:                -0.188
REMARK SMILES C=C(C)[C@@H]1CC[C@@H](C)C[C@H]1O
REMARK SMILES IDX 8 1 7 2 6 3 5 4 4 5 10 6 9 7 11 8 2 10 1 11 3 12
REMARK H PARENT 11 9
REMARK Flexibility Score: inf
ROOT
ATOM      1  C   UNL     1     186.071 193.974 188.887  1.00  0.00     0.008 C 
ATOM      2  C   UNL     1     185.955 192.450 188.991  1.00  0.00    -0.012 C 
ATOM      3  C   UNL     1     186.044 191.804 187.595  1.00  0.00     0.004 C 
ATOM      4  C   UNL     1     185.913 190.280 187.686  1.00  0.00     0.011 C 
ATOM      5  C   UNL     1     184.597 189.879 188.384  1.00  0.00     0.043 C 
ATOM      6  C   UNL     1     184.497 190.524 189.787  1.00  0.00     0.121 C 
ATOM      7  C   UNL     1     184.638 192.054 189.686  1.00  0.00     0.035 C 
ENDROOT
BRANCH   6   8
ATOM      8  O   UNL     1     183.255 190.204 190.359  1.00  0.00    -0.392 OA
ATOM      9  H   UNL     1     182.570 190.334 189.651  1.00  0.00     0.210 HD
ENDBRANCH   6   8
BRANCH   5  10
ATOM     10  C   UNL     1     184.452 188.362 188.449  1.00  0.00    -0.075 C 
ATOM     11  C   UNL     1     183.396 187.738 187.901  1.00  0.00     0.008 C 
ATOM     12  C   UNL     1     185.504 187.531 189.136  1.00  0.00     0.039 C 
ENDBRANCH   5  10
TORSDOF 2
ENDMDL
MODEL 3
REMARK VINA RESULT:    -4.350      1.565      2.363
REMARK INTER + INTRA:          -4.920
REMARK INTER:                  -4.725
REMARK INTRA:                  -0.195
REMARK UNBOUND:                -0.188
REMARK SMILES C=C(C)[C@@H]1CC[C@@H](C)C[C@H]1O
REMARK SMILES IDX 8 1 7 2 6 3 5 4 4 5 10 6 9 7 11 8 2 10 1 11 3 12
REMARK H PARENT 11 9
REMARK Flexibility Score: inf
ROOT
ATOM      1  C   UNL     1     185.032 191.876 187.345  1.00  0.00     0.008 C 
ATOM      2  C   UNL     1     184.324 190.826 188.208  1.00  0.00    -0.012 C 
ATOM      3  C   UNL     1     184.732 190.977 189.686  1.00  0.00     0.004 C 
ATOM      4  C   UNL     1     184.042 189.921 190.556  1.00  0.00     0.011 C 
ATOM      5  C   UNL     1     184.355 188.497 190.051  1.00  0.00     0.043 C 
ATOM      6  C   UNL     1     183.950 188.336 188.566  1.00  0.00     0.121 C 
ATOM      7  C   UNL     1     184.642 189.406 187.701  1.00  0.00     0.035 C 
ENDROOT
BRANCH   6   8
ATOM      8  O   UNL     1     184.322 187.058 188.119  1.00  0.00    -0.392 OA
ATOM      9  H   UNL     1     183.490 186.517 188.074  1.00  0.00     0.210 HD
ENDBRANCH   6   8
BRANCH   5  10
ATOM     10  C   UNL     1     183.693 187.445 190.934  1.00  0.00    -0.075 C 
ATOM     11  C   UNL     1     182.363 187.436 191.132  1.00  0.00     0.008 C 
ATOM     12  C   UNL     1     184.528 186.385 191.603  1.00  0.00     0.039 C 
ENDBRANCH   5  10
TORSDOF 2
ENDMDL
MODEL 4
REMARK VINA RESULT:    -4.265      1.720      4.515
REMARK INTER + INTRA:          -4.827
REMARK INTER:                  -4.632
REMARK INTRA:                  -0.196
REMARK UNBOUND:                -0.188
REMARK SMILES C=C(C)[C@@H]1CC[C@@H](C)C[C@H]1O
REMARK SMILES IDX 8 1 7 2 6 3 5 4 4 5 10 6 9 7 11 8 2 10 1 11 3 12
REMARK H PARENT 11 9
REMARK Flexibility Score: inf
ROOT
ATOM      1  C   UNL     1     182.013 185.889 190.062  1.00  0.00     0.008 C 
ATOM      2  C   UNL     1     183.149 186.918 190.043  1.00  0.00    -0.012 C 
ATOM      3  C   UNL     1     182.810 188.115 190.950  1.00  0.00     0.004 C 
ATOM      4  C   UNL     1     183.932 189.158 190.925  1.00  0.00     0.011 C 
ATOM      5  C   UNL     1     184.213 189.634 189.485  1.00  0.00     0.043 C 
ATOM      6  C   UNL     1     184.552 188.438 188.564  1.00  0.00     0.121 C 
ATOM      7  C   UNL     1     183.423 187.392 188.602  1.00  0.00     0.035 C 
ENDROOT
BRANCH   6   8
ATOM      8  O   UNL     1     184.723 188.897 187.248  1.00  0.00    -0.392 OA
ATOM      9  H   UNL     1     185.190 188.176 186.750  1.00  0.00     0.210 HD
ENDBRANCH   6   8
BRANCH   5  10
ATOM     10  C   UNL     1     185.310 190.693 189.462  1.00  0.00    -0.075 C 
ATOM     11  C   UNL     1     186.549 190.424 189.906  1.00  0.00     0.008 C 
ATOM     12  C   UNL     1     185.017 192.073 188.932  1.00  0.00     0.039 C 
ENDBRANCH   5  10
TORSDOF 2
ENDMDL
MODEL 5
REMARK VINA RESULT:    -4.201      6.339      8.613
REMARK INTER + INTRA:          -4.758
REMARK INTER:                  -4.582
REMARK INTRA:                  -0.176
REMARK UNBOUND:                -0.188
REMARK SMILES C=C(C)[C@@H]1CC[C@@H](C)C[C@H]1O
REMARK SMILES IDX 8 1 7 2 6 3 5 4 4 5 10 6 9 7 11 8 2 10 1 11 3 12
REMARK H PARENT 11 9
REMARK Flexibility Score: inf
ROOT
ATOM      1  C   UNL     1     187.212 199.822 192.098  1.00  0.00     0.008 C 
ATOM      2  C   UNL     1     186.921 198.529 191.329  1.00  0.00    -0.012 C 
ATOM      3  C   UNL     1     186.824 197.334 192.297  1.00  0.00     0.004 C 
ATOM      4  C   UNL     1     186.549 196.032 191.535  1.00  0.00     0.011 C 
ATOM      5  C   UNL     1     187.633 195.777 190.468  1.00  0.00     0.043 C 
ATOM      6  C   UNL     1     187.740 196.973 189.492  1.00  0.00     0.121 C 
ATOM      7  C   UNL     1     188.008 198.276 190.266  1.00  0.00     0.035 C 
ENDROOT
BRANCH   6   8
ATOM      8  O   UNL     1     188.788 196.741 188.586  1.00  0.00    -0.392 OA
ATOM      9  H   UNL     1     188.466 197.037 187.694  1.00  0.00     0.210 HD
ENDBRANCH   6   8
BRANCH   5  10
ATOM     10  C   UNL     1     187.376 194.467 189.730  1.00  0.00    -0.075 C 
ATOM     11  C   UNL     1     186.177 194.195 189.189  1.00  0.00     0.008 C 
ATOM     12  C   UNL     1     188.478 193.449 189.592  1.00  0.00     0.039 C 
ENDBRANCH   5  10
TORSDOF 2
ENDMDL
MODEL 6
REMARK VINA RESULT:    -4.181     12.726     13.731
REMARK INTER + INTRA:          -4.736
REMARK INTER:                  -4.613
REMARK INTRA:                  -0.123
REMARK UNBOUND:                -0.188
REMARK SMILES C=C(C)[C@@H]1CC[C@@H](C)C[C@H]1O
REMARK SMILES IDX 8 1 7 2 6 3 5 4 4 5 10 6 9 7 11 8 2 10 1 11 3 12
REMARK H PARENT 11 9
REMARK Flexibility Score: inf
ROOT
ATOM      1  C   UNL     1     182.525 189.255 202.000  1.00  0.00     0.008 C 
ATOM      2  C   UNL     1     181.352 190.236 202.111  1.00  0.00    -0.012 C 
ATOM      3  C   UNL     1     180.287 189.927 201.043  1.00  0.00     0.004 C 
ATOM      4  C   UNL     1     179.116 190.913 201.134  1.00  0.00     0.011 C 
ATOM      5  C   UNL     1     179.609 192.369 201.002  1.00  0.00     0.043 C 
ATOM      6  C   UNL     1     180.682 192.688 202.070  1.00  0.00     0.121 C 
ATOM      7  C   UNL     1     181.849 191.688 201.975  1.00  0.00     0.035 C 
ENDROOT
BRANCH   6   8
ATOM      8  O   UNL     1     181.163 193.992 201.870  1.00  0.00    -0.392 OA
ATOM      9  H   UNL     1     180.907 194.255 200.946  1.00  0.00     0.210 HD
ENDBRANCH   6   8
BRANCH   5  10
ATOM     10  C   UNL     1     178.442 193.349 201.064  1.00  0.00    -0.075 C 
ATOM     11  C   UNL     1     177.897 193.857 199.946  1.00  0.00     0.008 C 
ATOM     12  C   UNL     1     177.875 193.766 202.396  1.00  0.00     0.039 C 
ENDBRANCH   5  10
TORSDOF 2
ENDMDL
MODEL 7
REMARK VINA RESULT:    -4.155      1.879      2.693
REMARK INTER + INTRA:          -4.708
REMARK INTER:                  -4.536
REMARK INTRA:                  -0.172
REMARK UNBOUND:                -0.188
REMARK SMILES C=C(C)[C@@H]1CC[C@@H](C)C[C@H]1O
REMARK SMILES IDX 8 1 7 2 6 3 5 4 4 5 10 6 9 7 11 8 2 10 1 11 3 12
REMARK H PARENT 11 9
REMARK Flexibility Score: inf
ROOT
ATOM      1  C   UNL     1     186.207 194.032 189.188  1.00  0.00     0.008 C 
ATOM      2  C   UNL     1     185.386 192.819 189.636  1.00  0.00    -0.012 C 
ATOM      3  C   UNL     1     186.179 191.974 190.650  1.00  0.00     0.004 C 
ATOM      4  C   UNL     1     185.373 190.747 191.093  1.00  0.00     0.011 C 
ATOM      5  C   UNL     1     184.961 189.889 189.879  1.00  0.00     0.043 C 
ATOM      6  C   UNL     1     184.165 190.730 188.853  1.00  0.00     0.121 C 
ATOM      7  C   UNL     1     184.979 191.963 188.420  1.00  0.00     0.035 C 
ENDROOT
BRANCH   6   8
ATOM      8  O   UNL     1     183.876 189.940 187.728  1.00  0.00    -0.392 OA
ATOM      9  H   UNL     1     182.923 189.672 187.803  1.00  0.00     0.210 HD
ENDBRANCH   6   8
BRANCH   5  10
ATOM     10  C   UNL     1     184.184 188.654 190.320  1.00  0.00    -0.075 C 
ATOM     11  C   UNL     1     183.140 188.749 191.161  1.00  0.00     0.008 C 
ATOM     12  C   UNL     1     184.579 187.291 189.813  1.00  0.00     0.039 C 
ENDBRANCH   5  10
TORSDOF 2
ENDMDL
MODEL 8
REMARK VINA RESULT:    -4.101      2.318      4.957
REMARK INTER + INTRA:          -4.649
REMARK INTER:                  -4.480
REMARK INTRA:                  -0.169
REMARK UNBOUND:                -0.188
REMARK SMILES C=C(C)[C@@H]1CC[C@@H](C)C[C@H]1O
REMARK SMILES IDX 8 1 7 2 6 3 5 4 4 5 10 6 9 7 11 8 2 10 1 11 3 12
REMARK H PARENT 11 9
REMARK Flexibility Score: inf
ROOT
ATOM      1  C   UNL     1     183.463 187.866 188.203  1.00  0.00     0.008 C 
ATOM      2  C   UNL     1     184.448 188.949 188.656  1.00  0.00    -0.012 C 
ATOM      3  C   UNL     1     183.886 189.720 189.865  1.00  0.00     0.004 C 
ATOM      4  C   UNL     1     184.858 190.817 190.316  1.00  0.00     0.011 C 
ATOM      5  C   UNL     1     185.175 191.785 189.157  1.00  0.00     0.043 C 
ATOM      6  C   UNL     1     185.738 191.020 187.936  1.00  0.00     0.121 C 
ATOM      7  C   UNL     1     184.759 189.915 187.496  1.00  0.00     0.035 C 
ENDROOT
BRANCH   6   8
ATOM      8  O   UNL     1     185.939 191.918 186.876  1.00  0.00    -0.392 OA
ATOM      9  H   UNL     1     185.715 191.431 186.040  1.00  0.00     0.210 HD
ENDBRANCH   6   8
BRANCH   5  10
ATOM     10  C   UNL     1     186.118 192.893 189.612  1.00  0.00    -0.075 C 
ATOM     11  C   UNL     1     185.793 194.189 189.469  1.00  0.00     0.008 C 
ATOM     12  C   UNL     1     187.444 192.547 190.238  1.00  0.00     0.039 C 
ENDBRANCH   5  10
TORSDOF 2
ENDMDL
MODEL 9
REMARK VINA RESULT:    -4.095      2.076      4.738
REMARK INTER + INTRA:          -4.642
REMARK INTER:                  -4.578
REMARK INTRA:                  -0.065
REMARK UNBOUND:                -0.188
REMARK SMILES C=C(C)[C@@H]1CC[C@@H](C)C[C@H]1O
REMARK SMILES IDX 8 1 7 2 6 3 5 4 4 5 10 6 9 7 11 8 2 10 1 11 3 12
REMARK H PARENT 11 9
REMARK Flexibility Score: inf
ROOT
ATOM      1  C   UNL     1     185.772 187.509 192.619  1.00  0.00     0.008 C 
ATOM      2  C   UNL     1     185.815 188.526 191.474  1.00  0.00    -0.012 C 
ATOM      3  C   UNL     1     186.841 189.635 191.774  1.00  0.00     0.004 C 
ATOM      4  C   UNL     1     186.880 190.668 190.642  1.00  0.00     0.011 C 
ATOM      5  C   UNL     1     185.483 191.275 190.399  1.00  0.00     0.043 C 
ATOM      6  C   UNL     1     184.445 190.169 190.098  1.00  0.00     0.121 C 
ATOM      7  C   UNL     1     184.418 189.132 191.237  1.00  0.00     0.035 C 
ENDROOT
BRANCH   6   8
ATOM      8  O   UNL     1     183.173 190.749 189.961  1.00  0.00    -0.392 OA
ATOM      9  H   UNL     1     182.612 190.389 190.698  1.00  0.00     0.210 HD
ENDBRANCH   6   8
BRANCH   5  10
ATOM     10  C   UNL     1     185.527 192.323 189.292  1.00  0.00    -0.075 C 
ATOM     11  C   UNL     1     185.727 193.623 189.569  1.00  0.00     0.008 C 
ATOM     12  C   UNL     1     185.346 191.912 187.854  1.00  0.00     0.039 C 
ENDBRANCH   5  10
TORSDOF 2
ENDMDL
