MODEL 1
REMARK VINA RESULT:    -3.809      0.000      0.000
REMARK INTER + INTRA:          -3.809
REMARK INTER:                  -3.809
REMARK INTRA:                   0.000
REMARK UNBOUND:                 0.000
REMARK SMILES O=C1CCCCC1
REMARK SMILES IDX 5 1 4 2 3 3 2 4 1 5 7 6 6 7
REMARK H PARENT
REMARK Flexibility Score: inf
ROOT
ATOM      1  C   UNL     1      16.032  42.010 -13.467  1.00  0.00     0.001 C 
ATOM      2  C   UNL     1      15.416  42.691 -12.234  1.00  0.00     0.008 C 
ATOM      3  C   UNL     1      14.213  43.561 -12.617  1.00  0.00     0.075 C 
ATOM      4  C   UNL     1      14.573  44.484 -13.749  1.00  0.00     0.132 C 
ATOM      5  O   UNL     1      14.219  45.652 -13.727  1.00  0.00    -0.300 OA
ATOM      6  C   UNL     1      15.292  43.930 -14.948  1.00  0.00     0.075 C 
ATOM      7  C   UNL     1      16.469  43.052 -14.508  1.00  0.00     0.008 C 
ENDROOT
TORSDOF 0
ENDMDL
MODEL 2
REMARK VINA RESULT:    -3.733      1.577      2.776
REMARK INTER + INTRA:          -3.733
REMARK INTER:                  -3.733
REMARK INTRA:                   0.000
REMARK UNBOUND:                 0.000
REMARK SMILES O=C1CCCCC1
REMARK SMILES IDX 5 1 4 2 3 3 2 4 1 5 7 6 6 7
REMARK H PARENT
REMARK Flexibility Score: inf
ROOT
ATOM      1  C   UNL     1      14.107  43.325 -12.465  1.00  0.00     0.001 C 
ATOM      2  C   UNL     1      14.321  44.418 -13.523  1.00  0.00     0.008 C 
ATOM      3  C   UNL     1      15.024  43.863 -14.768  1.00  0.00     0.075 C 
ATOM      4  C   UNL     1      16.258  43.098 -14.375  1.00  0.00     0.132 C 
ATOM      5  O   UNL     1      17.295  43.238 -15.005  1.00  0.00    -0.300 OA
ATOM      6  C   UNL     1      16.176  42.092 -13.261  1.00  0.00     0.075 C 
ATOM      7  C   UNL     1      15.445  42.691 -12.053  1.00  0.00     0.008 C 
ENDROOT
TORSDOF 0
ENDMDL
MODEL 3
REMARK VINA RESULT:    -3.385     14.220     15.158
REMARK INTER + INTRA:          -3.385
REMARK INTER:                  -3.385
REMARK INTRA:                   0.000
REMARK UNBOUND:                 0.000
REMARK SMILES O=C1CCCCC1
REMARK SMILES IDX 5 1 4 2 3 3 2 4 1 5 7 6 6 7
REMARK H PARENT
REMARK Flexibility Score: inf
ROOT
ATOM      1  C   UNL     1      16.695  44.966  -0.131  1.00  0.00     0.001 C 
ATOM      2  C   UNL     1      18.027  45.695  -0.365  1.00  0.00     0.008 C 
ATOM      3  C   UNL     1      19.222  44.819   0.033  1.00  0.00     0.075 C 
ATOM      4  C   UNL     1      19.026  44.265   1.418  1.00  0.00     0.132 C 
ATOM      5  O   UNL     1      19.954  44.253   2.212  1.00  0.00    -0.300 OA
ATOM      6  C   UNL     1      17.707  43.643   1.780  1.00  0.00     0.075 C 
ATOM      7  C   UNL     1      16.549  44.548   1.340  1.00  0.00     0.008 C 
ENDROOT
TORSDOF 0
ENDMDL
MODEL 4
REMARK VINA RESULT:    -3.371     13.944     15.066
REMARK INTER + INTRA:          -3.371
REMARK INTER:                  -3.371
REMARK INTRA:                   0.000
REMARK UNBOUND:                 0.000
REMARK SMILES O=C1CCCCC1
REMARK SMILES IDX 5 1 4 2 3 3 2 4 1 5 7 6 6 7
REMARK H PARENT
REMARK Flexibility Score: inf
ROOT
ATOM      1  C   UNL     1      19.469  44.227   2.140  1.00  0.00     0.001 C 
ATOM      2  C   UNL     1      20.195  42.966   1.646  1.00  0.00     0.008 C 
ATOM      3  C   UNL     1      19.898  42.693   0.166  1.00  0.00     0.075 C 
ATOM      4  C   UNL     1      18.415  42.722  -0.084  1.00  0.00     0.132 C 
ATOM      5  O   UNL     1      17.895  41.875  -0.794  1.00  0.00    -0.300 OA
ATOM      6  C   UNL     1      17.599  43.856   0.469  1.00  0.00     0.075 C 
ATOM      7  C   UNL     1      17.951  44.100   1.942  1.00  0.00     0.008 C 
ENDROOT
TORSDOF 0
ENDMDL
MODEL 5
REMARK VINA RESULT:    -3.323     13.984     14.968
REMARK INTER + INTRA:          -3.323
REMARK INTER:                  -3.323
REMARK INTRA:                   0.000
REMARK UNBOUND:                 0.000
REMARK SMILES O=C1CCCCC1
REMARK SMILES IDX 5 1 4 2 3 3 2 4 1 5 7 6 6 7
REMARK H PARENT
REMARK Flexibility Score: inf
ROOT
ATOM      1  C   UNL     1      20.207  42.981   1.779  1.00  0.00     0.001 C 
ATOM      2  C   UNL     1      19.409  44.241   2.149  1.00  0.00     0.008 C 
ATOM      3  C   UNL     1      17.916  44.068   1.845  1.00  0.00     0.075 C 
ATOM      4  C   UNL     1      17.723  43.574   0.437  1.00  0.00     0.132 C 
ATOM      5  O   UNL     1      16.849  44.054  -0.269  1.00  0.00    -0.300 OA
ATOM      6  C   UNL     1      18.551  42.421  -0.057  1.00  0.00     0.075 C 
ATOM      7  C   UNL     1      20.029  42.635   0.293  1.00  0.00     0.008 C 
ENDROOT
TORSDOF 0
ENDMDL
MODEL 6
REMARK VINA RESULT:    -3.300     14.132     14.899
REMARK INTER + INTRA:          -3.300
REMARK INTER:                  -3.300
REMARK INTRA:                   0.000
REMARK UNBOUND:                 0.000
REMARK SMILES O=C1CCCCC1
REMARK SMILES IDX 5 1 4 2 3 3 2 4 1 5 7 6 6 7
REMARK H PARENT
REMARK Flexibility Score: inf
ROOT
ATOM      1  C   UNL     1      19.317  44.633   0.080  1.00  0.00     0.001 C 
ATOM      2  C   UNL     1      19.198  44.235   1.559  1.00  0.00     0.008 C 
ATOM      3  C   UNL     1      17.816  43.650   1.872  1.00  0.00     0.075 C 
ATOM      4  C   UNL     1      16.733  44.562   1.362  1.00  0.00     0.132 C 
ATOM      5  O   UNL     1      15.752  44.796   2.050  1.00  0.00    -0.300 OA
ATOM      6  C   UNL     1      16.829  45.104  -0.037  1.00  0.00     0.075 C 
ATOM      7  C   UNL     1      18.235  45.654  -0.302  1.00  0.00     0.008 C 
ENDROOT
TORSDOF 0
ENDMDL
MODEL 7
REMARK VINA RESULT:    -3.294     14.231     15.233
REMARK INTER + INTRA:          -3.294
REMARK INTER:                  -3.294
REMARK INTRA:                   0.000
REMARK UNBOUND:                 0.000
REMARK SMILES O=C1CCCCC1
REMARK SMILES IDX 5 1 4 2 3 3 2 4 1 5 7 6 6 7
REMARK H PARENT
REMARK Flexibility Score: inf
ROOT
ATOM      1  C   UNL     1      17.050  43.650   1.505  1.00  0.00     0.001 C 
ATOM      2  C   UNL     1      18.316  44.121   2.238  1.00  0.00     0.008 C 
ATOM      3  C   UNL     1      19.519  44.189   1.290  1.00  0.00     0.075 C 
ATOM      4  C   UNL     1      19.659  42.899   0.528  1.00  0.00     0.132 C 
ATOM      5  O   UNL     1      20.759  42.391   0.375  1.00  0.00    -0.300 OA
ATOM      6  C   UNL     1      18.445  42.294  -0.120  1.00  0.00     0.075 C 
ATOM      7  C   UNL     1      17.268  42.272   0.863  1.00  0.00     0.008 C 
ENDROOT
TORSDOF 0
ENDMDL
MODEL 8
REMARK VINA RESULT:    -3.276     14.003     14.746
REMARK INTER + INTRA:          -3.276
REMARK INTER:                  -3.276
REMARK INTRA:                   0.000
REMARK UNBOUND:                 0.000
REMARK SMILES O=C1CCCCC1
REMARK SMILES IDX 5 1 4 2 3 3 2 4 1 5 7 6 6 7
REMARK H PARENT
REMARK Flexibility Score: inf
ROOT
ATOM      1  C   UNL     1      17.343  42.867   1.553  1.00  0.00     0.001 C 
ATOM      2  C   UNL     1      16.720  44.251   1.313  1.00  0.00     0.008 C 
ATOM      3  C   UNL     1      17.273  44.901   0.039  1.00  0.00     0.075 C 
ATOM      4  C   UNL     1      18.777  44.865   0.043  1.00  0.00     0.132 C 
ATOM      5  O   UNL     1      19.417  45.845  -0.306  1.00  0.00    -0.300 OA
ATOM      6  C   UNL     1      19.480  43.582   0.389  1.00  0.00     0.075 C 
ATOM      7  C   UNL     1      18.873  42.965   1.655  1.00  0.00     0.008 C 
ENDROOT
TORSDOF 0
ENDMDL
MODEL 9
REMARK VINA RESULT:    -3.206     13.774     14.617
REMARK INTER + INTRA:          -3.206
REMARK INTER:                  -3.206
REMARK INTRA:                   0.000
REMARK UNBOUND:                 0.000
REMARK SMILES O=C1CCCCC1
REMARK SMILES IDX 5 1 4 2 3 3 2 4 1 5 7 6 6 7
REMARK H PARENT
REMARK Flexibility Score: inf
ROOT
ATOM      1  C   UNL     1      19.551  44.242   1.495  1.00  0.00     0.001 C 
ATOM      2  C   UNL     1      19.160  44.956   0.191  1.00  0.00     0.008 C 
ATOM      3  C   UNL     1      17.650  44.868  -0.064  1.00  0.00     0.075 C 
ATOM      4  C   UNL     1      17.181  43.444   0.055  1.00  0.00     0.132 C 
ATOM      5  O   UNL     1      16.395  42.985  -0.759  1.00  0.00    -0.300 OA
ATOM      6  C   UNL     1      17.616  42.624   1.238  1.00  0.00     0.075 C 
ATOM      7  C   UNL     1      19.126  42.766   1.461  1.00  0.00     0.008 C 
ENDROOT
TORSDOF 0
ENDMDL
