MODEL 1
REMARK VINA RESULT:    -4.598      0.000      0.000
REMARK INTER + INTRA:          -9.026
REMARK INTER:                  -8.092
REMARK INTRA:                  -0.933
REMARK UNBOUND:                -0.933
REMARK SMILES CCCCCCCCCCCCCCC(=O)[O-]
REMARK SMILES IDX 9 1 10 2 11 3 12 4 13 5 14 6 15 7 16 8 17 9 8 10 7 11 6 12
REMARK SMILES IDX 5 13 4 14 3 15 2 16 1 17
REMARK H PARENT
REMARK Flexibility Score: inf
ROOT
ATOM      1  C   UNL     1       7.775   5.953   0.624  1.00  0.00     0.000 C 
ENDROOT
BRANCH   1   2
ATOM      2  C   UNL     1       7.598   7.037   1.701  1.00  0.00     0.000 C 
BRANCH   2   3
ATOM      3  C   UNL     1       8.862   7.245   2.556  1.00  0.00     0.000 C 
BRANCH   3   4
ATOM      4  C   UNL     1       8.833   8.472   3.486  1.00  0.00     0.000 C 
BRANCH   4   5
ATOM      5  C   UNL     1       7.851   9.558   3.016  1.00  0.00     0.006 C 
BRANCH   5   6
ATOM      6  C   UNL     1       7.170  10.271   4.191  1.00  0.00     0.053 C 
BRANCH   6   7
ATOM      7  C   UNL     1       5.899   9.590   4.595  1.00  0.00     0.041 C 
ATOM      8  O   UNL     1       5.060   9.243   3.722  1.00  0.00    -0.550 OA
ATOM      9  O   UNL     1       5.653   9.314   5.934  1.00  0.00    -0.550 OA
ENDBRANCH   6   7
ENDBRANCH   5   6
ENDBRANCH   4   5
ENDBRANCH   3   4
ENDBRANCH   2   3
ENDBRANCH   1   2
BRANCH   1  10
ATOM     10  C   UNL     1       8.454   4.681   1.163  1.00  0.00     0.000 C 
BRANCH  10  11
ATOM     11  C   UNL     1       8.108   3.377   0.411  1.00  0.00    -0.000 C 
BRANCH  11  12
ATOM     12  C   UNL     1       6.636   3.230  -0.013  1.00  0.00    -0.000 C 
BRANCH  12  13
ATOM     13  C   UNL     1       6.040   1.864   0.361  1.00  0.00    -0.000 C 
BRANCH  13  14
ATOM     14  C   UNL     1       6.187   0.818  -0.760  1.00  0.00    -0.000 C 
BRANCH  14  15
ATOM     15  C   UNL     1       6.382   1.395  -2.174  1.00  0.00    -0.000 C 
BRANCH  15  16
ATOM     16  C   UNL     1       7.517   0.709  -2.950  1.00  0.00    -0.003 C 
ATOM     17  C   UNL     1       8.851   0.874  -2.229  1.00  0.00     0.004 C 
ENDBRANCH  15  16
ENDBRANCH  14  15
ENDBRANCH  13  14
ENDBRANCH  12  13
ENDBRANCH  11  12
ENDBRANCH  10  11
ENDBRANCH   1  10
TORSDOF 13
ENDMDL
MODEL 2
REMARK VINA RESULT:    -4.570      4.004      8.907
REMARK INTER + INTRA:          -8.976
REMARK INTER:                  -8.086
REMARK INTRA:                  -0.890
REMARK UNBOUND:                -0.933
REMARK SMILES CCCCCCCCCCCCCCC(=O)[O-]
REMARK SMILES IDX 9 1 10 2 11 3 12 4 13 5 14 6 15 7 16 8 17 9 8 10 7 11 6 12
REMARK SMILES IDX 5 13 4 14 3 15 2 16 1 17
REMARK H PARENT
REMARK Flexibility Score: inf
ROOT
ATOM      1  C   UNL     1       7.558   4.873   1.337  1.00  0.00     0.000 C 
ENDROOT
BRANCH   1   2
ATOM      2  C   UNL     1       8.527   3.898   0.646  1.00  0.00     0.000 C 
BRANCH   2   3
ATOM      3  C   UNL     1       7.846   3.047  -0.442  1.00  0.00     0.000 C 
BRANCH   3   4
ATOM      4  C   UNL     1       6.489   2.435  -0.046  1.00  0.00     0.000 C 
BRANCH   4   5
ATOM      5  C   UNL     1       6.285   1.016  -0.604  1.00  0.00     0.006 C 
BRANCH   5   6
ATOM      6  C   UNL     1       7.382   0.624  -1.602  1.00  0.00     0.053 C 
BRANCH   6   7
ATOM      7  C   UNL     1       6.872   0.603  -3.010  1.00  0.00     0.041 C 
ATOM      8  O   UNL     1       7.186  -0.338  -3.786  1.00  0.00    -0.550 OA
ATOM      9  O   UNL     1       6.025   1.610  -3.458  1.00  0.00    -0.550 OA
ENDBRANCH   6   7
ENDBRANCH   5   6
ENDBRANCH   4   5
ENDBRANCH   3   4
ENDBRANCH   2   3
ENDBRANCH   1   2
BRANCH   1  10
ATOM     10  C   UNL     1       7.297   6.143   0.509  1.00  0.00     0.000 C 
BRANCH  10  11
ATOM     11  C   UNL     1       7.915   7.441   1.073  1.00  0.00    -0.000 C 
BRANCH  11  12
ATOM     12  C   UNL     1       8.475   7.337   2.503  1.00  0.00    -0.000 C 
BRANCH  12  13
ATOM     13  C   UNL     1       8.729   8.709   3.147  1.00  0.00    -0.000 C 
BRANCH  13  14
ATOM     14  C   UNL     1       7.934   9.844   2.474  1.00  0.00    -0.000 C 
BRANCH  14  15
ATOM     15  C   UNL     1       6.913  10.556   3.381  1.00  0.00    -0.000 C 
BRANCH  15  16
ATOM     16  C   UNL     1       5.995   9.580   4.132  1.00  0.00    -0.003 C 
ATOM     17  C   UNL     1       6.160   9.723   5.642  1.00  0.00     0.004 C 
ENDBRANCH  15  16
ENDBRANCH  14  15
ENDBRANCH  13  14
ENDBRANCH  12  13
ENDBRANCH  11  12
ENDBRANCH  10  11
ENDBRANCH   1  10
TORSDOF 13
ENDMDL
MODEL 3
REMARK VINA RESULT:    -4.509      4.243      8.947
REMARK INTER + INTRA:          -8.869
REMARK INTER:                  -7.995
REMARK INTRA:                  -0.874
REMARK UNBOUND:                -0.933
REMARK SMILES CCCCCCCCCCCCCCC(=O)[O-]
REMARK SMILES IDX 9 1 10 2 11 3 12 4 13 5 14 6 15 7 16 8 17 9 8 10 7 11 6 12
REMARK SMILES IDX 5 13 4 14 3 15 2 16 1 17
REMARK H PARENT
REMARK Flexibility Score: inf
ROOT
ATOM      1  C   UNL     1       7.312   4.745   1.062  1.00  0.00     0.000 C 
ENDROOT
BRANCH   1   2
ATOM      2  C   UNL     1       8.307   3.765   0.417  1.00  0.00     0.000 C 
BRANCH   2   3
ATOM      3  C   UNL     1       7.646   2.834  -0.618  1.00  0.00     0.000 C 
BRANCH   3   4
ATOM      4  C   UNL     1       6.379   2.105  -0.133  1.00  0.00     0.000 C 
BRANCH   4   5
ATOM      5  C   UNL     1       6.167   0.748  -0.824  1.00  0.00     0.006 C 
BRANCH   5   6
ATOM      6  C   UNL     1       7.326   0.389  -1.763  1.00  0.00     0.053 C 
BRANCH   6   7
ATOM      7  C   UNL     1       6.921   0.471  -3.203  1.00  0.00     0.041 C 
ATOM      8  O   UNL     1       6.232   1.442  -3.614  1.00  0.00    -0.550 OA
ATOM      9  O   UNL     1       7.328  -0.511  -4.097  1.00  0.00    -0.550 OA
ENDBRANCH   6   7
ENDBRANCH   5   6
ENDBRANCH   4   5
ENDBRANCH   3   4
ENDBRANCH   2   3
ENDBRANCH   1   2
BRANCH   1  10
ATOM     10  C   UNL     1       7.974   6.062   1.505  1.00  0.00     0.000 C 
BRANCH  10  11
ATOM     11  C   UNL     1       7.548   7.317   0.712  1.00  0.00    -0.000 C 
BRANCH  11  12
ATOM     12  C   UNL     1       8.663   7.986  -0.111  1.00  0.00    -0.000 C 
BRANCH  12  13
ATOM     13  C   UNL     1       8.953   9.428   0.335  1.00  0.00    -0.000 C 
BRANCH  13  14
ATOM     14  C   UNL     1       8.878   9.610   1.862  1.00  0.00    -0.000 C 
BRANCH  14  15
ATOM     15  C   UNL     1       8.258  10.939   2.335  1.00  0.00    -0.000 C 
BRANCH  15  16
ATOM     16  C   UNL     1       6.983  10.742   3.168  1.00  0.00    -0.003 C 
ATOM     17  C   UNL     1       6.909   9.326   3.731  1.00  0.00     0.004 C 
ENDBRANCH  15  16
ENDBRANCH  14  15
ENDBRANCH  13  14
ENDBRANCH  12  13
ENDBRANCH  11  12
ENDBRANCH  10  11
ENDBRANCH   1  10
TORSDOF 13
ENDMDL
MODEL 4
REMARK VINA RESULT:    -4.335      9.567     11.109
REMARK INTER + INTRA:          -8.563
REMARK INTER:                  -6.628
REMARK INTRA:                  -1.935
REMARK UNBOUND:                -0.933
REMARK SMILES CCCCCCCCCCCCCCC(=O)[O-]
REMARK SMILES IDX 9 1 10 2 11 3 12 4 13 5 14 6 15 7 16 8 17 9 8 10 7 11 6 12
REMARK SMILES IDX 5 13 4 14 3 15 2 16 1 17
REMARK H PARENT
REMARK Flexibility Score: inf
ROOT
ATOM      1  C   UNL     1       1.394   5.994   9.760  1.00  0.00     0.000 C 
ENDROOT
BRANCH   1   2
ATOM      2  C   UNL     1       1.213   6.644  11.142  1.00  0.00     0.000 C 
BRANCH   2   3
ATOM      3  C   UNL     1       0.443   7.976  11.083  1.00  0.00     0.000 C 
BRANCH   3   4
ATOM      4  C   UNL     1       0.465   8.689   9.718  1.00  0.00     0.000 C 
BRANCH   4   5
ATOM      5  C   UNL     1       1.148  10.065   9.771  1.00  0.00     0.006 C 
BRANCH   5   6
ATOM      6  C   UNL     1       2.673   9.959   9.645  1.00  0.00     0.053 C 
BRANCH   6   7
ATOM      7  C   UNL     1       3.107   9.840   8.216  1.00  0.00     0.041 C 
ATOM      8  O   UNL     1       3.207  10.869   7.495  1.00  0.00    -0.550 OA
ATOM      9  O   UNL     1       3.426   8.596   7.688  1.00  0.00    -0.550 OA
ENDBRANCH   6   7
ENDBRANCH   5   6
ENDBRANCH   4   5
ENDBRANCH   3   4
ENDBRANCH   2   3
ENDBRANCH   1   2
BRANCH   1  10
ATOM     10  C   UNL     1       2.859   5.633   9.455  1.00  0.00     0.000 C 
BRANCH  10  11
ATOM     11  C   UNL     1       3.863   5.930  10.589  1.00  0.00    -0.000 C 
BRANCH  11  12
ATOM     12  C   UNL     1       4.738   4.741  11.023  1.00  0.00    -0.000 C 
BRANCH  12  13
ATOM     13  C   UNL     1       4.258   4.090  12.330  1.00  0.00    -0.000 C 
BRANCH  13  14
ATOM     14  C   UNL     1       3.248   2.950  12.098  1.00  0.00    -0.000 C 
BRANCH  14  15
ATOM     15  C   UNL     1       1.787   3.287  12.450  1.00  0.00    -0.000 C 
BRANCH  15  16
ATOM     16  C   UNL     1       0.772   2.486  11.621  1.00  0.00    -0.003 C 
ATOM     17  C   UNL     1       1.371   2.058  10.284  1.00  0.00     0.004 C 
ENDBRANCH  15  16
ENDBRANCH  14  15
ENDBRANCH  13  14
ENDBRANCH  12  13
ENDBRANCH  11  12
ENDBRANCH  10  11
ENDBRANCH   1  10
TORSDOF 13
ENDMDL
MODEL 5
REMARK VINA RESULT:    -4.264      4.934      9.178
REMARK INTER + INTRA:          -8.438
REMARK INTER:                  -7.660
REMARK INTRA:                  -0.779
REMARK UNBOUND:                -0.933
REMARK SMILES CCCCCCCCCCCCCCC(=O)[O-]
REMARK SMILES IDX 9 1 10 2 11 3 12 4 13 5 14 6 15 7 16 8 17 9 8 10 7 11 6 12
REMARK SMILES IDX 5 13 4 14 3 15 2 16 1 17
REMARK H PARENT
REMARK Flexibility Score: inf
ROOT
ATOM      1  C   UNL     1       6.175   3.066  -0.021  1.00  0.00     0.000 C 
ENDROOT
BRANCH   1   2
ATOM      2  C   UNL     1       5.844   1.593   0.274  1.00  0.00     0.000 C 
BRANCH   2   3
ATOM      3  C   UNL     1       6.440   0.625  -0.765  1.00  0.00     0.000 C 
BRANCH   3   4
ATOM      4  C   UNL     1       6.397   1.116  -2.224  1.00  0.00     0.000 C 
BRANCH   4   5
ATOM      5  C   UNL     1       7.790   1.195  -2.871  1.00  0.00     0.006 C 
BRANCH   5   6
ATOM      6  C   UNL     1       8.624  -0.066  -2.606  1.00  0.00     0.053 C 
BRANCH   6   7
ATOM      7  C   UNL     1       8.390  -1.117  -3.647  1.00  0.00     0.041 C 
ATOM      8  O   UNL     1       7.595  -0.901  -4.600  1.00  0.00    -0.550 OA
ATOM      9  O   UNL     1       9.071  -2.326  -3.579  1.00  0.00    -0.550 OA
ENDBRANCH   6   7
ENDBRANCH   5   6
ENDBRANCH   4   5
ENDBRANCH   3   4
ENDBRANCH   2   3
ENDBRANCH   1   2
BRANCH   1  10
ATOM     10  C   UNL     1       7.180   3.665   0.979  1.00  0.00     0.000 C 
BRANCH  10  11
ATOM     11  C   UNL     1       8.589   3.948   0.414  1.00  0.00    -0.000 C 
BRANCH  11  12
ATOM     12  C   UNL     1       9.125   5.369   0.661  1.00  0.00    -0.000 C 
BRANCH  12  13
ATOM     13  C   UNL     1       8.460   6.058   1.864  1.00  0.00    -0.000 C 
BRANCH  13  14
ATOM     14  C   UNL     1       7.620   7.285   1.465  1.00  0.00    -0.000 C 
BRANCH  14  15
ATOM     15  C   UNL     1       8.406   8.602   1.327  1.00  0.00    -0.000 C 
BRANCH  15  16
ATOM     16  C   UNL     1       8.018   9.645   2.385  1.00  0.00    -0.003 C 
ATOM     17  C   UNL     1       7.502   8.973   3.655  1.00  0.00     0.004 C 
ENDBRANCH  15  16
ENDBRANCH  14  15
ENDBRANCH  13  14
ENDBRANCH  12  13
ENDBRANCH  11  12
ENDBRANCH  10  11
ENDBRANCH   1  10
TORSDOF 13
ENDMDL
MODEL 6
REMARK VINA RESULT:    -4.205      1.254      2.295
REMARK INTER + INTRA:          -8.334
REMARK INTER:                  -7.335
REMARK INTRA:                  -0.999
REMARK UNBOUND:                -0.933
REMARK SMILES CCCCCCCCCCCCCCC(=O)[O-]
REMARK SMILES IDX 9 1 10 2 11 3 12 4 13 5 14 6 15 7 16 8 17 9 8 10 7 11 6 12
REMARK SMILES IDX 5 13 4 14 3 15 2 16 1 17
REMARK H PARENT
REMARK Flexibility Score: inf
ROOT
ATOM      1  C   UNL     1       8.123   7.812  -0.086  1.00  0.00     0.000 C 
ENDROOT
BRANCH   1   2
ATOM      2  C   UNL     1       9.083   8.395   0.964  1.00  0.00     0.000 C 
BRANCH   2   3
ATOM      3  C   UNL     1       8.963   9.925   1.101  1.00  0.00     0.000 C 
BRANCH   3   4
ATOM      4  C   UNL     1       8.306  10.420   2.403  1.00  0.00     0.000 C 
BRANCH   4   5
ATOM      5  C   UNL     1       8.001   9.282   3.391  1.00  0.00     0.006 C 
BRANCH   5   6
ATOM      6  C   UNL     1       7.248   9.780   4.632  1.00  0.00     0.053 C 
BRANCH   6   7
ATOM      7  C   UNL     1       5.796  10.011   4.347  1.00  0.00     0.041 C 
ATOM      8  O   UNL     1       5.268  11.125   4.604  1.00  0.00    -0.550 OA
ATOM      9  O   UNL     1       5.032   9.004   3.771  1.00  0.00    -0.550 OA
ENDBRANCH   6   7
ENDBRANCH   5   6
ENDBRANCH   4   5
ENDBRANCH   3   4
ENDBRANCH   2   3
ENDBRANCH   1   2
BRANCH   1  10
ATOM     10  C   UNL     1       7.349   6.584   0.428  1.00  0.00     0.000 C 
BRANCH  10  11
ATOM     11  C   UNL     1       7.905   5.943   1.718  1.00  0.00    -0.000 C 
BRANCH  11  12
ATOM     12  C   UNL     1       8.495   4.531   1.551  1.00  0.00    -0.000 C 
BRANCH  12  13
ATOM     13  C   UNL     1       8.456   4.035   0.097  1.00  0.00    -0.000 C 
BRANCH  13  14
ATOM     14  C   UNL     1       7.530   2.820  -0.098  1.00  0.00    -0.000 C 
BRANCH  14  15
ATOM     15  C   UNL     1       7.629   2.135  -1.473  1.00  0.00    -0.000 C 
BRANCH  15  16
ATOM     16  C   UNL     1       6.670   0.943  -1.619  1.00  0.00    -0.003 C 
ATOM     17  C   UNL     1       5.862   0.731  -0.342  1.00  0.00     0.004 C 
ENDBRANCH  15  16
ENDBRANCH  14  15
ENDBRANCH  13  14
ENDBRANCH  12  13
ENDBRANCH  11  12
ENDBRANCH  10  11
ENDBRANCH   1  10
TORSDOF 13
ENDMDL
MODEL 7
REMARK VINA RESULT:    -4.152      9.869     11.109
REMARK INTER + INTRA:          -8.241
REMARK INTER:                  -6.258
REMARK INTRA:                  -1.983
REMARK UNBOUND:                -0.933
REMARK SMILES CCCCCCCCCCCCCCC(=O)[O-]
REMARK SMILES IDX 9 1 10 2 11 3 12 4 13 5 14 6 15 7 16 8 17 9 8 10 7 11 6 12
REMARK SMILES IDX 5 13 4 14 3 15 2 16 1 17
REMARK H PARENT
REMARK Flexibility Score: inf
ROOT
ATOM      1  C   UNL     1       3.245   7.541  12.280  1.00  0.00     0.000 C 
ENDROOT
BRANCH   1   2
ATOM      2  C   UNL     1       1.994   6.648  12.214  1.00  0.00     0.000 C 
BRANCH   2   3
ATOM      3  C   UNL     1       1.041   7.036  11.068  1.00  0.00     0.000 C 
BRANCH   3   4
ATOM      4  C   UNL     1       1.276   6.298   9.738  1.00  0.00     0.000 C 
BRANCH   4   5
ATOM      5  C   UNL     1       2.040   7.147   8.707  1.00  0.00     0.006 C 
BRANCH   5   6
ATOM      6  C   UNL     1       1.255   8.398   8.294  1.00  0.00     0.053 C 
BRANCH   6   7
ATOM      7  C   UNL     1       2.002   9.656   8.615  1.00  0.00     0.041 C 
ATOM      8  O   UNL     1       1.922  10.165   9.765  1.00  0.00    -0.550 OA
ATOM      9  O   UNL     1       2.809  10.251   7.654  1.00  0.00    -0.550 OA
ENDBRANCH   6   7
ENDBRANCH   5   6
ENDBRANCH   4   5
ENDBRANCH   3   4
ENDBRANCH   2   3
ENDBRANCH   1   2
BRANCH   1  10
ATOM     10  C   UNL     1       4.556   6.745  12.152  1.00  0.00     0.000 C 
BRANCH  10  11
ATOM     11  C   UNL     1       4.922   6.299  10.719  1.00  0.00    -0.000 C 
BRANCH  11  12
ATOM     12  C   UNL     1       4.682   4.811  10.410  1.00  0.00    -0.000 C 
BRANCH  12  13
ATOM     13  C   UNL     1       4.473   3.963  11.676  1.00  0.00    -0.000 C 
BRANCH  13  14
ATOM     14  C   UNL     1       3.112   3.244  11.698  1.00  0.00    -0.000 C 
BRANCH  14  15
ATOM     15  C   UNL     1       2.568   2.828  10.318  1.00  0.00    -0.000 C 
BRANCH  15  16
ATOM     16  C   UNL     1       1.215   2.104  10.402  1.00  0.00    -0.003 C 
ATOM     17  C   UNL     1       0.637   2.183  11.811  1.00  0.00     0.004 C 
ENDBRANCH  15  16
ENDBRANCH  14  15
ENDBRANCH  13  14
ENDBRANCH  12  13
ENDBRANCH  11  12
ENDBRANCH  10  11
ENDBRANCH   1  10
TORSDOF 13
ENDMDL
MODEL 8
REMARK VINA RESULT:    -4.085      9.473     10.834
REMARK INTER + INTRA:          -8.122
REMARK INTER:                  -6.692
REMARK INTRA:                  -1.431
REMARK UNBOUND:                -0.933
REMARK SMILES CCCCCCCCCCCCCCC(=O)[O-]
REMARK SMILES IDX 9 1 10 2 11 3 12 4 13 5 14 6 15 7 16 8 17 9 8 10 7 11 6 12
REMARK SMILES IDX 5 13 4 14 3 15 2 16 1 17
REMARK H PARENT
REMARK Flexibility Score: inf
ROOT
ATOM      1  C   UNL     1       1.273   5.871   9.756  1.00  0.00     0.000 C 
ENDROOT
BRANCH   1   2
ATOM      2  C   UNL     1       2.153   6.890   9.014  1.00  0.00     0.000 C 
BRANCH   2   3
ATOM      3  C   UNL     1       1.333   7.948   8.252  1.00  0.00     0.000 C 
BRANCH   3   4
ATOM      4  C   UNL     1       1.006   9.225   9.047  1.00  0.00     0.000 C 
BRANCH   4   5
ATOM      5  C   UNL     1       2.260   9.940   9.578  1.00  0.00     0.006 C 
BRANCH   5   6
ATOM      6  C   UNL     1       3.059  10.616   8.455  1.00  0.00     0.053 C 
BRANCH   6   7
ATOM      7  C   UNL     1       4.378   9.945   8.229  1.00  0.00     0.041 C 
ATOM      8  O   UNL     1       5.271   9.983   9.117  1.00  0.00    -0.550 OA
ATOM      9  O   UNL     1       4.613   9.253   7.047  1.00  0.00    -0.550 OA
ENDBRANCH   6   7
ENDBRANCH   5   6
ENDBRANCH   4   5
ENDBRANCH   3   4
ENDBRANCH   2   3
ENDBRANCH   1   2
BRANCH   1  10
ATOM     10  C   UNL     1       1.626   5.752  11.250  1.00  0.00     0.000 C 
BRANCH  10  11
ATOM     11  C   UNL     1       3.075   6.136  11.620  1.00  0.00    -0.000 C 
BRANCH  11  12
ATOM     12  C   UNL     1       3.979   4.966  12.047  1.00  0.00    -0.000 C 
BRANCH  12  13
ATOM     13  C   UNL     1       3.817   3.728  11.151  1.00  0.00    -0.000 C 
BRANCH  13  14
ATOM     14  C   UNL     1       3.559   2.438  11.951  1.00  0.00    -0.000 C 
BRANCH  14  15
ATOM     15  C   UNL     1       2.630   1.417  11.267  1.00  0.00    -0.000 C 
BRANCH  15  16
ATOM     16  C   UNL     1       1.385   2.065  10.642  1.00  0.00    -0.003 C 
ATOM     17  C   UNL     1       0.238   2.127  11.646  1.00  0.00     0.004 C 
ENDBRANCH  15  16
ENDBRANCH  14  15
ENDBRANCH  13  14
ENDBRANCH  12  13
ENDBRANCH  11  12
ENDBRANCH  10  11
ENDBRANCH   1  10
TORSDOF 13
ENDMDL
MODEL 9
REMARK VINA RESULT:    -3.989      9.563     11.891
REMARK INTER + INTRA:          -7.954
REMARK INTER:                  -6.372
REMARK INTRA:                  -1.582
REMARK UNBOUND:                -0.933
REMARK SMILES CCCCCCCCCCCCCCC(=O)[O-]
REMARK SMILES IDX 9 1 10 2 11 3 12 4 13 5 14 6 15 7 16 8 17 9 8 10 7 11 6 12
REMARK SMILES IDX 5 13 4 14 3 15 2 16 1 17
REMARK H PARENT
REMARK Flexibility Score: inf
ROOT
ATOM      1  C   UNL     1       2.035   2.076  10.437  1.00  0.00     0.000 C 
ENDROOT
BRANCH   1   2
ATOM      2  C   UNL     1       2.725   1.334  11.594  1.00  0.00     0.000 C 
BRANCH   2   3
ATOM      3  C   UNL     1       3.180   2.276  12.724  1.00  0.00     0.000 C 
BRANCH   3   4
ATOM      4  C   UNL     1       4.631   2.782  12.614  1.00  0.00     0.000 C 
BRANCH   4   5
ATOM      5  C   UNL     1       4.725   4.229  12.103  1.00  0.00     0.006 C 
BRANCH   5   6
ATOM      6  C   UNL     1       5.839   4.404  11.062  1.00  0.00     0.053 C 
BRANCH   6   7
ATOM      7  C   UNL     1       5.338   5.067   9.817  1.00  0.00     0.041 C 
ATOM      8  O   UNL     1       4.550   4.457   9.045  1.00  0.00    -0.550 OA
ATOM      9  O   UNL     1       5.719   6.370   9.521  1.00  0.00    -0.550 OA
ENDBRANCH   6   7
ENDBRANCH   5   6
ENDBRANCH   4   5
ENDBRANCH   3   4
ENDBRANCH   2   3
ENDBRANCH   1   2
BRANCH   1  10
ATOM     10  C   UNL     1       1.074   3.176  10.920  1.00  0.00     0.000 C 
BRANCH  10  11
ATOM     11  C   UNL     1       1.259   4.557  10.256  1.00  0.00    -0.000 C 
BRANCH  11  12
ATOM     12  C   UNL     1       1.677   5.694  11.204  1.00  0.00    -0.000 C 
BRANCH  12  13
ATOM     13  C   UNL     1       2.231   6.920  10.460  1.00  0.00    -0.000 C 
BRANCH  13  14
ATOM     14  C   UNL     1       1.924   6.896   8.951  1.00  0.00    -0.000 C 
BRANCH  14  15
ATOM     15  C   UNL     1       1.612   8.268   8.324  1.00  0.00    -0.000 C 
BRANCH  15  16
ATOM     16  C   UNL     1       1.544   9.399   9.361  1.00  0.00    -0.003 C 
ATOM     17  C   UNL     1       0.110   9.629   9.828  1.00  0.00     0.004 C 
ENDBRANCH  15  16
ENDBRANCH  14  15
ENDBRANCH  13  14
ENDBRANCH  12  13
ENDBRANCH  11  12
ENDBRANCH  10  11
ENDBRANCH   1  10
TORSDOF 13
ENDMDL
