MODEL 1
REMARK VINA RESULT:    -4.662      0.000      0.000
REMARK INTER + INTRA:          -6.259
REMARK INTER:                  -6.570
REMARK INTRA:                   0.311
REMARK UNBOUND:                 0.311
REMARK SMILES CC1=CCC(=C(C)C)C(=O)CC(C)=CCC1
REMARK SMILES IDX 12 1 14 2 13 3 15 4 16 5 2 6 1 7 3 8 11 10 9 11 10 12 5 13
REMARK SMILES IDX 6 14 7 15 8 16 4 17
REMARK H PARENT
REMARK Flexibility Score: 60.00
ROOT
ATOM      1  C   UNL     1      47.251   2.972  18.755  1.00  0.00    -0.070 C 
ATOM      2  C   UNL     1      47.413   4.159  19.384  1.00  0.00    -0.027 C 
ATOM      3  C   UNL     1      46.145   2.853  17.739  1.00  0.00     0.039 C 
ENDROOT
BRANCH   2   4
ATOM      4  C   UNL     1      48.366   4.409  20.524  1.00  0.00     0.032 C 
BRANCH   4   5
ATOM      5  C   UNL     1      49.372   5.499  20.133  1.00  0.00     0.034 C 
BRANCH   5   6
ATOM      6  C   UNL     1      50.779   4.960  19.976  1.00  0.00    -0.077 C 
ATOM      7  C   UNL     1      51.720   5.040  21.153  1.00  0.00     0.039 C 
ATOM      8  C   UNL     1      51.224   4.338  18.855  1.00  0.00    -0.023 CG0
ATOM      9  G   UNL     1      50.493   4.186  17.534  1.00  0.00     0.000 G0
ENDBRANCH   5   6
ENDBRANCH   4   5
ENDBRANCH   2   4
BRANCH   1  10
ATOM     10  C   UNL     1      48.137   1.769  19.005  1.00  0.00     0.111 C 
BRANCH  10  11
ATOM     11  C   UNL     1      49.517   1.954  18.420  1.00  0.00     0.163 C 
ATOM     12  O   UNL     1      50.458   1.304  18.952  1.00  0.00    -0.294 OA
BRANCH  11  13
ATOM     13  C   UNL     1      49.814   2.838  17.243  1.00  0.00    -0.002 C 
ATOM     14  C   UNL     1      49.341   2.520  15.999  1.00  0.00    -0.069 C 
ATOM     15  C   UNL     1      49.416   3.489  14.841  1.00  0.00     0.039 C 
ATOM     16  C   UNL     1      48.761   1.155  15.699  1.00  0.00     0.039 C 
BRANCH  13  17
ATOM     17  C   UNL     1      50.492   4.176  17.512  1.00  0.00     0.066 CG0
ATOM     18  G   UNL     1      51.210   4.316  18.841  1.00  0.00     0.000 G0
ENDBRANCH  13  17
ENDBRANCH  11  13
ENDBRANCH  10  11
ENDBRANCH   1  10
TORSDOF 0
ENDMDL
MODEL 2
REMARK VINA RESULT:    -4.656      1.576      4.090
REMARK INTER + INTRA:          -6.251
REMARK INTER:                  -7.203
REMARK INTRA:                   0.952
REMARK UNBOUND:                 0.311
REMARK SMILES CC1=CCC(=C(C)C)C(=O)CC(C)=CCC1
REMARK SMILES IDX 12 1 14 2 13 3 15 4 16 5 2 6 1 7 3 8 11 10 9 11 10 12 5 13
REMARK SMILES IDX 6 14 7 15 8 16 4 17
REMARK H PARENT
REMARK Flexibility Score: 60.00
ROOT
ATOM      1  C   UNL     1      47.095   2.712  18.420  1.00  0.00    -0.070 C 
ATOM      2  C   UNL     1      47.306   2.039  17.264  1.00  0.00    -0.027 C 
ATOM      3  C   UNL     1      45.767   3.398  18.608  1.00  0.00     0.039 C 
ENDROOT
BRANCH   2   4
ATOM      4  C   UNL     1      48.618   1.424  16.850  1.00  0.00     0.032 C 
BRANCH   4   5
ATOM      5  C   UNL     1      48.953   1.832  15.411  1.00  0.00     0.034 C 
BRANCH   5   6
ATOM      6  C   UNL     1      49.741   3.125  15.344  1.00  0.00    -0.077 C 
ATOM      7  C   UNL     1      49.591   4.000  14.125  1.00  0.00     0.039 C 
ATOM      8  C   UNL     1      50.523   3.580  16.355  1.00  0.00    -0.023 CG0
ATOM      9  G   UNL     1      50.874   2.861  17.645  1.00  0.00     0.000 G0
ENDBRANCH   5   6
ENDBRANCH   4   5
ENDBRANCH   2   4
BRANCH   1  10
ATOM     10  C   UNL     1      48.116   2.790  19.536  1.00  0.00     0.111 C 
BRANCH  10  11
ATOM     11  C   UNL     1      49.136   3.877  19.290  1.00  0.00     0.163 C 
ATOM     12  O   UNL     1      48.742   5.069  19.402  1.00  0.00    -0.294 OA
BRANCH  11  13
ATOM     13  C   UNL     1      50.574   3.611  18.951  1.00  0.00    -0.002 C 
ATOM     14  C   UNL     1      51.564   3.887  19.855  1.00  0.00    -0.069 C 
ATOM     15  C   UNL     1      52.988   3.424  19.649  1.00  0.00     0.039 C 
ATOM     16  C   UNL     1      51.297   4.717  21.091  1.00  0.00     0.039 C 
BRANCH  13  17
ATOM     17  C   UNL     1      50.873   2.863  17.657  1.00  0.00     0.066 CG0
ATOM     18  G   UNL     1      50.533   3.584  16.365  1.00  0.00     0.000 G0
ENDBRANCH  13  17
ENDBRANCH  11  13
ENDBRANCH  10  11
ENDBRANCH   1  10
TORSDOF 0
ENDMDL
MODEL 3
REMARK VINA RESULT:    -4.499      1.649      4.308
REMARK INTER + INTRA:          -6.029
REMARK INTER:                  -7.139
REMARK INTRA:                   1.111
REMARK UNBOUND:                 0.311
REMARK SMILES CC1=CCC(=C(C)C)C(=O)CC(C)=CCC1
REMARK SMILES IDX 12 1 14 2 13 3 15 4 16 5 2 6 1 7 3 8 11 10 9 11 10 12 5 13
REMARK SMILES IDX 6 14 7 15 8 16 4 17
REMARK H PARENT
REMARK Flexibility Score: 60.00
ROOT
ATOM      1  C   UNL     1      49.247   2.476  16.558  1.00  0.00    -0.070 C 
ATOM      2  C   UNL     1      48.282   1.726  17.140  1.00  0.00    -0.027 C 
ATOM      3  C   UNL     1      49.045   2.908  15.129  1.00  0.00     0.039 C 
ENDROOT
BRANCH   2   4
ATOM      4  C   UNL     1      48.387   1.089  18.501  1.00  0.00     0.032 C 
BRANCH   4   5
ATOM      5  C   UNL     1      47.647   1.946  19.535  1.00  0.00     0.034 C 
BRANCH   5   6
ATOM      6  C   UNL     1      47.126   3.242  18.948  1.00  0.00    -0.077 C 
ATOM      7  C   UNL     1      45.919   3.193  18.045  1.00  0.00     0.039 C 
ATOM      8  C   UNL     1      47.641   4.462  19.246  1.00  0.00    -0.023 CG0
ATOM      9  G   UNL     1      48.876   4.764  20.075  1.00  0.00     0.000 G0
ENDBRANCH   5   6
ENDBRANCH   4   5
ENDBRANCH   2   4
BRANCH   1  10
ATOM     10  C   UNL     1      50.505   2.918  17.277  1.00  0.00     0.111 C 
BRANCH  10  11
ATOM     11  C   UNL     1      50.315   4.240  17.983  1.00  0.00     0.163 C 
ATOM     12  O   UNL     1      50.209   5.267  17.259  1.00  0.00    -0.294 OA
BRANCH  11  13
ATOM     13  C   UNL     1      50.225   4.384  19.474  1.00  0.00    -0.002 C 
ATOM     14  C   UNL     1      51.352   4.323  20.248  1.00  0.00    -0.069 C 
ATOM     15  C   UNL     1      51.340   4.691  21.714  1.00  0.00     0.039 C 
ATOM     16  C   UNL     1      52.669   3.831  19.688  1.00  0.00     0.039 C 
BRANCH  13  17
ATOM     17  C   UNL     1      48.879   4.780  20.071  1.00  0.00     0.066 CG0
ATOM     18  G   UNL     1      47.651   4.457  19.241  1.00  0.00     0.000 G0
ENDBRANCH  13  17
ENDBRANCH  11  13
ENDBRANCH  10  11
ENDBRANCH   1  10
TORSDOF 0
ENDMDL
MODEL 4
REMARK VINA RESULT:    -4.216      1.957      4.401
REMARK INTER + INTRA:          -5.630
REMARK INTER:                  -5.646
REMARK INTRA:                   0.015
REMARK UNBOUND:                 0.311
REMARK SMILES CC1=CCC(=C(C)C)C(=O)CC(C)=CCC1
REMARK SMILES IDX 12 1 14 2 13 3 15 4 16 5 2 6 1 7 3 8 11 10 9 11 10 12 5 13
REMARK SMILES IDX 6 14 7 15 8 16 4 17
REMARK H PARENT
REMARK Flexibility Score: 60.00
ROOT
ATOM      1  C   UNL     1      48.890   2.062  17.256  1.00  0.00    -0.070 C 
ATOM      2  C   UNL     1      48.697   2.051  15.917  1.00  0.00    -0.027 C 
ATOM      3  C   UNL     1      48.371   0.897  18.057  1.00  0.00     0.039 C 
ENDROOT
BRANCH   2   4
ATOM      4  C   UNL     1      49.018   3.194  14.988  1.00  0.00     0.032 C 
BRANCH   4   5
ATOM      5  C   UNL     1      50.500   3.147  14.597  1.00  0.00     0.034 C 
BRANCH   5   6
ATOM      6  C   UNL     1      51.175   4.498  14.720  1.00  0.00    -0.077 C 
ATOM      7  C   UNL     1      50.712   5.622  13.829  1.00  0.00     0.039 C 
ATOM      8  C   UNL     1      52.131   4.777  15.643  1.00  0.00    -0.023 CG0
ATOM      9  G   UNL     1      52.796   3.808  16.603  1.00  0.00     0.000 G0
ENDBRANCH   5   6
ENDBRANCH   4   5
ENDBRANCH   2   4
BRANCH   1  10
ATOM     10  C   UNL     1      49.619   3.174  17.984  1.00  0.00     0.111 C 
BRANCH  10  11
ATOM     11  C   UNL     1      51.061   2.818  18.257  1.00  0.00     0.163 C 
ATOM     12  O   UNL     1      51.292   1.656  18.689  1.00  0.00    -0.294 OA
BRANCH  11  13
ATOM     13  C   UNL     1      52.211   3.753  18.021  1.00  0.00    -0.002 C 
ATOM     14  C   UNL     1      52.807   4.401  19.069  1.00  0.00    -0.069 C 
ATOM     15  C   UNL     1      54.103   5.162  18.908  1.00  0.00     0.039 C 
ATOM     16  C   UNL     1      52.172   4.433  20.442  1.00  0.00     0.039 C 
BRANCH  13  17
ATOM     17  C   UNL     1      52.803   3.813  16.617  1.00  0.00     0.066 CG0
ATOM     18  G   UNL     1      52.135   4.765  15.642  1.00  0.00     0.000 G0
ENDBRANCH  13  17
ENDBRANCH  11  13
ENDBRANCH  10  11
ENDBRANCH   1  10
TORSDOF 0
ENDMDL
MODEL 5
REMARK VINA RESULT:    -4.005      1.784      4.217
REMARK INTER + INTRA:          -5.332
REMARK INTER:                  -5.829
REMARK INTRA:                   0.497
REMARK UNBOUND:                 0.311
REMARK SMILES CC1=CCC(=C(C)C)C(=O)CC(C)=CCC1
REMARK SMILES IDX 12 1 14 2 13 3 15 4 16 5 2 6 1 7 3 8 11 10 9 11 10 12 5 13
REMARK SMILES IDX 6 14 7 15 8 16 4 17
REMARK H PARENT
REMARK Flexibility Score: 60.00
ROOT
ATOM      1  C   UNL     1      48.064   4.554  19.732  1.00  0.00    -0.070 C 
ATOM      2  C   UNL     1      47.491   3.402  19.311  1.00  0.00    -0.027 C 
ATOM      3  C   UNL     1      47.336   5.846  19.470  1.00  0.00     0.039 C 
ENDROOT
BRANCH   2   4
ATOM      4  C   UNL     1      48.144   2.044  19.359  1.00  0.00     0.032 C 
BRANCH   4   5
ATOM      5  C   UNL     1      48.119   1.405  17.966  1.00  0.00     0.034 C 
BRANCH   5   6
ATOM      6  C   UNL     1      49.014   2.130  16.980  1.00  0.00    -0.077 C 
ATOM      7  C   UNL     1      48.468   2.454  15.612  1.00  0.00     0.039 C 
ATOM      8  C   UNL     1      50.261   2.571  17.283  1.00  0.00    -0.023 CG0
ATOM      9  G   UNL     1      51.043   2.321  18.559  1.00  0.00     0.000 G0
ENDBRANCH   5   6
ENDBRANCH   4   5
ENDBRANCH   2   4
BRANCH   1  10
ATOM     10  C   UNL     1      49.386   4.604  20.471  1.00  0.00     0.111 C 
BRANCH  10  11
ATOM     11  C   UNL     1      50.559   4.685  19.523  1.00  0.00     0.163 C 
ATOM     12  O   UNL     1      50.712   5.766  18.890  1.00  0.00    -0.294 OA
BRANCH  11  13
ATOM     13  C   UNL     1      51.545   3.572  19.317  1.00  0.00    -0.002 C 
ATOM     14  C   UNL     1      52.766   3.604  19.935  1.00  0.00    -0.069 C 
ATOM     15  C   UNL     1      53.691   2.408  19.944  1.00  0.00     0.039 C 
ATOM     16  C   UNL     1      53.282   4.860  20.602  1.00  0.00     0.039 C 
BRANCH  13  17
ATOM     17  C   UNL     1      51.077   2.337  18.558  1.00  0.00     0.066 CG0
ATOM     18  G   UNL     1      50.270   2.584  17.296  1.00  0.00     0.000 G0
ENDBRANCH  13  17
ENDBRANCH  11  13
ENDBRANCH  10  11
ENDBRANCH   1  10
TORSDOF 0
ENDMDL
MODEL 6
REMARK VINA RESULT:    -3.987      2.032      2.829
REMARK INTER + INTRA:          -5.308
REMARK INTER:                  -5.147
REMARK INTRA:                  -0.162
REMARK UNBOUND:                 0.311
REMARK SMILES CC1=CCC(=C(C)C)C(=O)CC(C)=CCC1
REMARK SMILES IDX 12 1 14 2 13 3 15 4 16 5 2 6 1 7 3 8 11 10 9 11 10 12 5 13
REMARK SMILES IDX 6 14 7 15 8 16 4 17
REMARK H PARENT
REMARK Flexibility Score: 60.00
ROOT
ATOM      1  C   UNL     1      48.875   2.487  18.599  1.00  0.00    -0.070 C 
ATOM      2  C   UNL     1      48.170   3.253  19.464  1.00  0.00    -0.027 C 
ATOM      3  C   UNL     1      48.151   1.376  17.884  1.00  0.00     0.039 C 
ENDROOT
BRANCH   2   4
ATOM      4  C   UNL     1      48.763   4.304  20.367  1.00  0.00     0.032 C 
BRANCH   4   5
ATOM      5  C   UNL     1      48.717   5.672  19.675  1.00  0.00     0.034 C 
BRANCH   5   6
ATOM      6  C   UNL     1      49.976   6.483  19.909  1.00  0.00    -0.077 C 
ATOM      7  C   UNL     1      50.215   7.067  21.279  1.00  0.00     0.039 C 
ATOM      8  C   UNL     1      50.943   6.654  18.973  1.00  0.00    -0.023 CG0
ATOM      9  G   UNL     1      50.907   6.217  17.520  1.00  0.00     0.000 G0
ENDBRANCH   5   6
ENDBRANCH   4   5
ENDBRANCH   2   4
BRANCH   1  10
ATOM     10  C   UNL     1      50.344   2.703  18.301  1.00  0.00     0.111 C 
BRANCH  10  11
ATOM     11  C   UNL     1      50.550   3.670  17.159  1.00  0.00     0.163 C 
ATOM     12  O   UNL     1      49.856   3.489  16.121  1.00  0.00    -0.294 OA
BRANCH  11  13
ATOM     13  C   UNL     1      51.505   4.828  17.206  1.00  0.00    -0.002 C 
ATOM     14  C   UNL     1      52.811   4.667  16.832  1.00  0.00    -0.069 C 
ATOM     15  C   UNL     1      53.742   5.843  16.643  1.00  0.00     0.039 C 
ATOM     16  C   UNL     1      53.414   3.293  16.636  1.00  0.00     0.039 C 
BRANCH  13  17
ATOM     17  C   UNL     1      50.934   6.209  17.504  1.00  0.00     0.066 CG0
ATOM     18  G   UNL     1      50.934   6.642  18.958  1.00  0.00     0.000 G0
ENDBRANCH  13  17
ENDBRANCH  11  13
ENDBRANCH  10  11
ENDBRANCH   1  10
TORSDOF 0
ENDMDL
MODEL 7
REMARK VINA RESULT:    -3.985      1.651      3.834
REMARK INTER + INTRA:          -5.305
REMARK INTER:                  -5.160
REMARK INTRA:                  -0.144
REMARK UNBOUND:                 0.311
REMARK SMILES CC1=CCC(=C(C)C)C(=O)CC(C)=CCC1
REMARK SMILES IDX 12 1 14 2 13 3 15 4 16 5 2 6 1 7 3 8 11 10 9 11 10 12 5 13
REMARK SMILES IDX 6 14 7 15 8 16 4 17
REMARK H PARENT
REMARK Flexibility Score: 60.00
ROOT
ATOM      1  C   UNL     1      50.657   5.577  19.955  1.00  0.00    -0.070 C 
ATOM      2  C   UNL     1      49.717   4.924  20.678  1.00  0.00    -0.027 C 
ATOM      3  C   UNL     1      51.883   6.077  20.673  1.00  0.00     0.039 C 
ENDROOT
BRANCH   2   4
ATOM      4  C   UNL     1      48.372   4.489  20.154  1.00  0.00     0.032 C 
BRANCH   4   5
ATOM      5  C   UNL     1      48.445   3.035  19.676  1.00  0.00     0.034 C 
BRANCH   5   6
ATOM      6  C   UNL     1      47.720   2.819  18.363  1.00  0.00    -0.077 C 
ATOM      7  C   UNL     1      46.211   2.808  18.363  1.00  0.00     0.039 C 
ATOM      8  C   UNL     1      48.351   2.707  17.167  1.00  0.00    -0.023 CG0
ATOM      9  G   UNL     1      49.846   2.632  16.916  1.00  0.00     0.000 G0
ENDBRANCH   5   6
ENDBRANCH   4   5
ENDBRANCH   2   4
BRANCH   1  10
ATOM     10  C   UNL     1      50.546   5.810  18.462  1.00  0.00     0.111 C 
BRANCH  10  11
ATOM     11  C   UNL     1      51.216   4.713  17.670  1.00  0.00     0.163 C 
ATOM     12  O   UNL     1      52.400   4.417  17.987  1.00  0.00    -0.294 OA
BRANCH  11  13
ATOM     13  C   UNL     1      50.545   3.954  16.561  1.00  0.00    -0.002 C 
ATOM     14  C   UNL     1      50.694   4.350  15.259  1.00  0.00    -0.069 C 
ATOM     15  C   UNL     1      50.235   3.492  14.103  1.00  0.00     0.039 C 
ATOM     16  C   UNL     1      51.283   5.698  14.906  1.00  0.00     0.039 C 
BRANCH  13  17
ATOM     17  C   UNL     1      49.856   2.641  16.912  1.00  0.00     0.066 CG0
ATOM     18  G   UNL     1      48.359   2.707  17.155  1.00  0.00     0.000 G0
ENDBRANCH  13  17
ENDBRANCH  11  13
ENDBRANCH  10  11
ENDBRANCH   1  10
TORSDOF 0
ENDMDL
MODEL 8
REMARK VINA RESULT:    -3.871      1.729      4.923
REMARK INTER + INTRA:          -5.144
REMARK INTER:                  -5.435
REMARK INTRA:                   0.292
REMARK UNBOUND:                 0.311
REMARK SMILES CC1=CCC(=C(C)C)C(=O)CC(C)=CCC1
REMARK SMILES IDX 12 1 14 2 13 3 15 4 16 5 2 6 1 7 3 8 11 10 9 11 10 12 5 13
REMARK SMILES IDX 6 14 7 15 8 16 4 17
REMARK H PARENT
REMARK Flexibility Score: 60.00
ROOT
ATOM      1  C   UNL     1      51.174   4.172  15.015  1.00  0.00    -0.070 C 
ATOM      2  C   UNL     1      50.148   3.512  14.428  1.00  0.00    -0.027 C 
ATOM      3  C   UNL     1      52.526   4.112  14.354  1.00  0.00     0.039 C 
ENDROOT
BRANCH   2   4
ATOM      4  C   UNL     1      48.774   3.346  15.026  1.00  0.00     0.032 C 
BRANCH   4   5
ATOM      5  C   UNL     1      48.757   2.129  15.959  1.00  0.00     0.034 C 
BRANCH   5   6
ATOM      6  C   UNL     1      47.934   2.368  17.209  1.00  0.00    -0.077 C 
ATOM      7  C   UNL     1      46.431   2.397  17.091  1.00  0.00     0.039 C 
ATOM      8  C   UNL     1      48.472   2.487  18.449  1.00  0.00    -0.023 CG0
ATOM      9  G   UNL     1      49.944   2.548  18.814  1.00  0.00     0.000 G0
ENDBRANCH   5   6
ENDBRANCH   4   5
ENDBRANCH   2   4
BRANCH   1  10
ATOM     10  C   UNL     1      51.025   4.982  16.287  1.00  0.00     0.111 C 
BRANCH  10  11
ATOM     11  C   UNL     1      51.469   4.205  17.504  1.00  0.00     0.163 C 
ATOM     12  O   UNL     1      52.654   3.773  17.508  1.00  0.00    -0.294 OA
BRANCH  11  13
ATOM     13  C   UNL     1      50.594   3.948  18.696  1.00  0.00    -0.002 C 
ATOM     14  C   UNL     1      50.267   4.966  19.550  1.00  0.00    -0.069 C 
ATOM     15  C   UNL     1      49.212   4.807  20.621  1.00  0.00     0.039 C 
ATOM     16  C   UNL     1      50.984   6.298  19.504  1.00  0.00     0.039 C 
BRANCH  13  17
ATOM     17  C   UNL     1      49.941   2.576  18.817  1.00  0.00     0.066 CG0
ATOM     18  G   UNL     1      48.470   2.493  18.452  1.00  0.00     0.000 G0
ENDBRANCH  13  17
ENDBRANCH  11  13
ENDBRANCH  10  11
ENDBRANCH   1  10
TORSDOF 0
ENDMDL
MODEL 9
REMARK VINA RESULT:    -3.667      2.164      4.012
REMARK INTER + INTRA:          -4.857
REMARK INTER:                  -4.729
REMARK INTRA:                  -0.127
REMARK UNBOUND:                 0.311
REMARK SMILES CC1=CCC(=C(C)C)C(=O)CC(C)=CCC1
REMARK SMILES IDX 12 1 14 2 13 3 15 4 16 5 2 6 1 7 3 8 11 10 9 11 10 12 5 13
REMARK SMILES IDX 6 14 7 15 8 16 4 17
REMARK H PARENT
REMARK Flexibility Score: 60.00
ROOT
ATOM      1  C   UNL     1      51.191   6.078  20.865  1.00  0.00    -0.070 C 
ATOM      2  C   UNL     1      52.535   5.919  20.848  1.00  0.00    -0.027 C 
ATOM      3  C   UNL     1      50.645   7.471  21.040  1.00  0.00     0.039 C 
ENDROOT
BRANCH   2   4
ATOM      4  C   UNL     1      53.247   4.590  20.830  1.00  0.00     0.032 C 
BRANCH   4   5
ATOM      5  C   UNL     1      53.484   4.146  19.382  1.00  0.00     0.034 C 
BRANCH   5   6
ATOM      6  C   UNL     1      53.220   2.668  19.179  1.00  0.00    -0.077 C 
ATOM      7  C   UNL     1      54.174   1.672  19.791  1.00  0.00     0.039 C 
ATOM      8  C   UNL     1      52.128   2.182  18.536  1.00  0.00    -0.023 CG0
ATOM      9  G   UNL     1      51.067   2.973  17.794  1.00  0.00     0.000 G0
ENDBRANCH   5   6
ENDBRANCH   4   5
ENDBRANCH   2   4
BRANCH   1  10
ATOM     10  C   UNL     1      50.214   4.933  20.696  1.00  0.00     0.111 C 
BRANCH  10  11
ATOM     11  C   UNL     1      49.837   4.723  19.249  1.00  0.00     0.163 C 
ATOM     12  O   UNL     1      49.539   5.749  18.579  1.00  0.00    -0.294 OA
BRANCH  11  13
ATOM     13  C   UNL     1      49.824   3.382  18.575  1.00  0.00    -0.002 C 
ATOM     14  C   UNL     1      48.677   2.635  18.535  1.00  0.00    -0.069 C 
ATOM     15  C   UNL     1      48.556   1.398  17.676  1.00  0.00     0.039 C 
ATOM     16  C   UNL     1      47.479   2.981  19.392  1.00  0.00     0.039 C 
BRANCH  13  17
ATOM     17  C   UNL     1      51.062   2.968  17.788  1.00  0.00     0.066 CG0
ATOM     18  G   UNL     1      52.112   2.177  18.547  1.00  0.00     0.000 G0
ENDBRANCH  13  17
ENDBRANCH  11  13
ENDBRANCH  10  11
ENDBRANCH   1  10
TORSDOF 0
ENDMDL
