MODEL 1
REMARK VINA RESULT:    32.850      0.000      0.000
REMARK INTER + INTRA:          36.722
REMARK INTER:                  35.730
REMARK INTRA:                   0.992
REMARK UNBOUND:                 0.992
REMARK SMILES C[C@H]1[C@H](C)CC[C@]2(C(=O)[O-])CC[C@]3(C)C(=CC[C@H]4[C@]5(C)CC[C@H](O)C(C)(C)[C@@H]5CC[C@@]43C)[C@@H]12
REMARK SMILES IDX 7 1 6 2 11 3 33 4 5 5 12 6 15 7 2 8 3 9 13 10 16 11 1 12
REMARK SMILES IDX 4 13 14 14 31 15 17 16 18 17 30 18 32 19 19 20 29 21 28 22
REMARK SMILES IDX 21 23 20 24 25 25 22 26 23 27 26 28 27 29 8 30 9 31 10 32
REMARK SMILES IDX 24 33
REMARK H PARENT 24 34
REMARK Flexibility Score: inf
ROOT
ATOM      1  C   UNL     1       3.721   0.064  -5.701  1.00  0.00     0.017 C 
ATOM      2  C   UNL     1       3.829   1.596  -5.984  1.00  0.00     0.014 C 
ATOM      3  C   UNL     1       2.530  -0.483  -6.534  1.00  0.00     0.014 C 
ATOM      4  C   UNL     1       3.453  -0.121  -4.168  1.00  0.00     0.030 C 
ATOM      5  C   UNL     1       4.872   2.320  -5.116  1.00  0.00     0.004 C 
ATOM      6  C   UNL     1       2.084  -1.909  -6.143  1.00  0.00     0.013 C 
ATOM      7  C   UNL     1       2.984  -1.551  -3.833  1.00  0.00    -0.063 C 
ATOM      8  C   UNL     1       4.571   0.540  -3.280  1.00  0.00    -0.003 C 
ATOM      9  C   UNL     1       4.692   2.060  -3.600  1.00  0.00    -0.011 C 
ATOM     10  C   UNL     1       1.757  -2.096  -4.617  1.00  0.00    -0.006 C 
ATOM     11  C   UNL     1       3.651  -2.316  -2.931  1.00  0.00    -0.027 C 
ATOM     12  C   UNL     1       5.984  -0.101  -3.358  1.00  0.00     0.008 C 
ATOM     13  C   UNL     1       3.528   2.885  -3.020  1.00  0.00     0.008 C 
ATOM     14  C   UNL     1       0.512  -1.211  -4.282  1.00  0.00     0.017 C 
ATOM     15  C   UNL     1       1.433  -3.640  -4.230  1.00  0.00    -0.020 C 
ATOM     16  C   UNL     1       3.578  -3.818  -2.875  1.00  0.00     0.032 C 
ATOM     17  C   UNL     1       2.806  -4.397  -4.083  1.00  0.00     0.006 C 
ATOM     18  C   UNL     1       0.524  -4.338  -5.296  1.00  0.00     0.008 C 
ATOM     19  C   UNL     1       0.647  -3.699  -2.875  1.00  0.00     0.012 C 
ATOM     20  C   UNL     1       2.857  -5.995  -4.240  1.00  0.00    -0.025 C 
ATOM     21  C   UNL     1       1.271  -5.325  -6.198  1.00  0.00     0.005 C 
ATOM     22  C   UNL     1       1.812  -6.506  -5.345  1.00  0.00     0.003 C 
ATOM     23  C   UNL     1       4.344  -6.348  -4.613  1.00  0.00     0.010 C 
ATOM     24  C   UNL     1       2.552  -6.701  -2.882  1.00  0.00     0.012 C 
ATOM     25  C   UNL     1       2.196  -7.822  -6.180  1.00  0.00    -0.006 C 
ATOM     26  C   UNL     1       4.564  -7.735  -5.201  1.00  0.00     0.033 C 
ATOM     27  C   UNL     1       3.726  -7.945  -6.458  1.00  0.00     0.120 C 
ATOM     28  C   UNL     1       1.728  -9.089  -5.402  1.00  0.00     0.014 C 
ATOM     29  C   UNL     1       1.459  -7.912  -7.547  1.00  0.00     0.014 C 
ENDROOT
BRANCH   1  30
ATOM     30  C   UNL     1       4.972  -0.671  -6.174  1.00  0.00     0.048 C 
ATOM     31  O   UNL     1       5.486  -1.583  -5.472  1.00  0.00    -0.550 OA
ATOM     32  O   UNL     1       5.626  -0.282  -7.337  1.00  0.00    -0.550 OA
ENDBRANCH   1  30
BRANCH  27  33
ATOM     33  O   UNL     1       4.167  -7.102  -7.498  1.00  0.00    -0.393 OA
ATOM     34  H   UNL     1       5.044  -6.720  -7.243  1.00  0.00     0.210 HD
ENDBRANCH  27  33
TORSDOF 2
ENDMDL
