MODEL 1
REMARK VINA RESULT:    -8.060      0.000      0.000
REMARK INTER + INTRA:          -9.026
REMARK INTER:                  -8.767
REMARK INTRA:                  -0.259
REMARK UNBOUND:                -0.259
REMARK SMILES CC1(C)CC[C@]2(C(=O)[O-])CC[C@]3(C)C(=CC[C@@H]4[C@]5(C)CC[C@@H](O)C(C)(C)[C@@H]5CC[C@]43C)[C@@H]2C1
REMARK SMILES IDX 6 1 5 2 10 3 32 4 4 5 11 6 14 7 33 8 2 9 12 10 15 11 1 12
REMARK SMILES IDX 3 13 13 14 30 15 16 16 17 17 29 18 31 19 18 20 28 21 27 22
REMARK SMILES IDX 20 23 19 24 24 25 21 26 22 27 25 28 26 29 7 30 8 31 9 32
REMARK SMILES IDX 23 33
REMARK H PARENT 23 34
REMARK Flexibility Score: inf
ROOT
ATOM      1  C   UNL     1     -15.562  29.787  -7.025  1.00  0.00     0.017 C 
ATOM      2  C   UNL     1     -14.642  29.858  -8.292  1.00  0.00     0.014 C 
ATOM      3  C   UNL     1     -16.958  29.216  -7.440  1.00  0.00     0.014 C 
ATOM      4  C   UNL     1     -15.665  31.212  -6.351  1.00  0.00     0.028 C 
ATOM      5  C   UNL     1     -13.430  30.774  -8.061  1.00  0.00     0.007 C 
ATOM      6  C   UNL     1     -18.065  30.272  -7.646  1.00  0.00     0.013 C 
ATOM      7  C   UNL     1     -17.012  31.425  -5.652  1.00  0.00    -0.064 C 
ATOM      8  C   UNL     1     -15.324  32.360  -7.330  1.00  0.00     0.015 C 
ATOM      9  C   UNL     1     -13.859  32.264  -7.863  1.00  0.00    -0.035 C 
ATOM     10  C   UNL     1     -18.331  31.233  -6.421  1.00  0.00    -0.006 C 
ATOM     11  C   UNL     1     -17.001  31.747  -4.336  1.00  0.00    -0.027 C 
ATOM     12  C   UNL     1     -12.889  32.953  -6.875  1.00  0.00     0.011 C 
ATOM     13  C   UNL     1     -13.769  33.012  -9.213  1.00  0.00     0.011 C 
ATOM     14  C   UNL     1     -18.708  32.625  -7.035  1.00  0.00     0.017 C 
ATOM     15  C   UNL     1     -19.485  30.695  -5.415  1.00  0.00    -0.020 C 
ATOM     16  C   UNL     1     -18.189  31.630  -3.422  1.00  0.00     0.032 C 
ATOM     17  C   UNL     1     -19.553  31.650  -4.156  1.00  0.00     0.006 C 
ATOM     18  C   UNL     1     -20.884  30.699  -6.079  1.00  0.00     0.008 C 
ATOM     19  C   UNL     1     -19.150  29.224  -5.014  1.00  0.00     0.012 C 
ATOM     20  C   UNL     1     -20.830  31.596  -3.175  1.00  0.00    -0.025 C 
ATOM     21  C   UNL     1     -21.992  30.284  -5.116  1.00  0.00     0.005 C 
ATOM     22  C   UNL     1     -22.189  31.310  -3.968  1.00  0.00     0.003 C 
ATOM     23  C   UNL     1     -20.617  30.562  -2.019  1.00  0.00     0.010 C 
ATOM     24  C   UNL     1     -20.932  33.022  -2.517  1.00  0.00     0.012 C 
ATOM     25  C   UNL     1     -23.452  30.949  -3.056  1.00  0.00    -0.006 C 
ATOM     26  C   UNL     1     -21.853  30.290  -1.156  1.00  0.00     0.033 C 
ATOM     27  C   UNL     1     -23.061  29.875  -1.996  1.00  0.00     0.120 C 
ATOM     28  C   UNL     1     -24.042  32.221  -2.375  1.00  0.00     0.014 C 
ATOM     29  C   UNL     1     -24.625  30.374  -3.905  1.00  0.00     0.014 C 
ENDROOT
BRANCH   1  30
ATOM     30  C   UNL     1     -14.953  28.788  -6.038  1.00  0.00     0.048 C 
ATOM     31  O   UNL     1     -14.363  29.200  -5.000  1.00  0.00    -0.550 OA
ATOM     32  O   UNL     1     -14.911  27.421  -6.327  1.00  0.00    -0.550 OA
ENDBRANCH   1  30
BRANCH  27  33
ATOM     33  O   UNL     1     -24.138  29.616  -1.124  1.00  0.00    -0.393 OA
ATOM     34  H   UNL     1     -24.242  30.410  -0.535  1.00  0.00     0.210 HD
ENDBRANCH  27  33
TORSDOF 2
ENDMDL
MODEL 2
REMARK VINA RESULT:    -7.540      1.845      3.375
REMARK INTER + INTRA:          -8.459
REMARK INTER:                  -8.197
REMARK INTRA:                  -0.263
REMARK UNBOUND:                -0.259
REMARK SMILES CC1(C)CC[C@]2(C(=O)[O-])CC[C@]3(C)C(=CC[C@@H]4[C@]5(C)CC[C@@H](O)C(C)(C)[C@@H]5CC[C@]43C)[C@@H]2C1
REMARK SMILES IDX 6 1 5 2 10 3 32 4 4 5 11 6 14 7 33 8 2 9 12 10 15 11 1 12
REMARK SMILES IDX 3 13 13 14 30 15 16 16 17 17 29 18 31 19 18 20 28 21 27 22
REMARK SMILES IDX 20 23 19 24 24 25 21 26 22 27 25 28 26 29 7 30 8 31 9 32
REMARK SMILES IDX 23 33
REMARK H PARENT 23 34
REMARK Flexibility Score: inf
ROOT
ATOM      1  C   UNL     1     -15.313  31.092  -6.700  1.00  0.00     0.017 C 
ATOM      2  C   UNL     1     -13.766  31.347  -6.718  1.00  0.00     0.014 C 
ATOM      3  C   UNL     1     -16.016  32.265  -5.941  1.00  0.00     0.014 C 
ATOM      4  C   UNL     1     -15.620  29.682  -6.058  1.00  0.00     0.028 C 
ATOM      5  C   UNL     1     -12.986  30.071  -7.065  1.00  0.00     0.007 C 
ATOM      6  C   UNL     1     -16.391  31.966  -4.474  1.00  0.00     0.013 C 
ATOM      7  C   UNL     1     -16.972  29.657  -5.337  1.00  0.00    -0.064 C 
ATOM      8  C   UNL     1     -14.468  29.172  -5.161  1.00  0.00     0.015 C 
ATOM      9  C   UNL     1     -13.141  28.977  -5.960  1.00  0.00    -0.035 C 
ATOM     10  C   UNL     1     -17.295  30.691  -4.244  1.00  0.00    -0.006 C 
ATOM     11  C   UNL     1     -17.880  28.727  -5.720  1.00  0.00    -0.027 C 
ATOM     12  C   UNL     1     -13.118  27.576  -6.614  1.00  0.00     0.011 C 
ATOM     13  C   UNL     1     -11.950  29.060  -4.979  1.00  0.00     0.011 C 
ATOM     14  C   UNL     1     -16.835  30.072  -2.880  1.00  0.00     0.017 C 
ATOM     15  C   UNL     1     -18.885  31.018  -4.243  1.00  0.00    -0.020 C 
ATOM     16  C   UNL     1     -19.348  28.789  -5.400  1.00  0.00     0.032 C 
ATOM     17  C   UNL     1     -19.687  29.657  -4.163  1.00  0.00     0.006 C 
ATOM     18  C   UNL     1     -19.301  31.876  -3.022  1.00  0.00     0.008 C 
ATOM     19  C   UNL     1     -19.229  31.823  -5.534  1.00  0.00     0.012 C 
ATOM     20  C   UNL     1     -21.251  29.668  -3.774  1.00  0.00    -0.025 C 
ATOM     21  C   UNL     1     -20.807  32.112  -2.957  1.00  0.00     0.005 C 
ATOM     22  C   UNL     1     -21.598  30.801  -2.701  1.00  0.00     0.003 C 
ATOM     23  C   UNL     1     -22.154  29.793  -5.047  1.00  0.00     0.010 C 
ATOM     24  C   UNL     1     -21.546  28.265  -3.124  1.00  0.00     0.012 C 
ATOM     25  C   UNL     1     -23.157  31.080  -2.478  1.00  0.00    -0.006 C 
ATOM     26  C   UNL     1     -23.643  30.017  -4.766  1.00  0.00     0.033 C 
ATOM     27  C   UNL     1     -23.880  31.219  -3.852  1.00  0.00     0.120 C 
ATOM     28  C   UNL     1     -23.813  29.966  -1.608  1.00  0.00     0.014 C 
ATOM     29  C   UNL     1     -23.394  32.397  -1.680  1.00  0.00     0.014 C 
ENDROOT
BRANCH   1  30
ATOM     30  C   UNL     1     -15.827  31.130  -8.142  1.00  0.00     0.048 C 
ATOM     31  O   UNL     1     -16.032  32.237  -8.714  1.00  0.00    -0.550 OA
ATOM     32  O   UNL     1     -16.211  29.960  -8.803  1.00  0.00    -0.550 OA
ENDBRANCH   1  30
BRANCH  27  33
ATOM     33  O   UNL     1     -25.270  31.370  -3.673  1.00  0.00    -0.393 OA
ATOM     34  H   UNL     1     -25.713  30.599  -4.116  1.00  0.00     0.210 HD
ENDBRANCH  27  33
TORSDOF 2
ENDMDL
MODEL 3
REMARK VINA RESULT:    -7.409      2.145      8.242
REMARK INTER + INTRA:          -8.318
REMARK INTER:                  -8.157
REMARK INTRA:                  -0.161
REMARK UNBOUND:                -0.259
REMARK SMILES CC1(C)CC[C@]2(C(=O)[O-])CC[C@]3(C)C(=CC[C@@H]4[C@]5(C)CC[C@@H](O)C(C)(C)[C@@H]5CC[C@]43C)[C@@H]2C1
REMARK SMILES IDX 6 1 5 2 10 3 32 4 4 5 11 6 14 7 33 8 2 9 12 10 15 11 1 12
REMARK SMILES IDX 3 13 13 14 30 15 16 16 17 17 29 18 31 19 18 20 28 21 27 22
REMARK SMILES IDX 20 23 19 24 24 25 21 26 22 27 25 28 26 29 7 30 8 31 9 32
REMARK SMILES IDX 23 33
REMARK H PARENT 23 34
REMARK Flexibility Score: inf
ROOT
ATOM      1  C   UNL     1     -19.514  31.666  -2.852  1.00  0.00     0.017 C 
ATOM      2  C   UNL     1     -20.845  32.170  -2.196  1.00  0.00     0.014 C 
ATOM      3  C   UNL     1     -18.963  32.775  -3.808  1.00  0.00     0.014 C 
ATOM      4  C   UNL     1     -19.763  30.294  -3.593  1.00  0.00     0.028 C 
ATOM      5  C   UNL     1     -21.649  31.013  -1.586  1.00  0.00     0.007 C 
ATOM      6  C   UNL     1     -19.269  32.562  -5.306  1.00  0.00     0.013 C 
ATOM      7  C   UNL     1     -18.842  30.117  -4.805  1.00  0.00    -0.064 C 
ATOM      8  C   UNL     1     -21.251  30.070  -3.949  1.00  0.00     0.015 C 
ATOM      9  C   UNL     1     -22.159  30.020  -2.680  1.00  0.00    -0.035 C 
ATOM     10  C   UNL     1     -18.792  31.184  -5.912  1.00  0.00    -0.006 C 
ATOM     11  C   UNL     1     -18.052  29.017  -4.848  1.00  0.00    -0.027 C 
ATOM     12  C   UNL     1     -22.185  28.585  -2.104  1.00  0.00     0.011 C 
ATOM     13  C   UNL     1     -23.603  30.393  -3.085  1.00  0.00     0.011 C 
ATOM     14  C   UNL     1     -19.867  30.784  -6.980  1.00  0.00     0.017 C 
ATOM     15  C   UNL     1     -17.305  31.242  -6.559  1.00  0.00    -0.020 C 
ATOM     16  C   UNL     1     -16.851  28.866  -5.741  1.00  0.00     0.032 C 
ATOM     17  C   UNL     1     -16.876  29.782  -6.989  1.00  0.00     0.006 C 
ATOM     18  C   UNL     1     -17.255  32.134  -7.824  1.00  0.00     0.008 C 
ATOM     19  C   UNL     1     -16.328  31.851  -5.506  1.00  0.00     0.012 C 
ATOM     20  C   UNL     1     -15.626  29.573  -7.985  1.00  0.00    -0.025 C 
ATOM     21  C   UNL     1     -15.886  32.124  -8.497  1.00  0.00     0.005 C 
ATOM     22  C   UNL     1     -15.528  30.732  -9.082  1.00  0.00     0.003 C 
ATOM     23  C   UNL     1     -14.285  29.423  -7.192  1.00  0.00     0.010 C 
ATOM     24  C   UNL     1     -15.887  28.210  -8.728  1.00  0.00     0.012 C 
ATOM     25  C   UNL     1     -14.166  30.770  -9.919  1.00  0.00    -0.006 C 
ATOM     26  C   UNL     1     -13.019  29.425  -8.055  1.00  0.00     0.033 C 
ATOM     27  C   UNL     1     -12.942  30.654  -8.960  1.00  0.00     0.120 C 
ATOM     28  C   UNL     1     -14.135  29.652 -11.005  1.00  0.00     0.014 C 
ATOM     29  C   UNL     1     -14.020  32.100 -10.716  1.00  0.00     0.014 C 
ENDROOT
BRANCH   1  30
ATOM     30  C   UNL     1     -18.470  31.479  -1.748  1.00  0.00     0.048 C 
ATOM     31  O   UNL     1     -17.470  32.248  -1.682  1.00  0.00    -0.550 OA
ATOM     32  O   UNL     1     -18.522  30.382  -0.883  1.00  0.00    -0.550 OA
ENDBRANCH   1  30
BRANCH  27  33
ATOM     33  O   UNL     1     -11.738  30.590  -9.690  1.00  0.00    -0.393 OA
ATOM     34  H   UNL     1     -11.055  31.105  -9.185  1.00  0.00     0.210 HD
ENDBRANCH  27  33
TORSDOF 2
ENDMDL
MODEL 4
REMARK VINA RESULT:    -7.405      2.381      8.465
REMARK INTER + INTRA:          -8.312
REMARK INTER:                  -8.069
REMARK INTRA:                  -0.244
REMARK UNBOUND:                -0.259
REMARK SMILES CC1(C)CC[C@]2(C(=O)[O-])CC[C@]3(C)C(=CC[C@@H]4[C@]5(C)CC[C@@H](O)C(C)(C)[C@@H]5CC[C@]43C)[C@@H]2C1
REMARK SMILES IDX 6 1 5 2 10 3 32 4 4 5 11 6 14 7 33 8 2 9 12 10 15 11 1 12
REMARK SMILES IDX 3 13 13 14 30 15 16 16 17 17 29 18 31 19 18 20 28 21 27 22
REMARK SMILES IDX 20 23 19 24 24 25 21 26 22 27 25 28 26 29 7 30 8 31 9 32
REMARK SMILES IDX 23 33
REMARK H PARENT 23 34
REMARK Flexibility Score: inf
ROOT
ATOM      1  C   UNL     1     -18.597  31.732  -3.058  1.00  0.00     0.017 C 
ATOM      2  C   UNL     1     -19.871  32.621  -2.852  1.00  0.00     0.014 C 
ATOM      3  C   UNL     1     -17.557  32.521  -3.921  1.00  0.00     0.014 C 
ATOM      4  C   UNL     1     -19.002  30.350  -3.708  1.00  0.00     0.028 C 
ATOM      5  C   UNL     1     -21.074  31.787  -2.387  1.00  0.00     0.007 C 
ATOM      6  C   UNL     1     -17.526  32.146  -5.417  1.00  0.00     0.013 C 
ATOM      7  C   UNL     1     -17.887  29.779  -4.592  1.00  0.00    -0.064 C 
ATOM      8  C   UNL     1     -20.360  30.414  -4.445  1.00  0.00     0.015 C 
ATOM      9  C   UNL     1     -21.536  30.773  -3.482  1.00  0.00    -0.035 C 
ATOM     10  C   UNL     1     -17.288  30.617  -5.735  1.00  0.00    -0.006 C 
ATOM     11  C   UNL     1     -17.425  28.537  -4.308  1.00  0.00    -0.027 C 
ATOM     12  C   UNL     1     -22.076  29.492  -2.806  1.00  0.00     0.011 C 
ATOM     13  C   UNL     1     -22.686  31.392  -4.309  1.00  0.00     0.011 C 
ATOM     14  C   UNL     1     -18.130  30.304  -7.019  1.00  0.00     0.017 C 
ATOM     15  C   UNL     1     -15.724  30.235  -5.941  1.00  0.00    -0.020 C 
ATOM     16  C   UNL     1     -16.122  27.980  -4.811  1.00  0.00     0.032 C 
ATOM     17  C   UNL     1     -15.596  28.666  -6.096  1.00  0.00     0.006 C 
ATOM     18  C   UNL     1     -15.132  30.879  -7.219  1.00  0.00     0.008 C 
ATOM     19  C   UNL     1     -14.916  30.769  -4.718  1.00  0.00     0.012 C 
ATOM     20  C   UNL     1     -14.238  28.025  -6.677  1.00  0.00    -0.025 C 
ATOM     21  C   UNL     1     -13.690  30.454  -7.477  1.00  0.00     0.005 C 
ATOM     22  C   UNL     1     -13.572  28.941  -7.806  1.00  0.00     0.003 C 
ATOM     23  C   UNL     1     -13.222  27.705  -5.530  1.00  0.00     0.010 C 
ATOM     24  C   UNL     1     -14.651  26.655  -7.333  1.00  0.00     0.012 C 
ATOM     25  C   UNL     1     -12.083  28.537  -8.226  1.00  0.00    -0.006 C 
ATOM     26  C   UNL     1     -11.825  27.284  -5.998  1.00  0.00     0.033 C 
ATOM     27  C   UNL     1     -11.209  28.304  -6.957  1.00  0.00     0.120 C 
ATOM     28  C   UNL     1     -12.075  27.283  -9.151  1.00  0.00     0.014 C 
ATOM     29  C   UNL     1     -11.404  29.656  -9.071  1.00  0.00     0.014 C 
ENDROOT
BRANCH   1  30
ATOM     30  C   UNL     1     -17.946  31.493  -1.693  1.00  0.00     0.048 C 
ATOM     31  O   UNL     1     -17.008  32.242  -1.298  1.00  0.00    -0.550 OA
ATOM     32  O   UNL     1     -18.272  30.374  -0.923  1.00  0.00    -0.550 OA
ENDBRANCH   1  30
BRANCH  27  33
ATOM     33  O   UNL     1      -9.921  27.855  -7.311  1.00  0.00    -0.393 OA
ATOM     34  H   UNL     1      -9.760  27.000  -6.830  1.00  0.00     0.210 HD
ENDBRANCH  27  33
TORSDOF 2
ENDMDL
MODEL 5
REMARK VINA RESULT:    -7.396      3.116      6.315
REMARK INTER + INTRA:          -8.303
REMARK INTER:                  -8.075
REMARK INTRA:                  -0.228
REMARK UNBOUND:                -0.259
REMARK SMILES CC1(C)CC[C@]2(C(=O)[O-])CC[C@]3(C)C(=CC[C@@H]4[C@]5(C)CC[C@@H](O)C(C)(C)[C@@H]5CC[C@]43C)[C@@H]2C1
REMARK SMILES IDX 6 1 5 2 10 3 32 4 4 5 11 6 14 7 33 8 2 9 12 10 15 11 1 12
REMARK SMILES IDX 3 13 13 14 30 15 16 16 17 17 29 18 31 19 18 20 28 21 27 22
REMARK SMILES IDX 20 23 19 24 24 25 21 26 22 27 25 28 26 29 7 30 8 31 9 32
REMARK SMILES IDX 23 33
REMARK H PARENT 23 34
REMARK Flexibility Score: inf
ROOT
ATOM      1  C   UNL     1     -19.958  31.573  -2.706  1.00  0.00     0.017 C 
ATOM      2  C   UNL     1     -18.485  31.471  -2.181  1.00  0.00     0.014 C 
ATOM      3  C   UNL     1     -20.933  31.067  -1.592  1.00  0.00     0.014 C 
ATOM      4  C   UNL     1     -20.107  30.767  -4.056  1.00  0.00     0.028 C 
ATOM      5  C   UNL     1     -17.468  31.548  -3.330  1.00  0.00     0.007 C 
ATOM      6  C   UNL     1     -21.434  29.618  -1.767  1.00  0.00     0.013 C 
ATOM      7  C   UNL     1     -21.516  30.191  -4.233  1.00  0.00    -0.064 C 
ATOM      8  C   UNL     1     -19.008  29.693  -4.233  1.00  0.00     0.015 C 
ATOM      9  C   UNL     1     -17.578  30.317  -4.286  1.00  0.00    -0.035 C 
ATOM     10  C   UNL     1     -22.138  29.298  -3.144  1.00  0.00    -0.006 C 
ATOM     11  C   UNL     1     -22.204  30.524  -5.351  1.00  0.00    -0.027 C 
ATOM     12  C   UNL     1     -17.243  30.755  -5.731  1.00  0.00     0.011 C 
ATOM     13  C   UNL     1     -16.549  29.243  -3.867  1.00  0.00     0.011 C 
ATOM     14  C   UNL     1     -21.756  27.819  -3.495  1.00  0.00     0.017 C 
ATOM     15  C   UNL     1     -23.748  29.505  -3.112  1.00  0.00    -0.020 C 
ATOM     16  C   UNL     1     -23.690  30.366  -5.515  1.00  0.00     0.032 C 
ATOM     17  C   UNL     1     -24.319  29.309  -4.573  1.00  0.00     0.006 C 
ATOM     18  C   UNL     1     -24.448  28.470  -2.195  1.00  0.00     0.008 C 
ATOM     19  C   UNL     1     -24.055  30.927  -2.550  1.00  0.00     0.012 C 
ATOM     20  C   UNL     1     -25.899  29.087  -4.795  1.00  0.00    -0.025 C 
ATOM     21  C   UNL     1     -25.969  28.592  -2.227  1.00  0.00     0.005 C 
ATOM     22  C   UNL     1     -26.559  28.230  -3.617  1.00  0.00     0.003 C 
ATOM     23  C   UNL     1     -26.645  30.448  -4.995  1.00  0.00     0.010 C 
ATOM     24  C   UNL     1     -26.039  28.273  -6.135  1.00  0.00     0.012 C 
ATOM     25  C   UNL     1     -28.158  28.209  -3.597  1.00  0.00    -0.006 C 
ATOM     26  C   UNL     1     -28.173  30.355  -5.009  1.00  0.00     0.033 C 
ATOM     27  C   UNL     1     -28.718  29.654  -3.764  1.00  0.00     0.120 C 
ATOM     28  C   UNL     1     -28.726  27.257  -4.693  1.00  0.00     0.014 C 
ATOM     29  C   UNL     1     -28.707  27.640  -2.255  1.00  0.00     0.014 C 
ENDROOT
BRANCH   1  30
ATOM     30  C   UNL     1     -20.288  33.049  -2.943  1.00  0.00     0.048 C 
ATOM     31  O   UNL     1     -20.935  33.702  -2.077  1.00  0.00    -0.550 OA
ATOM     32  O   UNL     1     -20.007  33.665  -4.166  1.00  0.00    -0.550 OA
ENDBRANCH   1  30
BRANCH  27  33
ATOM     33  O   UNL     1     -30.125  29.641  -3.844  1.00  0.00    -0.393 OA
ATOM     34  H   UNL     1     -30.423  30.573  -4.016  1.00  0.00     0.210 HD
ENDBRANCH  27  33
TORSDOF 2
ENDMDL
MODEL 6
REMARK VINA RESULT:    -7.353      3.275      9.292
REMARK INTER + INTRA:          -8.256
REMARK INTER:                  -7.994
REMARK INTRA:                  -0.262
REMARK UNBOUND:                -0.259
REMARK SMILES CC1(C)CC[C@]2(C(=O)[O-])CC[C@]3(C)C(=CC[C@@H]4[C@]5(C)CC[C@@H](O)C(C)(C)[C@@H]5CC[C@]43C)[C@@H]2C1
REMARK SMILES IDX 6 1 5 2 10 3 32 4 4 5 11 6 14 7 33 8 2 9 12 10 15 11 1 12
REMARK SMILES IDX 3 13 13 14 30 15 16 16 17 17 29 18 31 19 18 20 28 21 27 22
REMARK SMILES IDX 20 23 19 24 24 25 21 26 22 27 25 28 26 29 7 30 8 31 9 32
REMARK SMILES IDX 23 33
REMARK H PARENT 23 34
REMARK Flexibility Score: inf
ROOT
ATOM      1  C   UNL     1     -26.480  27.964  -3.730  1.00  0.00     0.017 C 
ATOM      2  C   UNL     1     -27.991  27.886  -3.322  1.00  0.00     0.014 C 
ATOM      3  C   UNL     1     -25.597  27.835  -2.445  1.00  0.00     0.014 C 
ATOM      4  C   UNL     1     -26.204  29.300  -4.525  1.00  0.00     0.028 C 
ATOM      5  C   UNL     1     -28.907  28.411  -4.438  1.00  0.00     0.007 C 
ATOM      6  C   UNL     1     -25.062  29.168  -1.880  1.00  0.00     0.013 C 
ATOM      7  C   UNL     1     -24.776  29.815  -4.311  1.00  0.00    -0.064 C 
ATOM      8  C   UNL     1     -27.268  30.388  -4.250  1.00  0.00     0.015 C 
ATOM      9  C   UNL     1     -28.697  29.939  -4.690  1.00  0.00    -0.035 C 
ATOM     10  C   UNL     1     -24.237  30.058  -2.890  1.00  0.00    -0.006 C 
ATOM     11  C   UNL     1     -24.000  30.010  -5.404  1.00  0.00    -0.027 C 
ATOM     12  C   UNL     1     -28.913  30.249  -6.189  1.00  0.00     0.011 C 
ATOM     13  C   UNL     1     -29.743  30.744  -3.885  1.00  0.00     0.011 C 
ATOM     14  C   UNL     1     -24.567  31.547  -2.526  1.00  0.00     0.017 C 
ATOM     15  C   UNL     1     -22.640  29.775  -2.848  1.00  0.00    -0.020 C 
ATOM     16  C   UNL     1     -22.503  30.147  -5.371  1.00  0.00     0.032 C 
ATOM     17  C   UNL     1     -21.942  30.603  -4.001  1.00  0.00     0.006 C 
ATOM     18  C   UNL     1     -22.006  30.219  -1.506  1.00  0.00     0.008 C 
ATOM     19  C   UNL     1     -22.402  28.241  -3.005  1.00  0.00     0.012 C 
ATOM     20  C   UNL     1     -20.346  30.819  -3.982  1.00  0.00    -0.025 C 
ATOM     21  C   UNL     1     -20.490  30.046  -1.487  1.00  0.00     0.005 C 
ATOM     22  C   UNL     1     -19.777  30.986  -2.496  1.00  0.00     0.003 C 
ATOM     23  C   UNL     1     -19.606  29.673  -4.749  1.00  0.00     0.010 C 
ATOM     24  C   UNL     1     -20.080  32.158  -4.765  1.00  0.00     0.012 C 
ATOM     25  C   UNL     1     -18.186  30.910  -2.359  1.00  0.00    -0.006 C 
ATOM     26  C   UNL     1     -18.080  29.680  -4.612  1.00  0.00     0.033 C 
ATOM     27  C   UNL     1     -17.635  29.685  -3.149  1.00  0.00     0.120 C 
ATOM     28  C   UNL     1     -17.512  32.233  -2.833  1.00  0.00     0.014 C 
ATOM     29  C   UNL     1     -17.747  30.753  -0.872  1.00  0.00     0.014 C 
ENDROOT
BRANCH   1  30
ATOM     30  C   UNL     1     -26.153  26.756  -4.612  1.00  0.00     0.048 C 
ATOM     31  O   UNL     1     -25.852  25.648  -4.085  1.00  0.00    -0.550 OA
ATOM     32  O   UNL     1     -26.042  26.884  -5.999  1.00  0.00    -0.550 OA
ENDBRANCH   1  30
BRANCH  27  33
ATOM     33  O   UNL     1     -16.226  29.659  -3.116  1.00  0.00    -0.393 OA
ATOM     34  H   UNL     1     -15.911  29.399  -4.022  1.00  0.00     0.210 HD
ENDBRANCH  27  33
TORSDOF 2
ENDMDL
MODEL 7
REMARK VINA RESULT:    -7.317      1.544      8.401
REMARK INTER + INTRA:          -8.217
REMARK INTER:                  -8.068
REMARK INTRA:                  -0.149
REMARK UNBOUND:                -0.259
REMARK SMILES CC1(C)CC[C@]2(C(=O)[O-])CC[C@]3(C)C(=CC[C@@H]4[C@]5(C)CC[C@@H](O)C(C)(C)[C@@H]5CC[C@]43C)[C@@H]2C1
REMARK SMILES IDX 6 1 5 2 10 3 32 4 4 5 11 6 14 7 33 8 2 9 12 10 15 11 1 12
REMARK SMILES IDX 3 13 13 14 30 15 16 16 17 17 29 18 31 19 18 20 28 21 27 22
REMARK SMILES IDX 20 23 19 24 24 25 21 26 22 27 25 28 26 29 7 30 8 31 9 32
REMARK SMILES IDX 23 33
REMARK H PARENT 23 34
REMARK Flexibility Score: inf
ROOT
ATOM      1  C   UNL     1     -23.555  30.437  -2.982  1.00  0.00     0.017 C 
ATOM      2  C   UNL     1     -25.064  30.862  -2.996  1.00  0.00     0.014 C 
ATOM      3  C   UNL     1     -22.664  31.711  -3.165  1.00  0.00     0.014 C 
ATOM      4  C   UNL     1     -23.291  29.346  -4.094  1.00  0.00     0.028 C 
ATOM      5  C   UNL     1     -25.988  29.659  -3.238  1.00  0.00     0.007 C 
ATOM      6  C   UNL     1     -22.134  31.941  -4.597  1.00  0.00     0.013 C 
ATOM      7  C   UNL     1     -21.865  29.423  -4.651  1.00  0.00    -0.064 C 
ATOM      8  C   UNL     1     -24.359  29.363  -5.211  1.00  0.00     0.015 C 
ATOM      9  C   UNL     1     -25.789  29.052  -4.664  1.00  0.00    -0.035 C 
ATOM     10  C   UNL     1     -21.320  30.742  -5.226  1.00  0.00    -0.006 C 
ATOM     11  C   UNL     1     -21.096  28.310  -4.585  1.00  0.00    -0.027 C 
ATOM     12  C   UNL     1     -26.014  27.523  -4.609  1.00  0.00     0.011 C 
ATOM     13  C   UNL     1     -26.835  29.649  -5.632  1.00  0.00     0.011 C 
ATOM     14  C   UNL     1     -21.656  30.746  -6.757  1.00  0.00     0.017 C 
ATOM     15  C   UNL     1     -19.721  30.840  -4.968  1.00  0.00    -0.020 C 
ATOM     16  C   UNL     1     -19.600  28.300  -4.733  1.00  0.00     0.032 C 
ATOM     17  C   UNL     1     -19.034  29.519  -5.502  1.00  0.00     0.006 C 
ATOM     18  C   UNL     1     -19.083  32.034  -5.720  1.00  0.00     0.008 C 
ATOM     19  C   UNL     1     -19.475  31.049  -3.442  1.00  0.00     0.012 C 
ATOM     20  C   UNL     1     -17.439  29.477  -5.724  1.00  0.00    -0.025 C 
ATOM     21  C   UNL     1     -17.566  32.084  -5.563  1.00  0.00     0.005 C 
ATOM     22  C   UNL     1     -16.864  30.877  -6.241  1.00  0.00     0.003 C 
ATOM     23  C   UNL     1     -16.696  28.997  -4.432  1.00  0.00     0.010 C 
ATOM     24  C   UNL     1     -17.185  28.397  -6.841  1.00  0.00     0.012 C 
ATOM     25  C   UNL     1     -15.271  31.018  -6.206  1.00  0.00    -0.006 C 
ATOM     26  C   UNL     1     -15.170  29.119  -4.479  1.00  0.00     0.033 C 
ATOM     27  C   UNL     1     -14.717  30.536  -4.831  1.00  0.00     0.120 C 
ATOM     28  C   UNL     1     -14.608  30.239  -7.382  1.00  0.00     0.014 C 
ATOM     29  C   UNL     1     -14.823  32.496  -6.408  1.00  0.00     0.014 C 
ENDROOT
BRANCH   1  30
ATOM     30  C   UNL     1     -23.225  29.864  -1.602  1.00  0.00     0.048 C 
ATOM     31  O   UNL     1     -22.432  30.477  -0.833  1.00  0.00    -0.550 OA
ATOM     32  O   UNL     1     -23.675  28.598  -1.219  1.00  0.00    -0.550 OA
ENDBRANCH   1  30
BRANCH  27  33
ATOM     33  O   UNL     1     -13.308  30.565  -4.821  1.00  0.00    -0.393 OA
ATOM     34  H   UNL     1     -13.024  31.409  -5.262  1.00  0.00     0.210 HD
ENDBRANCH  27  33
TORSDOF 2
ENDMDL
MODEL 8
REMARK VINA RESULT:    -7.278      2.421      8.929
REMARK INTER + INTRA:          -8.174
REMARK INTER:                  -7.983
REMARK INTRA:                  -0.191
REMARK UNBOUND:                -0.259
REMARK SMILES CC1(C)CC[C@]2(C(=O)[O-])CC[C@]3(C)C(=CC[C@@H]4[C@]5(C)CC[C@@H](O)C(C)(C)[C@@H]5CC[C@]43C)[C@@H]2C1
REMARK SMILES IDX 6 1 5 2 10 3 32 4 4 5 11 6 14 7 33 8 2 9 12 10 15 11 1 12
REMARK SMILES IDX 3 13 13 14 30 15 16 16 17 17 29 18 31 19 18 20 28 21 27 22
REMARK SMILES IDX 20 23 19 24 24 25 21 26 22 27 25 28 26 29 7 30 8 31 9 32
REMARK SMILES IDX 23 33
REMARK H PARENT 23 34
REMARK Flexibility Score: inf
ROOT
ATOM      1  C   UNL     1     -25.234  29.301  -3.815  1.00  0.00     0.017 C 
ATOM      2  C   UNL     1     -26.495  28.374  -3.896  1.00  0.00     0.014 C 
ATOM      3  C   UNL     1     -24.451  29.218  -5.168  1.00  0.00     0.014 C 
ATOM      4  C   UNL     1     -24.345  28.897  -2.574  1.00  0.00     0.028 C 
ATOM      5  C   UNL     1     -27.071  28.079  -2.503  1.00  0.00     0.007 C 
ATOM      6  C   UNL     1     -23.223  28.283  -5.159  1.00  0.00     0.013 C 
ATOM      7  C   UNL     1     -22.856  29.169  -2.816  1.00  0.00    -0.064 C 
ATOM      8  C   UNL     1     -24.607  27.448  -2.100  1.00  0.00     0.015 C 
ATOM      9  C   UNL     1     -26.082  27.240  -1.632  1.00  0.00    -0.035 C 
ATOM     10  C   UNL     1     -22.143  28.580  -4.046  1.00  0.00    -0.006 C 
ATOM     11  C   UNL     1     -22.206  29.970  -1.938  1.00  0.00    -0.027 C 
ATOM     12  C   UNL     1     -26.230  27.646  -0.147  1.00  0.00     0.011 C 
ATOM     13  C   UNL     1     -26.435  25.739  -1.749  1.00  0.00     0.011 C 
ATOM     14  C   UNL     1     -21.567  27.187  -3.617  1.00  0.00     0.017 C 
ATOM     15  C   UNL     1     -20.967  29.585  -4.538  1.00  0.00    -0.020 C 
ATOM     16  C   UNL     1     -20.883  30.632  -2.210  1.00  0.00     0.032 C 
ATOM     17  C   UNL     1     -20.040  29.931  -3.304  1.00  0.00     0.006 C 
ATOM     18  C   UNL     1     -20.072  28.943  -5.627  1.00  0.00     0.008 C 
ATOM     19  C   UNL     1     -21.625  30.860  -5.149  1.00  0.00     0.012 C 
ATOM     20  C   UNL     1     -18.593  30.595  -3.548  1.00  0.00    -0.025 C 
ATOM     21  C   UNL     1     -18.906  29.839  -6.032  1.00  0.00     0.005 C 
ATOM     22  C   UNL     1     -17.891  30.044  -4.875  1.00  0.00     0.003 C 
ATOM     23  C   UNL     1     -18.677  32.158  -3.555  1.00  0.00     0.010 C 
ATOM     24  C   UNL     1     -17.710  30.178  -2.313  1.00  0.00     0.012 C 
ATOM     25  C   UNL     1     -16.598  30.853  -5.353  1.00  0.00    -0.006 C 
ATOM     26  C   UNL     1     -17.393  32.875  -3.982  1.00  0.00     0.033 C 
ATOM     27  C   UNL     1     -16.885  32.385  -5.339  1.00  0.00     0.120 C 
ATOM     28  C   UNL     1     -15.356  30.507  -4.477  1.00  0.00     0.014 C 
ATOM     29  C   UNL     1     -16.181  30.462  -6.802  1.00  0.00     0.014 C 
ENDROOT
BRANCH   1  30
ATOM     30  C   UNL     1     -25.705  30.750  -3.668  1.00  0.00     0.048 C 
ATOM     31  O   UNL     1     -25.290  31.458  -2.707  1.00  0.00    -0.550 OA
ATOM     32  O   UNL     1     -26.700  31.274  -4.498  1.00  0.00    -0.550 OA
ENDBRANCH   1  30
BRANCH  27  33
ATOM     33  O   UNL     1     -15.725  33.116  -5.666  1.00  0.00    -0.393 OA
ATOM     34  H   UNL     1     -16.018  33.969  -6.083  1.00  0.00     0.210 HD
ENDBRANCH  27  33
TORSDOF 2
ENDMDL
MODEL 9
REMARK VINA RESULT:    -7.209      3.557      6.043
REMARK INTER + INTRA:          -8.100
REMARK INTER:                  -8.020
REMARK INTRA:                  -0.080
REMARK UNBOUND:                -0.259
REMARK SMILES CC1(C)CC[C@]2(C(=O)[O-])CC[C@]3(C)C(=CC[C@@H]4[C@]5(C)CC[C@@H](O)C(C)(C)[C@@H]5CC[C@]43C)[C@@H]2C1
REMARK SMILES IDX 6 1 5 2 10 3 32 4 4 5 11 6 14 7 33 8 2 9 12 10 15 11 1 12
REMARK SMILES IDX 3 13 13 14 30 15 16 16 17 17 29 18 31 19 18 20 28 21 27 22
REMARK SMILES IDX 20 23 19 24 24 25 21 26 22 27 25 28 26 29 7 30 8 31 9 32
REMARK SMILES IDX 23 33
REMARK H PARENT 23 34
REMARK Flexibility Score: inf
ROOT
ATOM      1  C   UNL     1     -19.937  31.887  -4.511  1.00  0.00     0.017 C 
ATOM      2  C   UNL     1     -18.861  32.956  -4.115  1.00  0.00     0.014 C 
ATOM      3  C   UNL     1     -21.358  32.537  -4.428  1.00  0.00     0.014 C 
ATOM      4  C   UNL     1     -19.797  30.612  -3.587  1.00  0.00     0.028 C 
ATOM      5  C   UNL     1     -17.514  32.303  -3.772  1.00  0.00     0.007 C 
ATOM      6  C   UNL     1     -22.150  32.220  -3.142  1.00  0.00     0.013 C 
ATOM      7  C   UNL     1     -21.141  29.909  -3.367  1.00  0.00    -0.064 C 
ATOM      8  C   UNL     1     -19.069  30.917  -2.257  1.00  0.00     0.015 C 
ATOM      9  C   UNL     1     -17.608  31.418  -2.487  1.00  0.00    -0.035 C 
ATOM     10  C   UNL     1     -22.351  30.687  -2.821  1.00  0.00    -0.006 C 
ATOM     11  C   UNL     1     -21.235  28.600  -3.703  1.00  0.00    -0.027 C 
ATOM     12  C   UNL     1     -16.649  30.212  -2.620  1.00  0.00     0.011 C 
ATOM     13  C   UNL     1     -17.164  32.242  -1.257  1.00  0.00     0.011 C 
ATOM     14  C   UNL     1     -22.307  30.561  -1.259  1.00  0.00     0.017 C 
ATOM     15  C   UNL     1     -23.724  30.073  -3.429  1.00  0.00    -0.020 C 
ATOM     16  C   UNL     1     -22.532  27.865  -3.904  1.00  0.00     0.032 C 
ATOM     17  C   UNL     1     -23.741  28.511  -3.182  1.00  0.00     0.006 C 
ATOM     18  C   UNL     1     -24.980  30.666  -2.744  1.00  0.00     0.008 C 
ATOM     19  C   UNL     1     -23.797  30.424  -4.947  1.00  0.00     0.012 C 
ATOM     20  C   UNL     1     -25.117  27.687  -3.336  1.00  0.00    -0.025 C 
ATOM     21  C   UNL     1     -26.275  30.030  -3.239  1.00  0.00     0.005 C 
ATOM     22  C   UNL     1     -26.384  28.532  -2.847  1.00  0.00     0.003 C 
ATOM     23  C   UNL     1     -25.309  27.168  -4.800  1.00  0.00     0.010 C 
ATOM     24  C   UNL     1     -24.975  26.426  -2.405  1.00  0.00     0.012 C 
ATOM     25  C   UNL     1     -27.808  27.917  -3.233  1.00  0.00    -0.006 C 
ATOM     26  C   UNL     1     -26.680  26.552  -5.095  1.00  0.00     0.033 C 
ATOM     27  C   UNL     1     -27.825  27.499  -4.735  1.00  0.00     0.120 C 
ATOM     28  C   UNL     1     -28.175  26.714  -2.312  1.00  0.00     0.014 C 
ATOM     29  C   UNL     1     -28.955  28.947  -3.014  1.00  0.00     0.014 C 
ENDROOT
BRANCH   1  30
ATOM     30  C   UNL     1     -19.716  31.495  -5.974  1.00  0.00     0.048 C 
ATOM     31  O   UNL     1     -18.876  32.122  -6.679  1.00  0.00    -0.550 OA
ATOM     32  O   UNL     1     -20.527  30.543  -6.597  1.00  0.00    -0.550 OA
ENDBRANCH   1  30
BRANCH  27  33
ATOM     33  O   UNL     1     -29.041  26.867  -5.066  1.00  0.00    -0.393 OA
ATOM     34  H   UNL     1     -29.026  25.960  -4.662  1.00  0.00     0.210 HD
ENDBRANCH  27  33
TORSDOF 2
ENDMDL
