MODEL 1
REMARK VINA RESULT:    -2.903      0.000      0.000
REMARK INTER + INTRA:          -3.445
REMARK INTER:                  -3.412
REMARK INTRA:                  -0.032
REMARK UNBOUND:                -0.032
REMARK SMILES O=C([O-])CCC(=O)[O-]
REMARK SMILES IDX 4 1 2 2 1 3 3 4 5 5 6 6 7 7 8 8
REMARK H PARENT
REMARK Flexibility Score: inf
ROOT
ATOM      1  C   UNL     1     154.253 156.590 166.101  1.00  0.00     0.059 C 
ENDROOT
BRANCH   1   2
ATOM      2  C   UNL     1     154.030 157.687 165.109  1.00  0.00     0.042 C 
ATOM      3  O   UNL     1     153.879 157.417 163.889  1.00  0.00    -0.550 OA
ATOM      4  O   UNL     1     153.940 159.005 165.539  1.00  0.00    -0.550 OA
ENDBRANCH   1   2
BRANCH   1   5
ATOM      5  C   UNL     1     155.680 156.050 165.992  1.00  0.00     0.059 C 
BRANCH   5   6
ATOM      6  C   UNL     1     155.978 155.125 167.129  1.00  0.00     0.042 C 
ATOM      7  O   UNL     1     157.062 154.484 167.157  1.00  0.00    -0.550 OA
ATOM      8  O   UNL     1     155.081 155.006 168.182  1.00  0.00    -0.550 OA
ENDBRANCH   5   6
ENDBRANCH   1   5
TORSDOF 3
ENDMDL
MODEL 2
REMARK VINA RESULT:    -2.811      0.613      4.356
REMARK INTER + INTRA:          -3.336
REMARK INTER:                  -3.307
REMARK INTRA:                  -0.029
REMARK UNBOUND:                -0.032
REMARK SMILES O=C([O-])CCC(=O)[O-]
REMARK SMILES IDX 4 1 2 2 1 3 3 4 5 5 6 6 7 7 8 8
REMARK H PARENT
REMARK Flexibility Score: inf
ROOT
ATOM      1  C   UNL     1     155.959 156.122 165.993  1.00  0.00     0.059 C 
ENDROOT
BRANCH   1   2
ATOM      2  C   UNL     1     156.284 154.834 166.680  1.00  0.00     0.042 C 
ATOM      3  O   UNL     1     155.741 154.547 167.779  1.00  0.00    -0.550 OA
ATOM      4  O   UNL     1     157.149 153.926 166.082  1.00  0.00    -0.550 OA
ENDBRANCH   1   2
BRANCH   1   5
ATOM      5  C   UNL     1     154.462 156.419 166.090  1.00  0.00     0.059 C 
BRANCH   5   6
ATOM      6  C   UNL     1     154.088 157.531 165.161  1.00  0.00     0.042 C 
ATOM      7  O   UNL     1     154.112 158.725 165.560  1.00  0.00    -0.550 OA
ATOM      8  O   UNL     1     153.758 157.253 163.841  1.00  0.00    -0.550 OA
ENDBRANCH   5   6
ENDBRANCH   1   5
TORSDOF 3
ENDMDL
MODEL 3
REMARK VINA RESULT:    -2.780      2.131      3.826
REMARK INTER + INTRA:          -3.299
REMARK INTER:                  -3.176
REMARK INTRA:                  -0.124
REMARK UNBOUND:                -0.032
REMARK SMILES O=C([O-])CCC(=O)[O-]
REMARK SMILES IDX 4 1 2 2 1 3 3 4 5 5 6 6 7 7 8 8
REMARK H PARENT
REMARK Flexibility Score: inf
ROOT
ATOM      1  C   UNL     1     155.956 155.403 166.654  1.00  0.00     0.059 C 
ENDROOT
BRANCH   1   2
ATOM      2  C   UNL     1     154.925 155.040 167.675  1.00  0.00     0.042 C 
ATOM      3  O   UNL     1     155.190 154.197 168.572  1.00  0.00    -0.550 OA
ATOM      4  O   UNL     1     153.687 155.670 167.668  1.00  0.00    -0.550 OA
ENDBRANCH   1   2
BRANCH   1   5
ATOM      5  C   UNL     1     155.289 155.962 165.396  1.00  0.00     0.059 C 
BRANCH   5   6
ATOM      6  C   UNL     1     154.863 154.849 164.491  1.00  0.00     0.042 C 
ATOM      7  O   UNL     1     153.693 154.822 164.026  1.00  0.00    -0.550 OA
ATOM      8  O   UNL     1     155.774 153.866 164.121  1.00  0.00    -0.550 OA
ENDBRANCH   5   6
ENDBRANCH   1   5
TORSDOF 3
ENDMDL
MODEL 4
REMARK VINA RESULT:    -2.771      2.370      2.899
REMARK INTER + INTRA:          -3.289
REMARK INTER:                  -3.162
REMARK INTRA:                  -0.127
REMARK UNBOUND:                -0.032
REMARK SMILES O=C([O-])CCC(=O)[O-]
REMARK SMILES IDX 4 1 2 2 1 3 3 4 5 5 6 6 7 7 8 8
REMARK H PARENT
REMARK Flexibility Score: inf
ROOT
ATOM      1  C   UNL     1     155.893 155.875 165.844  1.00  0.00     0.059 C 
ENDROOT
BRANCH   1   2
ATOM      2  C   UNL     1     155.739 154.940 164.687  1.00  0.00     0.042 C 
ATOM      3  O   UNL     1     154.592 154.618 164.280  1.00  0.00    -0.550 OA
ATOM      4  O   UNL     1     156.863 154.462 164.025  1.00  0.00    -0.550 OA
ENDBRANCH   1   2
BRANCH   1   5
ATOM      5  C   UNL     1     156.232 155.100 167.118  1.00  0.00     0.059 C 
BRANCH   5   6
ATOM      6  C   UNL     1     154.983 154.749 167.865  1.00  0.00     0.042 C 
ATOM      7  O   UNL     1     154.980 153.789 168.679  1.00  0.00    -0.550 OA
ATOM      8  O   UNL     1     153.835 155.514 167.697  1.00  0.00    -0.550 OA
ENDBRANCH   5   6
ENDBRANCH   1   5
TORSDOF 3
ENDMDL
MODEL 5
REMARK VINA RESULT:    -2.732     15.752     17.257
REMARK INTER + INTRA:          -3.244
REMARK INTER:                  -3.062
REMARK INTRA:                  -0.182
REMARK UNBOUND:                -0.032
REMARK SMILES O=C([O-])CCC(=O)[O-]
REMARK SMILES IDX 4 1 2 2 1 3 3 4 5 5 6 6 7 7 8 8
REMARK H PARENT
REMARK Flexibility Score: inf
ROOT
ATOM      1  C   UNL     1     166.078 152.050 177.213  1.00  0.00     0.059 C 
ENDROOT
BRANCH   1   2
ATOM      2  C   UNL     1     166.020 153.544 177.198  1.00  0.00     0.042 C 
ATOM      3  O   UNL     1     165.650 154.174 178.224  1.00  0.00    -0.550 OA
ATOM      4  O   UNL     1     166.422 154.245 176.068  1.00  0.00    -0.550 OA
ENDBRANCH   1   2
BRANCH   1   5
ATOM      5  C   UNL     1     167.513 151.567 176.998  1.00  0.00     0.059 C 
BRANCH   5   6
ATOM      6  C   UNL     1     168.357 151.889 178.191  1.00  0.00     0.042 C 
ATOM      7  O   UNL     1     169.409 152.570 178.059  1.00  0.00    -0.550 OA
ATOM      8  O   UNL     1     167.957 151.478 179.456  1.00  0.00    -0.550 OA
ENDBRANCH   5   6
ENDBRANCH   1   5
TORSDOF 3
ENDMDL
MODEL 6
REMARK VINA RESULT:    -2.724      1.366      2.061
REMARK INTER + INTRA:          -3.234
REMARK INTER:                  -3.126
REMARK INTRA:                  -0.108
REMARK UNBOUND:                -0.032
REMARK SMILES O=C([O-])CCC(=O)[O-]
REMARK SMILES IDX 4 1 2 2 1 3 3 4 5 5 6 6 7 7 8 8
REMARK H PARENT
REMARK Flexibility Score: inf
ROOT
ATOM      1  C   UNL     1     154.319 156.494 166.041  1.00  0.00     0.059 C 
ENDROOT
BRANCH   1   2
ATOM      2  C   UNL     1     154.037 157.650 165.134  1.00  0.00     0.042 C 
ATOM      3  O   UNL     1     154.012 158.823 165.590  1.00  0.00    -0.550 OA
ATOM      4  O   UNL     1     153.852 157.437 163.773  1.00  0.00    -0.550 OA
ENDBRANCH   1   2
BRANCH   1   5
ATOM      5  C   UNL     1     155.804 156.134 166.004  1.00  0.00     0.059 C 
BRANCH   5   6
ATOM      6  C   UNL     1     156.007 154.822 165.314  1.00  0.00     0.042 C 
ATOM      7  O   UNL     1     156.515 153.851 165.935  1.00  0.00    -0.550 OA
ATOM      8  O   UNL     1     155.591 154.656 163.999  1.00  0.00    -0.550 OA
ENDBRANCH   5   6
ENDBRANCH   1   5
TORSDOF 3
ENDMDL
MODEL 7
REMARK VINA RESULT:    -2.723     15.765     17.627
REMARK INTER + INTRA:          -3.233
REMARK INTER:                  -3.048
REMARK INTRA:                  -0.184
REMARK UNBOUND:                -0.032
REMARK SMILES O=C([O-])CCC(=O)[O-]
REMARK SMILES IDX 4 1 2 2 1 3 3 4 5 5 6 6 7 7 8 8
REMARK H PARENT
REMARK Flexibility Score: inf
ROOT
ATOM      1  C   UNL     1     167.538 151.584 176.997  1.00  0.00     0.059 C 
ENDROOT
BRANCH   1   2
ATOM      2  C   UNL     1     168.379 151.930 178.184  1.00  0.00     0.042 C 
ATOM      3  O   UNL     1     169.409 152.640 178.046  1.00  0.00    -0.550 OA
ATOM      4  O   UNL     1     167.998 151.511 179.453  1.00  0.00    -0.550 OA
ENDBRANCH   1   2
BRANCH   1   5
ATOM      5  C   UNL     1     166.098 152.056 177.205  1.00  0.00     0.059 C 
BRANCH   5   6
ATOM      6  C   UNL     1     166.032 153.551 177.204  1.00  0.00     0.042 C 
ATOM      7  O   UNL     1     165.653 154.170 178.233  1.00  0.00    -0.550 OA
ATOM      8  O   UNL     1     166.435 154.264 176.082  1.00  0.00    -0.550 OA
ENDBRANCH   5   6
ENDBRANCH   1   5
TORSDOF 3
ENDMDL
MODEL 8
REMARK VINA RESULT:    -2.715     15.773     17.292
REMARK INTER + INTRA:          -3.224
REMARK INTER:                  -3.043
REMARK INTRA:                  -0.181
REMARK UNBOUND:                -0.032
REMARK SMILES O=C([O-])CCC(=O)[O-]
REMARK SMILES IDX 4 1 2 2 1 3 3 4 5 5 6 6 7 7 8 8
REMARK H PARENT
REMARK Flexibility Score: inf
ROOT
ATOM      1  C   UNL     1     166.088 152.073 177.210  1.00  0.00     0.059 C 
ENDROOT
BRANCH   1   2
ATOM      2  C   UNL     1     166.060 153.568 177.152  1.00  0.00     0.042 C 
ATOM      3  O   UNL     1     165.655 154.233 178.141  1.00  0.00    -0.550 OA
ATOM      4  O   UNL     1     166.527 154.229 176.023  1.00  0.00    -0.550 OA
ENDBRANCH   1   2
BRANCH   1   5
ATOM      5  C   UNL     1     167.519 151.558 177.049  1.00  0.00     0.059 C 
BRANCH   5   6
ATOM      6  C   UNL     1     168.348 151.938 178.235  1.00  0.00     0.042 C 
ATOM      7  O   UNL     1     168.062 151.493 179.378  1.00  0.00    -0.550 OA
ATOM      8  O   UNL     1     169.466 152.746 178.071  1.00  0.00    -0.550 OA
ENDBRANCH   5   6
ENDBRANCH   1   5
TORSDOF 3
ENDMDL
MODEL 9
REMARK VINA RESULT:    -2.694     15.772     17.670
REMARK INTER + INTRA:          -3.199
REMARK INTER:                  -3.021
REMARK INTRA:                  -0.178
REMARK UNBOUND:                -0.032
REMARK SMILES O=C([O-])CCC(=O)[O-]
REMARK SMILES IDX 4 1 2 2 1 3 3 4 5 5 6 6 7 7 8 8
REMARK H PARENT
REMARK Flexibility Score: inf
ROOT
ATOM      1  C   UNL     1     167.676 151.581 177.069  1.00  0.00     0.059 C 
ENDROOT
BRANCH   1   2
ATOM      2  C   UNL     1     168.413 151.930 178.322  1.00  0.00     0.042 C 
ATOM      3  O   UNL     1     169.513 152.540 178.262  1.00  0.00    -0.550 OA
ATOM      4  O   UNL     1     167.863 151.626 179.561  1.00  0.00    -0.550 OA
ENDBRANCH   1   2
BRANCH   1   5
ATOM      5  C   UNL     1     166.218 152.032 177.162  1.00  0.00     0.059 C 
BRANCH   5   6
ATOM      6  C   UNL     1     166.128 153.525 177.119  1.00  0.00     0.042 C 
ATOM      7  O   UNL     1     166.428 154.148 176.066  1.00  0.00    -0.550 OA
ATOM      8  O   UNL     1     165.666 154.226 178.226  1.00  0.00    -0.550 OA
ENDBRANCH   5   6
ENDBRANCH   1   5
TORSDOF 3
ENDMDL
