MODEL 1
REMARK VINA RESULT:    -6.660      0.000      0.000
REMARK INTER + INTRA:          -8.504
REMARK INTER:                  -8.217
REMARK INTRA:                  -0.287
REMARK UNBOUND:                -0.287
REMARK SMILES COc1cc(-c2oc3cc(O)cc(O)c3c(=O)c2O)ccc1O
REMARK SMILES IDX 6 1 18 2 16 3 17 4 15 5 13 6 12 7 10 8 9 9 8 10 7 11 5 12
REMARK SMILES IDX 3 13 22 14 4 15 21 16 20 17 2 18 1 19 23 20 19 22 14 24
REMARK SMILES IDX 11 26
REMARK H PARENT 23 21 19 23 14 25 11 27
REMARK Flexibility Score: inf
ROOT
ATOM      1  C   UNL     1       2.155   5.901   6.902  1.00  0.00     0.180 A 
ATOM      2  C   UNL     1       3.299   6.583   6.456  1.00  0.00     0.208 A 
ATOM      3  C   UNL     1       4.519   5.893   6.381  1.00  0.00     0.238 A 
ATOM      4  O   UNL     1       5.551   6.523   6.032  1.00  0.00    -0.285 OA
ATOM      5  C   UNL     1       4.576   4.524   6.737  1.00  0.00     0.111 A 
ATOM      6  C   UNL     1       5.749   3.714   6.662  1.00  0.00     0.134 A 
ATOM      7  C   UNL     1       5.721   2.407   7.165  1.00  0.00     0.093 A 
ATOM      8  C   UNL     1       4.547   1.859   7.678  1.00  0.00     0.123 A 
ATOM      9  C   UNL     1       3.378   2.621   7.703  1.00  0.00     0.094 A 
ATOM     10  C   UNL     1       3.384   3.941   7.243  1.00  0.00     0.146 A 
ATOM     11  O   UNL     1       2.254   4.636   7.292  1.00  0.00    -0.452 OA
ENDROOT
BRANCH   1  12
ATOM     12  C   UNL     1       0.829   6.556   6.985  1.00  0.00     0.025 A 
ATOM     13  C   UNL     1      -0.874   7.690   8.327  1.00  0.00     0.161 A 
ATOM     14  C   UNL     1      -1.709   7.752   7.198  1.00  0.00     0.157 A 
ATOM     15  C   UNL     1       0.393   7.083   8.212  1.00  0.00     0.062 A 
ATOM     16  C   UNL     1      -1.284   7.209   5.981  1.00  0.00     0.051 A 
ATOM     17  C   UNL     1      -0.028   6.610   5.875  1.00  0.00     0.016 A 
BRANCH  13  18
ATOM     18  O   UNL     1      -1.329   8.237   9.537  1.00  0.00    -0.493 OA
ATOM     19  C   UNL     1      -2.318   7.641  10.372  1.00  0.00     0.278 C 
ENDBRANCH  13  18
BRANCH  14  20
ATOM     20  O   UNL     1      -2.970   8.345   7.265  1.00  0.00    -0.504 OA
ATOM     21  H   UNL     1      -3.246   9.099   6.646  1.00  0.00     0.293 HD
ENDBRANCH  14  20
ENDBRANCH   1  12
BRANCH   2  22
ATOM     22  O   UNL     1       3.225   7.941   6.129  1.00  0.00    -0.502 OA
ATOM     23  H   UNL     1       2.632   8.290   5.386  1.00  0.00     0.293 HD
ENDBRANCH   2  22
BRANCH   6  24
ATOM     24  O   UNL     1       6.951   4.134   6.083  1.00  0.00    -0.507 OA
ATOM     25  H   UNL     1       7.707   3.520   5.820  1.00  0.00     0.293 HD
ENDBRANCH   6  24
BRANCH   8  26
ATOM     26  O   UNL     1       4.551   0.551   8.156  1.00  0.00    -0.508 OA
ATOM     27  H   UNL     1       3.984  -0.171   7.727  1.00  0.00     0.293 HD
ENDBRANCH   8  26
TORSDOF 6
ENDMDL
MODEL 2
REMARK VINA RESULT:    -6.143      2.773      7.495
REMARK INTER + INTRA:          -7.867
REMARK INTER:                  -7.541
REMARK INTRA:                  -0.325
REMARK UNBOUND:                -0.287
REMARK SMILES COc1cc(-c2oc3cc(O)cc(O)c3c(=O)c2O)ccc1O
REMARK SMILES IDX 6 1 18 2 16 3 17 4 15 5 13 6 12 7 10 8 9 9 8 10 7 11 5 12
REMARK SMILES IDX 3 13 22 14 4 15 21 16 20 17 2 18 1 19 23 20 19 22 14 24
REMARK SMILES IDX 11 26
REMARK H PARENT 23 21 19 23 14 25 11 27
REMARK Flexibility Score: inf
ROOT
ATOM      1  C   UNL     1       4.395   1.717   7.836  1.00  0.00     0.180 A 
ATOM      2  C   UNL     1       5.670   2.106   7.390  1.00  0.00     0.208 A 
ATOM      3  C   UNL     1       5.835   3.381   6.825  1.00  0.00     0.238 A 
ATOM      4  O   UNL     1       6.967   3.702   6.378  1.00  0.00    -0.285 OA
ATOM      5  C   UNL     1       4.727   4.257   6.728  1.00  0.00     0.111 A 
ATOM      6  C   UNL     1       4.787   5.585   6.210  1.00  0.00     0.134 A 
ATOM      7  C   UNL     1       3.603   6.314   6.040  1.00  0.00     0.093 A 
ATOM      8  C   UNL     1       2.372   5.790   6.430  1.00  0.00     0.123 A 
ATOM      9  C   UNL     1       2.308   4.515   6.993  1.00  0.00     0.094 A 
ATOM     10  C   UNL     1       3.467   3.748   7.141  1.00  0.00     0.146 A 
ATOM     11  O   UNL     1       3.363   2.536   7.671  1.00  0.00    -0.452 OA
ENDROOT
BRANCH   1  12
ATOM     12  C   UNL     1       4.148   0.399   8.465  1.00  0.00     0.025 A 
ATOM     13  C   UNL     1       3.119  -1.818   8.361  1.00  0.00     0.161 A 
ATOM     14  C   UNL     1       3.606  -2.094   9.651  1.00  0.00     0.157 A 
ATOM     15  C   UNL     1       3.390  -0.563   7.778  1.00  0.00     0.062 A 
ATOM     16  C   UNL     1       4.344  -1.129  10.343  1.00  0.00     0.051 A 
ATOM     17  C   UNL     1       4.608   0.111   9.760  1.00  0.00     0.016 A 
BRANCH  13  18
ATOM     18  O   UNL     1       2.375  -2.803   7.693  1.00  0.00    -0.493 OA
ATOM     19  C   UNL     1       2.926  -3.759   6.792  1.00  0.00     0.278 C 
ENDBRANCH  13  18
BRANCH  14  20
ATOM     20  O   UNL     1       3.363  -3.323  10.266  1.00  0.00    -0.504 OA
ATOM     21  H   UNL     1       2.426  -3.687  10.394  1.00  0.00     0.293 HD
ENDBRANCH  14  20
ENDBRANCH   1  12
BRANCH   2  22
ATOM     22  O   UNL     1       6.746   1.218   7.476  1.00  0.00    -0.502 OA
ATOM     23  H   UNL     1       6.684   0.256   7.163  1.00  0.00     0.293 HD
ENDBRANCH   2  22
BRANCH   6  24
ATOM     24  O   UNL     1       5.976   6.240   5.875  1.00  0.00    -0.507 OA
ATOM     25  H   UNL     1       6.125   7.235   5.949  1.00  0.00     0.293 HD
ENDBRANCH   6  24
BRANCH   8  26
ATOM     26  O   UNL     1       1.216   6.549   6.261  1.00  0.00    -0.508 OA
ATOM     27  H   UNL     1       0.790   7.045   7.035  1.00  0.00     0.293 HD
ENDBRANCH   8  26
TORSDOF 6
ENDMDL
MODEL 3
REMARK VINA RESULT:    -6.140      1.849      6.641
REMARK INTER + INTRA:          -7.862
REMARK INTER:                  -7.735
REMARK INTRA:                  -0.127
REMARK UNBOUND:                -0.287
REMARK SMILES COc1cc(-c2oc3cc(O)cc(O)c3c(=O)c2O)ccc1O
REMARK SMILES IDX 6 1 18 2 16 3 17 4 15 5 13 6 12 7 10 8 9 9 8 10 7 11 5 12
REMARK SMILES IDX 3 13 22 14 4 15 21 16 20 17 2 18 1 19 23 20 19 22 14 24
REMARK SMILES IDX 11 26
REMARK H PARENT 23 21 19 23 14 25 11 27
REMARK Flexibility Score: inf
ROOT
ATOM      1  C   UNL     1       3.639   3.815   6.751  1.00  0.00     0.180 A 
ATOM      2  C   UNL     1       4.744   4.663   6.566  1.00  0.00     0.208 A 
ATOM      3  C   UNL     1       4.527   6.039   6.392  1.00  0.00     0.238 A 
ATOM      4  O   UNL     1       5.517   6.785   6.172  1.00  0.00    -0.285 OA
ATOM      5  C   UNL     1       3.208   6.553   6.422  1.00  0.00     0.111 A 
ATOM      6  C   UNL     1       2.873   7.934   6.297  1.00  0.00     0.134 A 
ATOM      7  C   UNL     1       1.528   8.314   6.210  1.00  0.00     0.093 A 
ATOM      8  C   UNL     1       0.506   7.371   6.309  1.00  0.00     0.123 A 
ATOM      9  C   UNL     1       0.820   6.024   6.491  1.00  0.00     0.094 A 
ATOM     10  C   UNL     1       2.153   5.610   6.545  1.00  0.00     0.146 A 
ATOM     11  O   UNL     1       2.411   4.318   6.709  1.00  0.00    -0.452 OA
ENDROOT
BRANCH   1  12
ATOM     12  C   UNL     1       3.790   2.358   6.965  1.00  0.00     0.025 A 
ATOM     13  C   UNL     1       3.535   0.410   8.424  1.00  0.00     0.161 A 
ATOM     14  C   UNL     1       4.118  -0.398   7.432  1.00  0.00     0.157 A 
ATOM     15  C   UNL     1       3.382   1.791   8.183  1.00  0.00     0.062 A 
ATOM     16  C   UNL     1       4.543   0.170   6.227  1.00  0.00     0.051 A 
ATOM     17  C   UNL     1       4.388   1.537   5.995  1.00  0.00     0.016 A 
BRANCH  13  18
ATOM     18  O   UNL     1       3.124  -0.185   9.627  1.00  0.00    -0.493 OA
ATOM     19  C   UNL     1       1.907  -0.905   9.797  1.00  0.00     0.278 C 
ENDBRANCH  13  18
BRANCH  14  20
ATOM     20  O   UNL     1       4.288  -1.769   7.626  1.00  0.00    -0.504 OA
ATOM     21  H   UNL     1       5.203  -2.190   7.733  1.00  0.00     0.293 HD
ENDBRANCH  14  20
ENDBRANCH   1  12
BRANCH   2  22
ATOM     22  O   UNL     1       6.037   4.132   6.518  1.00  0.00    -0.502 OA
ATOM     23  H   UNL     1       6.548   3.868   7.352  1.00  0.00     0.293 HD
ENDBRANCH   2  22
BRANCH   6  24
ATOM     24  O   UNL     1       3.815   8.968   6.282  1.00  0.00    -0.507 OA
ATOM     25  H   UNL     1       3.599   9.944   6.414  1.00  0.00     0.293 HD
ENDBRANCH   6  24
BRANCH   8  26
ATOM     26  O   UNL     1      -0.822   7.787   6.233  1.00  0.00    -0.508 OA
ATOM     27  H   UNL     1      -1.205   8.460   6.887  1.00  0.00     0.293 HD
ENDBRANCH   8  26
TORSDOF 6
ENDMDL
MODEL 4
REMARK VINA RESULT:    -6.129      2.700      5.746
REMARK INTER + INTRA:          -7.849
REMARK INTER:                  -8.309
REMARK INTRA:                   0.460
REMARK UNBOUND:                -0.287
REMARK SMILES COc1cc(-c2oc3cc(O)cc(O)c3c(=O)c2O)ccc1O
REMARK SMILES IDX 6 1 18 2 16 3 17 4 15 5 13 6 12 7 10 8 9 9 8 10 7 11 5 12
REMARK SMILES IDX 3 13 22 14 4 15 21 16 20 17 2 18 1 19 23 20 19 22 14 24
REMARK SMILES IDX 11 26
REMARK H PARENT 23 21 19 23 14 25 11 27
REMARK Flexibility Score: inf
ROOT
ATOM      1  C   UNL     1       4.336   1.751   7.446  1.00  0.00     0.180 A 
ATOM      2  C   UNL     1       5.402   0.930   7.042  1.00  0.00     0.208 A 
ATOM      3  C   UNL     1       5.409  -0.419   7.429  1.00  0.00     0.238 A 
ATOM      4  O   UNL     1       6.393  -1.136   7.111  1.00  0.00    -0.285 OA
ATOM      5  C   UNL     1       4.340  -0.935   8.202  1.00  0.00     0.111 A 
ATOM      6  C   UNL     1       4.223  -2.296   8.617  1.00  0.00     0.134 A 
ATOM      7  C   UNL     1       3.191  -2.666   9.488  1.00  0.00     0.093 A 
ATOM      8  C   UNL     1       2.236  -1.741   9.907  1.00  0.00     0.123 A 
ATOM      9  C   UNL     1       2.306  -0.421   9.460  1.00  0.00     0.094 A 
ATOM     10  C   UNL     1       3.345  -0.013   8.620  1.00  0.00     0.146 A 
ATOM     11  O   UNL     1       3.382   1.254   8.226  1.00  0.00    -0.452 OA
ENDROOT
BRANCH   1  12
ATOM     12  C   UNL     1       4.247   3.177   7.057  1.00  0.00     0.025 A 
ATOM     13  C   UNL     1       3.010   5.288   7.078  1.00  0.00     0.161 A 
ATOM     14  C   UNL     1       4.014   5.873   6.286  1.00  0.00     0.157 A 
ATOM     15  C   UNL     1       3.133   3.935   7.453  1.00  0.00     0.062 A 
ATOM     16  C   UNL     1       5.114   5.114   5.875  1.00  0.00     0.051 A 
ATOM     17  C   UNL     1       5.228   3.775   6.250  1.00  0.00     0.016 A 
BRANCH  13  18
ATOM     18  O   UNL     1       1.914   6.072   7.470  1.00  0.00    -0.493 OA
ATOM     19  C   UNL     1       0.789   6.360   6.644  1.00  0.00     0.278 C 
ENDBRANCH  13  18
BRANCH  14  20
ATOM     20  O   UNL     1       3.934   7.210   5.893  1.00  0.00    -0.504 OA
ATOM     21  H   UNL     1       4.435   7.946   6.376  1.00  0.00     0.293 HD
ENDBRANCH  14  20
ENDBRANCH   1  12
BRANCH   2  22
ATOM     22  O   UNL     1       6.458   1.465   6.298  1.00  0.00    -0.502 OA
ATOM     23  H   UNL     1       6.474   2.430   5.991  1.00  0.00     0.293 HD
ENDBRANCH   2  22
BRANCH   6  24
ATOM     24  O   UNL     1       5.071  -3.320   8.183  1.00  0.00    -0.507 OA
ATOM     25  H   UNL     1       5.395  -4.080   8.761  1.00  0.00     0.293 HD
ENDBRANCH   6  24
BRANCH   8  26
ATOM     26  O   UNL     1       1.214  -2.147  10.762  1.00  0.00    -0.508 OA
ATOM     27  H   UNL     1       0.339  -2.513  10.406  1.00  0.00     0.293 HD
ENDBRANCH   8  26
TORSDOF 6
ENDMDL
MODEL 5
REMARK VINA RESULT:    -5.941      4.787      6.993
REMARK INTER + INTRA:          -7.617
REMARK INTER:                  -7.261
REMARK INTRA:                  -0.356
REMARK UNBOUND:                -0.287
REMARK SMILES COc1cc(-c2oc3cc(O)cc(O)c3c(=O)c2O)ccc1O
REMARK SMILES IDX 6 1 18 2 16 3 17 4 15 5 13 6 12 7 10 8 9 9 8 10 7 11 5 12
REMARK SMILES IDX 3 13 22 14 4 15 21 16 20 17 2 18 1 19 23 20 19 22 14 24
REMARK SMILES IDX 11 26
REMARK H PARENT 23 21 19 23 14 25 11 27
REMARK Flexibility Score: inf
ROOT
ATOM      1  C   UNL     1       1.392  10.693   6.760  1.00  0.00     0.180 A 
ATOM      2  C   UNL     1       2.516   9.916   6.431  1.00  0.00     0.208 A 
ATOM      3  C   UNL     1       3.770  10.540   6.328  1.00  0.00     0.238 A 
ATOM      4  O   UNL     1       4.762   9.848   5.980  1.00  0.00    -0.285 OA
ATOM      5  C   UNL     1       3.887  11.930   6.570  1.00  0.00     0.111 A 
ATOM      6  C   UNL     1       5.113  12.658   6.532  1.00  0.00     0.134 A 
ATOM      7  C   UNL     1       5.092  14.053   6.659  1.00  0.00     0.093 A 
ATOM      8  C   UNL     1       3.900  14.738   6.888  1.00  0.00     0.123 A 
ATOM      9  C   UNL     1       2.702  14.029   6.985  1.00  0.00     0.094 A 
ATOM     10  C   UNL     1       2.685  12.641   6.827  1.00  0.00     0.146 A 
ATOM     11  O   UNL     1       1.523  12.006   6.917  1.00  0.00    -0.452 OA
ENDROOT
BRANCH   1  12
ATOM     12  C   UNL     1       0.042  10.103   6.911  1.00  0.00     0.025 A 
ATOM     13  C   UNL     1      -1.551   8.818   8.251  1.00  0.00     0.161 A 
ATOM     14  C   UNL     1      -2.491   8.916   7.210  1.00  0.00     0.157 A 
ATOM     15  C   UNL     1      -0.282   9.410   8.088  1.00  0.00     0.062 A 
ATOM     16  C   UNL     1      -2.161   9.589   6.029  1.00  0.00     0.051 A 
ATOM     17  C   UNL     1      -0.903  10.172   5.876  1.00  0.00     0.016 A 
BRANCH  13  18
ATOM     18  O   UNL     1      -1.906   8.130   9.422  1.00  0.00    -0.493 OA
ATOM     19  C   UNL     1      -1.111   7.124  10.041  1.00  0.00     0.278 C 
ENDBRANCH  13  18
BRANCH  14  20
ATOM     20  O   UNL     1      -3.759   8.346   7.328  1.00  0.00    -0.504 OA
ATOM     21  H   UNL     1      -4.345   8.495   8.141  1.00  0.00     0.293 HD
ENDBRANCH  14  20
ENDBRANCH   1  12
BRANCH   2  22
ATOM     22  O   UNL     1       2.374   8.549   6.175  1.00  0.00    -0.502 OA
ATOM     23  H   UNL     1       1.814   7.941   6.760  1.00  0.00     0.293 HD
ENDBRANCH   2  22
BRANCH   6  24
ATOM     24  O   UNL     1       6.372  12.063   6.401  1.00  0.00    -0.507 OA
ATOM     25  H   UNL     1       7.118  12.143   7.075  1.00  0.00     0.293 HD
ENDBRANCH   6  24
BRANCH   8  26
ATOM     26  O   UNL     1       3.918  16.124   7.024  1.00  0.00    -0.508 OA
ATOM     27  H   UNL     1       3.191  16.705   6.624  1.00  0.00     0.293 HD
ENDBRANCH   8  26
TORSDOF 6
ENDMDL
MODEL 6
REMARK VINA RESULT:    -5.860      3.284      6.826
REMARK INTER + INTRA:          -7.518
REMARK INTER:                  -7.237
REMARK INTRA:                  -0.281
REMARK UNBOUND:                -0.287
REMARK SMILES COc1cc(-c2oc3cc(O)cc(O)c3c(=O)c2O)ccc1O
REMARK SMILES IDX 6 1 18 2 16 3 17 4 15 5 13 6 12 7 10 8 9 9 8 10 7 11 5 12
REMARK SMILES IDX 3 13 22 14 4 15 21 16 20 17 2 18 1 19 23 20 19 22 14 24
REMARK SMILES IDX 11 26
REMARK H PARENT 23 21 19 23 14 25 11 27
REMARK Flexibility Score: inf
ROOT
ATOM      1  C   UNL     1       4.305   0.778   8.173  1.00  0.00     0.180 A 
ATOM      2  C   UNL     1       4.796   0.280   9.392  1.00  0.00     0.208 A 
ATOM      3  C   UNL     1       4.585  -1.071   9.711  1.00  0.00     0.238 A 
ATOM      4  O   UNL     1       4.979  -1.497  10.828  1.00  0.00    -0.285 OA
ATOM      5  C   UNL     1       3.901  -1.911   8.800  1.00  0.00     0.111 A 
ATOM      6  C   UNL     1       3.666  -3.305   9.002  1.00  0.00     0.134 A 
ATOM      7  C   UNL     1       2.864  -4.009   8.094  1.00  0.00     0.093 A 
ATOM      8  C   UNL     1       2.345  -3.387   6.960  1.00  0.00     0.123 A 
ATOM      9  C   UNL     1       2.617  -2.040   6.722  1.00  0.00     0.094 A 
ATOM     10  C   UNL     1       3.383  -1.301   7.627  1.00  0.00     0.146 A 
ATOM     11  O   UNL     1       3.610  -0.019   7.369  1.00  0.00    -0.452 OA
ENDROOT
BRANCH   1  12
ATOM     12  C   UNL     1       4.509   2.184   7.756  1.00  0.00     0.025 A 
ATOM     13  C   UNL     1       3.624   4.452   7.510  1.00  0.00     0.161 A 
ATOM     14  C   UNL     1       4.836   4.851   6.920  1.00  0.00     0.157 A 
ATOM     15  C   UNL     1       3.467   3.112   7.919  1.00  0.00     0.062 A 
ATOM     16  C   UNL     1       5.866   3.923   6.740  1.00  0.00     0.051 A 
ATOM     17  C   UNL     1       5.704   2.598   7.147  1.00  0.00     0.016 A 
BRANCH  13  18
ATOM     18  O   UNL     1       2.605   5.403   7.673  1.00  0.00    -0.493 OA
ATOM     19  C   UNL     1       1.797   5.911   6.615  1.00  0.00     0.278 C 
ENDBRANCH  13  18
BRANCH  14  20
ATOM     20  O   UNL     1       5.036   6.167   6.502  1.00  0.00    -0.504 OA
ATOM     21  H   UNL     1       5.673   6.404   5.751  1.00  0.00     0.293 HD
ENDBRANCH  14  20
ENDBRANCH   1  12
BRANCH   2  22
ATOM     22  O   UNL     1       5.450   1.132  10.287  1.00  0.00    -0.502 OA
ATOM     23  H   UNL     1       5.939   0.790  11.105  1.00  0.00     0.293 HD
ENDBRANCH   2  22
BRANCH   6  24
ATOM     24  O   UNL     1       4.216  -4.044  10.054  1.00  0.00    -0.507 OA
ATOM     25  H   UNL     1       4.182  -3.774  11.025  1.00  0.00     0.293 HD
ENDBRANCH   6  24
BRANCH   8  26
ATOM     26  O   UNL     1       1.564  -4.122   6.071  1.00  0.00    -0.508 OA
ATOM     27  H   UNL     1       0.741  -4.626   6.380  1.00  0.00     0.293 HD
ENDBRANCH   8  26
TORSDOF 6
ENDMDL
MODEL 7
REMARK VINA RESULT:    -5.773      4.831      6.305
REMARK INTER + INTRA:          -7.410
REMARK INTER:                  -7.097
REMARK INTRA:                  -0.313
REMARK UNBOUND:                -0.287
REMARK SMILES COc1cc(-c2oc3cc(O)cc(O)c3c(=O)c2O)ccc1O
REMARK SMILES IDX 6 1 18 2 16 3 17 4 15 5 13 6 12 7 10 8 9 9 8 10 7 11 5 12
REMARK SMILES IDX 3 13 22 14 4 15 21 16 20 17 2 18 1 19 23 20 19 22 14 24
REMARK SMILES IDX 11 26
REMARK H PARENT 23 21 19 23 14 25 11 27
REMARK Flexibility Score: inf
ROOT
ATOM      1  C   UNL     1       0.771  10.876   6.761  1.00  0.00     0.180 A 
ATOM      2  C   UNL     1       0.848  12.277   6.838  1.00  0.00     0.208 A 
ATOM      3  C   UNL     1       2.090  12.903   6.650  1.00  0.00     0.238 A 
ATOM      4  O   UNL     1       2.162  14.154   6.775  1.00  0.00    -0.285 OA
ATOM      5  C   UNL     1       3.238  12.122   6.372  1.00  0.00     0.111 A 
ATOM      6  C   UNL     1       4.539  12.653   6.125  1.00  0.00     0.134 A 
ATOM      7  C   UNL     1       5.627  11.780   5.991  1.00  0.00     0.093 A 
ATOM      8  C   UNL     1       5.450  10.398   6.028  1.00  0.00     0.123 A 
ATOM      9  C   UNL     1       4.173   9.867   6.210  1.00  0.00     0.094 A 
ATOM     10  C   UNL     1       3.074  10.712   6.384  1.00  0.00     0.146 A 
ATOM     11  O   UNL     1       1.876  10.167   6.564  1.00  0.00    -0.452 OA
ENDROOT
BRANCH   1  12
ATOM     12  C   UNL     1      -0.507  10.146   6.923  1.00  0.00     0.025 A 
ATOM     13  C   UNL     1      -1.902   8.616   8.226  1.00  0.00     0.161 A 
ATOM     14  C   UNL     1      -2.898   8.696   7.238  1.00  0.00     0.157 A 
ATOM     15  C   UNL     1      -0.705   9.341   8.056  1.00  0.00     0.062 A 
ATOM     16  C   UNL     1      -2.693   9.482   6.100  1.00  0.00     0.051 A 
ATOM     17  C   UNL     1      -1.506  10.197   5.938  1.00  0.00     0.016 A 
BRANCH  13  18
ATOM     18  O   UNL     1      -2.131   7.813   9.355  1.00  0.00    -0.493 OA
ATOM     19  C   UNL     1      -1.116   7.113  10.068  1.00  0.00     0.278 C 
ENDBRANCH  13  18
BRANCH  14  20
ATOM     20  O   UNL     1      -4.099   7.997   7.365  1.00  0.00    -0.504 OA
ATOM     21  H   UNL     1      -4.290   7.152   6.840  1.00  0.00     0.293 HD
ENDBRANCH  14  20
ENDBRANCH   1  12
BRANCH   2  22
ATOM     22  O   UNL     1      -0.293  13.028   7.135  1.00  0.00    -0.502 OA
ATOM     23  H   UNL     1      -1.015  12.696   7.763  1.00  0.00     0.293 HD
ENDBRANCH   2  22
BRANCH   6  24
ATOM     24  O   UNL     1       4.811  14.017   5.978  1.00  0.00    -0.507 OA
ATOM     25  H   UNL     1       5.650  14.393   5.563  1.00  0.00     0.293 HD
ENDBRANCH   6  24
BRANCH   8  26
ATOM     26  O   UNL     1       6.552   9.560   5.875  1.00  0.00    -0.508 OA
ATOM     27  H   UNL     1       6.460   8.628   5.489  1.00  0.00     0.293 HD
ENDBRANCH   8  26
TORSDOF 6
ENDMDL
MODEL 8
REMARK VINA RESULT:    -5.689      1.464      1.998
REMARK INTER + INTRA:          -7.306
REMARK INTER:                  -7.124
REMARK INTRA:                  -0.182
REMARK UNBOUND:                -0.287
REMARK SMILES COc1cc(-c2oc3cc(O)cc(O)c3c(=O)c2O)ccc1O
REMARK SMILES IDX 6 1 18 2 16 3 17 4 15 5 13 6 12 7 10 8 9 9 8 10 7 11 5 12
REMARK SMILES IDX 3 13 22 14 4 15 21 16 20 17 2 18 1 19 23 20 19 22 14 24
REMARK SMILES IDX 11 26
REMARK H PARENT 23 21 19 23 14 25 11 27
REMARK Flexibility Score: inf
ROOT
ATOM      1  C   UNL     1       3.198   5.043   7.049  1.00  0.00     0.180 A 
ATOM      2  C   UNL     1       4.558   5.144   6.712  1.00  0.00     0.208 A 
ATOM      3  C   UNL     1       5.352   3.986   6.724  1.00  0.00     0.238 A 
ATOM      4  O   UNL     1       6.581   4.092   6.474  1.00  0.00    -0.285 OA
ATOM      5  C   UNL     1       4.772   2.739   7.058  1.00  0.00     0.111 A 
ATOM      6  C   UNL     1       5.472   1.495   7.064  1.00  0.00     0.134 A 
ATOM      7  C   UNL     1       4.831   0.343   7.538  1.00  0.00     0.093 A 
ATOM      8  C   UNL     1       3.497   0.377   7.943  1.00  0.00     0.123 A 
ATOM      9  C   UNL     1       2.785   1.575   7.885  1.00  0.00     0.094 A 
ATOM     10  C   UNL     1       3.408   2.749   7.452  1.00  0.00     0.146 A 
ATOM     11  O   UNL     1       2.698   3.870   7.422  1.00  0.00    -0.452 OA
ENDROOT
BRANCH   1  12
ATOM     12  C   UNL     1       2.293   6.215   7.035  1.00  0.00     0.025 A 
ATOM     13  C   UNL     1       0.663   7.625   8.193  1.00  0.00     0.161 A 
ATOM     14  C   UNL     1       0.517   8.397   7.028  1.00  0.00     0.157 A 
ATOM     15  C   UNL     1       1.550   6.529   8.185  1.00  0.00     0.062 A 
ATOM     16  C   UNL     1       1.241   8.072   5.877  1.00  0.00     0.051 A 
ATOM     17  C   UNL     1       2.117   6.987   5.876  1.00  0.00     0.016 A 
BRANCH  13  18
ATOM     18  O   UNL     1      -0.082   7.969   9.332  1.00  0.00    -0.493 OA
ATOM     19  C   UNL     1      -1.339   7.395   9.680  1.00  0.00     0.278 C 
ENDBRANCH  13  18
BRANCH  14  20
ATOM     20  O   UNL     1      -0.349   9.491   6.991  1.00  0.00    -0.504 OA
ATOM     21  H   UNL     1      -0.409  10.157   7.753  1.00  0.00     0.293 HD
ENDBRANCH  14  20
ENDBRANCH   1  12
BRANCH   2  22
ATOM     22  O   UNL     1       5.116   6.389   6.406  1.00  0.00    -0.502 OA
ATOM     23  H   UNL     1       5.941   6.745   6.872  1.00  0.00     0.293 HD
ENDBRANCH   2  22
BRANCH   6  24
ATOM     24  O   UNL     1       6.779   1.332   6.594  1.00  0.00    -0.507 OA
ATOM     25  H   UNL     1       7.282   0.458   6.586  1.00  0.00     0.293 HD
ENDBRANCH   6  24
BRANCH   8  26
ATOM     26  O   UNL     1       2.886  -0.791   8.394  1.00  0.00    -0.508 OA
ATOM     27  H   UNL     1       2.899  -1.052   9.373  1.00  0.00     0.293 HD
ENDBRANCH   8  26
TORSDOF 6
ENDMDL
MODEL 9
REMARK VINA RESULT:    -5.636      4.157      7.511
REMARK INTER + INTRA:          -7.241
REMARK INTER:                  -6.857
REMARK INTRA:                  -0.383
REMARK UNBOUND:                -0.287
REMARK SMILES COc1cc(-c2oc3cc(O)cc(O)c3c(=O)c2O)ccc1O
REMARK SMILES IDX 6 1 18 2 16 3 17 4 15 5 13 6 12 7 10 8 9 9 8 10 7 11 5 12
REMARK SMILES IDX 3 13 22 14 4 15 21 16 20 17 2 18 1 19 23 20 19 22 14 24
REMARK SMILES IDX 11 26
REMARK H PARENT 23 21 19 23 14 25 11 27
REMARK Flexibility Score: inf
ROOT
ATOM      1  C   UNL     1       4.338   0.740   8.189  1.00  0.00     0.180 A 
ATOM      2  C   UNL     1       4.806   0.251   9.421  1.00  0.00     0.208 A 
ATOM      3  C   UNL     1       4.560  -1.089   9.760  1.00  0.00     0.238 A 
ATOM      4  O   UNL     1       4.934  -1.506  10.887  1.00  0.00    -0.285 OA
ATOM      5  C   UNL     1       3.863  -1.927   8.856  1.00  0.00     0.111 A 
ATOM      6  C   UNL     1       3.593  -3.311   9.078  1.00  0.00     0.134 A 
ATOM      7  C   UNL     1       2.782  -4.010   8.175  1.00  0.00     0.093 A 
ATOM      8  C   UNL     1       2.287  -3.395   7.027  1.00  0.00     0.123 A 
ATOM      9  C   UNL     1       2.594  -2.059   6.769  1.00  0.00     0.094 A 
ATOM     10  C   UNL     1       3.370  -1.324   7.669  1.00  0.00     0.146 A 
ATOM     11  O   UNL     1       3.631  -0.052   7.392  1.00  0.00    -0.452 OA
ENDROOT
BRANCH   1  12
ATOM     12  C   UNL     1       4.580   2.135   7.752  1.00  0.00     0.025 A 
ATOM     13  C   UNL     1       6.044   3.777   6.681  1.00  0.00     0.161 A 
ATOM     14  C   UNL     1       5.102   4.783   6.960  1.00  0.00     0.157 A 
ATOM     15  C   UNL     1       5.776   2.454   7.089  1.00  0.00     0.062 A 
ATOM     16  C   UNL     1       3.921   4.469   7.638  1.00  0.00     0.051 A 
ATOM     17  C   UNL     1       3.662   3.158   8.038  1.00  0.00     0.016 A 
BRANCH  13  18
ATOM     18  O   UNL     1       7.224   4.122   6.005  1.00  0.00    -0.493 OA
ATOM     19  C   UNL     1       8.474   3.459   6.172  1.00  0.00     0.278 C 
ENDBRANCH  13  18
BRANCH  14  20
ATOM     20  O   UNL     1       5.325   6.106   6.574  1.00  0.00    -0.504 OA
ATOM     21  H   UNL     1       5.971   6.711   7.067  1.00  0.00     0.293 HD
ENDBRANCH  14  20
ENDBRANCH   1  12
BRANCH   2  22
ATOM     22  O   UNL     1       5.473   1.101  10.307  1.00  0.00    -0.502 OA
ATOM     23  H   UNL     1       5.822   0.787  11.205  1.00  0.00     0.293 HD
ENDBRANCH   2  22
BRANCH   6  24
ATOM     24  O   UNL     1       4.115  -4.047  10.147  1.00  0.00    -0.507 OA
ATOM     25  H   UNL     1       3.794  -4.962  10.425  1.00  0.00     0.293 HD
ENDBRANCH   6  24
BRANCH   8  26
ATOM     26  O   UNL     1       1.496  -4.125   6.142  1.00  0.00    -0.508 OA
ATOM     27  H   UNL     1       0.492  -4.190   6.259  1.00  0.00     0.293 HD
ENDBRANCH   8  26
TORSDOF 6
ENDMDL
