MODEL 1
REMARK VINA RESULT:    -4.227      0.000      0.000
REMARK INTER + INTRA:          -6.034
REMARK INTER:                  -5.710
REMARK INTRA:                  -0.324
REMARK UNBOUND:                -0.324
REMARK SMILES CCCCCCCC(C)=O
REMARK SMILES IDX 5 1 4 2 3 3 2 4 1 5 6 6 7 7 8 8 10 9 9 10
REMARK H PARENT
REMARK Flexibility Score: inf
ROOT
ATOM      1  C   UNL     1     116.241 117.009 115.492  1.00  0.00     0.000 C 
ENDROOT
BRANCH   1   2
ATOM      2  C   UNL     1     116.335 116.172 116.777  1.00  0.00     0.000 C 
BRANCH   2   3
ATOM      3  C   UNL     1     117.716 116.298 117.455  1.00  0.00    -0.000 C 
BRANCH   3   4
ATOM      4  C   UNL     1     118.075 117.738 117.859  1.00  0.00    -0.003 C 
ATOM      5  C   UNL     1     119.571 118.033 117.756  1.00  0.00     0.004 C 
ENDBRANCH   3   4
ENDBRANCH   2   3
ENDBRANCH   1   2
BRANCH   1   6
ATOM      6  C   UNL     1     116.992 116.331 114.337  1.00  0.00     0.008 C 
BRANCH   6   7
ATOM      7  C   UNL     1     116.097 116.136 113.105  1.00  0.00     0.075 C 
BRANCH   7   8
ATOM      8  C   UNL     1     116.172 117.314 112.167  1.00  0.00     0.129 C 
ATOM      9  O   UNL     1     115.141 117.835 111.770  1.00  0.00    -0.300 OA
ATOM     10  C   UNL     1     117.491 117.866 111.711  1.00  0.00     0.087 C 
ENDBRANCH   7   8
ENDBRANCH   6   7
ENDBRANCH   1   6
TORSDOF 6
ENDMDL
MODEL 2
REMARK VINA RESULT:    -4.227      1.560      2.212
REMARK INTER + INTRA:          -6.033
REMARK INTER:                  -5.785
REMARK INTRA:                  -0.248
REMARK UNBOUND:                -0.324
REMARK SMILES CCCCCCCC(C)=O
REMARK SMILES IDX 5 1 4 2 3 3 2 4 1 5 6 6 7 7 8 8 10 9 9 10
REMARK H PARENT
REMARK Flexibility Score: inf
ROOT
ATOM      1  C   UNL     1     116.940 116.925 114.917  1.00  0.00     0.000 C 
ENDROOT
BRANCH   1   2
ATOM      2  C   UNL     1     116.313 116.497 116.253  1.00  0.00     0.000 C 
BRANCH   2   3
ATOM      3  C   UNL     1     117.373 116.026 117.270  1.00  0.00    -0.000 C 
BRANCH   3   4
ATOM      4  C   UNL     1     117.023 114.692 117.952  1.00  0.00    -0.003 C 
ATOM      5  C   UNL     1     118.115 113.635 117.797  1.00  0.00     0.004 C 
ENDBRANCH   3   4
ENDBRANCH   2   3
ENDBRANCH   1   2
BRANCH   1   6
ATOM      6  C   UNL     1     116.242 116.237 113.735  1.00  0.00     0.008 C 
BRANCH   6   7
ATOM      7  C   UNL     1     116.129 117.162 112.515  1.00  0.00     0.075 C 
BRANCH   7   8
ATOM      8  C   UNL     1     117.459 117.350 111.830  1.00  0.00     0.129 C 
ATOM      9  O   UNL     1     117.878 118.479 111.628  1.00  0.00    -0.300 OA
ATOM     10  C   UNL     1     118.284 116.175 111.392  1.00  0.00     0.087 C 
ENDBRANCH   7   8
ENDBRANCH   6   7
ENDBRANCH   1   6
TORSDOF 6
ENDMDL
MODEL 3
REMARK VINA RESULT:    -4.207      1.739      2.002
REMARK INTER + INTRA:          -6.007
REMARK INTER:                  -5.759
REMARK INTRA:                  -0.248
REMARK UNBOUND:                -0.324
REMARK SMILES CCCCCCCC(C)=O
REMARK SMILES IDX 5 1 4 2 3 3 2 4 1 5 6 6 7 7 8 8 10 9 9 10
REMARK H PARENT
REMARK Flexibility Score: inf
ROOT
ATOM      1  C   UNL     1     116.834 116.255 114.884  1.00  0.00     0.000 C 
ENDROOT
BRANCH   1   2
ATOM      2  C   UNL     1     116.391 116.890 116.211  1.00  0.00     0.000 C 
BRANCH   2   3
ATOM      3  C   UNL     1     117.388 116.607 117.354  1.00  0.00    -0.000 C 
BRANCH   3   4
ATOM      4  C   UNL     1     118.500 117.664 117.478  1.00  0.00    -0.003 C 
ATOM      5  C   UNL     1     119.660 117.211 118.363  1.00  0.00     0.004 C 
ENDBRANCH   3   4
ENDBRANCH   2   3
ENDBRANCH   1   2
BRANCH   1   6
ATOM      6  C   UNL     1     116.229 117.003 113.687  1.00  0.00     0.008 C 
BRANCH   6   7
ATOM      7  C   UNL     1     117.207 117.088 112.507  1.00  0.00     0.075 C 
BRANCH   7   8
ATOM      8  C   UNL     1     117.410 115.745 111.851  1.00  0.00     0.129 C 
ATOM      9  O   UNL     1     118.543 115.357 111.613  1.00  0.00    -0.300 OA
ATOM     10  C   UNL     1     116.246 114.870 111.488  1.00  0.00     0.087 C 
ENDBRANCH   7   8
ENDBRANCH   6   7
ENDBRANCH   1   6
TORSDOF 6
ENDMDL
MODEL 4
REMARK VINA RESULT:    -4.203      2.185      3.162
REMARK INTER + INTRA:          -6.001
REMARK INTER:                  -5.759
REMARK INTRA:                  -0.242
REMARK UNBOUND:                -0.324
REMARK SMILES CCCCCCCC(C)=O
REMARK SMILES IDX 5 1 4 2 3 3 2 4 1 5 6 6 7 7 8 8 10 9 9 10
REMARK H PARENT
REMARK Flexibility Score: inf
ROOT
ATOM      1  C   UNL     1     116.837 116.315 114.911  1.00  0.00     0.000 C 
ENDROOT
BRANCH   1   2
ATOM      2  C   UNL     1     116.239 116.896 116.202  1.00  0.00     0.000 C 
BRANCH   2   3
ATOM      3  C   UNL     1     116.038 115.818 117.288  1.00  0.00    -0.000 C 
BRANCH   3   4
ATOM      4  C   UNL     1     114.748 115.999 118.105  1.00  0.00    -0.003 C 
ATOM      5  C   UNL     1     113.644 115.021 117.707  1.00  0.00     0.004 C 
ENDBRANCH   3   4
ENDBRANCH   2   3
ENDBRANCH   1   2
BRANCH   1   6
ATOM      6  C   UNL     1     116.223 116.981 113.671  1.00  0.00     0.008 C 
BRANCH   6   7
ATOM      7  C   UNL     1     117.214 117.041 112.500  1.00  0.00     0.075 C 
BRANCH   7   8
ATOM      8  C   UNL     1     117.368 115.700 111.828  1.00  0.00     0.129 C 
ATOM      9  O   UNL     1     118.484 115.226 111.680  1.00  0.00    -0.300 OA
ATOM     10  C   UNL     1     116.176 114.929 111.341  1.00  0.00     0.087 C 
ENDBRANCH   7   8
ENDBRANCH   6   7
ENDBRANCH   1   6
TORSDOF 6
ENDMDL
MODEL 5
REMARK VINA RESULT:    -4.197      1.921      2.454
REMARK INTER + INTRA:          -5.993
REMARK INTER:                  -5.736
REMARK INTRA:                  -0.257
REMARK UNBOUND:                -0.324
REMARK SMILES CCCCCCCC(C)=O
REMARK SMILES IDX 5 1 4 2 3 3 2 4 1 5 6 6 7 7 8 8 10 9 9 10
REMARK H PARENT
REMARK Flexibility Score: inf
ROOT
ATOM      1  C   UNL     1     116.251 116.355 114.906  1.00  0.00     0.000 C 
ENDROOT
BRANCH   1   2
ATOM      2  C   UNL     1     116.861 116.772 116.254  1.00  0.00     0.000 C 
BRANCH   2   3
ATOM      3  C   UNL     1     116.605 115.725 117.358  1.00  0.00    -0.000 C 
BRANCH   3   4
ATOM      4  C   UNL     1     117.690 114.638 117.439  1.00  0.00    -0.003 C 
ATOM      5  C   UNL     1     117.333 113.505 118.400  1.00  0.00     0.004 C 
ENDBRANCH   3   4
ENDBRANCH   2   3
ENDBRANCH   1   2
BRANCH   1   6
ATOM      6  C   UNL     1     117.027 116.975 113.735  1.00  0.00     0.008 C 
BRANCH   6   7
ATOM      7  C   UNL     1     117.068 116.045 112.515  1.00  0.00     0.075 C 
BRANCH   7   8
ATOM      8  C   UNL     1     115.708 115.890 111.883  1.00  0.00     0.129 C 
ATOM      9  O   UNL     1     115.238 114.772 111.735  1.00  0.00    -0.300 OA
ATOM     10  C   UNL     1     114.915 117.082 111.435  1.00  0.00     0.087 C 
ENDBRANCH   7   8
ENDBRANCH   6   7
ENDBRANCH   1   6
TORSDOF 6
ENDMDL
MODEL 6
REMARK VINA RESULT:    -4.147      1.800      2.238
REMARK INTER + INTRA:          -5.926
REMARK INTER:                  -5.684
REMARK INTRA:                  -0.242
REMARK UNBOUND:                -0.324
REMARK SMILES CCCCCCCC(C)=O
REMARK SMILES IDX 5 1 4 2 3 3 2 4 1 5 6 6 7 7 8 8 10 9 9 10
REMARK H PARENT
REMARK Flexibility Score: inf
ROOT
ATOM      1  C   UNL     1     116.277 116.268 115.442  1.00  0.00     0.000 C 
ENDROOT
BRANCH   1   2
ATOM      2  C   UNL     1     116.944 116.876 116.686  1.00  0.00     0.000 C 
BRANCH   2   3
ATOM      3  C   UNL     1     115.909 117.395 117.707  1.00  0.00    -0.000 C 
BRANCH   3   4
ATOM      4  C   UNL     1     116.046 118.896 118.015  1.00  0.00    -0.003 C 
ATOM      5  C   UNL     1     114.781 119.690 117.695  1.00  0.00     0.004 C 
ENDBRANCH   3   4
ENDBRANCH   2   3
ENDBRANCH   1   2
BRANCH   1   6
ATOM      6  C   UNL     1     116.691 117.024 114.171  1.00  0.00     0.008 C 
BRANCH   6   7
ATOM      7  C   UNL     1     116.779 116.095 112.952  1.00  0.00     0.075 C 
BRANCH   7   8
ATOM      8  C   UNL     1     116.248 116.755 111.706  1.00  0.00     0.129 C 
ATOM      9  O   UNL     1     116.738 116.477 110.621  1.00  0.00    -0.300 OA
ATOM     10  C   UNL     1     115.123 117.746 111.766  1.00  0.00     0.087 C 
ENDBRANCH   7   8
ENDBRANCH   6   7
ENDBRANCH   1   6
TORSDOF 6
ENDMDL
MODEL 7
REMARK VINA RESULT:    -4.126      2.779      5.463
REMARK INTER + INTRA:          -5.897
REMARK INTER:                  -5.621
REMARK INTRA:                  -0.276
REMARK UNBOUND:                -0.324
REMARK SMILES CCCCCCCC(C)=O
REMARK SMILES IDX 5 1 4 2 3 3 2 4 1 5 6 6 7 7 8 8 10 9 9 10
REMARK H PARENT
REMARK Flexibility Score: inf
ROOT
ATOM      1  C   UNL     1     116.302 116.285 115.096  1.00  0.00     0.000 C 
ENDROOT
BRANCH   1   2
ATOM      2  C   UNL     1     116.945 116.984 113.888  1.00  0.00     0.000 C 
BRANCH   2   3
ATOM      3  C   UNL     1     116.003 117.018 112.666  1.00  0.00    -0.000 C 
BRANCH   3   4
ATOM      4  C   UNL     1     116.541 116.243 111.451  1.00  0.00    -0.003 C 
ATOM      5  C   UNL     1     117.829 115.478 111.751  1.00  0.00     0.004 C 
ENDBRANCH   3   4
ENDBRANCH   2   3
ENDBRANCH   1   2
BRANCH   1   6
ATOM      6  C   UNL     1     116.726 116.956 116.410  1.00  0.00     0.008 C 
BRANCH   6   7
ATOM      7  C   UNL     1     115.579 117.004 117.429  1.00  0.00     0.075 C 
BRANCH   7   8
ATOM      8  C   UNL     1     115.147 115.622 117.850  1.00  0.00     0.129 C 
ATOM      9  O   UNL     1     115.979 114.834 118.272  1.00  0.00    -0.300 OA
ATOM     10  C   UNL     1     113.711 115.193 117.766  1.00  0.00     0.087 C 
ENDBRANCH   7   8
ENDBRANCH   6   7
ENDBRANCH   1   6
TORSDOF 6
ENDMDL
MODEL 8
REMARK VINA RESULT:    -4.093      2.428      5.105
REMARK INTER + INTRA:          -5.852
REMARK INTER:                  -5.557
REMARK INTRA:                  -0.295
REMARK UNBOUND:                -0.324
REMARK SMILES CCCCCCCC(C)=O
REMARK SMILES IDX 5 1 4 2 3 3 2 4 1 5 6 6 7 7 8 8 10 9 9 10
REMARK H PARENT
REMARK Flexibility Score: inf
ROOT
ATOM      1  C   UNL     1     116.567 117.046 114.875  1.00  0.00     0.000 C 
ENDROOT
BRANCH   1   2
ATOM      2  C   UNL     1     116.190 116.204 113.646  1.00  0.00     0.000 C 
BRANCH   2   3
ATOM      3  C   UNL     1     115.966 117.073 112.391  1.00  0.00    -0.000 C 
BRANCH   3   4
ATOM      4  C   UNL     1     117.271 117.553 111.733  1.00  0.00    -0.003 C 
ATOM      5  C   UNL     1     118.238 116.413 111.418  1.00  0.00     0.004 C 
ENDBRANCH   3   4
ENDBRANCH   2   3
ENDBRANCH   1   2
BRANCH   1   6
ATOM      6  C   UNL     1     116.870 116.150 116.085  1.00  0.00     0.008 C 
BRANCH   6   7
ATOM      7  C   UNL     1     116.954 116.954 117.390  1.00  0.00     0.075 C 
BRANCH   7   8
ATOM      8  C   UNL     1     115.621 117.547 117.769  1.00  0.00     0.129 C 
ATOM      9  O   UNL     1     114.701 116.807 118.084  1.00  0.00    -0.300 OA
ATOM     10  C   UNL     1     115.399 119.031 117.773  1.00  0.00     0.087 C 
ENDBRANCH   7   8
ENDBRANCH   6   7
ENDBRANCH   1   6
TORSDOF 6
ENDMDL
MODEL 9
REMARK VINA RESULT:    -4.062      2.630      5.380
REMARK INTER + INTRA:          -5.810
REMARK INTER:                  -5.602
REMARK INTRA:                  -0.208
REMARK UNBOUND:                -0.324
REMARK SMILES CCCCCCCC(C)=O
REMARK SMILES IDX 5 1 4 2 3 3 2 4 1 5 6 6 7 7 8 8 10 9 9 10
REMARK H PARENT
REMARK Flexibility Score: inf
ROOT
ATOM      1  C   UNL     1     116.205 116.643 115.063  1.00  0.00     0.000 C 
ENDROOT
BRANCH   1   2
ATOM      2  C   UNL     1     116.934 116.253 113.768  1.00  0.00     0.000 C 
BRANCH   2   3
ATOM      3  C   UNL     1     115.997 116.275 112.542  1.00  0.00    -0.000 C 
BRANCH   3   4
ATOM      4  C   UNL     1     116.206 117.494 111.628  1.00  0.00    -0.003 C 
ATOM      5  C   UNL     1     117.612 118.083 111.727  1.00  0.00     0.004 C 
ENDBRANCH   3   4
ENDBRANCH   2   3
ENDBRANCH   1   2
BRANCH   1   6
ATOM      6  C   UNL     1     117.006 116.208 116.299  1.00  0.00     0.008 C 
BRANCH   6   7
ATOM      7  C   UNL     1     117.188 117.356 117.301  1.00  0.00     0.075 C 
BRANCH   7   8
ATOM      8  C   UNL     1     118.499 117.253 118.038  1.00  0.00     0.129 C 
ATOM      9  O   UNL     1     118.636 116.406 118.908  1.00  0.00    -0.300 OA
ATOM     10  C   UNL     1     119.646 118.168 117.722  1.00  0.00     0.087 C 
ENDBRANCH   7   8
ENDBRANCH   6   7
ENDBRANCH   1   6
TORSDOF 6
ENDMDL
