MODEL 1
REMARK VINA RESULT:    -5.757      0.000      0.000
REMARK INTER + INTRA:         -19.236
REMARK INTER:                 -15.179
REMARK INTRA:                  -4.057
REMARK UNBOUND:                -4.057
REMARK SMILES CCCCCCCCCCCCCCCCCCCCCCCCCCCCCC(=O)[O-]
REMARK SMILES IDX 16 1 17 2 18 3 19 4 20 5 21 6 22 7 23 8 24 9 25 10 26 11
REMARK SMILES IDX 27 12 28 13 29 14 30 15 31 16 32 17 15 18 14 19 13 20 12 21
REMARK SMILES IDX 11 22 10 23 9 24 8 25 7 26 6 27 5 28 4 29 3 30 2 31 1 32
REMARK H PARENT
REMARK Flexibility Score: inf
ROOT
ATOM      1  C   UNL     1      13.067 -30.042  23.458  1.00  0.00     0.000 C 
ENDROOT
BRANCH   1   2
ATOM      2  C   UNL     1      12.640 -28.783  22.681  1.00  0.00     0.000 C 
BRANCH   2   3
ATOM      3  C   UNL     1      11.505 -29.049  21.680  1.00  0.00     0.000 C 
BRANCH   3   4
ATOM      4  C   UNL     1      10.292 -29.681  22.383  1.00  0.00     0.000 C 
BRANCH   4   5
ATOM      5  C   UNL     1       8.950 -29.068  21.943  1.00  0.00     0.000 C 
BRANCH   5   6
ATOM      6  C   UNL     1       7.825 -30.093  21.665  1.00  0.00     0.000 C 
BRANCH   6   7
ATOM      7  C   UNL     1       7.863 -31.338  22.572  1.00  0.00     0.000 C 
BRANCH   7   8
ATOM      8  C   UNL     1       7.033 -31.237  23.865  1.00  0.00     0.000 C 
BRANCH   8   9
ATOM      9  C   UNL     1       5.680 -30.510  23.719  1.00  0.00     0.000 C 
BRANCH   9  10
ATOM     10  C   UNL     1       5.524 -29.236  24.574  1.00  0.00     0.000 C 
BRANCH  10  11
ATOM     11  C   UNL     1       4.598 -29.379  25.796  1.00  0.00     0.000 C 
BRANCH  11  12
ATOM     12  C   UNL     1       3.231 -28.709  25.580  1.00  0.00     0.000 C 
BRANCH  12  13
ATOM     13  C   UNL     1       2.748 -28.784  24.118  1.00  0.00     0.006 C 
BRANCH  13  14
ATOM     14  C   UNL     1       2.081 -30.115  23.728  1.00  0.00     0.053 C 
BRANCH  14  15
ATOM     15  C   UNL     1       0.585 -30.021  23.713  1.00  0.00     0.041 C 
ATOM     16  O   UNL     1      -0.095 -30.833  23.027  1.00  0.00    -0.550 OA
ATOM     17  O   UNL     1      -0.062 -29.077  24.503  1.00  0.00    -0.550 OA
ENDBRANCH  14  15
ENDBRANCH  13  14
ENDBRANCH  12  13
ENDBRANCH  11  12
ENDBRANCH  10  11
ENDBRANCH   9  10
ENDBRANCH   8   9
ENDBRANCH   7   8
ENDBRANCH   6   7
ENDBRANCH   5   6
ENDBRANCH   4   5
ENDBRANCH   3   4
ENDBRANCH   2   3
ENDBRANCH   1   2
BRANCH   1  18
ATOM     18  C   UNL     1      12.967 -29.931  24.990  1.00  0.00     0.000 C 
BRANCH  18  19
ATOM     19  C   UNL     1      12.255 -31.132  25.633  1.00  0.00     0.000 C 
BRANCH  19  20
ATOM     20  C   UNL     1      10.810 -31.310  25.131  1.00  0.00     0.000 C 
BRANCH  20  21
ATOM     21  C   UNL     1      10.318 -32.768  25.055  1.00  0.00     0.000 C 
BRANCH  21  22
ATOM     22  C   UNL     1      11.032 -33.696  26.054  1.00  0.00     0.000 C 
BRANCH  22  23
ATOM     23  C   UNL     1      11.117 -35.145  25.549  1.00  0.00     0.000 C 
BRANCH  23  24
ATOM     24  C   UNL     1      11.952 -35.273  24.263  1.00  0.00    -0.000 C 
BRANCH  24  25
ATOM     25  C   UNL     1      13.398 -35.732  24.529  1.00  0.00    -0.000 C 
BRANCH  25  26
ATOM     26  C   UNL     1      14.375 -34.617  24.945  1.00  0.00    -0.000 C 
BRANCH  26  27
ATOM     27  C   UNL     1      14.177 -33.320  24.142  1.00  0.00    -0.000 C 
BRANCH  27  28
ATOM     28  C   UNL     1      14.892 -33.353  22.780  1.00  0.00    -0.000 C 
BRANCH  28  29
ATOM     29  C   UNL     1      13.925 -33.163  21.597  1.00  0.00    -0.000 C 
BRANCH  29  30
ATOM     30  C   UNL     1      12.494 -32.816  22.046  1.00  0.00    -0.000 C 
BRANCH  30  31
ATOM     31  C   UNL     1      11.465 -32.696  20.907  1.00  0.00    -0.003 C 
ATOM     32  C   UNL     1      10.188 -33.495  21.169  1.00  0.00     0.004 C 
ENDBRANCH  30  31
ENDBRANCH  29  30
ENDBRANCH  28  29
ENDBRANCH  27  28
ENDBRANCH  26  27
ENDBRANCH  25  26
ENDBRANCH  24  25
ENDBRANCH  23  24
ENDBRANCH  22  23
ENDBRANCH  21  22
ENDBRANCH  20  21
ENDBRANCH  19  20
ENDBRANCH  18  19
ENDBRANCH   1  18
TORSDOF 28
ENDMDL
MODEL 2
REMARK VINA RESULT:    -5.080      3.991      8.942
REMARK INTER + INTRA:         -17.452
REMARK INTER:                 -13.585
REMARK INTRA:                  -3.867
REMARK UNBOUND:                -4.057
REMARK SMILES CCCCCCCCCCCCCCCCCCCCCCCCCCCCCC(=O)[O-]
REMARK SMILES IDX 16 1 17 2 18 3 19 4 20 5 21 6 22 7 23 8 24 9 25 10 26 11
REMARK SMILES IDX 27 12 28 13 29 14 30 15 31 16 32 17 15 18 14 19 13 20 12 21
REMARK SMILES IDX 11 22 10 23 9 24 8 25 7 26 6 27 5 28 4 29 3 30 2 31 1 32
REMARK H PARENT
REMARK Flexibility Score: inf
ROOT
ATOM      1  C   UNL     1      10.403 -32.469  21.021  1.00  0.00     0.000 C 
ENDROOT
BRANCH   1   2
ATOM      2  C   UNL     1       8.987 -32.424  20.419  1.00  0.00     0.000 C 
BRANCH   2   3
ATOM      3  C   UNL     1       8.447 -30.995  20.254  1.00  0.00     0.000 C 
BRANCH   3   4
ATOM      4  C   UNL     1       7.776 -30.510  21.550  1.00  0.00     0.000 C 
BRANCH   4   5
ATOM      5  C   UNL     1       8.333 -29.165  22.054  1.00  0.00     0.000 C 
BRANCH   5   6
ATOM      6  C   UNL     1       9.834 -28.932  21.766  1.00  0.00     0.000 C 
BRANCH   6   7
ATOM      7  C   UNL     1      10.786 -29.758  22.655  1.00  0.00     0.000 C 
BRANCH   7   8
ATOM      8  C   UNL     1      12.279 -29.405  22.526  1.00  0.00     0.000 C 
BRANCH   8   9
ATOM      9  C   UNL     1      13.082 -29.465  23.842  1.00  0.00     0.000 C 
BRANCH   9  10
ATOM     10  C   UNL     1      12.354 -30.136  25.024  1.00  0.00     0.000 C 
BRANCH  10  11
ATOM     11  C   UNL     1      13.172 -31.206  25.772  1.00  0.00     0.000 C 
BRANCH  11  12
ATOM     12  C   UNL     1      13.831 -32.216  24.819  1.00  0.00     0.000 C 
BRANCH  12  13
ATOM     13  C   UNL     1      13.578 -33.681  25.225  1.00  0.00     0.006 C 
BRANCH  13  14
ATOM     14  C   UNL     1      14.486 -34.709  24.527  1.00  0.00     0.053 C 
BRANCH  14  15
ATOM     15  C   UNL     1      13.989 -36.114  24.691  1.00  0.00     0.041 C 
ATOM     16  O   UNL     1      12.752 -36.344  24.770  1.00  0.00    -0.550 OA
ATOM     17  O   UNL     1      14.889 -37.174  24.696  1.00  0.00    -0.550 OA
ENDBRANCH  14  15
ENDBRANCH  13  14
ENDBRANCH  12  13
ENDBRANCH  11  12
ENDBRANCH  10  11
ENDBRANCH   9  10
ENDBRANCH   8   9
ENDBRANCH   7   8
ENDBRANCH   6   7
ENDBRANCH   5   6
ENDBRANCH   4   5
ENDBRANCH   3   4
ENDBRANCH   2   3
ENDBRANCH   1   2
BRANCH   1  18
ATOM     18  C   UNL     1      10.824 -33.830  21.604  1.00  0.00     0.000 C 
BRANCH  18  19
ATOM     19  C   UNL     1      11.141 -33.767  23.107  1.00  0.00     0.000 C 
BRANCH  19  20
ATOM     20  C   UNL     1      10.265 -32.751  23.862  1.00  0.00     0.000 C 
BRANCH  20  21
ATOM     21  C   UNL     1      10.085 -33.031  25.366  1.00  0.00     0.000 C 
BRANCH  21  22
ATOM     22  C   UNL     1       9.455 -31.849  26.125  1.00  0.00     0.000 C 
BRANCH  22  23
ATOM     23  C   UNL     1       8.462 -31.060  25.256  1.00  0.00     0.000 C 
BRANCH  23  24
ATOM     24  C   UNL     1       7.937 -29.797  25.963  1.00  0.00    -0.000 C 
BRANCH  24  25
ATOM     25  C   UNL     1       6.623 -29.271  25.355  1.00  0.00    -0.000 C 
BRANCH  25  26
ATOM     26  C   UNL     1       5.908 -30.242  24.398  1.00  0.00    -0.000 C 
BRANCH  26  27
ATOM     27  C   UNL     1       4.517 -29.744  23.970  1.00  0.00    -0.000 C 
BRANCH  27  28
ATOM     28  C   UNL     1       3.735 -29.105  25.130  1.00  0.00    -0.000 C 
BRANCH  28  29
ATOM     29  C   UNL     1       2.540 -28.263  24.648  1.00  0.00    -0.000 C 
BRANCH  29  30
ATOM     30  C   UNL     1       2.044 -28.676  23.250  1.00  0.00    -0.000 C 
BRANCH  30  31
ATOM     31  C   UNL     1       0.587 -29.170  23.195  1.00  0.00    -0.003 C 
ATOM     32  C   UNL     1       0.288 -30.266  24.218  1.00  0.00     0.004 C 
ENDBRANCH  30  31
ENDBRANCH  29  30
ENDBRANCH  28  29
ENDBRANCH  27  28
ENDBRANCH  26  27
ENDBRANCH  25  26
ENDBRANCH  24  25
ENDBRANCH  23  24
ENDBRANCH  22  23
ENDBRANCH  21  22
ENDBRANCH  20  21
ENDBRANCH  19  20
ENDBRANCH  18  19
ENDBRANCH   1  18
TORSDOF 28
ENDMDL
MODEL 3
REMARK VINA RESULT:    -5.032      4.402      9.283
REMARK INTER + INTRA:         -17.326
REMARK INTER:                 -14.537
REMARK INTRA:                  -2.789
REMARK UNBOUND:                -4.057
REMARK SMILES CCCCCCCCCCCCCCCCCCCCCCCCCCCCCC(=O)[O-]
REMARK SMILES IDX 16 1 17 2 18 3 19 4 20 5 21 6 22 7 23 8 24 9 25 10 26 11
REMARK SMILES IDX 27 12 28 13 29 14 30 15 31 16 32 17 15 18 14 19 13 20 12 21
REMARK SMILES IDX 11 22 10 23 9 24 8 25 7 26 6 27 5 28 4 29 3 30 2 31 1 32
REMARK H PARENT
REMARK Flexibility Score: inf
ROOT
ATOM      1  C   UNL     1      11.491 -30.553  22.330  1.00  0.00     0.000 C 
ENDROOT
BRANCH   1   2
ATOM      2  C   UNL     1      12.929 -30.371  22.848  1.00  0.00     0.000 C 
BRANCH   2   3
ATOM      3  C   UNL     1      13.028 -29.377  24.015  1.00  0.00     0.000 C 
BRANCH   3   4
ATOM      4  C   UNL     1      12.530 -30.016  25.322  1.00  0.00     0.000 C 
BRANCH   4   5
ATOM      5  C   UNL     1      11.421 -31.061  25.100  1.00  0.00     0.000 C 
BRANCH   5   6
ATOM      6  C   UNL     1      11.406 -32.223  26.120  1.00  0.00     0.000 C 
BRANCH   6   7
ATOM      7  C   UNL     1      10.354 -33.311  25.828  1.00  0.00     0.000 C 
BRANCH   7   8
ATOM      8  C   UNL     1      10.859 -34.762  25.936  1.00  0.00     0.000 C 
BRANCH   8   9
ATOM      9  C   UNL     1      11.456 -35.344  24.638  1.00  0.00     0.000 C 
BRANCH   9  10
ATOM     10  C   UNL     1      12.837 -36.012  24.793  1.00  0.00     0.000 C 
BRANCH  10  11
ATOM     11  C   UNL     1      14.026 -35.182  24.275  1.00  0.00     0.000 C 
BRANCH  11  12
ATOM     12  C   UNL     1      13.599 -33.796  23.767  1.00  0.00     0.000 C 
BRANCH  12  13
ATOM     13  C   UNL     1      14.695 -33.093  22.942  1.00  0.00     0.006 C 
BRANCH  13  14
ATOM     14  C   UNL     1      14.523 -33.204  21.416  1.00  0.00     0.053 C 
BRANCH  14  15
ATOM     15  C   UNL     1      15.836 -33.225  20.694  1.00  0.00     0.041 C 
ATOM     16  O   UNL     1      15.935 -33.798  19.575  1.00  0.00    -0.550 OA
ATOM     17  O   UNL     1      16.934 -32.560  21.226  1.00  0.00    -0.550 OA
ENDBRANCH  14  15
ENDBRANCH  13  14
ENDBRANCH  12  13
ENDBRANCH  11  12
ENDBRANCH  10  11
ENDBRANCH   9  10
ENDBRANCH   8   9
ENDBRANCH   7   8
ENDBRANCH   6   7
ENDBRANCH   5   6
ENDBRANCH   4   5
ENDBRANCH   3   4
ENDBRANCH   2   3
ENDBRANCH   1   2
BRANCH   1  18
ATOM     18  C   UNL     1      11.149 -31.968  21.828  1.00  0.00     0.000 C 
BRANCH  18  19
ATOM     19  C   UNL     1      10.657 -31.985  20.372  1.00  0.00     0.000 C 
BRANCH  19  20
ATOM     20  C   UNL     1       9.158 -31.659  20.243  1.00  0.00     0.000 C 
BRANCH  20  21
ATOM     21  C   UNL     1       8.238 -32.398  21.233  1.00  0.00     0.000 C 
BRANCH  21  22
ATOM     22  C   UNL     1       6.973 -31.598  21.589  1.00  0.00     0.000 C 
BRANCH  22  23
ATOM     23  C   UNL     1       6.711 -31.561  23.104  1.00  0.00     0.000 C 
BRANCH  23  24
ATOM     24  C   UNL     1       7.964 -31.171  23.908  1.00  0.00    -0.000 C 
BRANCH  24  25
ATOM     25  C   UNL     1       7.956 -29.697  24.354  1.00  0.00    -0.000 C 
BRANCH  25  26
ATOM     26  C   UNL     1       7.560 -29.458  25.822  1.00  0.00    -0.000 C 
BRANCH  26  27
ATOM     27  C   UNL     1       6.110 -29.873  26.125  1.00  0.00    -0.000 C 
BRANCH  27  28
ATOM     28  C   UNL     1       5.099 -29.246  25.149  1.00  0.00    -0.000 C 
BRANCH  28  29
ATOM     29  C   UNL     1       3.765 -28.886  25.826  1.00  0.00    -0.000 C 
BRANCH  29  30
ATOM     30  C   UNL     1       2.661 -28.523  24.816  1.00  0.00    -0.000 C 
BRANCH  30  31
ATOM     31  C   UNL     1       1.450 -29.473  24.804  1.00  0.00    -0.003 C 
ATOM     32  C   UNL     1       1.333 -30.279  23.511  1.00  0.00     0.004 C 
ENDBRANCH  30  31
ENDBRANCH  29  30
ENDBRANCH  28  29
ENDBRANCH  27  28
ENDBRANCH  26  27
ENDBRANCH  25  26
ENDBRANCH  24  25
ENDBRANCH  23  24
ENDBRANCH  22  23
ENDBRANCH  21  22
ENDBRANCH  20  21
ENDBRANCH  19  20
ENDBRANCH  18  19
ENDBRANCH   1  18
TORSDOF 28
ENDMDL
MODEL 4
REMARK VINA RESULT:    -4.896      1.186      2.194
REMARK INTER + INTRA:         -16.968
REMARK INTER:                 -13.604
REMARK INTRA:                  -3.364
REMARK UNBOUND:                -4.057
REMARK SMILES CCCCCCCCCCCCCCCCCCCCCCCCCCCCCC(=O)[O-]
REMARK SMILES IDX 16 1 17 2 18 3 19 4 20 5 21 6 22 7 23 8 24 9 25 10 26 11
REMARK SMILES IDX 27 12 28 13 29 14 30 15 31 16 32 17 15 18 14 19 13 20 12 21
REMARK SMILES IDX 11 22 10 23 9 24 8 25 7 26 6 27 5 28 4 29 3 30 2 31 1 32
REMARK H PARENT
REMARK Flexibility Score: inf
ROOT
ATOM      1  C   UNL     1      13.013 -29.069  22.850  1.00  0.00     0.000 C 
ENDROOT
BRANCH   1   2
ATOM      2  C   UNL     1      11.797 -28.730  21.969  1.00  0.00     0.000 C 
BRANCH   2   3
ATOM      3  C   UNL     1      10.900 -29.945  21.688  1.00  0.00     0.000 C 
BRANCH   3   4
ATOM      4  C   UNL     1       9.472 -29.702  22.203  1.00  0.00     0.000 C 
BRANCH   4   5
ATOM      5  C   UNL     1       8.432 -30.652  21.580  1.00  0.00     0.000 C 
BRANCH   5   6
ATOM      6  C   UNL     1       7.644 -31.512  22.595  1.00  0.00     0.000 C 
BRANCH   6   7
ATOM      7  C   UNL     1       7.951 -31.192  24.071  1.00  0.00     0.000 C 
BRANCH   7   8
ATOM      8  C   UNL     1       6.720 -30.922  24.956  1.00  0.00     0.000 C 
BRANCH   8   9
ATOM      9  C   UNL     1       5.599 -30.101  24.285  1.00  0.00     0.000 C 
BRANCH   9  10
ATOM     10  C   UNL     1       4.682 -29.328  25.254  1.00  0.00     0.000 C 
BRANCH  10  11
ATOM     11  C   UNL     1       3.178 -29.409  24.934  1.00  0.00     0.000 C 
BRANCH  11  12
ATOM     12  C   UNL     1       2.817 -28.702  23.618  1.00  0.00     0.000 C 
BRANCH  12  13
ATOM     13  C   UNL     1       1.404 -28.088  23.631  1.00  0.00     0.006 C 
BRANCH  13  14
ATOM     14  C   UNL     1       0.326 -28.935  22.931  1.00  0.00     0.053 C 
BRANCH  14  15
ATOM     15  C   UNL     1       0.133 -30.269  23.587  1.00  0.00     0.041 C 
ATOM     16  O   UNL     1       0.212 -31.328  22.906  1.00  0.00    -0.550 OA
ATOM     17  O   UNL     1      -0.073 -30.347  24.960  1.00  0.00    -0.550 OA
ENDBRANCH  14  15
ENDBRANCH  13  14
ENDBRANCH  12  13
ENDBRANCH  11  12
ENDBRANCH  10  11
ENDBRANCH   9  10
ENDBRANCH   8   9
ENDBRANCH   7   8
ENDBRANCH   6   7
ENDBRANCH   5   6
ENDBRANCH   4   5
ENDBRANCH   3   4
ENDBRANCH   2   3
ENDBRANCH   1   2
BRANCH   1  18
ATOM     18  C   UNL     1      12.695 -29.332  24.334  1.00  0.00     0.000 C 
BRANCH  18  19
ATOM     19  C   UNL     1      12.837 -30.812  24.725  1.00  0.00     0.000 C 
BRANCH  19  20
ATOM     20  C   UNL     1      11.593 -31.363  25.445  1.00  0.00     0.000 C 
BRANCH  20  21
ATOM     21  C   UNL     1      11.781 -32.736  26.119  1.00  0.00     0.000 C 
BRANCH  21  22
ATOM     22  C   UNL     1      13.190 -33.319  25.910  1.00  0.00     0.000 C 
BRANCH  22  23
ATOM     23  C   UNL     1      13.154 -34.739  25.321  1.00  0.00     0.000 C 
BRANCH  23  24
ATOM     24  C   UNL     1      11.790 -35.081  24.695  1.00  0.00    -0.000 C 
BRANCH  24  25
ATOM     25  C   UNL     1      11.766 -34.888  23.167  1.00  0.00    -0.000 C 
BRANCH  25  26
ATOM     26  C   UNL     1      11.285 -33.505  22.689  1.00  0.00    -0.000 C 
BRANCH  26  27
ATOM     27  C   UNL     1      11.608 -33.239  21.209  1.00  0.00    -0.000 C 
BRANCH  27  28
ATOM     28  C   UNL     1      12.956 -32.523  21.017  1.00  0.00    -0.000 C 
BRANCH  28  29
ATOM     29  C   UNL     1      13.928 -32.763  22.186  1.00  0.00    -0.000 C 
BRANCH  29  30
ATOM     30  C   UNL     1      15.376 -33.001  21.720  1.00  0.00    -0.000 C 
BRANCH  30  31
ATOM     31  C   UNL     1      15.558 -33.131  20.197  1.00  0.00    -0.003 C 
ATOM     32  C   UNL     1      15.900 -34.553  19.754  1.00  0.00     0.004 C 
ENDBRANCH  30  31
ENDBRANCH  29  30
ENDBRANCH  28  29
ENDBRANCH  27  28
ENDBRANCH  26  27
ENDBRANCH  25  26
ENDBRANCH  24  25
ENDBRANCH  23  24
ENDBRANCH  22  23
ENDBRANCH  21  22
ENDBRANCH  20  21
ENDBRANCH  19  20
ENDBRANCH  18  19
ENDBRANCH   1  18
TORSDOF 28
ENDMDL
MODEL 5
REMARK VINA RESULT:    -4.640      1.152      3.502
REMARK INTER + INTRA:         -16.291
REMARK INTER:                 -13.499
REMARK INTRA:                  -2.792
REMARK UNBOUND:                -4.057
REMARK SMILES CCCCCCCCCCCCCCCCCCCCCCCCCCCCCC(=O)[O-]
REMARK SMILES IDX 16 1 17 2 18 3 19 4 20 5 21 6 22 7 23 8 24 9 25 10 26 11
REMARK SMILES IDX 27 12 28 13 29 14 30 15 31 16 32 17 15 18 14 19 13 20 12 21
REMARK SMILES IDX 11 22 10 23 9 24 8 25 7 26 6 27 5 28 4 29 3 30 2 31 1 32
REMARK H PARENT
REMARK Flexibility Score: inf
ROOT
ATOM      1  C   UNL     1      10.726 -31.931  21.469  1.00  0.00     0.000 C 
ENDROOT
BRANCH   1   2
ATOM      2  C   UNL     1       9.401 -32.701  21.613  1.00  0.00     0.000 C 
BRANCH   2   3
ATOM      3  C   UNL     1       8.390 -32.373  20.503  1.00  0.00     0.000 C 
BRANCH   3   4
ATOM      4  C   UNL     1       7.245 -31.501  21.046  1.00  0.00     0.000 C 
BRANCH   4   5
ATOM      5  C   UNL     1       7.629 -30.718  22.315  1.00  0.00     0.000 C 
BRANCH   5   6
ATOM      6  C   UNL     1       7.157 -31.355  23.643  1.00  0.00     0.000 C 
BRANCH   6   7
ATOM      7  C   UNL     1       7.932 -30.877  24.886  1.00  0.00     0.000 C 
BRANCH   7   8
ATOM      8  C   UNL     1       7.126 -30.011  25.872  1.00  0.00     0.000 C 
BRANCH   8   9
ATOM      9  C   UNL     1       5.593 -30.146  25.759  1.00  0.00     0.000 C 
BRANCH   9  10
ATOM     10  C   UNL     1       4.836 -28.829  25.493  1.00  0.00     0.000 C 
BRANCH  10  11
ATOM     11  C   UNL     1       3.301 -28.939  25.533  1.00  0.00     0.000 C 
BRANCH  11  12
ATOM     12  C   UNL     1       2.703 -29.323  24.170  1.00  0.00     0.000 C 
BRANCH  12  13
ATOM     13  C   UNL     1       1.796 -28.225  23.579  1.00  0.00     0.006 C 
BRANCH  13  14
ATOM     14  C   UNL     1       0.289 -28.529  23.645  1.00  0.00     0.053 C 
BRANCH  14  15
ATOM     15  C   UNL     1       0.011 -29.978  23.909  1.00  0.00     0.041 C 
ATOM     16  O   UNL     1      -0.081 -30.792  22.950  1.00  0.00    -0.550 OA
ATOM     17  O   UNL     1      -0.086 -30.442  25.216  1.00  0.00    -0.550 OA
ENDBRANCH  14  15
ENDBRANCH  13  14
ENDBRANCH  12  13
ENDBRANCH  11  12
ENDBRANCH  10  11
ENDBRANCH   9  10
ENDBRANCH   8   9
ENDBRANCH   7   8
ENDBRANCH   6   7
ENDBRANCH   5   6
ENDBRANCH   4   5
ENDBRANCH   3   4
ENDBRANCH   2   3
ENDBRANCH   1   2
BRANCH   1  18
ATOM     18  C   UNL     1      11.124 -31.077  22.687  1.00  0.00     0.000 C 
BRANCH  18  19
ATOM     19  C   UNL     1      11.808 -29.757  22.296  1.00  0.00     0.000 C 
BRANCH  19  20
ATOM     20  C   UNL     1      13.290 -29.706  22.708  1.00  0.00     0.000 C 
BRANCH  20  21
ATOM     21  C   UNL     1      13.584 -28.923  24.002  1.00  0.00     0.000 C 
BRANCH  21  22
ATOM     22  C   UNL     1      12.625 -29.282  25.151  1.00  0.00     0.000 C 
BRANCH  22  23
ATOM     23  C   UNL     1      13.226 -30.323  26.110  1.00  0.00     0.000 C 
BRANCH  23  24
ATOM     24  C   UNL     1      12.870 -31.766  25.710  1.00  0.00    -0.000 C 
BRANCH  24  25
ATOM     25  C   UNL     1      11.426 -32.153  26.082  1.00  0.00    -0.000 C 
BRANCH  25  26
ATOM     26  C   UNL     1      10.811 -33.282  25.235  1.00  0.00    -0.000 C 
BRANCH  26  27
ATOM     27  C   UNL     1      10.636 -34.592  26.021  1.00  0.00    -0.000 C 
BRANCH  27  28
ATOM     28  C   UNL     1      11.274 -35.799  25.310  1.00  0.00    -0.000 C 
BRANCH  28  29
ATOM     29  C   UNL     1      12.328 -35.385  24.268  1.00  0.00    -0.000 C 
BRANCH  29  30
ATOM     30  C   UNL     1      13.669 -34.977  24.905  1.00  0.00    -0.000 C 
BRANCH  30  31
ATOM     31  C   UNL     1      14.600 -34.155  23.995  1.00  0.00    -0.003 C 
ATOM     32  C   UNL     1      13.854 -33.428  22.876  1.00  0.00     0.004 C 
ENDBRANCH  30  31
ENDBRANCH  29  30
ENDBRANCH  28  29
ENDBRANCH  27  28
ENDBRANCH  26  27
ENDBRANCH  25  26
ENDBRANCH  24  25
ENDBRANCH  23  24
ENDBRANCH  22  23
ENDBRANCH  21  22
ENDBRANCH  20  21
ENDBRANCH  19  20
ENDBRANCH  18  19
ENDBRANCH   1  18
TORSDOF 28
ENDMDL
MODEL 6
REMARK VINA RESULT:    -4.050      4.679      9.906
REMARK INTER + INTRA:         -14.736
REMARK INTER:                 -11.583
REMARK INTRA:                  -3.153
REMARK UNBOUND:                -4.057
REMARK SMILES CCCCCCCCCCCCCCCCCCCCCCCCCCCCCC(=O)[O-]
REMARK SMILES IDX 16 1 17 2 18 3 19 4 20 5 21 6 22 7 23 8 24 9 25 10 26 11
REMARK SMILES IDX 27 12 28 13 29 14 30 15 31 16 32 17 15 18 14 19 13 20 12 21
REMARK SMILES IDX 11 22 10 23 9 24 8 25 7 26 6 27 5 28 4 29 3 30 2 31 1 32
REMARK H PARENT
REMARK Flexibility Score: inf
ROOT
ATOM      1  C   UNL     1      11.527 -30.814  22.823  1.00  0.00     0.000 C 
ENDROOT
BRANCH   1   2
ATOM      2  C   UNL     1      11.994 -30.870  24.289  1.00  0.00     0.000 C 
BRANCH   2   3
ATOM      3  C   UNL     1      10.863 -30.594  25.293  1.00  0.00     0.000 C 
BRANCH   3   4
ATOM      4  C   UNL     1      10.528 -31.860  26.100  1.00  0.00     0.000 C 
BRANCH   4   5
ATOM      5  C   UNL     1      10.369 -33.114  25.221  1.00  0.00     0.000 C 
BRANCH   5   6
ATOM      6  C   UNL     1      11.106 -34.371  25.740  1.00  0.00     0.000 C 
BRANCH   6   7
ATOM      7  C   UNL     1      11.843 -35.171  24.647  1.00  0.00     0.000 C 
BRANCH   7   8
ATOM      8  C   UNL     1      13.380 -35.119  24.716  1.00  0.00     0.000 C 
BRANCH   8   9
ATOM      9  C   UNL     1      14.074 -34.575  23.450  1.00  0.00     0.000 C 
BRANCH   9  10
ATOM     10  C   UNL     1      14.430 -33.075  23.489  1.00  0.00     0.000 C 
BRANCH  10  11
ATOM     11  C   UNL     1      15.222 -32.560  22.273  1.00  0.00     0.000 C 
BRANCH  11  12
ATOM     12  C   UNL     1      14.951 -33.382  21.003  1.00  0.00     0.000 C 
BRANCH  12  13
ATOM     13  C   UNL     1      16.201 -33.547  20.115  1.00  0.00     0.006 C 
BRANCH  13  14
ATOM     14  C   UNL     1      16.023 -34.507  18.926  1.00  0.00     0.053 C 
BRANCH  14  15
ATOM     15  C   UNL     1      16.132 -35.946  19.332  1.00  0.00     0.041 C 
ATOM     16  O   UNL     1      16.743 -36.768  18.596  1.00  0.00    -0.550 OA
ATOM     17  O   UNL     1      15.613 -36.367  20.551  1.00  0.00    -0.550 OA
ENDBRANCH  14  15
ENDBRANCH  13  14
ENDBRANCH  12  13
ENDBRANCH  11  12
ENDBRANCH  10  11
ENDBRANCH   9  10
ENDBRANCH   8   9
ENDBRANCH   7   8
ENDBRANCH   6   7
ENDBRANCH   5   6
ENDBRANCH   4   5
ENDBRANCH   3   4
ENDBRANCH   2   3
ENDBRANCH   1   2
BRANCH   1  18
ATOM     18  C   UNL     1      11.361 -32.181  22.135  1.00  0.00     0.000 C 
BRANCH  18  19
ATOM     19  C   UNL     1      11.023 -32.064  20.640  1.00  0.00     0.000 C 
BRANCH  19  20
ATOM     20  C   UNL     1       9.535 -31.761  20.385  1.00  0.00     0.000 C 
BRANCH  20  21
ATOM     21  C   UNL     1       8.547 -32.536  21.278  1.00  0.00     0.000 C 
BRANCH  21  22
ATOM     22  C   UNL     1       7.150 -31.891  21.326  1.00  0.00     0.000 C 
BRANCH  22  23
ATOM     23  C   UNL     1       6.669 -31.644  22.765  1.00  0.00     0.000 C 
BRANCH  23  24
ATOM     24  C   UNL     1       7.765 -31.030  23.654  1.00  0.00    -0.000 C 
BRANCH  24  25
ATOM     25  C   UNL     1       7.601 -29.511  23.847  1.00  0.00    -0.000 C 
BRANCH  25  26
ATOM     26  C   UNL     1       7.313 -29.060  25.291  1.00  0.00    -0.000 C 
BRANCH  26  27
ATOM     27  C   UNL     1       6.132 -29.813  25.927  1.00  0.00    -0.000 C 
BRANCH  27  28
ATOM     28  C   UNL     1       4.895 -29.852  25.014  1.00  0.00    -0.000 C 
BRANCH  28  29
ATOM     29  C   UNL     1       3.891 -28.728  25.325  1.00  0.00    -0.000 C 
BRANCH  29  30
ATOM     30  C   UNL     1       2.426 -29.176  25.170  1.00  0.00    -0.000 C 
BRANCH  30  31
ATOM     31  C   UNL     1       2.020 -29.598  23.746  1.00  0.00    -0.003 C 
ATOM     32  C   UNL     1       0.638 -30.248  23.685  1.00  0.00     0.004 C 
ENDBRANCH  30  31
ENDBRANCH  29  30
ENDBRANCH  28  29
ENDBRANCH  27  28
ENDBRANCH  26  27
ENDBRANCH  25  26
ENDBRANCH  24  25
ENDBRANCH  23  24
ENDBRANCH  22  23
ENDBRANCH  21  22
ENDBRANCH  20  21
ENDBRANCH  19  20
ENDBRANCH  18  19
ENDBRANCH   1  18
TORSDOF 28
ENDMDL
MODEL 7
REMARK VINA RESULT:    -3.361      2.096      3.362
REMARK INTER + INTRA:         -12.918
REMARK INTER:                 -10.341
REMARK INTRA:                  -2.577
REMARK UNBOUND:                -4.057
REMARK SMILES CCCCCCCCCCCCCCCCCCCCCCCCCCCCCC(=O)[O-]
REMARK SMILES IDX 16 1 17 2 18 3 19 4 20 5 21 6 22 7 23 8 24 9 25 10 26 11
REMARK SMILES IDX 27 12 28 13 29 14 30 15 31 16 32 17 15 18 14 19 13 20 12 21
REMARK SMILES IDX 11 22 10 23 9 24 8 25 7 26 6 27 5 28 4 29 3 30 2 31 1 32
REMARK H PARENT
REMARK Flexibility Score: inf
ROOT
ATOM      1  C   UNL     1      10.537 -33.177  21.807  1.00  0.00     0.000 C 
ENDROOT
BRANCH   1   2
ATOM      2  C   UNL     1       9.884 -32.479  20.600  1.00  0.00     0.000 C 
BRANCH   2   3
ATOM      3  C   UNL     1       8.350 -32.567  20.611  1.00  0.00     0.000 C 
BRANCH   3   4
ATOM      4  C   UNL     1       7.753 -31.586  21.633  1.00  0.00     0.000 C 
BRANCH   4   5
ATOM      5  C   UNL     1       8.563 -30.283  21.767  1.00  0.00     0.000 C 
BRANCH   5   6
ATOM      6  C   UNL     1       7.716 -29.010  22.000  1.00  0.00     0.000 C 
BRANCH   6   7
ATOM      7  C   UNL     1       7.595 -28.592  23.479  1.00  0.00     0.000 C 
BRANCH   7   8
ATOM      8  C   UNL     1       8.036 -29.654  24.502  1.00  0.00     0.000 C 
BRANCH   8   9
ATOM      9  C   UNL     1       6.904 -30.554  25.040  1.00  0.00     0.000 C 
BRANCH   9  10
ATOM     10  C   UNL     1       5.476 -30.098  24.679  1.00  0.00     0.000 C 
BRANCH  10  11
ATOM     11  C   UNL     1       4.759 -29.275  25.765  1.00  0.00     0.000 C 
BRANCH  11  12
ATOM     12  C   UNL     1       3.563 -28.485  25.210  1.00  0.00     0.000 C 
BRANCH  12  13
ATOM     13  C   UNL     1       2.312 -29.359  24.993  1.00  0.00     0.006 C 
BRANCH  13  14
ATOM     14  C   UNL     1       1.160 -28.660  24.249  1.00  0.00     0.053 C 
BRANCH  14  15
ATOM     15  C   UNL     1       0.557 -29.528  23.186  1.00  0.00     0.041 C 
ATOM     16  O   UNL     1      -0.090 -29.010  22.235  1.00  0.00    -0.550 OA
ATOM     17  O   UNL     1       0.762 -30.903  23.211  1.00  0.00    -0.550 OA
ENDBRANCH  14  15
ENDBRANCH  13  14
ENDBRANCH  12  13
ENDBRANCH  11  12
ENDBRANCH  10  11
ENDBRANCH   9  10
ENDBRANCH   8   9
ENDBRANCH   7   8
ENDBRANCH   6   7
ENDBRANCH   5   6
ENDBRANCH   4   5
ENDBRANCH   3   4
ENDBRANCH   2   3
ENDBRANCH   1   2
BRANCH   1  18
ATOM     18  C   UNL     1      11.095 -32.233  22.887  1.00  0.00     0.000 C 
BRANCH  18  19
ATOM     19  C   UNL     1      10.375 -32.374  24.238  1.00  0.00     0.000 C 
BRANCH  19  20
ATOM     20  C   UNL     1      11.336 -32.686  25.400  1.00  0.00     0.000 C 
BRANCH  20  21
ATOM     21  C   UNL     1      12.051 -34.048  25.312  1.00  0.00     0.000 C 
BRANCH  21  22
ATOM     22  C   UNL     1      13.484 -34.011  25.870  1.00  0.00     0.000 C 
BRANCH  22  23
ATOM     23  C   UNL     1      14.546 -34.093  24.762  1.00  0.00     0.000 C 
BRANCH  23  24
ATOM     24  C   UNL     1      13.935 -34.399  23.383  1.00  0.00    -0.000 C 
BRANCH  24  25
ATOM     25  C   UNL     1      14.066 -33.225  22.394  1.00  0.00    -0.000 C 
BRANCH  25  26
ATOM     26  C   UNL     1      15.438 -32.526  22.384  1.00  0.00    -0.000 C 
BRANCH  26  27
ATOM     27  C   UNL     1      16.377 -33.068  21.293  1.00  0.00    -0.000 C 
BRANCH  27  28
ATOM     28  C   UNL     1      15.755 -32.995  19.887  1.00  0.00    -0.000 C 
BRANCH  28  29
ATOM     29  C   UNL     1      15.967 -34.286  19.076  1.00  0.00    -0.000 C 
BRANCH  29  30
ATOM     30  C   UNL     1      16.462 -35.460  19.941  1.00  0.00    -0.000 C 
BRANCH  30  31
ATOM     31  C   UNL     1      16.036 -36.856  19.450  1.00  0.00    -0.003 C 
ATOM     32  C   UNL     1      17.170 -37.621  18.767  1.00  0.00     0.004 C 
ENDBRANCH  30  31
ENDBRANCH  29  30
ENDBRANCH  28  29
ENDBRANCH  27  28
ENDBRANCH  26  27
ENDBRANCH  25  26
ENDBRANCH  24  25
ENDBRANCH  23  24
ENDBRANCH  22  23
ENDBRANCH  21  22
ENDBRANCH  20  21
ENDBRANCH  19  20
ENDBRANCH  18  19
ENDBRANCH   1  18
TORSDOF 28
ENDMDL
