MODEL 1
REMARK VINA RESULT:    -5.427      0.000      0.000
REMARK INTER + INTRA:          -5.585
REMARK INTER:                  -5.585
REMARK INTRA:                   0.000
REMARK UNBOUND:                 0.000
REMARK SMILES Cc1ccccc1O
REMARK SMILES IDX 1 1 2 2 3 3 4 4 5 5 6 6 7 7 8 8
REMARK H PARENT 8 9
REMARK Flexibility Score: inf
ROOT
ATOM      1  C   UNL     1      20.913  28.740  36.624  1.00  0.00     0.048 C 
ATOM      2  C   UNL     1      19.592  28.023  36.623  1.00  0.00    -0.009 A 
ATOM      3  C   UNL     1      18.447  28.675  37.117  1.00  0.00     0.007 A 
ATOM      4  C   UNL     1      17.210  28.027  37.125  1.00  0.00     0.001 A 
ATOM      5  C   UNL     1      17.101  26.722  36.641  1.00  0.00     0.004 A 
ATOM      6  C   UNL     1      18.228  26.063  36.147  1.00  0.00     0.046 A 
ATOM      7  C   UNL     1      19.475  26.701  36.133  1.00  0.00     0.118 A 
ENDROOT
BRANCH   7   8
ATOM      8  O   UNL     1      20.573  26.000  35.629  1.00  0.00    -0.508 OA
ATOM      9  H   UNL     1      20.918  26.121  34.686  1.00  0.00     0.293 HD
ENDBRANCH   7   8
TORSDOF 1
ENDMDL
MODEL 2
REMARK VINA RESULT:    -5.342      1.038      2.328
REMARK INTER + INTRA:          -5.498
REMARK INTER:                  -5.498
REMARK INTRA:                   0.000
REMARK UNBOUND:                 0.000
REMARK SMILES Cc1ccccc1O
REMARK SMILES IDX 1 1 2 2 3 3 4 4 5 5 6 6 7 7 8 8
REMARK H PARENT 8 9
REMARK Flexibility Score: inf
ROOT
ATOM      1  C   UNL     1      19.891  24.953  35.506  1.00  0.00     0.048 C 
ATOM      2  C   UNL     1      19.093  26.096  36.069  1.00  0.00    -0.009 A 
ATOM      3  C   UNL     1      17.745  25.896  36.418  1.00  0.00     0.007 A 
ATOM      4  C   UNL     1      16.986  26.945  36.943  1.00  0.00     0.001 A 
ATOM      5  C   UNL     1      17.562  28.203  37.124  1.00  0.00     0.004 A 
ATOM      6  C   UNL     1      18.899  28.416  36.782  1.00  0.00     0.046 A 
ATOM      7  C   UNL     1      19.672  27.374  36.255  1.00  0.00     0.118 A 
ENDROOT
BRANCH   7   8
ATOM      8  O   UNL     1      21.004  27.636  35.929  1.00  0.00    -0.508 OA
ATOM      9  H   UNL     1      21.416  27.375  35.042  1.00  0.00     0.293 HD
ENDBRANCH   7   8
TORSDOF 1
ENDMDL
MODEL 3
REMARK VINA RESULT:    -4.794      1.744      2.612
REMARK INTER + INTRA:          -4.935
REMARK INTER:                  -4.935
REMARK INTRA:                   0.000
REMARK UNBOUND:                 0.000
REMARK SMILES Cc1ccccc1O
REMARK SMILES IDX 1 1 2 2 3 3 4 4 5 5 6 6 7 7 8 8
REMARK H PARENT 8 9
REMARK Flexibility Score: inf
ROOT
ATOM      1  C   UNL     1      20.710  24.637  35.083  1.00  0.00     0.048 C 
ATOM      2  C   UNL     1      19.608  25.503  35.625  1.00  0.00    -0.009 A 
ATOM      3  C   UNL     1      19.920  26.753  36.189  1.00  0.00     0.007 A 
ATOM      4  C   UNL     1      18.911  27.573  36.699  1.00  0.00     0.001 A 
ATOM      5  C   UNL     1      17.580  27.156  36.651  1.00  0.00     0.004 A 
ATOM      6  C   UNL     1      17.255  25.917  36.094  1.00  0.00     0.046 A 
ATOM      7  C   UNL     1      18.257  25.085  35.580  1.00  0.00     0.118 A 
ENDROOT
BRANCH   7   8
ATOM      8  O   UNL     1      17.881  23.856  35.032  1.00  0.00    -0.508 OA
ATOM      9  H   UNL     1      18.032  22.973  35.504  1.00  0.00     0.293 HD
ENDBRANCH   7   8
TORSDOF 1
ENDMDL
MODEL 4
REMARK VINA RESULT:    -4.481     16.721     17.455
REMARK INTER + INTRA:          -4.612
REMARK INTER:                  -4.612
REMARK INTRA:                   0.000
REMARK UNBOUND:                 0.000
REMARK SMILES Cc1ccccc1O
REMARK SMILES IDX 1 1 2 2 3 3 4 4 5 5 6 6 7 7 8 8
REMARK H PARENT 8 9
REMARK Flexibility Score: inf
ROOT
ATOM      1  C   UNL     1      21.352  23.562  17.452  1.00  0.00     0.048 C 
ATOM      2  C   UNL     1      21.058  23.568  18.926  1.00  0.00    -0.009 A 
ATOM      3  C   UNL     1      21.853  22.801  19.797  1.00  0.00     0.007 A 
ATOM      4  C   UNL     1      21.595  22.793  21.170  1.00  0.00     0.001 A 
ATOM      5  C   UNL     1      20.543  23.549  21.689  1.00  0.00     0.004 A 
ATOM      6  C   UNL     1      19.746  24.315  20.836  1.00  0.00     0.046 A 
ATOM      7  C   UNL     1      19.992  24.332  19.458  1.00  0.00     0.118 A 
ENDROOT
BRANCH   7   8
ATOM      8  O   UNL     1      19.167  25.115  18.647  1.00  0.00    -0.508 OA
ATOM      9  H   UNL     1      19.179  26.127  18.661  1.00  0.00     0.293 HD
ENDBRANCH   7   8
TORSDOF 1
ENDMDL
MODEL 5
REMARK VINA RESULT:    -4.468     16.653     17.345
REMARK INTER + INTRA:          -4.598
REMARK INTER:                  -4.598
REMARK INTRA:                   0.000
REMARK UNBOUND:                 0.000
REMARK SMILES Cc1ccccc1O
REMARK SMILES IDX 1 1 2 2 3 3 4 4 5 5 6 6 7 7 8 8
REMARK H PARENT 8 9
REMARK Flexibility Score: inf
ROOT
ATOM      1  C   UNL     1      22.136  21.502  21.144  1.00  0.00     0.048 C 
ATOM      2  C   UNL     1      21.477  22.701  20.521  1.00  0.00    -0.009 A 
ATOM      3  C   UNL     1      20.633  23.513  21.299  1.00  0.00     0.007 A 
ATOM      4  C   UNL     1      20.011  24.632  20.739  1.00  0.00     0.001 A 
ATOM      5  C   UNL     1      20.223  24.951  19.397  1.00  0.00     0.004 A 
ATOM      6  C   UNL     1      21.058  24.154  18.612  1.00  0.00     0.046 A 
ATOM      7  C   UNL     1      21.688  23.030  19.160  1.00  0.00     0.118 A 
ENDROOT
BRANCH   7   8
ATOM      8  O   UNL     1      22.514  22.264  18.334  1.00  0.00    -0.508 OA
ATOM      9  H   UNL     1      22.401  22.221  17.329  1.00  0.00     0.293 HD
ENDBRANCH   7   8
TORSDOF 1
ENDMDL
MODEL 6
REMARK VINA RESULT:    -4.334     16.785     17.448
REMARK INTER + INTRA:          -4.461
REMARK INTER:                  -4.461
REMARK INTRA:                   0.000
REMARK UNBOUND:                 0.000
REMARK SMILES Cc1ccccc1O
REMARK SMILES IDX 1 1 2 2 3 3 4 4 5 5 6 6 7 7 8 8
REMARK H PARENT 8 9
REMARK Flexibility Score: inf
ROOT
ATOM      1  C   UNL     1      21.362  23.813  17.371  1.00  0.00     0.048 C 
ATOM      2  C   UNL     1      21.121  23.711  18.851  1.00  0.00    -0.009 A 
ATOM      3  C   UNL     1      20.152  24.532  19.455  1.00  0.00     0.007 A 
ATOM      4  C   UNL     1      19.913  24.453  20.829  1.00  0.00     0.001 A 
ATOM      5  C   UNL     1      20.637  23.556  21.615  1.00  0.00     0.004 A 
ATOM      6  C   UNL     1      21.602  22.734  21.029  1.00  0.00     0.046 A 
ATOM      7  C   UNL     1      21.853  22.803  19.653  1.00  0.00     0.118 A 
ENDROOT
BRANCH   7   8
ATOM      8  O   UNL     1      22.828  21.961  19.114  1.00  0.00    -0.508 OA
ATOM      9  H   UNL     1      23.450  21.402  19.684  1.00  0.00     0.293 HD
ENDBRANCH   7   8
TORSDOF 1
ENDMDL
MODEL 7
REMARK VINA RESULT:    -4.193      7.028      7.825
REMARK INTER + INTRA:          -4.316
REMARK INTER:                  -4.316
REMARK INTRA:                   0.000
REMARK UNBOUND:                 0.000
REMARK SMILES Cc1ccccc1O
REMARK SMILES IDX 1 1 2 2 3 3 4 4 5 5 6 6 7 7 8 8
REMARK H PARENT 8 9
REMARK Flexibility Score: inf
ROOT
ATOM      1  C   UNL     1      22.367  32.861  35.215  1.00  0.00     0.048 C 
ATOM      2  C   UNL     1      21.326  33.641  34.463  1.00  0.00    -0.009 A 
ATOM      3  C   UNL     1      21.334  33.634  33.056  1.00  0.00     0.007 A 
ATOM      4  C   UNL     1      20.374  34.353  32.339  1.00  0.00     0.001 A 
ATOM      5  C   UNL     1      19.398  35.085  33.015  1.00  0.00     0.004 A 
ATOM      6  C   UNL     1      19.377  35.101  34.411  1.00  0.00     0.046 A 
ATOM      7  C   UNL     1      20.333  34.385  35.144  1.00  0.00     0.118 A 
ENDROOT
BRANCH   7   8
ATOM      8  O   UNL     1      20.271  34.432  36.538  1.00  0.00    -0.508 OA
ATOM      9  H   UNL     1      19.877  35.214  37.046  1.00  0.00     0.293 HD
ENDBRANCH   7   8
TORSDOF 1
ENDMDL
MODEL 8
REMARK VINA RESULT:    -4.142     16.845     17.640
REMARK INTER + INTRA:          -4.263
REMARK INTER:                  -4.263
REMARK INTRA:                   0.000
REMARK UNBOUND:                 0.000
REMARK SMILES Cc1ccccc1O
REMARK SMILES IDX 1 1 2 2 3 3 4 4 5 5 6 6 7 7 8 8
REMARK H PARENT 8 9
REMARK Flexibility Score: inf
ROOT
ATOM      1  C   UNL     1      19.156  23.516  21.747  1.00  0.00     0.048 C 
ATOM      2  C   UNL     1      20.017  23.382  20.522  1.00  0.00    -0.009 A 
ATOM      3  C   UNL     1      21.248  22.706  20.608  1.00  0.00     0.007 A 
ATOM      4  C   UNL     1      22.063  22.571  19.482  1.00  0.00     0.001 A 
ATOM      5  C   UNL     1      21.660  23.109  18.258  1.00  0.00     0.004 A 
ATOM      6  C   UNL     1      20.441  23.782  18.158  1.00  0.00     0.046 A 
ATOM      7  C   UNL     1      19.614  23.925  19.279  1.00  0.00     0.118 A 
ENDROOT
BRANCH   7   8
ATOM      8  O   UNL     1      18.405  24.607  19.127  1.00  0.00    -0.508 OA
ATOM      9  H   UNL     1      17.527  24.138  18.945  1.00  0.00     0.293 HD
ENDBRANCH   7   8
TORSDOF 1
ENDMDL
