MODEL 1
REMARK VINA RESULT:    -3.986      0.000      0.000
REMARK INTER + INTRA:          -4.386
REMARK INTER:                  -4.336
REMARK INTRA:                  -0.051
REMARK UNBOUND:                -0.051
REMARK SMILES CCc1cccc(O)c1
REMARK SMILES IDX 3 1 9 2 7 3 6 4 5 5 4 6 2 7 1 8 8 9
REMARK H PARENT 8 10
REMARK Flexibility Score: inf
ROOT
ATOM      1  C   UNL     1     160.393 161.777 181.281  1.00  0.00    -0.045 A 
ATOM      2  C   UNL     1     160.386 163.159 181.030  1.00  0.00     0.049 A 
ATOM      3  C   UNL     1     160.590 163.643 179.730  1.00  0.00     0.115 A 
ATOM      4  C   UNL     1     160.808 162.745 178.680  1.00  0.00     0.046 A 
ATOM      5  C   UNL     1     160.830 161.370 178.925  1.00  0.00     0.004 A 
ATOM      6  C   UNL     1     160.628 160.885 180.221  1.00  0.00     0.004 A 
ENDROOT
BRANCH   1   7
ATOM      7  C   UNL     1     160.208 161.258 182.682  1.00  0.00     0.032 C 
ATOM      8  C   UNL     1     160.901 162.169 183.690  1.00  0.00     0.009 C 
ENDBRANCH   1   7
BRANCH   3   9
ATOM      9  O   UNL     1     160.577 165.012 179.472  1.00  0.00    -0.508 OA
ATOM     10  H   UNL     1     160.860 165.686 180.174  1.00  0.00     0.293 HD
ENDBRANCH   3   9
TORSDOF 2
ENDMDL
MODEL 2
REMARK VINA RESULT:    -3.891      2.682      3.584
REMARK INTER + INTRA:          -4.282
REMARK INTER:                  -4.211
REMARK INTRA:                  -0.071
REMARK UNBOUND:                -0.051
REMARK SMILES CCc1cccc(O)c1
REMARK SMILES IDX 3 1 9 2 7 3 6 4 5 5 4 6 2 7 1 8 8 9
REMARK H PARENT 8 10
REMARK Flexibility Score: inf
ROOT
ATOM      1  C   UNL     1     162.709 160.999 181.806  1.00  0.00    -0.045 A 
ATOM      2  C   UNL     1     161.994 160.985 180.597  1.00  0.00     0.049 A 
ATOM      3  C   UNL     1     160.591 160.993 180.605  1.00  0.00     0.115 A 
ATOM      4  C   UNL     1     159.903 161.009 181.822  1.00  0.00     0.046 A 
ATOM      5  C   UNL     1     160.609 161.010 183.028  1.00  0.00     0.004 A 
ATOM      6  C   UNL     1     162.007 161.000 183.022  1.00  0.00     0.004 A 
ENDROOT
BRANCH   1   7
ATOM      7  C   UNL     1     164.214 160.956 181.798  1.00  0.00     0.032 C 
ATOM      8  C   UNL     1     164.732 160.011 182.878  1.00  0.00     0.009 C 
ENDBRANCH   1   7
BRANCH   3   9
ATOM      9  O   UNL     1     159.875 160.985 179.410  1.00  0.00    -0.508 OA
ATOM     10  H   UNL     1     159.410 161.817 179.066  1.00  0.00     0.293 HD
ENDBRANCH   3   9
TORSDOF 2
ENDMDL
MODEL 3
REMARK VINA RESULT:    -3.874      3.149      3.773
REMARK INTER + INTRA:          -4.264
REMARK INTER:                  -4.217
REMARK INTRA:                  -0.047
REMARK UNBOUND:                -0.051
REMARK SMILES CCc1cccc(O)c1
REMARK SMILES IDX 3 1 9 2 7 3 6 4 5 5 4 6 2 7 1 8 8 9
REMARK H PARENT 8 10
REMARK Flexibility Score: inf
ROOT
ATOM      1  C   UNL     1     163.025 160.814 181.685  1.00  0.00    -0.045 A 
ATOM      2  C   UNL     1     162.311 161.083 182.865  1.00  0.00     0.049 A 
ATOM      3  C   UNL     1     160.915 161.211 182.834  1.00  0.00     0.115 A 
ATOM      4  C   UNL     1     160.232 161.076 181.621  1.00  0.00     0.046 A 
ATOM      5  C   UNL     1     160.938 160.822 180.442  1.00  0.00     0.004 A 
ATOM      6  C   UNL     1     162.330 160.696 180.471  1.00  0.00     0.004 A 
ENDROOT
BRANCH   1   7
ATOM      7  C   UNL     1     164.527 160.711 181.713  1.00  0.00     0.032 C 
ATOM      8  C   UNL     1     164.988 159.875 182.903  1.00  0.00     0.009 C 
ENDBRANCH   1   7
BRANCH   3   9
ATOM      9  O   UNL     1     160.200 161.471 184.001  1.00  0.00    -0.508 OA
ATOM     10  H   UNL     1     159.613 160.766 184.431  1.00  0.00     0.293 HD
ENDBRANCH   3   9
TORSDOF 2
ENDMDL
MODEL 4
REMARK VINA RESULT:    -3.843      2.009      3.522
REMARK INTER + INTRA:          -4.230
REMARK INTER:                  -4.183
REMARK INTRA:                  -0.047
REMARK UNBOUND:                -0.051
REMARK SMILES CCc1cccc(O)c1
REMARK SMILES IDX 3 1 9 2 7 3 6 4 5 5 4 6 2 7 1 8 8 9
REMARK H PARENT 8 10
REMARK Flexibility Score: inf
ROOT
ATOM      1  C   UNL     1     161.025 163.307 182.185  1.00  0.00    -0.045 A 
ATOM      2  C   UNL     1     160.650 162.645 181.004  1.00  0.00     0.049 A 
ATOM      3  C   UNL     1     160.254 161.300 181.043  1.00  0.00     0.115 A 
ATOM      4  C   UNL     1     160.240 160.614 182.261  1.00  0.00     0.046 A 
ATOM      5  C   UNL     1     160.626 161.263 183.437  1.00  0.00     0.004 A 
ATOM      6  C   UNL     1     161.021 162.604 183.401  1.00  0.00     0.004 A 
ENDROOT
BRANCH   1   7
ATOM      7  C   UNL     1     161.483 164.741 182.139  1.00  0.00     0.032 C 
ATOM      8  C   UNL     1     160.287 165.687 182.106  1.00  0.00     0.009 C 
ENDBRANCH   1   7
BRANCH   3   9
ATOM      9  O   UNL     1     159.875 160.638 179.877  1.00  0.00    -0.508 OA
ATOM     10  H   UNL     1     159.958 159.632 179.788  1.00  0.00     0.293 HD
ENDBRANCH   3   9
TORSDOF 2
ENDMDL
MODEL 5
REMARK VINA RESULT:    -3.817      3.183      4.078
REMARK INTER + INTRA:          -4.202
REMARK INTER:                  -4.137
REMARK INTRA:                  -0.066
REMARK UNBOUND:                -0.051
REMARK SMILES CCc1cccc(O)c1
REMARK SMILES IDX 3 1 9 2 7 3 6 4 5 5 4 6 2 7 1 8 8 9
REMARK H PARENT 8 10
REMARK Flexibility Score: inf
ROOT
ATOM      1  C   UNL     1     162.068 161.774 183.184  1.00  0.00    -0.045 A 
ATOM      2  C   UNL     1     162.581 163.079 183.272  1.00  0.00     0.049 A 
ATOM      3  C   UNL     1     163.957 163.309 183.136  1.00  0.00     0.115 A 
ATOM      4  C   UNL     1     164.824 162.233 182.919  1.00  0.00     0.046 A 
ATOM      5  C   UNL     1     164.322 160.931 182.844  1.00  0.00     0.004 A 
ATOM      6  C   UNL     1     162.950 160.699 182.980  1.00  0.00     0.004 A 
ENDROOT
BRANCH   1   7
ATOM      7  C   UNL     1     160.595 161.523 183.363  1.00  0.00     0.032 C 
ATOM      8  C   UNL     1     160.061 160.627 182.250  1.00  0.00     0.009 C 
ENDBRANCH   1   7
BRANCH   3   9
ATOM      9  O   UNL     1     164.472 164.601 183.217  1.00  0.00    -0.508 OA
ATOM     10  H   UNL     1     164.075 165.292 183.843  1.00  0.00     0.293 HD
ENDBRANCH   3   9
TORSDOF 2
ENDMDL
MODEL 6
REMARK VINA RESULT:    -3.664      1.231      3.054
REMARK INTER + INTRA:          -4.036
REMARK INTER:                  -3.989
REMARK INTRA:                  -0.046
REMARK UNBOUND:                -0.051
REMARK SMILES CCc1cccc(O)c1
REMARK SMILES IDX 3 1 9 2 7 3 6 4 5 5 4 6 2 7 1 8 8 9
REMARK H PARENT 8 10
REMARK Flexibility Score: inf
ROOT
ATOM      1  C   UNL     1     160.987 161.434 181.053  1.00  0.00    -0.045 A 
ATOM      2  C   UNL     1     160.605 162.707 180.597  1.00  0.00     0.049 A 
ATOM      3  C   UNL     1     160.250 163.709 181.511  1.00  0.00     0.115 A 
ATOM      4  C   UNL     1     160.271 163.438 182.883  1.00  0.00     0.046 A 
ATOM      5  C   UNL     1     160.637 162.169 183.342  1.00  0.00     0.004 A 
ATOM      6  C   UNL     1     160.990 161.168 182.433  1.00  0.00     0.004 A 
ENDROOT
BRANCH   1   7
ATOM      7  C   UNL     1     161.335 160.348 180.070  1.00  0.00     0.032 C 
ATOM      8  C   UNL     1     162.659 160.652 179.377  1.00  0.00     0.009 C 
ENDBRANCH   1   7
BRANCH   3   9
ATOM      9  O   UNL     1     159.877 164.975 181.067  1.00  0.00    -0.508 OA
ATOM     10  H   UNL     1     160.566 165.686 180.852  1.00  0.00     0.293 HD
ENDBRANCH   3   9
TORSDOF 2
ENDMDL
MODEL 7
REMARK VINA RESULT:    -3.642      2.693      3.821
REMARK INTER + INTRA:          -4.012
REMARK INTER:                  -3.961
REMARK INTRA:                  -0.051
REMARK UNBOUND:                -0.051
REMARK SMILES CCc1cccc(O)c1
REMARK SMILES IDX 3 1 9 2 7 3 6 4 5 5 4 6 2 7 1 8 8 9
REMARK H PARENT 8 10
REMARK Flexibility Score: inf
ROOT
ATOM      1  C   UNL     1     162.500 162.349 182.931  1.00  0.00    -0.045 A 
ATOM      2  C   UNL     1     162.726 161.641 181.739  1.00  0.00     0.049 A 
ATOM      3  C   UNL     1     161.722 160.824 181.201  1.00  0.00     0.115 A 
ATOM      4  C   UNL     1     160.493 160.707 181.858  1.00  0.00     0.046 A 
ATOM      5  C   UNL     1     160.268 161.398 183.052  1.00  0.00     0.004 A 
ATOM      6  C   UNL     1     161.268 162.212 183.591  1.00  0.00     0.004 A 
ENDROOT
BRANCH   1   7
ATOM      7  C   UNL     1     163.590 163.200 183.527  1.00  0.00     0.032 C 
ATOM      8  C   UNL     1     164.965 162.655 183.154  1.00  0.00     0.009 C 
ENDBRANCH   1   7
BRANCH   3   9
ATOM      9  O   UNL     1     161.936 160.124 180.015  1.00  0.00    -0.508 OA
ATOM     10  H   UNL     1     161.864 159.114 179.976  1.00  0.00     0.293 HD
ENDBRANCH   3   9
TORSDOF 2
ENDMDL
MODEL 8
REMARK VINA RESULT:    -2.475     20.299     20.822
REMARK INTER + INTRA:          -2.743
REMARK INTER:                  -2.682
REMARK INTRA:                  -0.061
REMARK UNBOUND:                -0.051
REMARK SMILES CCc1cccc(O)c1
REMARK SMILES IDX 3 1 9 2 7 3 6 4 5 5 4 6 2 7 1 8 8 9
REMARK H PARENT 8 10
REMARK Flexibility Score: inf
ROOT
ATOM      1  C   UNL     1     179.146 171.440 183.279  1.00  0.00    -0.045 A 
ATOM      2  C   UNL     1     179.583 172.685 182.796  1.00  0.00     0.049 A 
ATOM      3  C   UNL     1     178.666 173.728 182.599  1.00  0.00     0.115 A 
ATOM      4  C   UNL     1     177.311 173.525 182.877  1.00  0.00     0.046 A 
ATOM      5  C   UNL     1     176.869 172.284 183.344  1.00  0.00     0.004 A 
ATOM      6  C   UNL     1     177.780 171.243 183.540  1.00  0.00     0.004 A 
ENDROOT
BRANCH   1   7
ATOM      7  C   UNL     1     180.125 170.310 183.458  1.00  0.00     0.032 C 
ATOM      8  C   UNL     1     179.870 169.208 182.435  1.00  0.00     0.009 C 
ENDBRANCH   1   7
BRANCH   3   9
ATOM      9  O   UNL     1     179.093 174.968 182.127  1.00  0.00    -0.508 OA
ATOM     10  H   UNL     1     179.378 175.706 182.760  1.00  0.00     0.293 HD
ENDBRANCH   3   9
TORSDOF 2
ENDMDL
