MODEL 1
REMARK VINA RESULT:    10.448      0.000      0.000
REMARK INTER + INTRA:          20.482
REMARK INTER:                  18.999
REMARK INTRA:                   1.483
REMARK UNBOUND:                 1.483
REMARK SMILES CCCCCCCCCCCCCCCC(=O)[O-]
REMARK SMILES IDX 9 1 10 2 11 3 12 4 13 5 14 6 15 7 16 8 17 9 18 10 8 11 7 12
REMARK SMILES IDX 6 13 5 14 4 15 3 16 2 17 1 18
REMARK H PARENT
REMARK Flexibility Score: inf
ROOT
ATOM      1  C   UNL     1     -16.593  27.473  -3.805  1.00  0.00     0.000 C 
ENDROOT
BRANCH   1   2
ATOM      2  C   UNL     1     -15.390  27.696  -2.878  1.00  0.00     0.000 C 
BRANCH   2   3
ATOM      3  C   UNL     1     -14.507  28.878  -3.316  1.00  0.00     0.000 C 
BRANCH   3   4
ATOM      4  C   UNL     1     -13.012  28.545  -3.501  1.00  0.00     0.000 C 
BRANCH   4   5
ATOM      5  C   UNL     1     -12.198  29.599  -4.273  1.00  0.00     0.000 C 
BRANCH   5   6
ATOM      6  C   UNL     1     -12.126  29.312  -5.781  1.00  0.00     0.006 C 
BRANCH   6   7
ATOM      7  C   UNL     1     -10.680  29.230  -6.287  1.00  0.00     0.053 C 
BRANCH   7   8
ATOM      8  C   UNL     1     -10.557  29.715  -7.699  1.00  0.00     0.041 C 
ATOM      9  O   UNL     1     -11.568  29.749  -8.449  1.00  0.00    -0.550 OA
ATOM     10  O   UNL     1      -9.330  30.157  -8.179  1.00  0.00    -0.550 OA
ENDBRANCH   7   8
ENDBRANCH   6   7
ENDBRANCH   5   6
ENDBRANCH   4   5
ENDBRANCH   3   4
ENDBRANCH   2   3
ENDBRANCH   1   2
BRANCH   1  11
ATOM     11  C   UNL     1     -17.651  26.590  -3.127  1.00  0.00     0.000 C 
BRANCH  11  12
ATOM     12  C   UNL     1     -19.045  27.241  -3.100  1.00  0.00    -0.000 C 
BRANCH  12  13
ATOM     13  C   UNL     1     -19.048  28.766  -2.875  1.00  0.00    -0.000 C 
BRANCH  13  14
ATOM     14  C   UNL     1     -20.144  29.536  -3.639  1.00  0.00    -0.000 C 
BRANCH  14  15
ATOM     15  C   UNL     1     -20.739  28.789  -4.849  1.00  0.00    -0.000 C 
BRANCH  15  16
ATOM     16  C   UNL     1     -19.800  27.757  -5.506  1.00  0.00    -0.000 C 
BRANCH  16  17
ATOM     17  C   UNL     1     -20.246  26.291  -5.360  1.00  0.00    -0.003 C 
ATOM     18  C   UNL     1     -21.112  25.814  -6.525  1.00  0.00     0.004 C 
ENDBRANCH  16  17
ENDBRANCH  15  16
ENDBRANCH  14  15
ENDBRANCH  13  14
ENDBRANCH  12  13
ENDBRANCH  11  12
ENDBRANCH   1  11
TORSDOF 14
ENDMDL
MODEL 2
REMARK VINA RESULT:    11.823      4.027      8.722
REMARK INTER + INTRA:          22.982
REMARK INTER:                  20.772
REMARK INTRA:                   2.209
REMARK UNBOUND:                 1.483
REMARK SMILES CCCCCCCCCCCCCCCC(=O)[O-]
REMARK SMILES IDX 9 1 10 2 11 3 12 4 13 5 14 6 15 7 16 8 17 9 18 10 8 11 7 12
REMARK SMILES IDX 6 13 5 14 4 15 3 16 2 17 1 18
REMARK H PARENT
REMARK Flexibility Score: inf
ROOT
ATOM      1  C   UNL     1     -15.973  27.340  -2.880  1.00  0.00     0.000 C 
ENDROOT
BRANCH   1   2
ATOM      2  C   UNL     1     -17.425  27.747  -3.168  1.00  0.00     0.000 C 
BRANCH   2   3
ATOM      3  C   UNL     1     -18.243  26.621  -3.824  1.00  0.00     0.000 C 
BRANCH   3   4
ATOM      4  C   UNL     1     -19.644  26.393  -3.219  1.00  0.00     0.000 C 
BRANCH   4   5
ATOM      5  C   UNL     1     -20.792  27.129  -3.932  1.00  0.00     0.000 C 
BRANCH   5   6
ATOM      6  C   UNL     1     -20.308  27.997  -5.105  1.00  0.00     0.006 C 
BRANCH   6   7
ATOM      7  C   UNL     1     -20.638  27.368  -6.465  1.00  0.00     0.053 C 
BRANCH   7   8
ATOM      8  C   UNL     1     -20.933  25.904  -6.343  1.00  0.00     0.041 C 
ATOM      9  O   UNL     1     -20.996  25.182  -7.373  1.00  0.00    -0.550 OA
ATOM     10  O   UNL     1     -21.110  25.332  -5.090  1.00  0.00    -0.550 OA
ENDBRANCH   7   8
ENDBRANCH   6   7
ENDBRANCH   5   6
ENDBRANCH   4   5
ENDBRANCH   3   4
ENDBRANCH   2   3
ENDBRANCH   1   2
BRANCH   1  11
ATOM     11  C   UNL     1     -15.026  28.539  -3.035  1.00  0.00     0.000 C 
BRANCH  11  12
ATOM     12  C   UNL     1     -13.857  28.258  -3.996  1.00  0.00    -0.000 C 
BRANCH  12  13
ATOM     13  C   UNL     1     -12.981  29.481  -4.331  1.00  0.00    -0.000 C 
BRANCH  13  14
ATOM     14  C   UNL     1     -11.826  29.207  -5.315  1.00  0.00    -0.000 C 
BRANCH  14  15
ATOM     15  C   UNL     1     -11.726  30.198  -6.491  1.00  0.00    -0.000 C 
BRANCH  15  16
ATOM     16  C   UNL     1     -10.829  29.738  -7.658  1.00  0.00    -0.000 C 
BRANCH  16  17
ATOM     17  C   UNL     1      -9.358  29.481  -7.283  1.00  0.00    -0.003 C 
ATOM     18  C   UNL     1      -8.668  30.715  -6.703  1.00  0.00     0.004 C 
ENDBRANCH  16  17
ENDBRANCH  15  16
ENDBRANCH  14  15
ENDBRANCH  13  14
ENDBRANCH  12  13
ENDBRANCH  11  12
ENDBRANCH   1  11
TORSDOF 14
ENDMDL
MODEL 3
REMARK VINA RESULT:    12.299      3.672      8.805
REMARK INTER + INTRA:          23.847
REMARK INTER:                  24.463
REMARK INTRA:                  -0.616
REMARK UNBOUND:                 1.483
REMARK SMILES CCCCCCCCCCCCCCCC(=O)[O-]
REMARK SMILES IDX 9 1 10 2 11 3 12 4 13 5 14 6 15 7 16 8 17 9 18 10 8 11 7 12
REMARK SMILES IDX 6 13 5 14 4 15 3 16 2 17 1 18
REMARK H PARENT
REMARK Flexibility Score: inf
ROOT
ATOM      1  C   UNL     1     -14.019  28.262  -3.907  1.00  0.00     0.000 C 
ENDROOT
BRANCH   1   2
ATOM      2  C   UNL     1     -15.298  28.457  -3.079  1.00  0.00     0.000 C 
BRANCH   2   3
ATOM      3  C   UNL     1     -16.093  27.153  -2.889  1.00  0.00     0.000 C 
BRANCH   3   4
ATOM      4  C   UNL     1     -17.624  27.297  -3.010  1.00  0.00     0.000 C 
BRANCH   4   5
ATOM      5  C   UNL     1     -18.417  25.984  -2.882  1.00  0.00     0.000 C 
BRANCH   5   6
ATOM      6  C   UNL     1     -19.857  26.102  -3.408  1.00  0.00     0.006 C 
BRANCH   6   7
ATOM      7  C   UNL     1     -20.321  27.561  -3.503  1.00  0.00     0.053 C 
BRANCH   7   8
ATOM      8  C   UNL     1     -20.400  28.028  -4.924  1.00  0.00     0.041 C 
ATOM      9  O   UNL     1     -20.074  27.257  -5.864  1.00  0.00    -0.550 OA
ATOM     10  O   UNL     1     -20.861  29.307  -5.212  1.00  0.00    -0.550 OA
ENDBRANCH   7   8
ENDBRANCH   6   7
ENDBRANCH   5   6
ENDBRANCH   4   5
ENDBRANCH   3   4
ENDBRANCH   2   3
ENDBRANCH   1   2
BRANCH   1  11
ATOM     11  C   UNL     1     -12.853  29.063  -3.311  1.00  0.00     0.000 C 
BRANCH  11  12
ATOM     12  C   UNL     1     -12.071  29.861  -4.370  1.00  0.00    -0.000 C 
BRANCH  12  13
ATOM     13  C   UNL     1     -12.121  29.274  -5.795  1.00  0.00    -0.000 C 
BRANCH  13  14
ATOM     14  C   UNL     1     -11.779  30.268  -6.922  1.00  0.00    -0.000 C 
BRANCH  14  15
ATOM     15  C   UNL     1     -10.943  29.678  -8.076  1.00  0.00    -0.000 C 
BRANCH  15  16
ATOM     16  C   UNL     1      -9.571  29.106  -7.663  1.00  0.00    -0.000 C 
BRANCH  16  17
ATOM     17  C   UNL     1      -8.643  30.104  -6.947  1.00  0.00    -0.003 C 
ATOM     18  C   UNL     1      -8.274  31.304  -7.819  1.00  0.00     0.004 C 
ENDBRANCH  16  17
ENDBRANCH  15  16
ENDBRANCH  14  15
ENDBRANCH  13  14
ENDBRANCH  12  13
ENDBRANCH  11  12
ENDBRANCH   1  11
TORSDOF 14
ENDMDL
