MODEL 1
REMARK VINA RESULT:    -3.739      0.000      0.000
REMARK INTER + INTRA:          -5.988
REMARK INTER:                  -5.707
REMARK INTRA:                  -0.281
REMARK UNBOUND:                -0.281
REMARK SMILES CCCCCCCCCCC(=O)[O-]
REMARK SMILES IDX 7 1 8 2 9 3 10 4 11 5 12 6 13 7 6 8 5 9 4 10 3 11 2 12 1 13
REMARK H PARENT
REMARK Flexibility Score: inf
ROOT
ATOM      1  C   UNL     1     -21.703 -26.940  15.414  1.00  0.00     0.000 C 
ENDROOT
BRANCH   1   2
ATOM      2  C   UNL     1     -22.793 -27.622  16.251  1.00  0.00     0.000 C 
BRANCH   2   3
ATOM      3  C   UNL     1     -22.269 -27.977  17.651  1.00  0.00     0.006 C 
BRANCH   3   4
ATOM      4  C   UNL     1     -22.677 -26.938  18.704  1.00  0.00     0.053 C 
BRANCH   4   5
ATOM      5  C   UNL     1     -21.808 -27.011  19.922  1.00  0.00     0.041 C 
ATOM      6  O   UNL     1     -22.183 -27.667  20.930  1.00  0.00    -0.550 OA
ATOM      7  O   UNL     1     -20.601 -26.324  19.959  1.00  0.00    -0.550 OA
ENDBRANCH   4   5
ENDBRANCH   3   4
ENDBRANCH   2   3
ENDBRANCH   1   2
BRANCH   1   8
ATOM      8  C   UNL     1     -20.798 -27.982  14.737  1.00  0.00     0.000 C 
BRANCH   8   9
ATOM      9  C   UNL     1     -19.718 -27.344  13.850  1.00  0.00    -0.000 C 
BRANCH   9  10
ATOM     10  C   UNL     1     -19.833 -27.774  12.377  1.00  0.00    -0.000 C 
BRANCH  10  11
ATOM     11  C   UNL     1     -18.470 -28.123  11.756  1.00  0.00    -0.000 C 
BRANCH  11  12
ATOM     12  C   UNL     1     -17.641 -26.878  11.409  1.00  0.00    -0.003 C 
ATOM     13  C   UNL     1     -16.233 -26.977  11.990  1.00  0.00     0.004 C 
ENDBRANCH  11  12
ENDBRANCH  10  11
ENDBRANCH   9  10
ENDBRANCH   8   9
ENDBRANCH   1   8
TORSDOF 9
ENDMDL
MODEL 2
REMARK VINA RESULT:    -3.579     10.292     12.107
REMARK INTER + INTRA:          -5.743
REMARK INTER:                  -5.456
REMARK INTRA:                  -0.287
REMARK UNBOUND:                -0.281
REMARK SMILES CCCCCCCCCCC(=O)[O-]
REMARK SMILES IDX 7 1 8 2 9 3 10 4 11 5 12 6 13 7 6 8 5 9 4 10 3 11 2 12 1 13
REMARK H PARENT
REMARK Flexibility Score: inf
ROOT
ATOM      1  C   UNL     1     -30.515 -22.564  14.750  1.00  0.00     0.000 C 
ENDROOT
BRANCH   1   2
ATOM      2  C   UNL     1     -31.019 -24.013  14.773  1.00  0.00     0.000 C 
BRANCH   2   3
ATOM      3  C   UNL     1     -30.123 -24.893  15.657  1.00  0.00     0.006 C 
BRANCH   3   4
ATOM      4  C   UNL     1     -30.742 -26.272  15.920  1.00  0.00     0.053 C 
BRANCH   4   5
ATOM      5  C   UNL     1     -30.031 -27.001  17.018  1.00  0.00     0.041 C 
ATOM      6  O   UNL     1     -29.497 -28.120  16.794  1.00  0.00    -0.550 OA
ATOM      7  O   UNL     1     -29.988 -26.463  18.299  1.00  0.00    -0.550 OA
ENDBRANCH   4   5
ENDBRANCH   3   4
ENDBRANCH   2   3
ENDBRANCH   1   2
BRANCH   1   8
ATOM      8  C   UNL     1     -31.057 -21.813  13.523  1.00  0.00     0.000 C 
BRANCH   8   9
ATOM      9  C   UNL     1     -30.592 -20.349  13.470  1.00  0.00    -0.000 C 
BRANCH   9  10
ATOM     10  C   UNL     1     -30.946 -19.570  14.749  1.00  0.00    -0.000 C 
BRANCH  10  11
ATOM     11  C   UNL     1     -31.125 -18.065  14.493  1.00  0.00    -0.000 C 
BRANCH  11  12
ATOM     12  C   UNL     1     -30.426 -17.596  13.208  1.00  0.00    -0.003 C 
ATOM     13  C   UNL     1     -30.008 -16.131  13.316  1.00  0.00     0.004 C 
ENDBRANCH  11  12
ENDBRANCH  10  11
ENDBRANCH   9  10
ENDBRANCH   8   9
ENDBRANCH   1   8
TORSDOF 9
ENDMDL
MODEL 3
REMARK VINA RESULT:    -3.463     12.083     13.610
REMARK INTER + INTRA:          -5.566
REMARK INTER:                  -5.023
REMARK INTRA:                  -0.542
REMARK UNBOUND:                -0.281
REMARK SMILES CCCCCCCCCCC(=O)[O-]
REMARK SMILES IDX 7 1 8 2 9 3 10 4 11 5 12 6 13 7 6 8 5 9 4 10 3 11 2 12 1 13
REMARK H PARENT
REMARK Flexibility Score: inf
ROOT
ATOM      1  C   UNL     1     -11.180 -16.476  17.370  1.00  0.00     0.000 C 
ENDROOT
BRANCH   1   2
ATOM      2  C   UNL     1     -11.183 -17.333  18.642  1.00  0.00     0.000 C 
BRANCH   2   3
ATOM      3  C   UNL     1     -12.352 -18.329  18.633  1.00  0.00     0.006 C 
BRANCH   3   4
ATOM      4  C   UNL     1     -12.881 -18.617  20.044  1.00  0.00     0.053 C 
BRANCH   4   5
ATOM      5  C   UNL     1     -13.485 -19.984  20.144  1.00  0.00     0.041 C 
ATOM      6  O   UNL     1     -13.603 -20.702  19.116  1.00  0.00    -0.550 OA
ATOM      7  O   UNL     1     -13.949 -20.452  21.367  1.00  0.00    -0.550 OA
ENDBRANCH   4   5
ENDBRANCH   3   4
ENDBRANCH   2   3
ENDBRANCH   1   2
BRANCH   1   8
ATOM      8  C   UNL     1     -11.653 -17.293  16.157  1.00  0.00     0.000 C 
BRANCH   8   9
ATOM      9  C   UNL     1     -11.225 -16.670  14.819  1.00  0.00    -0.000 C 
BRANCH   9  10
ATOM     10  C   UNL     1     -12.370 -15.909  14.128  1.00  0.00    -0.000 C 
BRANCH  10  11
ATOM     11  C   UNL     1     -11.878 -14.673  13.357  1.00  0.00    -0.000 C 
BRANCH  11  12
ATOM     12  C   UNL     1     -11.450 -13.527  14.286  1.00  0.00    -0.003 C 
ATOM     13  C   UNL     1     -12.575 -13.153  15.248  1.00  0.00     0.004 C 
ENDBRANCH  11  12
ENDBRANCH  10  11
ENDBRANCH   9  10
ENDBRANCH   8   9
ENDBRANCH   1   8
TORSDOF 9
ENDMDL
MODEL 4
REMARK VINA RESULT:    -3.404     12.063     14.174
REMARK INTER + INTRA:          -5.476
REMARK INTER:                  -5.059
REMARK INTRA:                  -0.417
REMARK UNBOUND:                -0.281
REMARK SMILES CCCCCCCCCCC(=O)[O-]
REMARK SMILES IDX 7 1 8 2 9 3 10 4 11 5 12 6 13 7 6 8 5 9 4 10 3 11 2 12 1 13
REMARK H PARENT
REMARK Flexibility Score: inf
ROOT
ATOM      1  C   UNL     1     -11.317 -18.455  17.275  1.00  0.00     0.000 C 
ENDROOT
BRANCH   1   2
ATOM      2  C   UNL     1     -11.556 -16.969  16.978  1.00  0.00     0.000 C 
BRANCH   2   3
ATOM      3  C   UNL     1     -11.956 -16.759  15.510  1.00  0.00     0.006 C 
BRANCH   3   4
ATOM      4  C   UNL     1     -11.329 -15.492  14.913  1.00  0.00     0.053 C 
BRANCH   4   5
ATOM      5  C   UNL     1     -12.334 -14.676  14.158  1.00  0.00     0.041 C 
ATOM      6  O   UNL     1     -12.995 -13.781  14.747  1.00  0.00    -0.550 OA
ATOM      7  O   UNL     1     -12.566 -14.929  12.812  1.00  0.00    -0.550 OA
ENDBRANCH   4   5
ENDBRANCH   3   4
ENDBRANCH   2   3
ENDBRANCH   1   2
BRANCH   1   8
ATOM      8  C   UNL     1     -11.524 -18.757  18.768  1.00  0.00     0.000 C 
BRANCH   8   9
ATOM      9  C   UNL     1     -13.002 -18.704  19.185  1.00  0.00    -0.000 C 
BRANCH   9  10
ATOM     10  C   UNL     1     -13.450 -19.970  19.935  1.00  0.00    -0.000 C 
BRANCH  10  11
ATOM     11  C   UNL     1     -13.534 -21.201  19.018  1.00  0.00    -0.000 C 
BRANCH  11  12
ATOM     12  C   UNL     1     -12.851 -22.437  19.620  1.00  0.00    -0.003 C 
ATOM     13  C   UNL     1     -13.184 -22.580  21.103  1.00  0.00     0.004 C 
ENDBRANCH  11  12
ENDBRANCH  10  11
ENDBRANCH   9  10
ENDBRANCH   8   9
ENDBRANCH   1   8
TORSDOF 9
ENDMDL
MODEL 5
REMARK VINA RESULT:    -3.380     11.012     12.229
REMARK INTER + INTRA:          -5.440
REMARK INTER:                  -4.640
REMARK INTRA:                  -0.800
REMARK UNBOUND:                -0.281
REMARK SMILES CCCCCCCCCCC(=O)[O-]
REMARK SMILES IDX 7 1 8 2 9 3 10 4 11 5 12 6 13 7 6 8 5 9 4 10 3 11 2 12 1 13
REMARK H PARENT
REMARK Flexibility Score: inf
ROOT
ATOM      1  C   UNL     1     -13.267 -21.272  18.795  1.00  0.00     0.000 C 
ENDROOT
BRANCH   1   2
ATOM      2  C   UNL     1     -12.961 -22.257  19.930  1.00  0.00     0.000 C 
BRANCH   2   3
ATOM      3  C   UNL     1     -13.463 -21.717  21.277  1.00  0.00     0.006 C 
BRANCH   3   4
ATOM      4  C   UNL     1     -13.745 -20.209  21.229  1.00  0.00     0.053 C 
BRANCH   4   5
ATOM      5  C   UNL     1     -12.700 -19.424  21.963  1.00  0.00     0.041 C 
ATOM      6  O   UNL     1     -11.493 -19.781  21.921  1.00  0.00    -0.550 OA
ATOM      7  O   UNL     1     -13.065 -18.319  22.722  1.00  0.00    -0.550 OA
ENDBRANCH   4   5
ENDBRANCH   3   4
ENDBRANCH   2   3
ENDBRANCH   1   2
BRANCH   1   8
ATOM      8  C   UNL     1     -12.002 -20.966  17.977  1.00  0.00     0.000 C 
BRANCH   8   9
ATOM      9  C   UNL     1     -11.289 -19.686  18.442  1.00  0.00    -0.000 C 
BRANCH   9  10
ATOM     10  C   UNL     1     -12.197 -18.445  18.372  1.00  0.00    -0.000 C 
BRANCH  10  11
ATOM     11  C   UNL     1     -11.509 -17.249  17.694  1.00  0.00    -0.000 C 
BRANCH  11  12
ATOM     12  C   UNL     1     -11.577 -17.316  16.162  1.00  0.00    -0.003 C 
ATOM     13  C   UNL     1     -11.592 -15.916  15.552  1.00  0.00     0.004 C 
ENDBRANCH  11  12
ENDBRANCH  10  11
ENDBRANCH   9  10
ENDBRANCH   8   9
ENDBRANCH   1   8
TORSDOF 9
ENDMDL
MODEL 6
REMARK VINA RESULT:    -3.357     12.763     14.742
REMARK INTER + INTRA:          -5.404
REMARK INTER:                  -4.663
REMARK INTRA:                  -0.741
REMARK UNBOUND:                -0.281
REMARK SMILES CCCCCCCCCCC(=O)[O-]
REMARK SMILES IDX 7 1 8 2 9 3 10 4 11 5 12 6 13 7 6 8 5 9 4 10 3 11 2 12 1 13
REMARK H PARENT
REMARK Flexibility Score: inf
ROOT
ATOM      1  C   UNL     1     -12.133 -17.937  18.054  1.00  0.00     0.000 C 
ENDROOT
BRANCH   1   2
ATOM      2  C   UNL     1     -10.938 -17.019  17.773  1.00  0.00     0.000 C 
BRANCH   2   3
ATOM      3  C   UNL     1     -11.246 -16.053  16.619  1.00  0.00     0.006 C 
BRANCH   3   4
ATOM      4  C   UNL     1     -11.896 -16.764  15.425  1.00  0.00     0.053 C 
BRANCH   4   5
ATOM      5  C   UNL     1     -12.138 -15.825  14.283  1.00  0.00     0.041 C 
ATOM      6  O   UNL     1     -11.836 -16.165  13.108  1.00  0.00    -0.550 OA
ATOM      7  O   UNL     1     -12.665 -14.562  14.519  1.00  0.00    -0.550 OA
ENDBRANCH   4   5
ENDBRANCH   3   4
ENDBRANCH   2   3
ENDBRANCH   1   2
BRANCH   1   8
ATOM      8  C   UNL     1     -11.684 -19.402  18.183  1.00  0.00     0.000 C 
BRANCH   8   9
ATOM      9  C   UNL     1     -12.504 -20.186  19.219  1.00  0.00    -0.000 C 
BRANCH   9  10
ATOM     10  C   UNL     1     -13.379 -19.272  20.094  1.00  0.00    -0.000 C 
BRANCH  10  11
ATOM     11  C   UNL     1     -12.875 -19.182  21.544  1.00  0.00    -0.000 C 
BRANCH  11  12
ATOM     12  C   UNL     1     -12.760 -17.735  22.043  1.00  0.00    -0.003 C 
ATOM     13  C   UNL     1     -11.490 -17.072  21.516  1.00  0.00     0.004 C 
ENDBRANCH  11  12
ENDBRANCH  10  11
ENDBRANCH   9  10
ENDBRANCH   8   9
ENDBRANCH   1   8
TORSDOF 9
ENDMDL
MODEL 7
REMARK VINA RESULT:    -3.316     12.548     14.470
REMARK INTER + INTRA:          -5.342
REMARK INTER:                  -4.652
REMARK INTRA:                  -0.690
REMARK UNBOUND:                -0.281
REMARK SMILES CCCCCCCCCCC(=O)[O-]
REMARK SMILES IDX 7 1 8 2 9 3 10 4 11 5 12 6 13 7 6 8 5 9 4 10 3 11 2 12 1 13
REMARK H PARENT
REMARK Flexibility Score: inf
ROOT
ATOM      1  C   UNL     1     -12.199 -16.475  15.014  1.00  0.00     0.000 C 
ENDROOT
BRANCH   1   2
ATOM      2  C   UNL     1     -11.204 -16.382  16.177  1.00  0.00     0.000 C 
BRANCH   2   3
ATOM      3  C   UNL     1     -11.133 -17.709  16.948  1.00  0.00     0.006 C 
BRANCH   3   4
ATOM      4  C   UNL     1     -11.842 -17.628  18.307  1.00  0.00     0.053 C 
BRANCH   4   5
ATOM      5  C   UNL     1     -12.385 -18.958  18.731  1.00  0.00     0.041 C 
ATOM      6  O   UNL     1     -13.265 -19.026  19.629  1.00  0.00    -0.550 OA
ATOM      7  O   UNL     1     -11.894 -20.126  18.159  1.00  0.00    -0.550 OA
ENDBRANCH   4   5
ENDBRANCH   3   4
ENDBRANCH   2   3
ENDBRANCH   1   2
BRANCH   1   8
ATOM      8  C   UNL     1     -11.477 -16.809  13.699  1.00  0.00     0.000 C 
BRANCH   8   9
ATOM      9  C   UNL     1     -11.089 -15.555  12.899  1.00  0.00    -0.000 C 
BRANCH   9  10
ATOM     10  C   UNL     1     -12.277 -14.601  12.684  1.00  0.00    -0.000 C 
BRANCH  10  11
ATOM     11  C   UNL     1     -11.848 -13.125  12.643  1.00  0.00    -0.000 C 
BRANCH  11  12
ATOM     12  C   UNL     1     -11.463 -12.581  14.027  1.00  0.00    -0.003 C 
ATOM     13  C   UNL     1     -12.557 -12.868  15.052  1.00  0.00     0.004 C 
ENDBRANCH  11  12
ENDBRANCH  10  11
ENDBRANCH   9  10
ENDBRANCH   8   9
ENDBRANCH   1   8
TORSDOF 9
ENDMDL
MODEL 8
REMARK VINA RESULT:    -2.792     12.820     14.320
REMARK INTER + INTRA:          -4.543
REMARK INTER:                  -4.356
REMARK INTRA:                  -0.186
REMARK UNBOUND:                -0.281
REMARK SMILES CCCCCCCCCCC(=O)[O-]
REMARK SMILES IDX 7 1 8 2 9 3 10 4 11 5 12 6 13 7 6 8 5 9 4 10 3 11 2 12 1 13
REMARK H PARENT
REMARK Flexibility Score: inf
ROOT
ATOM      1  C   UNL     1     -30.362 -19.124  14.344  1.00  0.00     0.000 C 
ENDROOT
BRANCH   1   2
ATOM      2  C   UNL     1     -30.740 -20.446  13.663  1.00  0.00     0.000 C 
BRANCH   2   3
ATOM      3  C   UNL     1     -31.125 -21.509  14.702  1.00  0.00     0.006 C 
BRANCH   3   4
ATOM      4  C   UNL     1     -30.990 -22.935  14.150  1.00  0.00     0.053 C 
BRANCH   4   5
ATOM      5  C   UNL     1     -30.553 -23.902  15.208  1.00  0.00     0.041 C 
ATOM      6  O   UNL     1     -30.689 -25.141  15.029  1.00  0.00    -0.550 OA
ATOM      7  O   UNL     1     -30.029 -23.434  16.406  1.00  0.00    -0.550 OA
ENDBRANCH   4   5
ENDBRANCH   3   4
ENDBRANCH   2   3
ENDBRANCH   1   2
BRANCH   1   8
ATOM      8  C   UNL     1     -30.432 -17.954  13.350  1.00  0.00     0.000 C 
BRANCH   8   9
ATOM      9  C   UNL     1     -31.029 -16.682  13.972  1.00  0.00    -0.000 C 
BRANCH   9  10
ATOM     10  C   UNL     1     -30.057 -15.490  13.928  1.00  0.00    -0.000 C 
BRANCH  10  11
ATOM     11  C   UNL     1     -30.774 -14.138  14.073  1.00  0.00    -0.000 C 
BRANCH  11  12
ATOM     12  C   UNL     1     -30.881 -13.378  12.743  1.00  0.00    -0.003 C 
ATOM     13  C   UNL     1     -30.579 -11.894  12.933  1.00  0.00     0.004 C 
ENDBRANCH  11  12
ENDBRANCH  10  11
ENDBRANCH   9  10
ENDBRANCH   8   9
ENDBRANCH   1   8
TORSDOF 9
ENDMDL
