MODEL 1
REMARK VINA RESULT:    -1.711      0.000      0.000
REMARK INTER + INTRA:          -5.570
REMARK INTER:                  -3.112
REMARK INTRA:                  -2.458
REMARK UNBOUND:                -2.458
REMARK SMILES CCCCCCCCCCCCCCCC(=O)[O-]
REMARK SMILES IDX 9 1 10 2 11 3 12 4 13 5 14 6 15 7 16 8 17 9 18 10 8 11 7 12
REMARK SMILES IDX 6 13 5 14 4 15 3 16 2 17 1 18
REMARK H PARENT
REMARK Flexibility Score: inf
ROOT
ATOM      1  C   UNL     1     -34.365 -35.809  13.804  1.00  0.00     0.000 C 
ENDROOT
BRANCH   1   2
ATOM      2  C   UNL     1     -33.630 -35.657  12.459  1.00  0.00     0.000 C 
BRANCH   2   3
ATOM      3  C   UNL     1     -32.132 -35.993  12.554  1.00  0.00     0.000 C 
BRANCH   3   4
ATOM      4  C   UNL     1     -31.237 -34.769  12.293  1.00  0.00     0.000 C 
BRANCH   4   5
ATOM      5  C   UNL     1     -30.929 -33.983  13.579  1.00  0.00     0.000 C 
BRANCH   5   6
ATOM      6  C   UNL     1     -31.012 -32.457  13.378  1.00  0.00     0.006 C 
BRANCH   6   7
ATOM      7  C   UNL     1     -32.388 -31.850  13.694  1.00  0.00     0.053 C 
BRANCH   7   8
ATOM      8  C   UNL     1     -33.106 -31.410  12.454  1.00  0.00     0.041 C 
ATOM      9  O   UNL     1     -32.779 -30.340  11.878  1.00  0.00    -0.550 OA
ATOM     10  O   UNL     1     -34.114 -32.203  11.917  1.00  0.00    -0.550 OA
ENDBRANCH   7   8
ENDBRANCH   6   7
ENDBRANCH   5   6
ENDBRANCH   4   5
ENDBRANCH   3   4
ENDBRANCH   2   3
ENDBRANCH   1   2
BRANCH   1  11
ATOM     11  C   UNL     1     -34.702 -34.488  14.518  1.00  0.00     0.000 C 
BRANCH  11  12
ATOM     12  C   UNL     1     -34.371 -34.515  16.018  1.00  0.00    -0.000 C 
BRANCH  12  13
ATOM     13  C   UNL     1     -33.536 -35.754  16.373  1.00  0.00    -0.000 C 
BRANCH  13  14
ATOM     14  C   UNL     1     -32.097 -35.403  16.785  1.00  0.00    -0.000 C 
BRANCH  14  15
ATOM     15  C   UNL     1     -31.953 -33.940  17.240  1.00  0.00    -0.000 C 
BRANCH  15  16
ATOM     16  C   UNL     1     -30.514 -33.410  17.103  1.00  0.00    -0.000 C 
BRANCH  16  17
ATOM     17  C   UNL     1     -29.411 -34.423  17.455  1.00  0.00    -0.003 C 
ATOM     18  C   UNL     1     -28.435 -34.671  16.305  1.00  0.00     0.004 C 
ENDBRANCH  16  17
ENDBRANCH  15  16
ENDBRANCH  14  15
ENDBRANCH  13  14
ENDBRANCH  12  13
ENDBRANCH  11  12
ENDBRANCH   1  11
TORSDOF 14
ENDMDL
MODEL 2
REMARK VINA RESULT:    -1.612      2.544      5.293
REMARK INTER + INTRA:          -5.389
REMARK INTER:                  -2.984
REMARK INTRA:                  -2.405
REMARK UNBOUND:                -2.458
REMARK SMILES CCCCCCCCCCCCCCCC(=O)[O-]
REMARK SMILES IDX 9 1 10 2 11 3 12 4 13 5 14 6 15 7 16 8 17 9 18 10 8 11 7 12
REMARK SMILES IDX 6 13 5 14 4 15 3 16 2 17 1 18
REMARK H PARENT
REMARK Flexibility Score: inf
ROOT
ATOM      1  C   UNL     1     -31.231 -34.547  15.156  1.00  0.00     0.000 C 
ENDROOT
BRANCH   1   2
ATOM      2  C   UNL     1     -31.972 -35.662  15.918  1.00  0.00     0.000 C 
BRANCH   2   3
ATOM      3  C   UNL     1     -33.497 -35.608  15.724  1.00  0.00     0.000 C 
BRANCH   3   4
ATOM      4  C   UNL     1     -34.263 -35.749  17.050  1.00  0.00     0.000 C 
BRANCH   4   5
ATOM      5  C   UNL     1     -35.081 -34.491  17.391  1.00  0.00     0.000 C 
BRANCH   5   6
ATOM      6  C   UNL     1     -34.506 -33.215  16.748  1.00  0.00     0.006 C 
BRANCH   6   7
ATOM      7  C   UNL     1     -33.948 -32.195  17.753  1.00  0.00     0.053 C 
BRANCH   7   8
ATOM      8  C   UNL     1     -32.464 -32.321  17.915  1.00  0.00     0.041 C 
ATOM      9  O   UNL     1     -31.973 -33.314  18.513  1.00  0.00    -0.550 OA
ATOM     10  O   UNL     1     -31.621 -31.357  17.374  1.00  0.00    -0.550 OA
ENDBRANCH   7   8
ENDBRANCH   6   7
ENDBRANCH   5   6
ENDBRANCH   4   5
ENDBRANCH   3   4
ENDBRANCH   2   3
ENDBRANCH   1   2
BRANCH   1  11
ATOM     11  C   UNL     1     -30.301 -35.033  14.030  1.00  0.00     0.000 C 
BRANCH  11  12
ATOM     12  C   UNL     1     -31.029 -35.873  12.969  1.00  0.00    -0.000 C 
BRANCH  12  13
ATOM     13  C   UNL     1     -31.906 -34.983  12.075  1.00  0.00    -0.000 C 
BRANCH  13  14
ATOM     14  C   UNL     1     -33.389 -35.392  12.102  1.00  0.00    -0.000 C 
BRANCH  14  15
ATOM     15  C   UNL     1     -34.334 -34.200  11.875  1.00  0.00    -0.000 C 
BRANCH  15  16
ATOM     16  C   UNL     1     -34.373 -33.231  13.071  1.00  0.00    -0.000 C 
BRANCH  16  17
ATOM     17  C   UNL     1     -33.709 -31.865  12.823  1.00  0.00    -0.003 C 
ATOM     18  C   UNL     1     -32.821 -31.412  13.982  1.00  0.00     0.004 C 
ENDBRANCH  16  17
ENDBRANCH  15  16
ENDBRANCH  14  15
ENDBRANCH  13  14
ENDBRANCH  12  13
ENDBRANCH  11  12
ENDBRANCH   1  11
TORSDOF 14
ENDMDL
MODEL 3
REMARK VINA RESULT:    -1.527     21.112     23.668
REMARK INTER + INTRA:          -5.235
REMARK INTER:                  -2.517
REMARK INTRA:                  -2.718
REMARK UNBOUND:                -2.458
REMARK SMILES CCCCCCCCCCCCCCCC(=O)[O-]
REMARK SMILES IDX 9 1 10 2 11 3 12 4 13 5 14 6 15 7 16 8 17 9 18 10 8 11 7 12
REMARK SMILES IDX 6 13 5 14 4 15 3 16 2 17 1 18
REMARK H PARENT
REMARK Flexibility Score: inf
ROOT
ATOM      1  C   UNL     1     -19.775 -23.867  27.836  1.00  0.00     0.000 C 
ENDROOT
BRANCH   1   2
ATOM      2  C   UNL     1     -20.342 -22.542  28.379  1.00  0.00     0.000 C 
BRANCH   2   3
ATOM      3  C   UNL     1     -19.347 -21.790  29.278  1.00  0.00     0.000 C 
BRANCH   3   4
ATOM      4  C   UNL     1     -19.990 -21.300  30.587  1.00  0.00     0.000 C 
BRANCH   4   5
ATOM      5  C   UNL     1     -18.969 -21.165  31.729  1.00  0.00     0.000 C 
BRANCH   5   6
ATOM      6  C   UNL     1     -17.513 -21.310  31.246  1.00  0.00     0.006 C 
BRANCH   6   7
ATOM      7  C   UNL     1     -16.641 -22.220  32.125  1.00  0.00     0.053 C 
BRANCH   7   8
ATOM      8  C   UNL     1     -15.864 -23.209  31.312  1.00  0.00     0.041 C 
ATOM      9  O   UNL     1     -15.472 -22.911  30.154  1.00  0.00    -0.550 OA
ATOM     10  O   UNL     1     -15.544 -24.451  31.848  1.00  0.00    -0.550 OA
ENDBRANCH   7   8
ENDBRANCH   6   7
ENDBRANCH   5   6
ENDBRANCH   4   5
ENDBRANCH   3   4
ENDBRANCH   2   3
ENDBRANCH   1   2
BRANCH   1  11
ATOM     11  C   UNL     1     -18.239 -23.959  27.811  1.00  0.00     0.000 C 
BRANCH  11  12
ATOM     12  C   UNL     1     -17.704 -25.256  28.439  1.00  0.00    -0.000 C 
BRANCH  12  13
ATOM     13  C   UNL     1     -18.818 -25.997  29.195  1.00  0.00    -0.000 C 
BRANCH  13  14
ATOM     14  C   UNL     1     -18.601 -26.002  30.717  1.00  0.00    -0.000 C 
BRANCH  14  15
ATOM     15  C   UNL     1     -19.285 -24.814  31.415  1.00  0.00    -0.000 C 
BRANCH  15  16
ATOM     16  C   UNL     1     -20.727 -25.127  31.854  1.00  0.00    -0.000 C 
BRANCH  16  17
ATOM     17  C   UNL     1     -21.824 -24.558  30.937  1.00  0.00    -0.003 C 
ATOM     18  C   UNL     1     -22.474 -25.619  30.050  1.00  0.00     0.004 C 
ENDBRANCH  16  17
ENDBRANCH  15  16
ENDBRANCH  14  15
ENDBRANCH  13  14
ENDBRANCH  12  13
ENDBRANCH  11  12
ENDBRANCH   1  11
TORSDOF 14
ENDMDL
MODEL 4
REMARK VINA RESULT:    -1.523     21.979     24.066
REMARK INTER + INTRA:          -5.227
REMARK INTER:                  -2.520
REMARK INTRA:                  -2.707
REMARK UNBOUND:                -2.458
REMARK SMILES CCCCCCCCCCCCCCCC(=O)[O-]
REMARK SMILES IDX 9 1 10 2 11 3 12 4 13 5 14 6 15 7 16 8 17 9 18 10 8 11 7 12
REMARK SMILES IDX 6 13 5 14 4 15 3 16 2 17 1 18
REMARK H PARENT
REMARK Flexibility Score: inf
ROOT
ATOM      1  C   UNL     1     -17.495 -21.344  31.009  1.00  0.00     0.000 C 
ENDROOT
BRANCH   1   2
ATOM      2  C   UNL     1     -19.004 -21.290  31.313  1.00  0.00     0.000 C 
BRANCH   2   3
ATOM      3  C   UNL     1     -19.650 -22.684  31.389  1.00  0.00     0.000 C 
BRANCH   3   4
ATOM      4  C   UNL     1     -19.800 -23.338  30.005  1.00  0.00     0.000 C 
BRANCH   4   5
ATOM      5  C   UNL     1     -20.080 -24.848  30.097  1.00  0.00     0.000 C 
BRANCH   5   6
ATOM      6  C   UNL     1     -19.798 -25.421  31.499  1.00  0.00     0.006 C 
BRANCH   6   7
ATOM      7  C   UNL     1     -19.986 -26.943  31.611  1.00  0.00     0.053 C 
BRANCH   7   8
ATOM      8  C   UNL     1     -18.909 -27.696  30.891  1.00  0.00     0.041 C 
ATOM      9  O   UNL     1     -17.795 -27.891  31.442  1.00  0.00    -0.550 OA
ATOM     10  O   UNL     1     -19.151 -28.212  29.623  1.00  0.00    -0.550 OA
ENDBRANCH   7   8
ENDBRANCH   6   7
ENDBRANCH   5   6
ENDBRANCH   4   5
ENDBRANCH   3   4
ENDBRANCH   2   3
ENDBRANCH   1   2
BRANCH   1  11
ATOM     11  C   UNL     1     -16.641 -22.066  32.067  1.00  0.00     0.000 C 
BRANCH  11  12
ATOM     12  C   UNL     1     -15.640 -23.058  31.456  1.00  0.00    -0.000 C 
BRANCH  12  13
ATOM     13  C   UNL     1     -16.241 -24.470  31.387  1.00  0.00    -0.000 C 
BRANCH  13  14
ATOM     14  C   UNL     1     -16.421 -24.970  29.944  1.00  0.00    -0.000 C 
BRANCH  14  15
ATOM     15  C   UNL     1     -15.795 -24.022  28.908  1.00  0.00    -0.000 C 
BRANCH  15  16
ATOM     16  C   UNL     1     -16.794 -23.575  27.825  1.00  0.00    -0.000 C 
BRANCH  16  17
ATOM     17  C   UNL     1     -16.754 -22.076  27.482  1.00  0.00    -0.003 C 
ATOM     18  C   UNL     1     -18.142 -21.471  27.275  1.00  0.00     0.004 C 
ENDBRANCH  16  17
ENDBRANCH  15  16
ENDBRANCH  14  15
ENDBRANCH  13  14
ENDBRANCH  12  13
ENDBRANCH  11  12
ENDBRANCH   1  11
TORSDOF 14
ENDMDL
MODEL 5
REMARK VINA RESULT:    -1.517     22.259     24.063
REMARK INTER + INTRA:          -5.216
REMARK INTER:                  -2.990
REMARK INTRA:                  -2.227
REMARK UNBOUND:                -2.458
REMARK SMILES CCCCCCCCCCCCCCCC(=O)[O-]
REMARK SMILES IDX 9 1 10 2 11 3 12 4 13 5 14 6 15 7 16 8 17 9 18 10 8 11 7 12
REMARK SMILES IDX 6 13 5 14 4 15 3 16 2 17 1 18
REMARK H PARENT
REMARK Flexibility Score: inf
ROOT
ATOM      1  C   UNL     1     -17.626 -25.840  29.574  1.00  0.00     0.000 C 
ENDROOT
BRANCH   1   2
ATOM      2  C   UNL     1     -19.076 -25.529  29.988  1.00  0.00     0.000 C 
BRANCH   2   3
ATOM      3  C   UNL     1     -19.175 -24.873  31.376  1.00  0.00     0.000 C 
BRANCH   3   4
ATOM      4  C   UNL     1     -20.602 -24.404  31.704  1.00  0.00     0.000 C 
BRANCH   4   5
ATOM      5  C   UNL     1     -20.729 -22.871  31.709  1.00  0.00     0.000 C 
BRANCH   5   6
ATOM      6  C   UNL     1     -22.029 -22.380  31.044  1.00  0.00     0.006 C 
BRANCH   6   7
ATOM      7  C   UNL     1     -21.815 -21.573  29.753  1.00  0.00     0.053 C 
BRANCH   7   8
ATOM      8  C   UNL     1     -21.699 -20.104  30.022  1.00  0.00     0.041 C 
ATOM      9  O   UNL     1     -21.384 -19.691  31.168  1.00  0.00    -0.550 OA
ATOM     10  O   UNL     1     -21.907 -19.190  28.995  1.00  0.00    -0.550 OA
ENDBRANCH   7   8
ENDBRANCH   6   7
ENDBRANCH   5   6
ENDBRANCH   4   5
ENDBRANCH   3   4
ENDBRANCH   2   3
ENDBRANCH   1   2
BRANCH   1  11
ATOM     11  C   UNL     1     -16.608 -25.868  30.729  1.00  0.00     0.000 C 
BRANCH  11  12
ATOM     12  C   UNL     1     -15.477 -24.843  30.558  1.00  0.00    -0.000 C 
BRANCH  12  13
ATOM     13  C   UNL     1     -15.161 -24.148  31.892  1.00  0.00    -0.000 C 
BRANCH  13  14
ATOM     14  C   UNL     1     -16.017 -22.892  32.125  1.00  0.00    -0.000 C 
BRANCH  14  15
ATOM     15  C   UNL     1     -16.108 -22.000  30.876  1.00  0.00    -0.000 C 
BRANCH  15  16
ATOM     16  C   UNL     1     -17.538 -21.496  30.604  1.00  0.00    -0.000 C 
BRANCH  16  17
ATOM     17  C   UNL     1     -18.148 -21.959  29.270  1.00  0.00    -0.003 C 
ATOM     18  C   UNL     1     -17.119 -22.061  28.144  1.00  0.00     0.004 C 
ENDBRANCH  16  17
ENDBRANCH  15  16
ENDBRANCH  14  15
ENDBRANCH  13  14
ENDBRANCH  12  13
ENDBRANCH  11  12
ENDBRANCH   1  11
TORSDOF 14
ENDMDL
MODEL 6
REMARK VINA RESULT:    -1.434      2.605      5.065
REMARK INTER + INTRA:          -5.066
REMARK INTER:                  -2.919
REMARK INTRA:                  -2.146
REMARK UNBOUND:                -2.458
REMARK SMILES CCCCCCCCCCCCCCCC(=O)[O-]
REMARK SMILES IDX 9 1 10 2 11 3 12 4 13 5 14 6 15 7 16 8 17 9 18 10 8 11 7 12
REMARK SMILES IDX 6 13 5 14 4 15 3 16 2 17 1 18
REMARK H PARENT
REMARK Flexibility Score: inf
ROOT
ATOM      1  C   UNL     1     -31.633 -32.139  14.548  1.00  0.00     0.000 C 
ENDROOT
BRANCH   1   2
ATOM      2  C   UNL     1     -32.549 -31.186  13.759  1.00  0.00     0.000 C 
BRANCH   2   3
ATOM      3  C   UNL     1     -34.019 -31.638  13.751  1.00  0.00     0.000 C 
BRANCH   3   4
ATOM      4  C   UNL     1     -34.817 -31.024  12.588  1.00  0.00     0.000 C 
BRANCH   4   5
ATOM      5  C   UNL     1     -34.139 -29.771  12.008  1.00  0.00     0.000 C 
BRANCH   5   6
ATOM      6  C   UNL     1     -34.823 -28.464  12.452  1.00  0.00     0.006 C 
BRANCH   6   7
ATOM      7  C   UNL     1     -34.278 -27.878  13.764  1.00  0.00     0.053 C 
BRANCH   7   8
ATOM      8  C   UNL     1     -33.773 -26.479  13.587  1.00  0.00     0.041 C 
ATOM      9  O   UNL     1     -33.619 -25.728  14.585  1.00  0.00    -0.550 OA
ATOM     10  O   UNL     1     -33.439 -26.016  12.319  1.00  0.00    -0.550 OA
ENDBRANCH   7   8
ENDBRANCH   6   7
ENDBRANCH   5   6
ENDBRANCH   4   5
ENDBRANCH   3   4
ENDBRANCH   2   3
ENDBRANCH   1   2
BRANCH   1  11
ATOM     11  C   UNL     1     -30.519 -32.809  13.722  1.00  0.00     0.000 C 
BRANCH  11  12
ATOM     12  C   UNL     1     -30.908 -33.022  12.251  1.00  0.00    -0.000 C 
BRANCH  12  13
ATOM     13  C   UNL     1     -31.421 -34.451  12.022  1.00  0.00    -0.000 C 
BRANCH  13  14
ATOM     14  C   UNL     1     -32.953 -34.521  11.906  1.00  0.00    -0.000 C 
BRANCH  14  15
ATOM     15  C   UNL     1     -33.586 -35.420  12.981  1.00  0.00    -0.000 C 
BRANCH  15  16
ATOM     16  C   UNL     1     -32.541 -36.111  13.875  1.00  0.00    -0.000 C 
BRANCH  16  17
ATOM     17  C   UNL     1     -32.691 -35.837  15.382  1.00  0.00    -0.003 C 
ATOM     18  C   UNL     1     -33.834 -34.875  15.705  1.00  0.00     0.004 C 
ENDBRANCH  16  17
ENDBRANCH  15  16
ENDBRANCH  14  15
ENDBRANCH  13  14
ENDBRANCH  12  13
ENDBRANCH  11  12
ENDBRANCH   1  11
TORSDOF 14
ENDMDL
MODEL 7
REMARK VINA RESULT:    -1.429     22.207     24.233
REMARK INTER + INTRA:          -5.057
REMARK INTER:                  -2.675
REMARK INTRA:                  -2.382
REMARK UNBOUND:                -2.458
REMARK SMILES CCCCCCCCCCCCCCCC(=O)[O-]
REMARK SMILES IDX 9 1 10 2 11 3 12 4 13 5 14 6 15 7 16 8 17 9 18 10 8 11 7 12
REMARK SMILES IDX 6 13 5 14 4 15 3 16 2 17 1 18
REMARK H PARENT
REMARK Flexibility Score: inf
ROOT
ATOM      1  C   UNL     1     -19.141 -21.741  31.439  1.00  0.00     0.000 C 
ENDROOT
BRANCH   1   2
ATOM      2  C   UNL     1     -17.721 -21.149  31.373  1.00  0.00     0.000 C 
BRANCH   2   3
ATOM      3  C   UNL     1     -16.683 -21.999  32.125  1.00  0.00     0.000 C 
BRANCH   3   4
ATOM      4  C   UNL     1     -16.398 -23.337  31.422  1.00  0.00     0.000 C 
BRANCH   4   5
ATOM      5  C   UNL     1     -14.963 -23.419  30.873  1.00  0.00     0.000 C 
BRANCH   5   6
ATOM      6  C   UNL     1     -14.890 -23.152  29.358  1.00  0.00     0.006 C 
BRANCH   6   7
ATOM      7  C   UNL     1     -16.258 -23.042  28.666  1.00  0.00     0.053 C 
BRANCH   7   8
ATOM      8  C   UNL     1     -16.445 -21.715  27.997  1.00  0.00     0.041 C 
ATOM      9  O   UNL     1     -15.577 -20.813  28.125  1.00  0.00    -0.550 OA
ATOM     10  O   UNL     1     -17.563 -21.488  27.203  1.00  0.00    -0.550 OA
ENDBRANCH   7   8
ENDBRANCH   6   7
ENDBRANCH   5   6
ENDBRANCH   4   5
ENDBRANCH   3   4
ENDBRANCH   2   3
ENDBRANCH   1   2
BRANCH   1  11
ATOM     11  C   UNL     1     -19.625 -22.425  30.147  1.00  0.00     0.000 C 
BRANCH  11  12
ATOM     12  C   UNL     1     -20.430 -23.707  30.411  1.00  0.00    -0.000 C 
BRANCH  12  13
ATOM     13  C   UNL     1     -19.689 -24.625  31.395  1.00  0.00    -0.000 C 
BRANCH  13  14
ATOM     14  C   UNL     1     -19.342 -25.993  30.785  1.00  0.00    -0.000 C 
BRANCH  14  15
ATOM     15  C   UNL     1     -18.507 -25.872  29.499  1.00  0.00    -0.000 C 
BRANCH  15  16
ATOM     16  C   UNL     1     -17.100 -26.482  29.639  1.00  0.00    -0.000 C 
BRANCH  16  17
ATOM     17  C   UNL     1     -16.782 -27.071  31.025  1.00  0.00    -0.003 C 
ATOM     18  C   UNL     1     -15.283 -27.133  31.320  1.00  0.00     0.004 C 
ENDBRANCH  16  17
ENDBRANCH  15  16
ENDBRANCH  14  15
ENDBRANCH  13  14
ENDBRANCH  12  13
ENDBRANCH  11  12
ENDBRANCH   1  11
TORSDOF 14
ENDMDL
MODEL 8
REMARK VINA RESULT:    -1.428      2.969      5.265
REMARK INTER + INTRA:          -5.054
REMARK INTER:                  -2.927
REMARK INTRA:                  -2.127
REMARK UNBOUND:                -2.458
REMARK SMILES CCCCCCCCCCCCCCCC(=O)[O-]
REMARK SMILES IDX 9 1 10 2 11 3 12 4 13 5 14 6 15 7 16 8 17 9 18 10 8 11 7 12
REMARK SMILES IDX 6 13 5 14 4 15 3 16 2 17 1 18
REMARK H PARENT
REMARK Flexibility Score: inf
ROOT
ATOM      1  C   UNL     1     -30.045 -33.060  13.124  1.00  0.00     0.000 C 
ENDROOT
BRANCH   1   2
ATOM      2  C   UNL     1     -30.461 -34.226  12.209  1.00  0.00     0.000 C 
BRANCH   2   3
ATOM      3  C   UNL     1     -30.713 -35.533  12.980  1.00  0.00     0.000 C 
BRANCH   3   4
ATOM      4  C   UNL     1     -29.451 -36.048  13.692  1.00  0.00     0.000 C 
BRANCH   4   5
ATOM      5  C   UNL     1     -29.628 -36.123  15.218  1.00  0.00     0.000 C 
BRANCH   5   6
ATOM      6  C   UNL     1     -31.036 -35.699  15.676  1.00  0.00     0.006 C 
BRANCH   6   7
ATOM      7  C   UNL     1     -31.075 -34.383  16.470  1.00  0.00     0.053 C 
BRANCH   7   8
ATOM      8  C   UNL     1     -30.147 -34.408  17.645  1.00  0.00     0.041 C 
ATOM      9  O   UNL     1     -29.180 -33.604  17.707  1.00  0.00    -0.550 OA
ATOM     10  O   UNL     1     -30.370 -35.299  18.689  1.00  0.00    -0.550 OA
ENDBRANCH   7   8
ENDBRANCH   6   7
ENDBRANCH   5   6
ENDBRANCH   4   5
ENDBRANCH   3   4
ENDBRANCH   2   3
ENDBRANCH   1   2
BRANCH   1  11
ATOM     11  C   UNL     1     -30.886 -31.779  12.974  1.00  0.00     0.000 C 
BRANCH  11  12
ATOM     12  C   UNL     1     -32.155 -31.989  12.134  1.00  0.00    -0.000 C 
BRANCH  12  13
ATOM     13  C   UNL     1     -33.407 -31.993  13.024  1.00  0.00    -0.000 C 
BRANCH  13  14
ATOM     14  C   UNL     1     -34.600 -32.710  12.370  1.00  0.00    -0.000 C 
BRANCH  14  15
ATOM     15  C   UNL     1     -34.614 -34.220  12.661  1.00  0.00    -0.000 C 
BRANCH  15  16
ATOM     16  C   UNL     1     -34.172 -34.556  14.097  1.00  0.00    -0.000 C 
BRANCH  16  17
ATOM     17  C   UNL     1     -34.520 -35.979  14.568  1.00  0.00    -0.003 C 
ATOM     18  C   UNL     1     -34.661 -36.090  16.087  1.00  0.00     0.004 C 
ENDBRANCH  16  17
ENDBRANCH  15  16
ENDBRANCH  14  15
ENDBRANCH  13  14
ENDBRANCH  12  13
ENDBRANCH  11  12
ENDBRANCH   1  11
TORSDOF 14
ENDMDL
