MODEL 1
REMARK VINA RESULT:    -5.364      0.000      0.000
REMARK INTER + INTRA:          -8.263
REMARK INTER:                  -7.245
REMARK INTRA:                  -1.018
REMARK UNBOUND:                -1.018
REMARK SMILES O=c1c(-c2ccc(O)cc2)coc2c([C@@H]3O[C@H](CO)[C@H](O)[C@@H](O)[C@@H]3O)c(O)ccc12
REMARK SMILES IDX 3 1 11 2 12 3 13 4 30 5 2 6 1 7 29 8 28 9 26 10 14 11 4 12
REMARK SMILES IDX 5 13 6 14 7 15 10 16 9 17 8 18 15 20 24 21 16 22 22 23 17 24
REMARK SMILES IDX 20 25 25 26 23 28 18 30 19 31 21 33 27 35
REMARK H PARENT 8 19 25 27 23 29 19 32 21 34 27 36
REMARK Flexibility Score: inf
ROOT
ATOM      1  C   UNL     1      22.644  52.474  77.923  1.00  0.00     0.065 A 
ATOM      2  C   UNL     1      22.907  52.190  76.576  1.00  0.00     0.208 A 
ATOM      3  O   UNL     1      22.522  51.041  76.034  1.00  0.00    -0.463 OA
ATOM      4  C   UNL     1      21.874  50.097  76.711  1.00  0.00     0.147 A 
ATOM      5  C   UNL     1      21.576  50.297  78.079  1.00  0.00     0.066 A 
ATOM      6  C   UNL     1      21.973  51.501  78.687  1.00  0.00     0.200 A 
ATOM      7  O   UNL     1      21.748  51.701  79.913  1.00  0.00    -0.288 OA
ATOM      8  C   UNL     1      20.911  49.292  78.798  1.00  0.00     0.020 A 
ATOM      9  C   UNL     1      20.553  48.101  78.170  1.00  0.00     0.047 A 
ATOM     10  C   UNL     1      20.843  47.890  76.816  1.00  0.00     0.125 A 
ATOM     11  C   UNL     1      21.491  48.898  76.062  1.00  0.00     0.069 A 
ENDROOT
BRANCH   1  12
ATOM     12  C   UNL     1      23.077  53.769  78.504  1.00  0.00    -0.011 A 
ATOM     13  C   UNL     1      22.123  54.689  78.977  1.00  0.00     0.013 A 
ATOM     14  C   UNL     1      22.529  55.906  79.533  1.00  0.00     0.047 A 
ATOM     15  C   UNL     1      23.891  56.218  79.628  1.00  0.00     0.115 A 
ATOM     16  C   UNL     1      24.444  54.088  78.610  1.00  0.00     0.013 A 
ATOM     17  C   UNL     1      24.845  55.305  79.167  1.00  0.00     0.047 A 
BRANCH  15  18
ATOM     18  O   UNL     1      24.307  57.427  80.181  1.00  0.00    -0.508 OA
ATOM     19  H   UNL     1      23.792  57.869  80.933  1.00  0.00     0.293 HD
ENDBRANCH  15  18
ENDBRANCH   1  12
BRANCH  11  20
ATOM     20  C   UNL     1      21.850  48.697  74.593  1.00  0.00     0.188 C 
ATOM     21  C   UNL     1      23.238  48.017  74.456  1.00  0.00     0.179 C 
ATOM     22  O   UNL     1      20.847  47.948  73.925  1.00  0.00    -0.362 OA
ATOM     23  C   UNL     1      23.578  47.756  72.972  1.00  0.00     0.177 C 
ATOM     24  C   UNL     1      21.087  47.925  72.528  1.00  0.00     0.176 C 
ATOM     25  C   UNL     1      22.381  47.142  72.210  1.00  0.00     0.177 C 
BRANCH  21  26
ATOM     26  O   UNL     1      23.328  46.832  75.212  1.00  0.00    -0.387 OA
ATOM     27  H   UNL     1      23.639  47.069  76.121  1.00  0.00     0.211 HD
ENDBRANCH  21  26
BRANCH  23  28
ATOM     28  O   UNL     1      23.945  48.974  72.371  1.00  0.00    -0.387 OA
ATOM     29  H   UNL     1      24.905  48.898  72.128  1.00  0.00     0.211 HD
ENDBRANCH  23  28
BRANCH  24  30
ATOM     30  C   UNL     1      19.875  47.301  71.822  1.00  0.00     0.191 C 
BRANCH  30  31
ATOM     31  O   UNL     1      20.288  46.576  70.693  1.00  0.00    -0.394 OA
ATOM     32  H   UNL     1      21.212  46.264  70.877  1.00  0.00     0.210 HD
ENDBRANCH  30  31
ENDBRANCH  24  30
BRANCH  25  33
ATOM     33  O   UNL     1      22.224  45.789  72.558  1.00  0.00    -0.388 OA
ATOM     34  H   UNL     1      21.379  45.480  72.137  1.00  0.00     0.211 HD
ENDBRANCH  25  33
ENDBRANCH  11  20
BRANCH  10  35
ATOM     35  O   UNL     1      20.489  46.674  76.230  1.00  0.00    -0.507 OA
ATOM     36  H   UNL     1      20.218  45.872  76.785  1.00  0.00     0.293 HD
ENDBRANCH  10  35
TORSDOF 9
ENDMDL
MODEL 2
REMARK VINA RESULT:    -5.266      3.102      6.131
REMARK INTER + INTRA:          -8.132
REMARK INTER:                  -6.899
REMARK INTRA:                  -1.232
REMARK UNBOUND:                -1.018
REMARK SMILES O=c1c(-c2ccc(O)cc2)coc2c([C@@H]3O[C@H](CO)[C@H](O)[C@@H](O)[C@@H]3O)c(O)ccc12
REMARK SMILES IDX 3 1 11 2 12 3 13 4 30 5 2 6 1 7 29 8 28 9 26 10 14 11 4 12
REMARK SMILES IDX 5 13 6 14 7 15 10 16 9 17 8 18 15 20 24 21 16 22 22 23 17 24
REMARK SMILES IDX 20 25 25 26 23 28 18 30 19 31 21 33 27 35
REMARK H PARENT 8 19 25 27 23 29 19 32 21 34 27 36
REMARK Flexibility Score: inf
ROOT
ATOM      1  C   UNL     1      22.408  55.186  81.448  1.00  0.00     0.065 A 
ATOM      2  C   UNL     1      22.124  53.863  81.081  1.00  0.00     0.208 A 
ATOM      3  O   UNL     1      22.714  53.307  80.030  1.00  0.00    -0.463 OA
ATOM      4  C   UNL     1      23.594  53.947  79.265  1.00  0.00     0.147 A 
ATOM      5  C   UNL     1      23.930  55.289  79.557  1.00  0.00     0.066 A 
ATOM      6  C   UNL     1      23.322  55.911  80.662  1.00  0.00     0.200 A 
ATOM      7  O   UNL     1      23.579  57.117  80.936  1.00  0.00    -0.288 OA
ATOM      8  C   UNL     1      24.844  55.969  78.738  1.00  0.00     0.020 A 
ATOM      9  C   UNL     1      25.410  55.329  77.637  1.00  0.00     0.047 A 
ATOM     10  C   UNL     1      25.084  54.001  77.336  1.00  0.00     0.125 A 
ATOM     11  C   UNL     1      24.184  53.284  78.162  1.00  0.00     0.069 A 
ENDROOT
BRANCH   1  12
ATOM     12  C   UNL     1      21.743  55.784  82.634  1.00  0.00    -0.011 A 
ATOM     13  C   UNL     1      22.298  55.621  83.916  1.00  0.00     0.013 A 
ATOM     14  C   UNL     1      21.678  56.190  85.033  1.00  0.00     0.047 A 
ATOM     15  C   UNL     1      20.500  56.933  84.882  1.00  0.00     0.115 A 
ATOM     16  C   UNL     1      20.563  56.537  82.491  1.00  0.00     0.013 A 
ATOM     17  C   UNL     1      19.947  57.105  83.609  1.00  0.00     0.047 A 
BRANCH  15  18
ATOM     18  O   UNL     1      19.875  57.505  85.987  1.00  0.00    -0.508 OA
ATOM     19  H   UNL     1      19.176  58.231  85.883  1.00  0.00     0.293 HD
ENDBRANCH  15  18
ENDBRANCH   1  12
BRANCH  11  20
ATOM     20  C   UNL     1      23.782  51.846  77.852  1.00  0.00     0.188 C 
ATOM     21  C   UNL     1      22.563  51.811  76.893  1.00  0.00     0.179 C 
ATOM     22  O   UNL     1      24.876  51.119  77.313  1.00  0.00    -0.362 OA
ATOM     23  C   UNL     1      22.190  50.357  76.529  1.00  0.00     0.177 C 
ATOM     24  C   UNL     1      24.556  49.742  77.204  1.00  0.00     0.176 C 
ATOM     25  C   UNL     1      23.438  49.522  76.159  1.00  0.00     0.177 C 
BRANCH  21  26
ATOM     26  O   UNL     1      22.773  52.585  75.736  1.00  0.00    -0.387 OA
ATOM     27  H   UNL     1      22.450  53.504  75.916  1.00  0.00     0.211 HD
ENDBRANCH  21  26
BRANCH  23  28
ATOM     28  O   UNL     1      21.537  49.769  77.627  1.00  0.00    -0.387 OA
ATOM     29  H   UNL     1      20.603  49.587  77.344  1.00  0.00     0.211 HD
ENDBRANCH  23  28
BRANCH  24  30
ATOM     30  C   UNL     1      25.824  48.962  76.829  1.00  0.00     0.191 C 
BRANCH  30  31
ATOM     31  O   UNL     1      26.621  49.718  75.957  1.00  0.00    -0.394 OA
ATOM     32  H   UNL     1      26.046  49.967  75.187  1.00  0.00     0.210 HD
ENDBRANCH  30  31
ENDBRANCH  24  30
BRANCH  25  33
ATOM     33  O   UNL     1      23.899  49.875  74.879  1.00  0.00    -0.388 OA
ATOM     34  H   UNL     1      24.253  50.800  74.945  1.00  0.00     0.211 HD
ENDBRANCH  25  33
ENDBRANCH  11  20
BRANCH  10  35
ATOM     35  O   UNL     1      25.654  53.403  76.211  1.00  0.00    -0.507 OA
ATOM     36  H   UNL     1      26.075  53.950  75.470  1.00  0.00     0.293 HD
ENDBRANCH  10  35
TORSDOF 9
ENDMDL
MODEL 3
REMARK VINA RESULT:    -5.258      3.253      6.068
REMARK INTER + INTRA:          -8.120
REMARK INTER:                  -6.990
REMARK INTRA:                  -1.130
REMARK UNBOUND:                -1.018
REMARK SMILES O=c1c(-c2ccc(O)cc2)coc2c([C@@H]3O[C@H](CO)[C@H](O)[C@@H](O)[C@@H]3O)c(O)ccc12
REMARK SMILES IDX 3 1 11 2 12 3 13 4 30 5 2 6 1 7 29 8 28 9 26 10 14 11 4 12
REMARK SMILES IDX 5 13 6 14 7 15 10 16 9 17 8 18 15 20 24 21 16 22 22 23 17 24
REMARK SMILES IDX 20 25 25 26 23 28 18 30 19 31 21 33 27 35
REMARK H PARENT 8 19 25 27 23 29 19 32 21 34 27 36
REMARK Flexibility Score: inf
ROOT
ATOM      1  C   UNL     1      26.783  55.922  79.767  1.00  0.00     0.065 A 
ATOM      2  C   UNL     1      27.098  54.624  79.341  1.00  0.00     0.208 A 
ATOM      3  O   UNL     1      26.146  53.788  78.946  1.00  0.00    -0.463 OA
ATOM      4  C   UNL     1      24.855  54.109  78.925  1.00  0.00     0.147 A 
ATOM      5  C   UNL     1      24.448  55.396  79.348  1.00  0.00     0.066 A 
ATOM      6  C   UNL     1      25.429  56.307  79.777  1.00  0.00     0.200 A 
ATOM      7  O   UNL     1      25.098  57.455  80.186  1.00  0.00    -0.288 OA
ATOM      8  C   UNL     1      23.085  55.727  79.344  1.00  0.00     0.020 A 
ATOM      9  C   UNL     1      22.137  54.791  78.936  1.00  0.00     0.047 A 
ATOM     10  C   UNL     1      22.527  53.513  78.516  1.00  0.00     0.125 A 
ATOM     11  C   UNL     1      23.899  53.163  78.486  1.00  0.00     0.069 A 
ENDROOT
BRANCH   1  12
ATOM     12  C   UNL     1      27.865  56.844  80.196  1.00  0.00    -0.011 A 
ATOM     13  C   UNL     1      28.037  57.152  81.557  1.00  0.00     0.013 A 
ATOM     14  C   UNL     1      29.061  58.013  81.965  1.00  0.00     0.047 A 
ATOM     15  C   UNL     1      29.929  58.572  81.018  1.00  0.00     0.115 A 
ATOM     16  C   UNL     1      28.746  57.405  79.252  1.00  0.00     0.013 A 
ATOM     17  C   UNL     1      29.768  58.264  79.663  1.00  0.00     0.047 A 
BRANCH  15  18
ATOM     18  O   UNL     1      30.952  59.430  81.413  1.00  0.00    -0.508 OA
ATOM     19  H   UNL     1      31.027  59.760  82.368  1.00  0.00     0.293 HD
ENDBRANCH  15  18
ENDBRANCH   1  12
BRANCH  11  20
ATOM     20  C   UNL     1      24.363  51.773  78.063  1.00  0.00     0.188 C 
ATOM     21  C   UNL     1      24.274  50.779  79.251  1.00  0.00     0.179 C 
ATOM     22  O   UNL     1      23.614  51.306  76.951  1.00  0.00    -0.362 OA
ATOM     23  C   UNL     1      24.686  49.357  78.811  1.00  0.00     0.177 C 
ATOM     24  C   UNL     1      24.170  50.104  76.443  1.00  0.00     0.176 C 
ATOM     25  C   UNL     1      24.024  48.959  77.471  1.00  0.00     0.177 C 
BRANCH  21  26
ATOM     26  O   UNL     1      22.999  50.775  79.849  1.00  0.00    -0.387 OA
ATOM     27  H   UNL     1      22.593  51.668  79.717  1.00  0.00     0.211 HD
ENDBRANCH  21  26
BRANCH  23  28
ATOM     28  O   UNL     1      26.085  49.311  78.678  1.00  0.00    -0.387 OA
ATOM     29  H   UNL     1      26.350  50.099  78.134  1.00  0.00     0.211 HD
ENDBRANCH  23  28
BRANCH  24  30
ATOM     30  C   UNL     1      23.475  49.752  75.121  1.00  0.00     0.191 C 
BRANCH  30  31
ATOM     31  O   UNL     1      22.163  50.248  75.111  1.00  0.00    -0.394 OA
ATOM     32  H   UNL     1      21.978  50.582  76.027  1.00  0.00     0.210 HD
ENDBRANCH  30  31
ENDBRANCH  24  30
BRANCH  25  33
ATOM     33  O   UNL     1      22.666  48.658  77.668  1.00  0.00    -0.388 OA
ATOM     34  H   UNL     1      22.254  48.581  76.768  1.00  0.00     0.211 HD
ENDBRANCH  25  33
ENDBRANCH  11  20
BRANCH  10  35
ATOM     35  O   UNL     1      21.546  52.597  78.137  1.00  0.00    -0.507 OA
ATOM     36  H   UNL     1      20.592  52.666  78.471  1.00  0.00     0.293 HD
ENDBRANCH  10  35
TORSDOF 9
ENDMDL
MODEL 4
REMARK VINA RESULT:    -5.192      3.486      6.525
REMARK INTER + INTRA:          -8.031
REMARK INTER:                  -7.649
REMARK INTRA:                  -0.383
REMARK UNBOUND:                -1.018
REMARK SMILES O=c1c(-c2ccc(O)cc2)coc2c([C@@H]3O[C@H](CO)[C@H](O)[C@@H](O)[C@@H]3O)c(O)ccc12
REMARK SMILES IDX 3 1 11 2 12 3 13 4 30 5 2 6 1 7 29 8 28 9 26 10 14 11 4 12
REMARK SMILES IDX 5 13 6 14 7 15 10 16 9 17 8 18 15 20 24 21 16 22 22 23 17 24
REMARK SMILES IDX 20 25 25 26 23 28 18 30 19 31 21 33 27 35
REMARK H PARENT 8 19 25 27 23 29 19 32 21 34 27 36
REMARK Flexibility Score: inf
ROOT
ATOM      1  C   UNL     1      26.514  55.963  79.665  1.00  0.00     0.065 A 
ATOM      2  C   UNL     1      26.716  54.684  79.127  1.00  0.00     0.208 A 
ATOM      3  O   UNL     1      25.687  53.906  78.817  1.00  0.00    -0.463 OA
ATOM      4  C   UNL     1      24.419  54.271  78.990  1.00  0.00     0.147 A 
ATOM      5  C   UNL     1      24.125  55.541  79.537  1.00  0.00     0.066 A 
ATOM      6  C   UNL     1      25.191  56.391  79.881  1.00  0.00     0.200 A 
ATOM      7  O   UNL     1      24.965  57.521  80.397  1.00  0.00    -0.288 OA
ATOM      8  C   UNL     1      22.788  55.916  79.737  1.00  0.00     0.020 A 
ATOM      9  C   UNL     1      21.756  55.040  79.407  1.00  0.00     0.047 A 
ATOM     10  C   UNL     1      22.034  53.779  78.866  1.00  0.00     0.125 A 
ATOM     11  C   UNL     1      23.374  53.386  78.630  1.00  0.00     0.069 A 
ENDROOT
BRANCH   1  12
ATOM     12  C   UNL     1      27.681  56.819  79.996  1.00  0.00    -0.011 A 
ATOM     13  C   UNL     1      27.978  57.127  81.336  1.00  0.00     0.013 A 
ATOM     14  C   UNL     1      29.081  57.927  81.651  1.00  0.00     0.047 A 
ATOM     15  C   UNL     1      29.904  58.424  80.632  1.00  0.00     0.115 A 
ATOM     16  C   UNL     1      28.517  57.318  78.980  1.00  0.00     0.013 A 
ATOM     17  C   UNL     1      29.618  58.116  79.298  1.00  0.00     0.047 A 
BRANCH  15  18
ATOM     18  O   UNL     1      31.006  59.220  80.934  1.00  0.00    -0.508 OA
ATOM     19  H   UNL     1      30.922  60.036  81.530  1.00  0.00     0.293 HD
ENDBRANCH  15  18
ENDBRANCH   1  12
BRANCH  11  20
ATOM     20  C   UNL     1      23.720  52.010  78.068  1.00  0.00     0.188 C 
ATOM     21  C   UNL     1      23.644  52.016  76.518  1.00  0.00     0.179 C 
ATOM     22  O   UNL     1      24.999  51.588  78.514  1.00  0.00    -0.362 OA
ATOM     23  C   UNL     1      24.051  50.642  75.942  1.00  0.00     0.177 C 
ATOM     24  C   UNL     1      25.236  50.239  78.149  1.00  0.00     0.176 C 
ATOM     25  C   UNL     1      25.336  50.100  76.612  1.00  0.00     0.177 C 
BRANCH  21  26
ATOM     26  O   UNL     1      24.411  53.051  75.950  1.00  0.00    -0.387 OA
ATOM     27  H   UNL     1      23.855  53.512  75.273  1.00  0.00     0.211 HD
ENDBRANCH  21  26
BRANCH  23  28
ATOM     28  O   UNL     1      22.996  49.735  76.144  1.00  0.00    -0.387 OA
ATOM     29  H   UNL     1      23.203  49.230  76.973  1.00  0.00     0.211 HD
ENDBRANCH  23  28
BRANCH  24  30
ATOM     30  C   UNL     1      26.522  49.754  78.832  1.00  0.00     0.191 C 
BRANCH  30  31
ATOM     31  O   UNL     1      27.446  50.804  78.935  1.00  0.00    -0.394 OA
ATOM     32  H   UNL     1      28.345  50.388  79.005  1.00  0.00     0.210 HD
ENDBRANCH  30  31
ENDBRANCH  24  30
BRANCH  25  33
ATOM     33  O   UNL     1      26.464  50.792  76.137  1.00  0.00    -0.388 OA
ATOM     34  H   UNL     1      26.133  51.636  75.732  1.00  0.00     0.211 HD
ENDBRANCH  25  33
ENDBRANCH  11  20
BRANCH  10  35
ATOM     35  O   UNL     1      20.974  52.921  78.571  1.00  0.00    -0.507 OA
ATOM     36  H   UNL     1      20.708  52.708  77.617  1.00  0.00     0.293 HD
ENDBRANCH  10  35
TORSDOF 9
ENDMDL
MODEL 5
REMARK VINA RESULT:    -4.923      2.490      9.936
REMARK INTER + INTRA:          -7.668
REMARK INTER:                  -6.670
REMARK INTRA:                  -0.997
REMARK UNBOUND:                -1.018
REMARK SMILES O=c1c(-c2ccc(O)cc2)coc2c([C@@H]3O[C@H](CO)[C@H](O)[C@@H](O)[C@@H]3O)c(O)ccc12
REMARK SMILES IDX 3 1 11 2 12 3 13 4 30 5 2 6 1 7 29 8 28 9 26 10 14 11 4 12
REMARK SMILES IDX 5 13 6 14 7 15 10 16 9 17 8 18 15 20 24 21 16 22 22 23 17 24
REMARK SMILES IDX 20 25 25 26 23 28 18 30 19 31 21 33 27 35
REMARK H PARENT 8 19 25 27 23 29 19 32 21 34 27 36
REMARK Flexibility Score: inf
ROOT
ATOM      1  C   UNL     1      23.445  51.987  77.752  1.00  0.00     0.065 A 
ATOM      2  C   UNL     1      22.522  52.315  78.755  1.00  0.00     0.208 A 
ATOM      3  O   UNL     1      22.602  53.470  79.403  1.00  0.00    -0.463 OA
ATOM      4  C   UNL     1      23.541  54.380  79.157  1.00  0.00     0.147 A 
ATOM      5  C   UNL     1      24.519  54.126  78.168  1.00  0.00     0.066 A 
ATOM      6  C   UNL     1      24.466  52.910  77.463  1.00  0.00     0.200 A 
ATOM      7  O   UNL     1      25.340  52.640  76.593  1.00  0.00    -0.288 OA
ATOM      8  C   UNL     1      25.520  55.078  77.923  1.00  0.00     0.020 A 
ATOM      9  C   UNL     1      25.557  56.262  78.656  1.00  0.00     0.047 A 
ATOM     10  C   UNL     1      24.595  56.525  79.640  1.00  0.00     0.125 A 
ATOM     11  C   UNL     1      23.559  55.592  79.888  1.00  0.00     0.069 A 
ENDROOT
BRANCH   1  12
ATOM     12  C   UNL     1      23.329  50.692  77.034  1.00  0.00    -0.011 A 
ATOM     13  C   UNL     1      24.075  49.578  77.457  1.00  0.00     0.013 A 
ATOM     14  C   UNL     1      23.962  48.355  76.788  1.00  0.00     0.047 A 
ATOM     15  C   UNL     1      23.099  48.230  75.692  1.00  0.00     0.115 A 
ATOM     16  C   UNL     1      22.459  50.556  75.936  1.00  0.00     0.013 A 
ATOM     17  C   UNL     1      22.348  49.332  75.270  1.00  0.00     0.047 A 
BRANCH  15  18
ATOM     18  O   UNL     1      22.977  47.017  75.018  1.00  0.00    -0.508 OA
ATOM     19  H   UNL     1      22.580  46.965  74.088  1.00  0.00     0.293 HD
ENDBRANCH  15  18
ENDBRANCH   1  12
BRANCH  11  20
ATOM     20  C   UNL     1      22.509  55.828  80.969  1.00  0.00     0.188 C 
ATOM     21  C   UNL     1      23.020  55.331  82.348  1.00  0.00     0.179 C 
ATOM     22  O   UNL     1      22.139  57.197  81.026  1.00  0.00    -0.362 OA
ATOM     23  C   UNL     1      21.984  55.623  83.456  1.00  0.00     0.177 C 
ATOM     24  C   UNL     1      21.033  57.380  81.894  1.00  0.00     0.176 C 
ATOM     25  C   UNL     1      21.428  57.063  83.355  1.00  0.00     0.177 C 
BRANCH  21  26
ATOM     26  O   UNL     1      24.278  55.871  82.676  1.00  0.00    -0.387 OA
ATOM     27  H   UNL     1      24.598  55.429  83.502  1.00  0.00     0.211 HD
ENDBRANCH  21  26
BRANCH  23  28
ATOM     28  O   UNL     1      20.928  54.701  83.343  1.00  0.00    -0.387 OA
ATOM     29  H   UNL     1      20.667  54.446  84.267  1.00  0.00     0.211 HD
ENDBRANCH  23  28
BRANCH  24  30
ATOM     30  C   UNL     1      20.526  58.823  81.760  1.00  0.00     0.191 C 
BRANCH  30  31
ATOM     31  O   UNL     1      20.418  59.179  80.407  1.00  0.00    -0.394 OA
ATOM     32  H   UNL     1      20.986  58.543  79.899  1.00  0.00     0.210 HD
ENDBRANCH  30  31
ENDBRANCH  24  30
BRANCH  25  33
ATOM     33  O   UNL     1      22.384  57.988  83.808  1.00  0.00    -0.388 OA
ATOM     34  H   UNL     1      23.274  57.628  83.556  1.00  0.00     0.211 HD
ENDBRANCH  25  33
ENDBRANCH  11  20
BRANCH  10  35
ATOM     35  O   UNL     1      24.679  57.712  80.368  1.00  0.00    -0.507 OA
ATOM     36  H   UNL     1      25.415  57.872  81.046  1.00  0.00     0.293 HD
ENDBRANCH  10  35
TORSDOF 9
ENDMDL
MODEL 6
REMARK VINA RESULT:    -4.853      3.336      6.713
REMARK INTER + INTRA:          -7.573
REMARK INTER:                  -6.389
REMARK INTRA:                  -1.185
REMARK UNBOUND:                -1.018
REMARK SMILES O=c1c(-c2ccc(O)cc2)coc2c([C@@H]3O[C@H](CO)[C@H](O)[C@@H](O)[C@@H]3O)c(O)ccc12
REMARK SMILES IDX 3 1 11 2 12 3 13 4 30 5 2 6 1 7 29 8 28 9 26 10 14 11 4 12
REMARK SMILES IDX 5 13 6 14 7 15 10 16 9 17 8 18 15 20 24 21 16 22 22 23 17 24
REMARK SMILES IDX 20 25 25 26 23 28 18 30 19 31 21 33 27 35
REMARK H PARENT 8 19 25 27 23 29 19 32 21 34 27 36
REMARK Flexibility Score: inf
ROOT
ATOM      1  C   UNL     1      24.463  55.569  82.340  1.00  0.00     0.065 A 
ATOM      2  C   UNL     1      23.891  54.303  82.151  1.00  0.00     0.208 A 
ATOM      3  O   UNL     1      23.892  53.726  80.956  1.00  0.00    -0.463 OA
ATOM      4  C   UNL     1      24.422  54.292  79.874  1.00  0.00     0.147 A 
ATOM      5  C   UNL     1      25.011  55.574  79.972  1.00  0.00     0.066 A 
ATOM      6  C   UNL     1      25.025  56.216  81.223  1.00  0.00     0.200 A 
ATOM      7  O   UNL     1      25.518  57.372  81.341  1.00  0.00    -0.288 OA
ATOM      8  C   UNL     1      25.551  56.178  78.827  1.00  0.00     0.020 A 
ATOM      9  C   UNL     1      25.500  55.523  77.598  1.00  0.00     0.047 A 
ATOM     10  C   UNL     1      24.918  54.254  77.487  1.00  0.00     0.125 A 
ATOM     11  C   UNL     1      24.388  53.612  78.633  1.00  0.00     0.069 A 
ENDROOT
BRANCH   1  12
ATOM     12  C   UNL     1      24.458  56.190  83.688  1.00  0.00    -0.011 A 
ATOM     13  C   UNL     1      25.539  55.989  84.566  1.00  0.00     0.013 A 
ATOM     14  C   UNL     1      25.541  56.580  85.833  1.00  0.00     0.047 A 
ATOM     15  C   UNL     1      24.466  57.382  86.238  1.00  0.00     0.115 A 
ATOM     16  C   UNL     1      23.386  57.002  84.100  1.00  0.00     0.013 A 
ATOM     17  C   UNL     1      23.391  57.591  85.367  1.00  0.00     0.047 A 
BRANCH  15  18
ATOM     18  O   UNL     1      24.457  57.976  87.497  1.00  0.00    -0.508 OA
ATOM     19  H   UNL     1      23.764  58.670  87.750  1.00  0.00     0.293 HD
ENDBRANCH  15  18
ENDBRANCH   1  12
BRANCH  11  20
ATOM     20  C   UNL     1      23.721  52.243  78.549  1.00  0.00     0.188 C 
ATOM     21  C   UNL     1      22.197  52.389  78.299  1.00  0.00     0.179 C 
ATOM     22  O   UNL     1      24.328  51.444  77.545  1.00  0.00    -0.362 OA
ATOM     23  C   UNL     1      21.527  51.005  78.154  1.00  0.00     0.177 C 
ATOM     24  C   UNL     1      23.837  50.115  77.598  1.00  0.00     0.176 C 
ATOM     25  C   UNL     1      22.338  50.073  77.223  1.00  0.00     0.177 C 
BRANCH  21  26
ATOM     26  O   UNL     1      21.915  53.207  77.188  1.00  0.00    -0.387 OA
ATOM     27  H   UNL     1      22.667  53.840  77.071  1.00  0.00     0.211 HD
ENDBRANCH  21  26
BRANCH  23  28
ATOM     28  O   UNL     1      21.417  50.419  79.427  1.00  0.00    -0.387 OA
ATOM     29  H   UNL     1      21.981  49.602  79.419  1.00  0.00     0.211 HD
ENDBRANCH  23  28
BRANCH  24  30
ATOM     30  C   UNL     1      24.668  49.236  76.654  1.00  0.00     0.191 C 
BRANCH  30  31
ATOM     31  O   UNL     1      24.972  49.937  75.476  1.00  0.00    -0.394 OA
ATOM     32  H   UNL     1      25.947  49.829  75.323  1.00  0.00     0.210 HD
ENDBRANCH  30  31
ENDBRANCH  24  30
BRANCH  25  33
ATOM     33  O   UNL     1      22.166  50.454  75.881  1.00  0.00    -0.388 OA
ATOM     34  H   UNL     1      21.875  51.404  75.886  1.00  0.00     0.211 HD
ENDBRANCH  25  33
ENDBRANCH  11  20
BRANCH  10  35
ATOM     35  O   UNL     1      24.865  53.642  76.235  1.00  0.00    -0.507 OA
ATOM     36  H   UNL     1      25.667  53.616  75.618  1.00  0.00     0.293 HD
ENDBRANCH  10  35
TORSDOF 9
ENDMDL
MODEL 7
REMARK VINA RESULT:    -4.824      1.739      2.131
REMARK INTER + INTRA:          -7.534
REMARK INTER:                  -6.513
REMARK INTRA:                  -1.022
REMARK UNBOUND:                -1.018
REMARK SMILES O=c1c(-c2ccc(O)cc2)coc2c([C@@H]3O[C@H](CO)[C@H](O)[C@@H](O)[C@@H]3O)c(O)ccc12
REMARK SMILES IDX 3 1 11 2 12 3 13 4 30 5 2 6 1 7 29 8 28 9 26 10 14 11 4 12
REMARK SMILES IDX 5 13 6 14 7 15 10 16 9 17 8 18 15 20 24 21 16 22 22 23 17 24
REMARK SMILES IDX 20 25 25 26 23 28 18 30 19 31 21 33 27 35
REMARK H PARENT 8 19 25 27 23 29 19 32 21 34 27 36
REMARK Flexibility Score: inf
ROOT
ATOM      1  C   UNL     1      24.719  52.652  77.692  1.00  0.00     0.065 A 
ATOM      2  C   UNL     1      25.258  51.970  76.591  1.00  0.00     0.208 A 
ATOM      3  O   UNL     1      24.622  50.937  76.053  1.00  0.00    -0.463 OA
ATOM      4  C   UNL     1      23.458  50.480  76.507  1.00  0.00     0.147 A 
ATOM      5  C   UNL     1      22.849  51.102  77.621  1.00  0.00     0.066 A 
ATOM      6  C   UNL     1      23.495  52.199  78.218  1.00  0.00     0.200 A 
ATOM      7  O   UNL     1      22.993  52.761  79.231  1.00  0.00    -0.288 OA
ATOM      8  C   UNL     1      21.630  50.608  78.110  1.00  0.00     0.020 A 
ATOM      9  C   UNL     1      21.029  49.505  77.509  1.00  0.00     0.047 A 
ATOM     10  C   UNL     1      21.622  48.878  76.406  1.00  0.00     0.125 A 
ATOM     11  C   UNL     1      22.839  49.374  75.876  1.00  0.00     0.069 A 
ENDROOT
BRANCH   1  12
ATOM     12  C   UNL     1      25.444  53.811  78.271  1.00  0.00    -0.011 A 
ATOM     13  C   UNL     1      25.246  55.103  77.751  1.00  0.00     0.013 A 
ATOM     14  C   UNL     1      25.920  56.198  78.300  1.00  0.00     0.047 A 
ATOM     15  C   UNL     1      26.796  56.017  79.379  1.00  0.00     0.115 A 
ATOM     16  C   UNL     1      26.320  53.639  79.358  1.00  0.00     0.013 A 
ATOM     17  C   UNL     1      26.992  54.736  79.905  1.00  0.00     0.047 A 
BRANCH  15  18
ATOM     18  O   UNL     1      27.472  57.100  79.934  1.00  0.00    -0.508 OA
ATOM     19  H   UNL     1      26.975  57.907  80.292  1.00  0.00     0.293 HD
ENDBRANCH  15  18
ENDBRANCH   1  12
BRANCH  11  20
ATOM     20  C   UNL     1      23.532  48.704  74.694  1.00  0.00     0.188 C 
ATOM     21  C   UNL     1      24.407  47.515  75.174  1.00  0.00     0.179 C 
ATOM     22  O   UNL     1      22.585  48.281  73.726  1.00  0.00    -0.362 OA
ATOM     23  C   UNL     1      25.063  46.797  73.974  1.00  0.00     0.177 C 
ATOM     24  C   UNL     1      23.239  47.834  72.550  1.00  0.00     0.176 C 
ATOM     25  C   UNL     1      24.050  46.548  72.832  1.00  0.00     0.177 C 
BRANCH  21  26
ATOM     26  O   UNL     1      23.685  46.609  75.974  1.00  0.00    -0.387 OA
ATOM     27  H   UNL     1      23.935  45.691  75.703  1.00  0.00     0.211 HD
ENDBRANCH  21  26
BRANCH  23  28
ATOM     28  O   UNL     1      26.125  47.586  73.498  1.00  0.00    -0.387 OA
ATOM     29  H   UNL     1      26.384  48.198  74.237  1.00  0.00     0.211 HD
ENDBRANCH  23  28
BRANCH  24  30
ATOM     30  C   UNL     1      22.190  47.595  71.454  1.00  0.00     0.191 C 
BRANCH  30  31
ATOM     31  O   UNL     1      21.079  48.428  71.653  1.00  0.00    -0.394 OA
ATOM     32  H   UNL     1      20.747  48.682  70.752  1.00  0.00     0.210 HD
ENDBRANCH  30  31
ENDBRANCH  24  30
BRANCH  25  33
ATOM     33  O   UNL     1      23.182  45.495  73.171  1.00  0.00    -0.388 OA
ATOM     34  H   UNL     1      23.447  45.184  74.076  1.00  0.00     0.211 HD
ENDBRANCH  25  33
ENDBRANCH  11  20
BRANCH  10  35
ATOM     35  O   UNL     1      21.000  47.762  75.846  1.00  0.00    -0.507 OA
ATOM     36  H   UNL     1      20.636  47.010  76.418  1.00  0.00     0.293 HD
ENDBRANCH  10  35
TORSDOF 9
ENDMDL
MODEL 8
REMARK VINA RESULT:    -4.816      4.340     11.863
REMARK INTER + INTRA:          -7.523
REMARK INTER:                  -6.456
REMARK INTRA:                  -1.068
REMARK UNBOUND:                -1.018
REMARK SMILES O=c1c(-c2ccc(O)cc2)coc2c([C@@H]3O[C@H](CO)[C@H](O)[C@@H](O)[C@@H]3O)c(O)ccc12
REMARK SMILES IDX 3 1 11 2 12 3 13 4 30 5 2 6 1 7 29 8 28 9 26 10 14 11 4 12
REMARK SMILES IDX 5 13 6 14 7 15 10 16 9 17 8 18 15 20 24 21 16 22 22 23 17 24
REMARK SMILES IDX 20 25 25 26 23 28 18 30 19 31 21 33 27 35
REMARK H PARENT 8 19 25 27 23 29 19 32 21 34 27 36
REMARK Flexibility Score: inf
ROOT
ATOM      1  C   UNL     1      23.022  54.861  79.795  1.00  0.00     0.065 A 
ATOM      2  C   UNL     1      22.681  56.215  79.669  1.00  0.00     0.208 A 
ATOM      3  O   UNL     1      22.572  56.992  80.740  1.00  0.00    -0.463 OA
ATOM      4  C   UNL     1      22.771  56.555  81.981  1.00  0.00     0.147 A 
ATOM      5  C   UNL     1      23.108  55.200  82.200  1.00  0.00     0.066 A 
ATOM      6  C   UNL     1      23.229  54.346  81.088  1.00  0.00     0.200 A 
ATOM      7  O   UNL     1      23.502  53.124  81.249  1.00  0.00    -0.288 OA
ATOM      8  C   UNL     1      23.298  54.736  83.510  1.00  0.00     0.020 A 
ATOM      9  C   UNL     1      23.147  55.603  84.590  1.00  0.00     0.047 A 
ATOM     10  C   UNL     1      22.812  56.948  84.387  1.00  0.00     0.125 A 
ATOM     11  C   UNL     1      22.640  57.447  83.072  1.00  0.00     0.069 A 
ENDROOT
BRANCH   1  12
ATOM     12  C   UNL     1      23.147  54.014  78.582  1.00  0.00    -0.011 A 
ATOM     13  C   UNL     1      24.351  53.989  77.855  1.00  0.00     0.013 A 
ATOM     14  C   UNL     1      24.475  53.185  76.718  1.00  0.00     0.047 A 
ATOM     15  C   UNL     1      23.399  52.393  76.295  1.00  0.00     0.115 A 
ATOM     16  C   UNL     1      22.075  53.210  78.155  1.00  0.00     0.013 A 
ATOM     17  C   UNL     1      22.202  52.407  77.018  1.00  0.00     0.047 A 
BRANCH  15  18
ATOM     18  O   UNL     1      23.512  51.588  75.165  1.00  0.00    -0.508 OA
ATOM     19  H   UNL     1      23.735  50.602  75.237  1.00  0.00     0.293 HD
ENDBRANCH  15  18
ENDBRANCH   1  12
BRANCH  11  20
ATOM     20  C   UNL     1      22.248  58.897  82.810  1.00  0.00     0.188 C 
ATOM     21  C   UNL     1      20.706  59.038  82.704  1.00  0.00     0.179 C 
ATOM     22  O   UNL     1      22.770  59.753  83.814  1.00  0.00    -0.362 OA
ATOM     23  C   UNL     1      20.301  60.514  82.498  1.00  0.00     0.177 C 
ATOM     24  C   UNL     1      22.567  61.113  83.468  1.00  0.00     0.176 C 
ATOM     25  C   UNL     1      21.060  61.455  83.463  1.00  0.00     0.177 C 
BRANCH  21  26
ATOM     26  O   UNL     1      20.042  58.481  83.814  1.00  0.00    -0.387 OA
ATOM     27  H   UNL     1      20.725  58.134  84.440  1.00  0.00     0.211 HD
ENDBRANCH  21  26
BRANCH  23  28
ATOM     28  O   UNL     1      20.580  60.879  81.169  1.00  0.00    -0.387 OA
ATOM     29  H   UNL     1      21.564  60.819  81.052  1.00  0.00     0.211 HD
ENDBRANCH  23  28
BRANCH  24  30
ATOM     30  C   UNL     1      23.332  62.001  84.459  1.00  0.00     0.191 C 
BRANCH  30  31
ATOM     31  O   UNL     1      22.569  63.130  84.793  1.00  0.00    -0.394 OA
ATOM     32  H   UNL     1      23.160  63.919  84.677  1.00  0.00     0.210 HD
ENDBRANCH  30  31
ENDBRANCH  24  30
BRANCH  25  33
ATOM     33  O   UNL     1      20.536  61.345  84.763  1.00  0.00    -0.388 OA
ATOM     34  H   UNL     1      20.289  60.393  84.895  1.00  0.00     0.211 HD
ENDBRANCH  25  33
ENDBRANCH  11  20
BRANCH  10  35
ATOM     35  O   UNL     1      22.647  57.779  85.495  1.00  0.00    -0.507 OA
ATOM     36  H   UNL     1      23.339  58.473  85.750  1.00  0.00     0.293 HD
ENDBRANCH  10  35
TORSDOF 9
ENDMDL
MODEL 9
REMARK VINA RESULT:    -4.753      1.839      3.091
REMARK INTER + INTRA:          -7.438
REMARK INTER:                  -6.840
REMARK INTRA:                  -0.598
REMARK UNBOUND:                -1.018
REMARK SMILES O=c1c(-c2ccc(O)cc2)coc2c([C@@H]3O[C@H](CO)[C@H](O)[C@@H](O)[C@@H]3O)c(O)ccc12
REMARK SMILES IDX 3 1 11 2 12 3 13 4 30 5 2 6 1 7 29 8 28 9 26 10 14 11 4 12
REMARK SMILES IDX 5 13 6 14 7 15 10 16 9 17 8 18 15 20 24 21 16 22 22 23 17 24
REMARK SMILES IDX 20 25 25 26 23 28 18 30 19 31 21 33 27 35
REMARK H PARENT 8 19 25 27 23 29 19 32 21 34 27 36
REMARK Flexibility Score: inf
ROOT
ATOM      1  C   UNL     1      24.223  52.510  78.218  1.00  0.00     0.065 A 
ATOM      2  C   UNL     1      24.471  51.652  77.137  1.00  0.00     0.208 A 
ATOM      3  O   UNL     1      23.747  50.555  76.960  1.00  0.00    -0.463 OA
ATOM      4  C   UNL     1      22.757  50.194  77.773  1.00  0.00     0.147 A 
ATOM      5  C   UNL     1      22.446  50.997  78.894  1.00  0.00     0.066 A 
ATOM      6  C   UNL     1      23.195  52.167  79.115  1.00  0.00     0.200 A 
ATOM      7  O   UNL     1      22.962  52.892  80.122  1.00  0.00    -0.288 OA
ATOM      8  C   UNL     1      21.415  50.606  79.762  1.00  0.00     0.020 A 
ATOM      9  C   UNL     1      20.708  49.429  79.526  1.00  0.00     0.047 A 
ATOM     10  C   UNL     1      21.008  48.624  78.420  1.00  0.00     0.125 A 
ATOM     11  C   UNL     1      22.026  49.010  77.514  1.00  0.00     0.069 A 
ENDROOT
BRANCH   1  12
ATOM     12  C   UNL     1      25.040  53.738  78.391  1.00  0.00    -0.011 A 
ATOM     13  C   UNL     1      26.131  53.744  79.279  1.00  0.00     0.013 A 
ATOM     14  C   UNL     1      26.907  54.896  79.438  1.00  0.00     0.047 A 
ATOM     15  C   UNL     1      26.607  56.054  78.708  1.00  0.00     0.115 A 
ATOM     16  C   UNL     1      24.750  54.903  77.658  1.00  0.00     0.013 A 
ATOM     17  C   UNL     1      25.528  56.052  77.818  1.00  0.00     0.047 A 
BRANCH  15  18
ATOM     18  O   UNL     1      27.374  57.206  78.858  1.00  0.00    -0.508 OA
ATOM     19  H   UNL     1      27.042  58.109  78.538  1.00  0.00     0.293 HD
ENDBRANCH  15  18
ENDBRANCH   1  12
BRANCH  11  20
ATOM     20  C   UNL     1      22.402  48.147  76.313  1.00  0.00     0.188 C 
ATOM     21  C   UNL     1      21.561  48.542  75.070  1.00  0.00     0.179 C 
ATOM     22  O   UNL     1      23.791  48.238  76.039  1.00  0.00    -0.362 OA
ATOM     23  C   UNL     1      21.980  47.712  73.837  1.00  0.00     0.177 C 
ATOM     24  C   UNL     1      24.168  47.294  75.050  1.00  0.00     0.176 C 
ATOM     25  C   UNL     1      23.518  47.641  73.691  1.00  0.00     0.177 C 
BRANCH  21  26
ATOM     26  O   UNL     1      21.627  49.922  74.798  1.00  0.00    -0.387 OA
ATOM     27  H   UNL     1      21.161  50.091  73.941  1.00  0.00     0.211 HD
ENDBRANCH  21  26
BRANCH  23  28
ATOM     28  O   UNL     1      21.459  46.412  73.967  1.00  0.00    -0.387 OA
ATOM     29  H   UNL     1      22.189  45.783  73.730  1.00  0.00     0.211 HD
ENDBRANCH  23  28
BRANCH  24  30
ATOM     30  C   UNL     1      25.699  47.269  74.940  1.00  0.00     0.191 C 
BRANCH  30  31
ATOM     31  O   UNL     1      26.228  48.543  75.199  1.00  0.00    -0.394 OA
ATOM     32  H   UNL     1      25.839  48.844  76.062  1.00  0.00     0.210 HD
ENDBRANCH  30  31
ENDBRANCH  24  30
BRANCH  25  33
ATOM     33  O   UNL     1      24.020  48.865  73.214  1.00  0.00    -0.388 OA
ATOM     34  H   UNL     1      23.349  49.560  73.444  1.00  0.00     0.211 HD
ENDBRANCH  25  33
ENDBRANCH  11  20
BRANCH  10  35
ATOM     35  O   UNL     1      20.293  47.441  78.231  1.00  0.00    -0.507 OA
ATOM     36  H   UNL     1      19.289  47.397  78.355  1.00  0.00     0.293 HD
ENDBRANCH  10  35
TORSDOF 9
ENDMDL
