MODEL 1
REMARK VINA RESULT:    -3.987      0.000      0.000
REMARK INTER + INTRA:          -5.707
REMARK INTER:                  -6.085
REMARK INTRA:                   0.377
REMARK UNBOUND:                 0.377
REMARK SMILES CC1=CCC[C@@H](C)C(=O)C[C@H](C(C)C)C(=O)C1
REMARK SMILES IDX 8 1 9 2 6 3 7 4 5 5 4 6 3 7 2 8 1 9 10 11 11 12 15 13 16 14
REMARK SMILES IDX 17 15 12 17 13 18 14 19
REMARK H PARENT
REMARK Flexibility Score: 70.00
ROOT
ATOM      1  C   UNL     1     -13.994  10.624 -29.916  1.00  0.00     0.136 C 
ATOM      2  O   UNL     1     -12.892  10.277 -30.312  1.00  0.00    -0.299 OA
ENDROOT
BRANCH   1   3
ATOM      3  C   UNL     1     -14.269  10.623 -28.420  1.00  0.00     0.053 C 
ATOM      4  C   UNL     1     -13.147   9.892 -27.675  1.00  0.00     0.016 C 
BRANCH   3   5
ATOM      5  C   UNL     1     -15.645  10.016 -28.070  1.00  0.00     0.015 C 
BRANCH   5   6
ATOM      6  C   UNL     1     -16.660  11.099 -27.664  1.00  0.00     0.028 C 
BRANCH   6   7
ATOM      7  C   UNL     1     -17.810  11.235 -28.632  1.00  0.00    -0.028 C 
ATOM      8  C   UNL     1     -17.992  12.244 -29.525  1.00  0.00    -0.070 CG0
ATOM      9  C   UNL     1     -19.267  12.266 -30.334  1.00  0.00     0.039 C 
ATOM     10  G   UNL     1     -16.935  13.281 -29.889  1.00  0.00     0.000 G0
ENDBRANCH   6   7
ENDBRANCH   5   6
ENDBRANCH   3   5
ENDBRANCH   1   3
BRANCH   1  11
ATOM     11  C   UNL     1     -15.069  10.964 -30.924  1.00  0.00     0.087 C 
BRANCH  11  12
ATOM     12  C   UNL     1     -15.001  12.415 -31.482  1.00  0.00     0.066 C 
BRANCH  12  13
ATOM     13  C   UNL     1     -16.329  13.140 -31.279  1.00  0.00     0.140 C 
ATOM     14  O   UNL     1     -16.960  13.560 -32.240  1.00  0.00    -0.299 OA
BRANCH  13  15
ATOM     15  C   UNL     1     -16.916  13.278 -29.896  1.00  0.00     0.106 CG0
ATOM     16  G   UNL     1     -17.983  12.247 -29.544  1.00  0.00     0.000 G0
ENDBRANCH  13  15
ENDBRANCH  12  13
BRANCH  12  17
ATOM     17  C   UNL     1     -13.776  13.256 -30.976  1.00  0.00    -0.006 C 
ATOM     18  C   UNL     1     -14.170  14.734 -30.782  1.00  0.00     0.008 C 
ATOM     19  C   UNL     1     -12.569  13.197 -31.930  1.00  0.00     0.008 C 
ENDBRANCH  12  17
ENDBRANCH  11  12
ENDBRANCH   1  11
TORSDOF 1
ENDMDL
MODEL 2
REMARK VINA RESULT:    -3.967      1.194      1.579
REMARK INTER + INTRA:          -5.676
REMARK INTER:                  -5.950
REMARK INTRA:                   0.273
REMARK UNBOUND:                 0.377
REMARK SMILES CC1=CCC[C@@H](C)C(=O)C[C@H](C(C)C)C(=O)C1
REMARK SMILES IDX 8 1 9 2 6 3 7 4 5 5 4 6 3 7 2 8 1 9 10 11 11 12 15 13 16 14
REMARK SMILES IDX 17 15 12 17 13 18 14 19
REMARK H PARENT
REMARK Flexibility Score: 70.00
ROOT
ATOM      1  C   UNL     1     -14.744  11.481 -28.747  1.00  0.00     0.136 C 
ATOM      2  O   UNL     1     -14.141  10.643 -29.399  1.00  0.00    -0.299 OA
ENDROOT
BRANCH   1   3
ATOM      3  C   UNL     1     -15.044  11.194 -27.284  1.00  0.00     0.053 C 
ATOM      4  C   UNL     1     -13.996  10.237 -26.705  1.00  0.00     0.016 C 
BRANCH   3   5
ATOM      5  C   UNL     1     -16.470  10.642 -27.068  1.00  0.00     0.015 C 
BRANCH   5   6
ATOM      6  C   UNL     1     -17.076  10.100 -28.374  1.00  0.00     0.028 C 
BRANCH   6   7
ATOM      7  C   UNL     1     -18.253  10.907 -28.868  1.00  0.00    -0.028 C 
ATOM      8  C   UNL     1     -18.342  11.545 -30.065  1.00  0.00    -0.070 CG0
ATOM      9  C   UNL     1     -19.558  12.399 -30.334  1.00  0.00     0.039 C 
ATOM     10  G   UNL     1     -17.378  11.345 -31.228  1.00  0.00     0.000 G0
ENDBRANCH   6   7
ENDBRANCH   5   6
ENDBRANCH   3   5
ENDBRANCH   1   3
BRANCH   1  11
ATOM     11  C   UNL     1     -15.240  12.735 -29.432  1.00  0.00     0.087 C 
BRANCH  11  12
ATOM     12  C   UNL     1     -15.150  12.705 -30.985  1.00  0.00     0.066 C 
BRANCH  12  13
ATOM     13  C   UNL     1     -16.530  12.508 -31.609  1.00  0.00     0.140 C 
ATOM     14  O   UNL     1     -16.936  13.274 -32.472  1.00  0.00    -0.299 OA
BRANCH  13  15
ATOM     15  C   UNL     1     -17.376  11.320 -31.221  1.00  0.00     0.106 CG0
ATOM     16  G   UNL     1     -18.344  11.567 -30.070  1.00  0.00     0.000 G0
ENDBRANCH  13  15
ENDBRANCH  12  13
BRANCH  12  17
ATOM     17  C   UNL     1     -14.373  13.911 -31.621  1.00  0.00    -0.006 C 
ATOM     18  C   UNL     1     -12.879  13.569 -31.792  1.00  0.00     0.008 C 
ATOM     19  C   UNL     1     -14.482  15.204 -30.792  1.00  0.00     0.008 C 
ENDBRANCH  12  17
ENDBRANCH  11  12
ENDBRANCH   1  11
TORSDOF 1
ENDMDL
MODEL 3
REMARK VINA RESULT:    -3.841      1.787      4.112
REMARK INTER + INTRA:          -5.484
REMARK INTER:                  -5.445
REMARK INTRA:                  -0.039
REMARK UNBOUND:                 0.377
REMARK SMILES CC1=CCC[C@@H](C)C(=O)C[C@H](C(C)C)C(=O)C1
REMARK SMILES IDX 8 1 9 2 6 3 7 4 5 5 4 6 3 7 2 8 1 9 10 11 11 12 15 13 16 14
REMARK SMILES IDX 17 15 12 17 13 18 14 19
REMARK H PARENT
REMARK Flexibility Score: 70.00
ROOT
ATOM      1  C   UNL     1     -16.762  10.750 -28.206  1.00  0.00     0.136 C 
ATOM      2  O   UNL     1     -16.981  11.674 -27.437  1.00  0.00    -0.299 OA
ENDROOT
BRANCH   1   3
ATOM      3  C   UNL     1     -15.519   9.899 -27.993  1.00  0.00     0.053 C 
ATOM      4  C   UNL     1     -14.869  10.237 -26.647  1.00  0.00     0.016 C 
BRANCH   3   5
ATOM      5  C   UNL     1     -14.500  10.040 -29.145  1.00  0.00     0.015 C 
BRANCH   5   6
ATOM      6  C   UNL     1     -14.053  11.499 -29.338  1.00  0.00     0.028 C 
BRANCH   6   7
ATOM      7  C   UNL     1     -14.067  11.944 -30.780  1.00  0.00    -0.028 C 
ATOM      8  C   UNL     1     -15.090  12.576 -31.415  1.00  0.00    -0.070 CG0
ATOM      9  C   UNL     1     -14.961  12.840 -32.897  1.00  0.00     0.039 C 
ATOM     10  G   UNL     1     -16.302  13.181 -30.716  1.00  0.00     0.000 G0
ENDBRANCH   6   7
ENDBRANCH   5   6
ENDBRANCH   3   5
ENDBRANCH   1   3
BRANCH   1  11
ATOM     11  C   UNL     1     -17.684  10.535 -29.385  1.00  0.00     0.087 C 
BRANCH  11  12
ATOM     12  C   UNL     1     -18.414  11.816 -29.881  1.00  0.00     0.066 C 
BRANCH  12  13
ATOM     13  C   UNL     1     -17.634  12.487 -31.009  1.00  0.00     0.140 C 
ATOM     14  O   UNL     1     -18.090  12.522 -32.144  1.00  0.00    -0.299 OA
BRANCH  13  15
ATOM     15  C   UNL     1     -16.327  13.183 -30.718  1.00  0.00     0.106 CG0
ATOM     16  G   UNL     1     -15.110  12.583 -31.412  1.00  0.00     0.000 G0
ENDBRANCH  13  15
ENDBRANCH  12  13
BRANCH  12  17
ATOM     17  C   UNL     1     -19.928  11.611 -30.239  1.00  0.00    -0.006 C 
ATOM     18  C   UNL     1     -20.695  12.946 -30.157  1.00  0.00     0.008 C 
ATOM     19  C   UNL     1     -20.632  10.591 -29.326  1.00  0.00     0.008 C 
ENDBRANCH  12  17
ENDBRANCH  11  12
ENDBRANCH   1  11
TORSDOF 1
ENDMDL
MODEL 4
REMARK VINA RESULT:    -3.414      1.541      3.629
REMARK INTER + INTRA:          -4.832
REMARK INTER:                  -6.514
REMARK INTRA:                   1.681
REMARK UNBOUND:                 0.377
REMARK SMILES CC1=CCC[C@@H](C)C(=O)C[C@H](C(C)C)C(=O)C1
REMARK SMILES IDX 8 1 9 2 6 3 7 4 5 5 4 6 3 7 2 8 1 9 10 11 11 12 15 13 16 14
REMARK SMILES IDX 17 15 12 17 13 18 14 19
REMARK H PARENT
REMARK Flexibility Score: 70.00
ROOT
ATOM      1  C   UNL     1     -17.286  12.504 -31.595  1.00  0.00     0.136 C 
ATOM      2  O   UNL     1     -17.613  13.203 -32.542  1.00  0.00    -0.299 OA
ENDROOT
BRANCH   1   3
ATOM      3  C   UNL     1     -18.292  12.266 -30.479  1.00  0.00     0.053 C 
ATOM      4  C   UNL     1     -17.895  13.060 -29.229  1.00  0.00     0.016 C 
BRANCH   3   5
ATOM      5  C   UNL     1     -18.463  10.768 -30.145  1.00  0.00     0.015 C 
BRANCH   5   6
ATOM      6  C   UNL     1     -17.122  10.106 -29.785  1.00  0.00     0.028 C 
BRANCH   6   7
ATOM      7  C   UNL     1     -16.944   9.879 -28.303  1.00  0.00    -0.028 C 
ATOM      8  C   UNL     1     -15.946  10.380 -27.529  1.00  0.00    -0.070 CG0
ATOM      9  C   UNL     1     -15.872   9.948 -26.084  1.00  0.00     0.039 C 
ATOM     10  G   UNL     1     -14.975  11.471 -27.965  1.00  0.00     0.000 G0
ENDBRANCH   6   7
ENDBRANCH   5   6
ENDBRANCH   3   5
ENDBRANCH   1   3
BRANCH   1  11
ATOM     11  C   UNL     1     -15.873  11.968 -31.525  1.00  0.00     0.087 C 
BRANCH  11  12
ATOM     12  C   UNL     1     -15.012  12.557 -30.370  1.00  0.00     0.066 C 
BRANCH  12  13
ATOM     13  C   UNL     1     -14.547  11.456 -29.420  1.00  0.00     0.140 C 
ATOM     14  O   UNL     1     -13.791  10.577 -29.812  1.00  0.00    -0.299 OA
BRANCH  13  15
ATOM     15  C   UNL     1     -14.952  11.486 -27.967  1.00  0.00     0.106 CG0
ATOM     16  G   UNL     1     -15.952  10.411 -27.556  1.00  0.00     0.000 G0
ENDBRANCH  13  15
ENDBRANCH  12  13
BRANCH  12  17
ATOM     17  C   UNL     1     -13.835  13.483 -30.836  1.00  0.00    -0.006 C 
ATOM     18  C   UNL     1     -14.312  14.942 -30.986  1.00  0.00     0.008 C 
ATOM     19  C   UNL     1     -13.210  13.039 -32.171  1.00  0.00     0.008 C 
ENDBRANCH  12  17
ENDBRANCH  11  12
ENDBRANCH   1  11
TORSDOF 1
ENDMDL
MODEL 5
REMARK VINA RESULT:    -3.330      1.941      3.869
REMARK INTER + INTRA:          -4.704
REMARK INTER:                  -5.780
REMARK INTRA:                   1.075
REMARK UNBOUND:                 0.377
REMARK SMILES CC1=CCC[C@@H](C)C(=O)C[C@H](C(C)C)C(=O)C1
REMARK SMILES IDX 8 1 9 2 6 3 7 4 5 5 4 6 3 7 2 8 1 9 10 11 11 12 15 13 16 14
REMARK SMILES IDX 17 15 12 17 13 18 14 19
REMARK H PARENT
REMARK Flexibility Score: 70.00
ROOT
ATOM      1  C   UNL     1     -17.010  10.861 -28.250  1.00  0.00     0.136 C 
ATOM      2  O   UNL     1     -18.041  10.329 -28.634  1.00  0.00    -0.299 OA
ENDROOT
BRANCH   1   3
ATOM      3  C   UNL     1     -15.868   9.981 -27.766  1.00  0.00     0.053 C 
ATOM      4  C   UNL     1     -15.575  10.258 -26.287  1.00  0.00     0.016 C 
BRANCH   3   5
ATOM      5  C   UNL     1     -14.591  10.144 -28.619  1.00  0.00     0.015 C 
BRANCH   5   6
ATOM      6  C   UNL     1     -14.899  10.094 -30.125  1.00  0.00     0.028 C 
BRANCH   6   7
ATOM      7  C   UNL     1     -14.007  10.991 -30.949  1.00  0.00    -0.028 C 
ATOM      8  C   UNL     1     -13.918  12.344 -30.851  1.00  0.00    -0.070 CG0
ATOM      9  C   UNL     1     -13.050  13.080 -31.843  1.00  0.00     0.039 C 
ATOM     10  G   UNL     1     -14.509  13.171 -29.714  1.00  0.00     0.000 G0
ENDBRANCH   6   7
ENDBRANCH   5   6
ENDBRANCH   3   5
ENDBRANCH   1   3
BRANCH   1  11
ATOM     11  C   UNL     1     -16.934  12.370 -28.193  1.00  0.00     0.087 C 
BRANCH  11  12
ATOM     12  C   UNL     1     -17.130  13.083 -29.562  1.00  0.00     0.066 C 
BRANCH  12  13
ATOM     13  C   UNL     1     -15.852  13.801 -29.992  1.00  0.00     0.140 C 
ATOM     14  O   UNL     1     -15.906  14.913 -30.499  1.00  0.00    -0.299 OA
BRANCH  13  15
ATOM     15  C   UNL     1     -14.504  13.178 -29.722  1.00  0.00     0.106 CG0
ATOM     16  G   UNL     1     -13.946  12.335 -30.863  1.00  0.00     0.000 G0
ENDBRANCH  13  15
ENDBRANCH  12  13
BRANCH  12  17
ATOM     17  C   UNL     1     -17.716  12.172 -30.698  1.00  0.00    -0.006 C 
ATOM     18  C   UNL     1     -17.413  12.768 -32.087  1.00  0.00     0.008 C 
ATOM     19  C   UNL     1     -19.237  11.966 -30.581  1.00  0.00     0.008 C 
ENDBRANCH  12  17
ENDBRANCH  11  12
ENDBRANCH   1  11
TORSDOF 1
ENDMDL
MODEL 6
REMARK VINA RESULT:    -3.082      9.001     11.918
REMARK INTER + INTRA:          -4.326
REMARK INTER:                  -4.355
REMARK INTRA:                   0.029
REMARK UNBOUND:                 0.377
REMARK SMILES CC1=CCC[C@@H](C)C(=O)C[C@H](C(C)C)C(=O)C1
REMARK SMILES IDX 8 1 9 2 6 3 7 4 5 5 4 6 3 7 2 8 1 9 10 11 11 12 15 13 16 14
REMARK SMILES IDX 17 15 12 17 13 18 14 19
REMARK H PARENT
REMARK Flexibility Score: 70.00
ROOT
ATOM      1  C   UNL     1     -26.927  14.025 -30.507  1.00  0.00     0.136 C 
ATOM      2  O   UNL     1     -27.493  14.050 -31.589  1.00  0.00    -0.299 OA
ENDROOT
BRANCH   1   3
ATOM      3  C   UNL     1     -25.733  14.941 -30.284  1.00  0.00     0.053 C 
ATOM      4  C   UNL     1     -26.009  16.327 -30.879  1.00  0.00     0.016 C 
BRANCH   3   5
ATOM      5  C   UNL     1     -24.421  14.353 -30.848  1.00  0.00     0.015 C 
BRANCH   5   6
ATOM      6  C   UNL     1     -24.574  12.869 -31.220  1.00  0.00     0.028 C 
BRANCH   6   7
ATOM      7  C   UNL     1     -23.894  11.935 -30.248  1.00  0.00    -0.028 C 
ATOM      8  C   UNL     1     -24.422  10.795 -29.727  1.00  0.00    -0.070 CG0
ATOM      9  C   UNL     1     -23.630  10.051 -28.678  1.00  0.00     0.039 C 
ATOM     10  G   UNL     1     -25.692  10.119 -30.231  1.00  0.00     0.000 G0
ENDBRANCH   6   7
ENDBRANCH   5   6
ENDBRANCH   3   5
ENDBRANCH   1   3
BRANCH   1  11
ATOM     11  C   UNL     1     -27.379  13.033 -29.458  1.00  0.00     0.087 C 
BRANCH  11  12
ATOM     12  C   UNL     1     -27.830  11.654 -30.021  1.00  0.00     0.066 C 
BRANCH  12  13
ATOM     13  C   UNL     1     -26.953  10.529 -29.475  1.00  0.00     0.140 C 
ATOM     14  O   UNL     1     -27.288   9.913 -28.473  1.00  0.00    -0.299 OA
BRANCH  13  15
ATOM     15  C   UNL     1     -25.704  10.114 -30.213  1.00  0.00     0.106 CG0
ATOM     16  G   UNL     1     -24.424  10.797 -29.747  1.00  0.00     0.000 G0
ENDBRANCH  13  15
ENDBRANCH  12  13
BRANCH  12  17
ATOM     17  C   UNL     1     -29.361  11.351 -29.864  1.00  0.00    -0.006 C 
ATOM     18  C   UNL     1     -30.125  11.709 -31.155  1.00  0.00     0.008 C 
ATOM     19  C   UNL     1     -30.010  12.108 -28.691  1.00  0.00     0.008 C 
ENDBRANCH  12  17
ENDBRANCH  11  12
ENDBRANCH   1  11
TORSDOF 1
ENDMDL
MODEL 7
REMARK VINA RESULT:    -3.048      1.778      4.213
REMARK INTER + INTRA:          -4.274
REMARK INTER:                  -4.526
REMARK INTRA:                   0.252
REMARK UNBOUND:                 0.377
REMARK SMILES CC1=CCC[C@@H](C)C(=O)C[C@H](C(C)C)C(=O)C1
REMARK SMILES IDX 8 1 9 2 6 3 7 4 5 5 4 6 3 7 2 8 1 9 10 11 11 12 15 13 16 14
REMARK SMILES IDX 17 15 12 17 13 18 14 19
REMARK H PARENT
REMARK Flexibility Score: 70.00
ROOT
ATOM      1  C   UNL     1     -15.739  12.675 -32.096  1.00  0.00     0.136 C 
ATOM      2  O   UNL     1     -15.736  12.560 -33.312  1.00  0.00    -0.299 OA
ENDROOT
BRANCH   1   3
ATOM      3  C   UNL     1     -14.434  12.485 -31.339  1.00  0.00     0.053 C 
ATOM      4  C   UNL     1     -13.321  13.321 -31.981  1.00  0.00     0.016 C 
BRANCH   3   5
ATOM      5  C   UNL     1     -14.017  11.001 -31.240  1.00  0.00     0.015 C 
BRANCH   5   6
ATOM      6  C   UNL     1     -13.533  10.637 -29.826  1.00  0.00     0.028 C 
BRANCH   6   7
ATOM      7  C   UNL     1     -14.609  10.019 -28.966  1.00  0.00    -0.028 C 
ATOM      8  C   UNL     1     -15.445  10.684 -28.125  1.00  0.00    -0.070 CG0
ATOM      9  C   UNL     1     -16.383   9.877 -27.259  1.00  0.00     0.039 C 
ATOM     10  G   UNL     1     -15.620  12.198 -28.095  1.00  0.00     0.000 G0
ENDBRANCH   6   7
ENDBRANCH   5   6
ENDBRANCH   3   5
ENDBRANCH   1   3
BRANCH   1  11
ATOM     11  C   UNL     1     -17.048  12.923 -31.380  1.00  0.00     0.087 C 
BRANCH  11  12
ATOM     12  C   UNL     1     -17.270  12.049 -30.112  1.00  0.00     0.066 C 
BRANCH  12  13
ATOM     13  C   UNL     1     -16.779  12.770 -28.859  1.00  0.00     0.140 C 
ATOM     14  O   UNL     1     -17.368  13.756 -28.439  1.00  0.00    -0.299 OA
BRANCH  13  15
ATOM     15  C   UNL     1     -15.606  12.225 -28.081  1.00  0.00     0.106 CG0
ATOM     16  G   UNL     1     -15.454  10.709 -28.123  1.00  0.00     0.000 G0
ENDBRANCH  13  15
ENDBRANCH  12  13
BRANCH  12  17
ATOM     17  C   UNL     1     -18.727  11.488 -29.948  1.00  0.00    -0.006 C 
ATOM     18  C   UNL     1     -18.875  10.133 -30.668  1.00  0.00     0.008 C 
ATOM     19  C   UNL     1     -19.806  12.444 -30.488  1.00  0.00     0.008 C 
ENDBRANCH  12  17
ENDBRANCH  11  12
ENDBRANCH   1  11
TORSDOF 1
ENDMDL
MODEL 8
REMARK VINA RESULT:    -2.970      7.657     10.160
REMARK INTER + INTRA:          -4.155
REMARK INTER:                  -4.082
REMARK INTRA:                  -0.073
REMARK UNBOUND:                 0.377
REMARK SMILES CC1=CCC[C@@H](C)C(=O)C[C@H](C(C)C)C(=O)C1
REMARK SMILES IDX 8 1 9 2 6 3 7 4 5 5 4 6 3 7 2 8 1 9 10 11 11 12 15 13 16 14
REMARK SMILES IDX 17 15 12 17 13 18 14 19
REMARK H PARENT
REMARK Flexibility Score: 70.00
ROOT
ATOM      1  C   UNL     1     -24.945  10.414 -28.931  1.00  0.00     0.136 C 
ATOM      2  O   UNL     1     -25.307  10.512 -27.768  1.00  0.00    -0.299 OA
ENDROOT
BRANCH   1   3
ATOM      3  C   UNL     1     -23.549   9.884 -29.221  1.00  0.00     0.053 C 
ATOM      4  C   UNL     1     -22.698   9.905 -27.946  1.00  0.00     0.016 C 
BRANCH   3   5
ATOM      5  C   UNL     1     -22.847  10.654 -30.361  1.00  0.00     0.015 C 
BRANCH   5   6
ATOM      6  C   UNL     1     -22.184  11.946 -29.855  1.00  0.00     0.028 C 
BRANCH   6   7
ATOM      7  C   UNL     1     -22.428  13.135 -30.752  1.00  0.00    -0.028 C 
ATOM      8  C   UNL     1     -23.558  13.891 -30.794  1.00  0.00    -0.070 CG0
ATOM      9  C   UNL     1     -23.658  14.974 -31.842  1.00  0.00     0.039 C 
ATOM     10  G   UNL     1     -24.678  13.833 -29.763  1.00  0.00     0.000 G0
ENDBRANCH   6   7
ENDBRANCH   5   6
ENDBRANCH   3   5
ENDBRANCH   1   3
BRANCH   1  11
ATOM     11  C   UNL     1     -25.861  10.895 -30.034  1.00  0.00     0.087 C 
BRANCH  11  12
ATOM     12  C   UNL     1     -26.697  12.158 -29.680  1.00  0.00     0.066 C 
BRANCH  12  13
ATOM     13  C   UNL     1     -26.037  13.421 -30.229  1.00  0.00     0.140 C 
ATOM     14  O   UNL     1     -26.634  14.140 -31.019  1.00  0.00    -0.299 OA
BRANCH  13  15
ATOM     15  C   UNL     1     -24.671  13.838 -29.741  1.00  0.00     0.106 CG0
ATOM     16  G   UNL     1     -23.595  13.900 -30.818  1.00  0.00     0.000 G0
ENDBRANCH  13  15
ENDBRANCH  12  13
BRANCH  12  17
ATOM     17  C   UNL     1     -28.218  12.065 -30.055  1.00  0.00    -0.006 C 
ATOM     18  C   UNL     1     -29.103  12.394 -28.836  1.00  0.00     0.008 C 
ATOM     19  C   UNL     1     -28.624  10.680 -30.589  1.00  0.00     0.008 C 
ENDBRANCH  12  17
ENDBRANCH  11  12
ENDBRANCH   1  11
TORSDOF 1
ENDMDL
MODEL 9
REMARK VINA RESULT:    -2.527      9.124     12.154
REMARK INTER + INTRA:          -3.479
REMARK INTER:                  -3.988
REMARK INTRA:                   0.509
REMARK UNBOUND:                 0.377
REMARK SMILES CC1=CCC[C@@H](C)C(=O)C[C@H](C(C)C)C(=O)C1
REMARK SMILES IDX 8 1 9 2 6 3 7 4 5 5 4 6 3 7 2 8 1 9 10 11 11 12 15 13 16 14
REMARK SMILES IDX 17 15 12 17 13 18 14 19
REMARK H PARENT
REMARK Flexibility Score: 70.00
ROOT
ATOM      1  C   UNL     1     -28.505  11.558 -28.589  1.00  0.00     0.136 C 
ATOM      2  O   UNL     1     -28.463  12.449 -27.755  1.00  0.00    -0.299 OA
ENDROOT
BRANCH   1   3
ATOM      3  C   UNL     1     -29.659  11.534 -29.579  1.00  0.00     0.053 C 
ATOM      4  C   UNL     1     -29.338  10.596 -30.747  1.00  0.00     0.016 C 
BRANCH   3   5
ATOM      5  C   UNL     1     -30.028  12.943 -30.093  1.00  0.00     0.015 C 
BRANCH   5   6
ATOM      6  C   UNL     1     -29.357  13.253 -31.442  1.00  0.00     0.028 C 
BRANCH   6   7
ATOM      7  C   UNL     1     -28.298  14.325 -31.352  1.00  0.00    -0.028 C 
ATOM      8  C   UNL     1     -26.972  14.127 -31.124  1.00  0.00    -0.070 CG0
ATOM      9  C   UNL     1     -26.084  15.336 -30.954  1.00  0.00     0.039 C 
ATOM     10  G   UNL     1     -26.277  12.771 -31.177  1.00  0.00     0.000 G0
ENDBRANCH   6   7
ENDBRANCH   5   6
ENDBRANCH   3   5
ENDBRANCH   1   3
BRANCH   1  11
ATOM     11  C   UNL     1     -27.457  10.467 -28.559  1.00  0.00     0.087 C 
BRANCH  11  12
ATOM     12  C   UNL     1     -26.279  10.671 -29.555  1.00  0.00     0.066 C 
BRANCH  12  13
ATOM     13  C   UNL     1     -26.016  12.156 -29.793  1.00  0.00     0.140 C 
ATOM     14  O   UNL     1     -25.544  12.853 -28.905  1.00  0.00    -0.299 OA
BRANCH  13  15
ATOM     15  C   UNL     1     -26.261  12.762 -31.153  1.00  0.00     0.106 CG0
ATOM     16  G   UNL     1     -26.973  14.110 -31.138  1.00  0.00     0.000 G0
ENDBRANCH  13  15
ENDBRANCH  12  13
BRANCH  12  17
ATOM     17  C   UNL     1     -24.972   9.881 -29.196  1.00  0.00    -0.006 C 
ATOM     18  C   UNL     1     -24.642  10.021 -27.697  1.00  0.00     0.008 C 
ATOM     19  C   UNL     1     -23.746  10.341 -30.007  1.00  0.00     0.008 C 
ENDBRANCH  12  17
ENDBRANCH  11  12
ENDBRANCH   1  11
TORSDOF 1
ENDMDL
