MODEL 1
REMARK VINA RESULT:    -5.307      0.000      0.000
REMARK INTER + INTRA:          -6.481
REMARK INTER:                  -6.393
REMARK INTRA:                  -0.088
REMARK UNBOUND:                -0.088
REMARK SMILES O=c1c(O)c(-c2ccc(O)c(O)c2)oc2cc(O)cc(O)c12
REMARK SMILES IDX 5 1 3 2 2 3 1 4 22 5 20 6 19 7 17 8 16 9 15 10 14 11 6 12
REMARK SMILES IDX 7 13 8 14 9 15 13 16 11 17 10 18 12 20 4 22 21 24 18 26
REMARK H PARENT 10 19 12 21 4 23 21 25 18 27
REMARK Flexibility Score: inf
ROOT
ATOM      1  C   UNL     1      21.175  -0.197 -25.607  1.00  0.00     0.180 A 
ATOM      2  C   UNL     1      22.414   0.361 -25.976  1.00  0.00     0.208 A 
ATOM      3  C   UNL     1      23.518   0.180 -25.129  1.00  0.00     0.238 A 
ATOM      4  O   UNL     1      24.631   0.685 -25.443  1.00  0.00    -0.285 OA
ATOM      5  C   UNL     1      23.372  -0.568 -23.943  1.00  0.00     0.111 A 
ATOM      6  C   UNL     1      24.435  -0.800 -23.037  1.00  0.00     0.134 A 
ATOM      7  C   UNL     1      24.211  -1.563 -21.882  1.00  0.00     0.093 A 
ATOM      8  C   UNL     1      22.949  -2.100 -21.616  1.00  0.00     0.123 A 
ATOM      9  C   UNL     1      21.894  -1.873 -22.507  1.00  0.00     0.094 A 
ATOM     10  C   UNL     1      22.097  -1.113 -23.662  1.00  0.00     0.146 A 
ATOM     11  O   UNL     1      21.078  -0.910 -24.488  1.00  0.00    -0.452 OA
ENDROOT
BRANCH   1  12
ATOM     12  C   UNL     1      19.960  -0.034 -26.438  1.00  0.00     0.025 A 
ATOM     13  C   UNL     1      19.290  -1.145 -26.981  1.00  0.00     0.016 A 
ATOM     14  C   UNL     1      18.159  -0.965 -27.782  1.00  0.00     0.051 A 
ATOM     15  C   UNL     1      17.689   0.322 -28.065  1.00  0.00     0.157 A 
ATOM     16  C   UNL     1      19.499   1.257 -26.742  1.00  0.00     0.062 A 
ATOM     17  C   UNL     1      18.363   1.440 -27.546  1.00  0.00     0.158 A 
BRANCH  15  18
ATOM     18  O   UNL     1      16.557   0.470 -28.865  1.00  0.00    -0.504 OA
ATOM     19  H   UNL     1      15.751  -0.135 -28.773  1.00  0.00     0.293 HD
ENDBRANCH  15  18
BRANCH  17  20
ATOM     20  O   UNL     1      17.906   2.726 -27.829  1.00  0.00    -0.504 OA
ATOM     21  H   UNL     1      16.963   3.015 -27.599  1.00  0.00     0.293 HD
ENDBRANCH  17  20
ENDBRANCH   1  12
BRANCH   2  22
ATOM     22  O   UNL     1      22.545   1.057 -27.181  1.00  0.00    -0.502 OA
ATOM     23  H   UNL     1      22.145   0.719 -28.048  1.00  0.00     0.293 HD
ENDBRANCH   2  22
BRANCH   6  24
ATOM     24  O   UNL     1      25.708  -0.279 -23.275  1.00  0.00    -0.507 OA
ATOM     25  H   UNL     1      26.333  -0.034 -22.516  1.00  0.00     0.293 HD
ENDBRANCH   6  24
BRANCH   8  26
ATOM     26  O   UNL     1      22.752  -2.856 -20.462  1.00  0.00    -0.508 OA
ATOM     27  H   UNL     1      23.531  -3.190 -19.908  1.00  0.00     0.293 HD
ENDBRANCH   8  26
TORSDOF 6
ENDMDL
MODEL 2
REMARK VINA RESULT:    -5.217      8.669     10.009
REMARK INTER + INTRA:          -6.372
REMARK INTER:                  -6.074
REMARK INTRA:                  -0.297
REMARK UNBOUND:                -0.088
REMARK SMILES O=c1c(O)c(-c2ccc(O)c(O)c2)oc2cc(O)cc(O)c12
REMARK SMILES IDX 5 1 3 2 2 3 1 4 22 5 20 6 19 7 17 8 16 9 15 10 14 11 6 12
REMARK SMILES IDX 7 13 8 14 9 15 13 16 11 17 10 18 12 20 4 22 21 24 18 26
REMARK H PARENT 10 19 12 21 4 23 21 25 18 27
REMARK Flexibility Score: inf
ROOT
ATOM      1  C   UNL     1      24.757  -5.215 -31.793  1.00  0.00     0.180 A 
ATOM      2  C   UNL     1      25.767  -6.118 -31.407  1.00  0.00     0.208 A 
ATOM      3  C   UNL     1      25.397  -7.397 -30.960  1.00  0.00     0.238 A 
ATOM      4  O   UNL     1      26.291  -8.211 -30.600  1.00  0.00    -0.285 OA
ATOM      5  C   UNL     1      24.034  -7.757 -30.926  1.00  0.00     0.111 A 
ATOM      6  C   UNL     1      23.580  -9.026 -30.494  1.00  0.00     0.134 A 
ATOM      7  C   UNL     1      22.206  -9.311 -30.498  1.00  0.00     0.093 A 
ATOM      8  C   UNL     1      21.281  -8.356 -30.927  1.00  0.00     0.123 A 
ATOM      9  C   UNL     1      21.725  -7.100 -31.355  1.00  0.00     0.094 A 
ATOM     10  C   UNL     1      23.089  -6.796 -31.355  1.00  0.00     0.146 A 
ATOM     11  O   UNL     1      23.483  -5.595 -31.762  1.00  0.00    -0.452 OA
ENDROOT
BRANCH   1  12
ATOM     12  C   UNL     1      25.065  -3.843 -32.257  1.00  0.00     0.025 A 
ATOM     13  C   UNL     1      25.133  -3.531 -33.626  1.00  0.00     0.016 A 
ATOM     14  C   UNL     1      25.449  -2.234 -34.040  1.00  0.00     0.051 A 
ATOM     15  C   UNL     1      25.715  -1.235 -33.099  1.00  0.00     0.157 A 
ATOM     16  C   UNL     1      25.354  -2.844 -31.314  1.00  0.00     0.062 A 
ATOM     17  C   UNL     1      25.671  -1.541 -31.728  1.00  0.00     0.158 A 
BRANCH  15  18
ATOM     18  O   UNL     1      26.026   0.050 -33.542  1.00  0.00    -0.504 OA
ATOM     19  H   UNL     1      25.428   0.556 -34.183  1.00  0.00     0.293 HD
ENDBRANCH  15  18
BRANCH  17  20
ATOM     20  O   UNL     1      25.942  -0.552 -30.783  1.00  0.00    -0.504 OA
ATOM     21  H   UNL     1      26.880  -0.398 -30.431  1.00  0.00     0.293 HD
ENDBRANCH  17  20
ENDBRANCH   1  12
BRANCH   2  22
ATOM     22  O   UNL     1      27.112  -5.754 -31.496  1.00  0.00    -0.502 OA
ATOM     23  H   UNL     1      27.503  -4.985 -30.964  1.00  0.00     0.293 HD
ENDBRANCH   2  22
BRANCH   6  24
ATOM     24  O   UNL     1      24.478 -10.002 -30.060  1.00  0.00    -0.507 OA
ATOM     25  H   UNL     1      24.187 -10.959 -29.899  1.00  0.00     0.293 HD
ENDBRANCH   6  24
BRANCH   8  26
ATOM     26  O   UNL     1      19.922  -8.664 -30.923  1.00  0.00    -0.508 OA
ATOM     27  H   UNL     1      19.469  -9.048 -30.103  1.00  0.00     0.293 HD
ENDBRANCH   8  26
TORSDOF 6
ENDMDL
MODEL 3
REMARK VINA RESULT:    -5.007      8.705     11.616
REMARK INTER + INTRA:          -6.119
REMARK INTER:                  -6.073
REMARK INTRA:                  -0.046
REMARK UNBOUND:                -0.088
REMARK SMILES O=c1c(O)c(-c2ccc(O)c(O)c2)oc2cc(O)cc(O)c12
REMARK SMILES IDX 5 1 3 2 2 3 1 4 22 5 20 6 19 7 17 8 16 9 15 10 14 11 6 12
REMARK SMILES IDX 7 13 8 14 9 15 13 16 11 17 10 18 12 20 4 22 21 24 18 26
REMARK H PARENT 10 19 12 21 4 23 21 25 18 27
REMARK Flexibility Score: inf
ROOT
ATOM      1  C   UNL     1      23.145  -4.190 -33.285  1.00  0.00     0.180 A 
ATOM      2  C   UNL     1      23.159  -2.813 -32.992  1.00  0.00     0.208 A 
ATOM      3  C   UNL     1      22.397  -1.943 -33.787  1.00  0.00     0.238 A 
ATOM      4  O   UNL     1      22.410  -0.706 -33.541  1.00  0.00    -0.285 OA
ATOM      5  C   UNL     1      21.621  -2.463 -34.842  1.00  0.00     0.111 A 
ATOM      6  C   UNL     1      20.821  -1.655 -35.687  1.00  0.00     0.134 A 
ATOM      7  C   UNL     1      20.070  -2.250 -36.711  1.00  0.00     0.093 A 
ATOM      8  C   UNL     1      20.099  -3.633 -36.906  1.00  0.00     0.123 A 
ATOM      9  C   UNL     1      20.888  -4.436 -36.075  1.00  0.00     0.094 A 
ATOM     10  C   UNL     1      21.646  -3.862 -35.051  1.00  0.00     0.146 A 
ATOM     11  O   UNL     1      22.389  -4.647 -34.280  1.00  0.00    -0.452 OA
ENDROOT
BRANCH   1  12
ATOM     12  C   UNL     1      23.937  -5.168 -32.505  1.00  0.00     0.025 A 
ATOM     13  C   UNL     1      23.325  -6.255 -31.856  1.00  0.00     0.016 A 
ATOM     14  C   UNL     1      24.091  -7.152 -31.106  1.00  0.00     0.051 A 
ATOM     15  C   UNL     1      25.472  -6.972 -30.981  1.00  0.00     0.157 A 
ATOM     16  C   UNL     1      25.321  -4.978 -32.360  1.00  0.00     0.062 A 
ATOM     17  C   UNL     1      26.092  -5.877 -31.608  1.00  0.00     0.158 A 
BRANCH  15  18
ATOM     18  O   UNL     1      26.210  -7.884 -30.228  1.00  0.00    -0.504 OA
ATOM     19  H   UNL     1      26.674  -7.621 -29.368  1.00  0.00     0.293 HD
ENDBRANCH  15  18
BRANCH  17  20
ATOM     20  O   UNL     1      27.467  -5.687 -31.482  1.00  0.00    -0.504 OA
ATOM     21  H   UNL     1      27.915  -4.836 -31.800  1.00  0.00     0.293 HD
ENDBRANCH  17  20
ENDBRANCH   1  12
BRANCH   2  22
ATOM     22  O   UNL     1      23.898  -2.329 -31.910  1.00  0.00    -0.502 OA
ATOM     23  H   UNL     1      24.384  -2.942 -31.266  1.00  0.00     0.293 HD
ENDBRANCH   2  22
BRANCH   6  24
ATOM     24  O   UNL     1      20.769  -0.271 -35.517  1.00  0.00    -0.507 OA
ATOM     25  H   UNL     1      20.166   0.159 -34.826  1.00  0.00     0.293 HD
ENDBRANCH   6  24
BRANCH   8  26
ATOM     26  O   UNL     1      19.343  -4.199 -37.930  1.00  0.00    -0.508 OA
ATOM     27  H   UNL     1      19.029  -3.652 -38.722  1.00  0.00     0.293 HD
ENDBRANCH   8  26
TORSDOF 6
ENDMDL
MODEL 4
REMARK VINA RESULT:    -4.971      1.278      3.090
REMARK INTER + INTRA:          -6.076
REMARK INTER:                  -5.993
REMARK INTRA:                  -0.083
REMARK UNBOUND:                -0.088
REMARK SMILES O=c1c(O)c(-c2ccc(O)c(O)c2)oc2cc(O)cc(O)c12
REMARK SMILES IDX 5 1 3 2 2 3 1 4 22 5 20 6 19 7 17 8 16 9 15 10 14 11 6 12
REMARK SMILES IDX 7 13 8 14 9 15 13 16 11 17 10 18 12 20 4 22 21 24 18 26
REMARK H PARENT 10 19 12 21 4 23 21 25 18 27
REMARK Flexibility Score: inf
ROOT
ATOM      1  C   UNL     1      21.314  -0.155 -25.726  1.00  0.00     0.180 A 
ATOM      2  C   UNL     1      21.393  -0.971 -24.580  1.00  0.00     0.208 A 
ATOM      3  C   UNL     1      22.620  -1.076 -23.906  1.00  0.00     0.238 A 
ATOM      4  O   UNL     1      22.706  -1.812 -22.886  1.00  0.00    -0.285 OA
ATOM      5  C   UNL     1      23.736  -0.352 -24.374  1.00  0.00     0.111 A 
ATOM      6  C   UNL     1      25.006  -0.399 -23.749  1.00  0.00     0.134 A 
ATOM      7  C   UNL     1      26.066   0.358 -24.271  1.00  0.00     0.093 A 
ATOM      8  C   UNL     1      25.881   1.162 -25.398  1.00  0.00     0.123 A 
ATOM      9  C   UNL     1      24.628   1.211 -26.020  1.00  0.00     0.094 A 
ATOM     10  C   UNL     1      23.560   0.462 -25.517  1.00  0.00     0.146 A 
ATOM     11  O   UNL     1      22.384   0.524 -26.128  1.00  0.00    -0.452 OA
ENDROOT
BRANCH   1  12
ATOM     12  C   UNL     1      20.061  -0.009 -26.502  1.00  0.00     0.025 A 
ATOM     13  C   UNL     1      19.378  -1.129 -27.008  1.00  0.00     0.016 A 
ATOM     14  C   UNL     1      18.210  -0.964 -27.758  1.00  0.00     0.051 A 
ATOM     15  C   UNL     1      17.715   0.316 -28.025  1.00  0.00     0.157 A 
ATOM     16  C   UNL     1      19.573   1.276 -26.790  1.00  0.00     0.062 A 
ATOM     17  C   UNL     1      18.401   1.443 -27.542  1.00  0.00     0.158 A 
BRANCH  15  18
ATOM     18  O   UNL     1      16.547   0.449 -28.774  1.00  0.00    -0.504 OA
ATOM     19  H   UNL     1      15.745  -0.153 -28.631  1.00  0.00     0.293 HD
ENDBRANCH  15  18
BRANCH  17  20
ATOM     20  O   UNL     1      17.917   2.723 -27.810  1.00  0.00    -0.504 OA
ATOM     21  H   UNL     1      17.485   3.288 -27.090  1.00  0.00     0.293 HD
ENDBRANCH  17  20
ENDBRANCH   1  12
BRANCH   2  22
ATOM     22  O   UNL     1      20.260  -1.639 -24.109  1.00  0.00    -0.502 OA
ATOM     23  H   UNL     1      19.760  -2.320 -24.669  1.00  0.00     0.293 HD
ENDBRANCH   2  22
BRANCH   6  24
ATOM     24  O   UNL     1      25.223  -1.190 -22.621  1.00  0.00    -0.507 OA
ATOM     25  H   UNL     1      25.983  -1.858 -22.577  1.00  0.00     0.293 HD
ENDBRANCH   6  24
BRANCH   8  26
ATOM     26  O   UNL     1      26.949   1.905 -25.896  1.00  0.00    -0.508 OA
ATOM     27  H   UNL     1      27.816   1.996 -25.381  1.00  0.00     0.293 HD
ENDBRANCH   8  26
TORSDOF 6
ENDMDL
MODEL 5
REMARK VINA RESULT:    -4.907      1.409      3.268
REMARK INTER + INTRA:          -5.999
REMARK INTER:                  -5.813
REMARK INTRA:                  -0.185
REMARK UNBOUND:                -0.088
REMARK SMILES O=c1c(O)c(-c2ccc(O)c(O)c2)oc2cc(O)cc(O)c12
REMARK SMILES IDX 5 1 3 2 2 3 1 4 22 5 20 6 19 7 17 8 16 9 15 10 14 11 6 12
REMARK SMILES IDX 7 13 8 14 9 15 13 16 11 17 10 18 12 20 4 22 21 24 18 26
REMARK H PARENT 10 19 12 21 4 23 21 25 18 27
REMARK Flexibility Score: inf
ROOT
ATOM      1  C   UNL     1      21.372  -0.793 -24.648  1.00  0.00     0.180 A 
ATOM      2  C   UNL     1      21.075  -1.751 -23.658  1.00  0.00     0.208 A 
ATOM      3  C   UNL     1      22.112  -2.223 -22.839  1.00  0.00     0.238 A 
ATOM      4  O   UNL     1      21.861  -3.089 -21.957  1.00  0.00    -0.285 OA
ATOM      5  C   UNL     1      23.418  -1.719 -23.008  1.00  0.00     0.111 A 
ATOM      6  C   UNL     1      24.518  -2.140 -22.221  1.00  0.00     0.134 A 
ATOM      7  C   UNL     1      25.786  -1.583 -22.444  1.00  0.00     0.093 A 
ATOM      8  C   UNL     1      25.976  -0.615 -23.434  1.00  0.00     0.123 A 
ATOM      9  C   UNL     1      24.893  -0.197 -24.214  1.00  0.00     0.094 A 
ATOM     10  C   UNL     1      23.622  -0.742 -24.009  1.00  0.00     0.146 A 
ATOM     11  O   UNL     1      22.613  -0.330 -24.767  1.00  0.00    -0.452 OA
ENDROOT
BRANCH   1  12
ATOM     12  C   UNL     1      20.337  -0.261 -25.563  1.00  0.00     0.025 A 
ATOM     13  C   UNL     1      19.902   1.074 -25.478  1.00  0.00     0.016 A 
ATOM     14  C   UNL     1      18.906   1.547 -26.338  1.00  0.00     0.051 A 
ATOM     15  C   UNL     1      18.321   0.696 -27.281  1.00  0.00     0.157 A 
ATOM     16  C   UNL     1      19.732  -1.118 -26.496  1.00  0.00     0.062 A 
ATOM     17  C   UNL     1      18.733  -0.644 -27.360  1.00  0.00     0.158 A 
BRANCH  15  18
ATOM     18  O   UNL     1      17.332   1.198 -28.126  1.00  0.00    -0.504 OA
ATOM     19  H   UNL     1      16.460   0.708 -28.282  1.00  0.00     0.293 HD
ENDBRANCH  15  18
BRANCH  17  20
ATOM     20  O   UNL     1      18.150  -1.501 -28.293  1.00  0.00    -0.504 OA
ATOM     21  H   UNL     1      18.595  -1.699 -29.181  1.00  0.00     0.293 HD
ENDBRANCH  17  20
ENDBRANCH   1  12
BRANCH   2  22
ATOM     22  O   UNL     1      19.764  -2.198 -23.480  1.00  0.00    -0.502 OA
ATOM     23  H   UNL     1      19.073  -1.662 -22.968  1.00  0.00     0.293 HD
ENDBRANCH   2  22
BRANCH   6  24
ATOM     24  O   UNL     1      24.361  -3.103 -21.223  1.00  0.00    -0.507 OA
ATOM     25  H   UNL     1      23.790  -3.928 -21.365  1.00  0.00     0.293 HD
ENDBRANCH   6  24
BRANCH   8  26
ATOM     26  O   UNL     1      27.245  -0.077 -23.635  1.00  0.00    -0.508 OA
ATOM     27  H   UNL     1      28.024  -0.653 -23.929  1.00  0.00     0.293 HD
ENDBRANCH   8  26
TORSDOF 6
ENDMDL
MODEL 6
REMARK VINA RESULT:    -4.896      8.820     12.227
REMARK INTER + INTRA:          -5.985
REMARK INTER:                  -5.763
REMARK INTRA:                  -0.222
REMARK UNBOUND:                -0.088
REMARK SMILES O=c1c(O)c(-c2ccc(O)c(O)c2)oc2cc(O)cc(O)c12
REMARK SMILES IDX 5 1 3 2 2 3 1 4 22 5 20 6 19 7 17 8 16 9 15 10 14 11 6 12
REMARK SMILES IDX 7 13 8 14 9 15 13 16 11 17 10 18 12 20 4 22 21 24 18 26
REMARK H PARENT 10 19 12 21 4 23 21 25 18 27
REMARK Flexibility Score: inf
ROOT
ATOM      1  C   UNL     1      22.106  -3.399 -34.600  1.00  0.00     0.180 A 
ATOM      2  C   UNL     1      21.625  -4.580 -34.002  1.00  0.00     0.208 A 
ATOM      3  C   UNL     1      20.528  -5.236 -34.584  1.00  0.00     0.238 A 
ATOM      4  O   UNL     1      20.081  -6.289 -34.052  1.00  0.00    -0.285 OA
ATOM      5  C   UNL     1      19.947  -4.715 -35.758  1.00  0.00     0.111 A 
ATOM      6  C   UNL     1      18.843  -5.318 -36.409  1.00  0.00     0.134 A 
ATOM      7  C   UNL     1      18.327  -4.743 -37.580  1.00  0.00     0.093 A 
ATOM      8  C   UNL     1      18.892  -3.582 -38.113  1.00  0.00     0.123 A 
ATOM      9  C   UNL     1      19.982  -2.982 -37.473  1.00  0.00     0.094 A 
ATOM     10  C   UNL     1      20.509  -3.538 -36.304  1.00  0.00     0.146 A 
ATOM     11  O   UNL     1      21.541  -2.945 -35.716  1.00  0.00    -0.452 OA
ENDROOT
BRANCH   1  12
ATOM     12  C   UNL     1      23.245  -2.640 -34.035  1.00  0.00     0.025 A 
ATOM     13  C   UNL     1      24.556  -3.146 -34.080  1.00  0.00     0.016 A 
ATOM     14  C   UNL     1      25.611  -2.422 -33.519  1.00  0.00     0.051 A 
ATOM     15  C   UNL     1      25.375  -1.192 -32.895  1.00  0.00     0.157 A 
ATOM     16  C   UNL     1      23.007  -1.416 -33.389  1.00  0.00     0.062 A 
ATOM     17  C   UNL     1      24.066  -0.687 -32.826  1.00  0.00     0.158 A 
BRANCH  15  18
ATOM     18  O   UNL     1      26.448  -0.492 -32.347  1.00  0.00    -0.504 OA
ATOM     19  H   UNL     1      27.408  -0.706 -32.586  1.00  0.00     0.293 HD
ENDBRANCH  15  18
BRANCH  17  20
ATOM     20  O   UNL     1      23.820   0.534 -32.200  1.00  0.00    -0.504 OA
ATOM     21  H   UNL     1      24.575   1.109 -31.846  1.00  0.00     0.293 HD
ENDBRANCH  17  20
ENDBRANCH   1  12
BRANCH   2  22
ATOM     22  O   UNL     1      22.249  -5.102 -32.867  1.00  0.00    -0.502 OA
ATOM     23  H   UNL     1      21.872  -5.891 -32.355  1.00  0.00     0.293 HD
ENDBRANCH   2  22
BRANCH   6  24
ATOM     24  O   UNL     1      18.257  -6.479 -35.903  1.00  0.00    -0.507 OA
ATOM     25  H   UNL     1      17.783  -7.142 -36.505  1.00  0.00     0.293 HD
ENDBRANCH   6  24
BRANCH   8  26
ATOM     26  O   UNL     1      18.362  -3.031 -39.277  1.00  0.00    -0.508 OA
ATOM     27  H   UNL     1      17.487  -3.359 -39.668  1.00  0.00     0.293 HD
ENDBRANCH   8  26
TORSDOF 6
ENDMDL
MODEL 7
REMARK VINA RESULT:    -4.858      1.561      7.192
REMARK INTER + INTRA:          -5.940
REMARK INTER:                  -5.794
REMARK INTRA:                  -0.146
REMARK UNBOUND:                -0.088
REMARK SMILES O=c1c(O)c(-c2ccc(O)c(O)c2)oc2cc(O)cc(O)c12
REMARK SMILES IDX 5 1 3 2 2 3 1 4 22 5 20 6 19 7 17 8 16 9 15 10 14 11 6 12
REMARK SMILES IDX 7 13 8 14 9 15 13 16 11 17 10 18 12 20 4 22 21 24 18 26
REMARK H PARENT 10 19 12 21 4 23 21 25 18 27
REMARK Flexibility Score: inf
ROOT
ATOM      1  C   UNL     1      21.333  -1.363 -24.924  1.00  0.00     0.180 A 
ATOM      2  C   UNL     1      20.942  -2.543 -25.587  1.00  0.00     0.208 A 
ATOM      3  C   UNL     1      19.966  -2.464 -26.592  1.00  0.00     0.238 A 
ATOM      4  O   UNL     1      19.600  -3.515 -27.185  1.00  0.00    -0.285 OA
ATOM      5  C   UNL     1      19.414  -1.211 -26.931  1.00  0.00     0.111 A 
ATOM      6  C   UNL     1      18.430  -1.046 -27.935  1.00  0.00     0.134 A 
ATOM      7  C   UNL     1      17.936   0.236 -28.220  1.00  0.00     0.093 A 
ATOM      8  C   UNL     1      18.407   1.353 -27.525  1.00  0.00     0.123 A 
ATOM      9  C   UNL     1      19.379   1.194 -26.532  1.00  0.00     0.094 A 
ATOM     10  C   UNL     1      19.882  -0.075 -26.231  1.00  0.00     0.146 A 
ATOM     11  O   UNL     1      20.801  -0.197 -25.281  1.00  0.00    -0.452 OA
ENDROOT
BRANCH   1  12
ATOM     12  C   UNL     1      22.341  -1.367 -23.840  1.00  0.00     0.025 A 
ATOM     13  C   UNL     1      23.583  -0.725 -23.992  1.00  0.00     0.016 A 
ATOM     14  C   UNL     1      24.528  -0.762 -22.964  1.00  0.00     0.051 A 
ATOM     15  C   UNL     1      24.257  -1.451 -21.777  1.00  0.00     0.157 A 
ATOM     16  C   UNL     1      22.080  -2.075 -22.655  1.00  0.00     0.062 A 
ATOM     17  C   UNL     1      23.028  -2.113 -21.622  1.00  0.00     0.158 A 
BRANCH  15  18
ATOM     18  O   UNL     1      25.219  -1.469 -20.768  1.00  0.00    -0.504 OA
ATOM     19  H   UNL     1      26.082  -1.990 -20.857  1.00  0.00     0.293 HD
ENDBRANCH  15  18
BRANCH  17  20
ATOM     20  O   UNL     1      22.753  -2.808 -20.444  1.00  0.00    -0.504 OA
ATOM     21  H   UNL     1      21.833  -2.788 -20.020  1.00  0.00     0.293 HD
ENDBRANCH  17  20
ENDBRANCH   1  12
BRANCH   2  22
ATOM     22  O   UNL     1      21.540  -3.764 -25.266  1.00  0.00    -0.502 OA
ATOM     23  H   UNL     1      21.042  -4.501 -24.782  1.00  0.00     0.293 HD
ENDBRANCH   2  22
BRANCH   6  24
ATOM     24  O   UNL     1      17.939  -2.140 -28.649  1.00  0.00    -0.507 OA
ATOM     25  H   UNL     1      17.075  -2.601 -28.389  1.00  0.00     0.293 HD
ENDBRANCH   6  24
BRANCH   8  26
ATOM     26  O   UNL     1      17.902   2.615 -27.828  1.00  0.00    -0.508 OA
ATOM     27  H   UNL     1      16.912   2.767 -27.979  1.00  0.00     0.293 HD
ENDBRANCH   8  26
TORSDOF 6
ENDMDL
MODEL 8
REMARK VINA RESULT:    -4.778      1.602      6.553
REMARK INTER + INTRA:          -5.843
REMARK INTER:                  -5.564
REMARK INTRA:                  -0.279
REMARK UNBOUND:                -0.088
REMARK SMILES O=c1c(O)c(-c2ccc(O)c(O)c2)oc2cc(O)cc(O)c12
REMARK SMILES IDX 5 1 3 2 2 3 1 4 22 5 20 6 19 7 17 8 16 9 15 10 14 11 6 12
REMARK SMILES IDX 7 13 8 14 9 15 13 16 11 17 10 18 12 20 4 22 21 24 18 26
REMARK H PARENT 10 19 12 21 4 23 21 25 18 27
REMARK Flexibility Score: inf
ROOT
ATOM      1  C   UNL     1      21.792  -0.805 -24.575  1.00  0.00     0.180 A 
ATOM      2  C   UNL     1      22.802   0.098 -24.962  1.00  0.00     0.208 A 
ATOM      3  C   UNL     1      22.516   1.051 -25.953  1.00  0.00     0.238 A 
ATOM      4  O   UNL     1      23.415   1.857 -26.316  1.00  0.00    -0.285 OA
ATOM      5  C   UNL     1      21.227   1.099 -26.522  1.00  0.00     0.111 A 
ATOM      6  C   UNL     1      20.857   2.031 -27.522  1.00  0.00     0.134 A 
ATOM      7  C   UNL     1      19.551   2.020 -28.033  1.00  0.00     0.093 A 
ATOM      8  C   UNL     1      18.609   1.102 -27.564  1.00  0.00     0.123 A 
ATOM      9  C   UNL     1      18.970   0.178 -26.578  1.00  0.00     0.094 A 
ATOM     10  C   UNL     1      20.267   0.171 -26.057  1.00  0.00     0.146 A 
ATOM     11  O   UNL     1      20.584  -0.719 -25.124  1.00  0.00    -0.452 OA
ENDROOT
BRANCH   1  12
ATOM     12  C   UNL     1      22.022  -1.850 -23.552  1.00  0.00     0.025 A 
ATOM     13  C   UNL     1      22.046  -1.540 -22.181  1.00  0.00     0.016 A 
ATOM     14  C   UNL     1      22.288  -2.539 -21.235  1.00  0.00     0.051 A 
ATOM     15  C   UNL     1      22.523  -3.857 -21.641  1.00  0.00     0.157 A 
ATOM     16  C   UNL     1      22.280  -3.169 -23.958  1.00  0.00     0.062 A 
ATOM     17  C   UNL     1      22.523  -4.174 -23.010  1.00  0.00     0.158 A 
BRANCH  15  18
ATOM     18  O   UNL     1      22.760  -4.833 -20.674  1.00  0.00    -0.504 OA
ATOM     19  H   UNL     1      22.652  -4.647 -19.685  1.00  0.00     0.293 HD
ENDBRANCH  15  18
BRANCH  17  20
ATOM     20  O   UNL     1      22.764  -5.484 -23.423  1.00  0.00    -0.504 OA
ATOM     21  H   UNL     1      23.385  -6.096 -22.908  1.00  0.00     0.293 HD
ENDBRANCH  17  20
ENDBRANCH   1  12
BRANCH   2  22
ATOM     22  O   UNL     1      24.056   0.061 -24.347  1.00  0.00    -0.502 OA
ATOM     23  H   UNL     1      24.915  -0.047 -24.873  1.00  0.00     0.293 HD
ENDBRANCH   2  22
BRANCH   6  24
ATOM     24  O   UNL     1      21.774   2.963 -28.011  1.00  0.00    -0.507 OA
ATOM     25  H   UNL     1      22.740   2.969 -27.707  1.00  0.00     0.293 HD
ENDBRANCH   6  24
BRANCH   8  26
ATOM     26  O   UNL     1      17.318   1.113 -28.087  1.00  0.00    -0.508 OA
ATOM     27  H   UNL     1      16.562   1.601 -27.623  1.00  0.00     0.293 HD
ENDBRANCH   8  26
TORSDOF 6
ENDMDL
MODEL 9
REMARK VINA RESULT:    -4.758     15.373     17.453
REMARK INTER + INTRA:          -5.819
REMARK INTER:                  -5.495
REMARK INTRA:                  -0.324
REMARK UNBOUND:                -0.088
REMARK SMILES O=c1c(O)c(-c2ccc(O)c(O)c2)oc2cc(O)cc(O)c12
REMARK SMILES IDX 5 1 3 2 2 3 1 4 22 5 20 6 19 7 17 8 16 9 15 10 14 11 6 12
REMARK SMILES IDX 7 13 8 14 9 15 13 16 11 17 10 18 12 20 4 22 21 24 18 26
REMARK H PARENT 10 19 12 21 4 23 21 25 18 27
REMARK Flexibility Score: inf
ROOT
ATOM      1  C   UNL     1      16.396 -10.299 -37.902  1.00  0.00     0.180 A 
ATOM      2  C   UNL     1      15.602 -11.278 -38.531  1.00  0.00     0.208 A 
ATOM      3  C   UNL     1      16.036 -12.613 -38.519  1.00  0.00     0.238 A 
ATOM      4  O   UNL     1      15.340 -13.497 -39.088  1.00  0.00    -0.285 OA
ATOM      5  C   UNL     1      17.239 -12.949 -37.864  1.00  0.00     0.111 A 
ATOM      6  C   UNL     1      17.744 -14.271 -37.803  1.00  0.00     0.134 A 
ATOM      7  C   UNL     1      18.945 -14.525 -37.124  1.00  0.00     0.093 A 
ATOM      8  C   UNL     1      19.648 -13.489 -36.506  1.00  0.00     0.123 A 
ATOM      9  C   UNL     1      19.155 -12.182 -36.564  1.00  0.00     0.094 A 
ATOM     10  C   UNL     1      17.961 -11.907 -37.238  1.00  0.00     0.146 A 
ATOM     11  O   UNL     1      17.517 -10.656 -37.282  1.00  0.00    -0.452 OA
ENDROOT
BRANCH   1  12
ATOM     12  C   UNL     1      16.016  -8.868 -37.889  1.00  0.00     0.025 A 
ATOM     13  C   UNL     1      15.226  -8.330 -36.858  1.00  0.00     0.016 A 
ATOM     14  C   UNL     1      14.860  -6.982 -36.879  1.00  0.00     0.051 A 
ATOM     15  C   UNL     1      15.264  -6.155 -37.932  1.00  0.00     0.157 A 
ATOM     16  C   UNL     1      16.402  -8.041 -38.956  1.00  0.00     0.062 A 
ATOM     17  C   UNL     1      16.036  -6.686 -38.979  1.00  0.00     0.158 A 
BRANCH  15  18
ATOM     18  O   UNL     1      14.885  -4.813 -37.925  1.00  0.00    -0.504 OA
ATOM     19  H   UNL     1      15.549  -4.068 -37.756  1.00  0.00     0.293 HD
ENDBRANCH  15  18
BRANCH  17  20
ATOM     20  O   UNL     1      16.436  -5.871 -40.036  1.00  0.00    -0.504 OA
ATOM     21  H   UNL     1      15.775  -5.288 -40.535  1.00  0.00     0.293 HD
ENDBRANCH  17  20
ENDBRANCH   1  12
BRANCH   2  22
ATOM     22  O   UNL     1      14.390 -10.926 -39.130  1.00  0.00    -0.502 OA
ATOM     23  H   UNL     1      13.890 -10.080 -38.885  1.00  0.00     0.293 HD
ENDBRANCH   2  22
BRANCH   6  24
ATOM     24  O   UNL     1      17.064 -15.328 -38.409  1.00  0.00    -0.507 OA
ATOM     25  H   UNL     1      17.045 -15.442 -39.416  1.00  0.00     0.293 HD
ENDBRANCH   6  24
BRANCH   8  26
ATOM     26  O   UNL     1      20.838 -13.769 -35.837  1.00  0.00    -0.508 OA
ATOM     27  H   UNL     1      21.491 -13.036 -35.590  1.00  0.00     0.293 HD
ENDBRANCH   8  26
TORSDOF 6
ENDMDL
