MODEL 1
REMARK VINA RESULT:    -4.288      0.000      0.000
REMARK INTER + INTRA:          -4.737
REMARK INTER:                  -4.539
REMARK INTRA:                  -0.198
REMARK UNBOUND:                -0.198
REMARK SMILES CC1=CC[C@@H](C(C)C)C=C1
REMARK SMILES IDX 1 1 2 2 3 3 4 4 5 5 9 6 10 7 6 8 7 9 8 10
REMARK H PARENT
REMARK Flexibility Score: inf
ROOT
ATOM      1  C   UNL     1     162.121 168.655 199.306  1.00  0.00     0.044 C 
ATOM      2  C   UNL     1     163.596 168.837 199.503  1.00  0.00    -0.055 C 
ATOM      3  C   UNL     1     164.071 169.309 200.665  1.00  0.00    -0.023 C 
ATOM      4  C   UNL     1     165.555 169.434 200.893  1.00  0.00     0.035 C 
ATOM      5  C   UNL     1     166.289 169.844 199.591  1.00  0.00     0.018 C 
ATOM      6  C   UNL     1     165.803 168.967 198.448  1.00  0.00    -0.023 C 
ATOM      7  C   UNL     1     164.531 168.557 198.392  1.00  0.00    -0.001 C 
ENDROOT
BRANCH   5   8
ATOM      8  C   UNL     1     167.844 169.795 199.725  1.00  0.00    -0.010 C 
ATOM      9  C   UNL     1     168.297 168.556 200.522  1.00  0.00     0.008 C 
ATOM     10  C   UNL     1     168.555 169.783 198.359  1.00  0.00     0.008 C 
ENDBRANCH   5   8
TORSDOF 1
ENDMDL
MODEL 2
REMARK VINA RESULT:    -4.276      5.972      7.617
REMARK INTER + INTRA:          -4.723
REMARK INTER:                  -4.526
REMARK INTRA:                  -0.198
REMARK UNBOUND:                -0.198
REMARK SMILES CC1=CC[C@@H](C(C)C)C=C1
REMARK SMILES IDX 1 1 2 2 3 3 4 4 5 5 9 6 10 7 6 8 7 9 8 10
REMARK H PARENT
REMARK Flexibility Score: inf
ROOT
ATOM      1  C   UNL     1     169.849 163.299 199.285  1.00  0.00     0.044 C 
ATOM      2  C   UNL     1     168.376 163.139 199.514  1.00  0.00    -0.055 C 
ATOM      3  C   UNL     1     167.921 162.641 200.673  1.00  0.00    -0.023 C 
ATOM      4  C   UNL     1     166.441 162.536 200.934  1.00  0.00     0.035 C 
ATOM      5  C   UNL     1     165.667 162.178 199.638  1.00  0.00     0.018 C 
ATOM      6  C   UNL     1     166.142 163.079 198.510  1.00  0.00    -0.023 C 
ATOM      7  C   UNL     1     167.420 163.468 198.434  1.00  0.00    -0.001 C 
ENDROOT
BRANCH   5   8
ATOM      8  C   UNL     1     164.117 162.251 199.813  1.00  0.00    -0.010 C 
ATOM      9  C   UNL     1     163.706 163.486 200.636  1.00  0.00     0.008 C 
ATOM     10  C   UNL     1     163.373 162.292 198.466  1.00  0.00     0.008 C 
ENDBRANCH   5   8
TORSDOF 1
ENDMDL
MODEL 3
REMARK VINA RESULT:    -4.266      1.066      4.458
REMARK INTER + INTRA:          -4.713
REMARK INTER:                  -4.513
REMARK INTRA:                  -0.200
REMARK UNBOUND:                -0.198
REMARK SMILES CC1=CC[C@@H](C(C)C)C=C1
REMARK SMILES IDX 1 1 2 2 3 3 4 4 5 5 9 6 10 7 6 8 7 9 8 10
REMARK H PARENT
REMARK Flexibility Score: inf
ROOT
ATOM      1  C   UNL     1     169.916 168.507 198.090  1.00  0.00     0.044 C 
ATOM      2  C   UNL     1     168.511 168.792 198.531  1.00  0.00    -0.055 C 
ATOM      3  C   UNL     1     167.586 169.176 197.640  1.00  0.00    -0.023 C 
ATOM      4  C   UNL     1     166.159 169.402 198.065  1.00  0.00     0.035 C 
ATOM      5  C   UNL     1     166.088 170.012 199.489  1.00  0.00     0.018 C 
ATOM      6  C   UNL     1     167.003 169.225 200.413  1.00  0.00    -0.023 C 
ATOM      7  C   UNL     1     168.157 168.716 199.965  1.00  0.00    -0.001 C 
ENDROOT
BRANCH   5   8
ATOM      8  C   UNL     1     164.634 170.082 200.052  1.00  0.00    -0.010 C 
ATOM      9  C   UNL     1     163.657 169.269 199.180  1.00  0.00     0.008 C 
ATOM     10  C   UNL     1     164.535 169.571 201.501  1.00  0.00     0.008 C 
ENDBRANCH   5   8
TORSDOF 1
ENDMDL
MODEL 4
REMARK VINA RESULT:    -4.258      6.294      6.849
REMARK INTER + INTRA:          -4.704
REMARK INTER:                  -4.504
REMARK INTRA:                  -0.200
REMARK UNBOUND:                -0.198
REMARK SMILES CC1=CC[C@@H](C(C)C)C=C1
REMARK SMILES IDX 1 1 2 2 3 3 4 4 5 5 9 6 10 7 6 8 7 9 8 10
REMARK H PARENT
REMARK Flexibility Score: inf
ROOT
ATOM      1  C   UNL     1     162.032 163.495 198.060  1.00  0.00     0.044 C 
ATOM      2  C   UNL     1     163.436 163.203 198.496  1.00  0.00    -0.055 C 
ATOM      3  C   UNL     1     164.370 162.866 197.593  1.00  0.00    -0.023 C 
ATOM      4  C   UNL     1     165.797 162.634 198.016  1.00  0.00     0.035 C 
ATOM      5  C   UNL     1     165.865 161.963 199.412  1.00  0.00     0.018 C 
ATOM      6  C   UNL     1     164.939 162.701 200.365  1.00  0.00    -0.023 C 
ATOM      7  C   UNL     1     163.783 163.220 199.934  1.00  0.00    -0.001 C 
ENDROOT
BRANCH   5   8
ATOM      8  C   UNL     1     167.318 161.880 199.979  1.00  0.00    -0.010 C 
ATOM      9  C   UNL     1     168.294 162.728 199.140  1.00  0.00     0.008 C 
ATOM     10  C   UNL     1     167.407 162.343 201.445  1.00  0.00     0.008 C 
ENDBRANCH   5   8
TORSDOF 1
ENDMDL
MODEL 5
REMARK VINA RESULT:    -4.247      6.359      7.602
REMARK INTER + INTRA:          -4.693
REMARK INTER:                  -4.494
REMARK INTRA:                  -0.199
REMARK UNBOUND:                -0.198
REMARK SMILES CC1=CC[C@@H](C(C)C)C=C1
REMARK SMILES IDX 1 1 2 2 3 3 4 4 5 5 9 6 10 7 6 8 7 9 8 10
REMARK H PARENT
REMARK Flexibility Score: inf
ROOT
ATOM      1  C   UNL     1     167.479 162.451 202.725  1.00  0.00     0.044 C 
ATOM      2  C   UNL     1     166.506 162.582 201.590  1.00  0.00    -0.055 C 
ATOM      3  C   UNL     1     165.268 163.049 201.810  1.00  0.00    -0.023 C 
ATOM      4  C   UNL     1     164.307 163.242 200.667  1.00  0.00     0.035 C 
ATOM      5  C   UNL     1     164.485 162.139 199.592  1.00  0.00     0.018 C 
ATOM      6  C   UNL     1     165.964 161.984 199.277  1.00  0.00    -0.023 C 
ATOM      7  C   UNL     1     166.888 162.135 200.233  1.00  0.00    -0.001 C 
ENDROOT
BRANCH   5   8
ATOM      8  C   UNL     1     163.652 162.406 198.299  1.00  0.00    -0.010 C 
ATOM      9  C   UNL     1     162.807 163.687 198.434  1.00  0.00     0.008 C 
ATOM     10  C   UNL     1     164.534 162.534 197.043  1.00  0.00     0.008 C 
ENDBRANCH   5   8
TORSDOF 1
ENDMDL
MODEL 6
REMARK VINA RESULT:    -4.244      1.596      2.482
REMARK INTER + INTRA:          -4.690
REMARK INTER:                  -4.491
REMARK INTRA:                  -0.200
REMARK UNBOUND:                -0.198
REMARK SMILES CC1=CC[C@@H](C(C)C)C=C1
REMARK SMILES IDX 1 1 2 2 3 3 4 4 5 5 9 6 10 7 6 8 7 9 8 10
REMARK H PARENT
REMARK Flexibility Score: inf
ROOT
ATOM      1  C   UNL     1     164.587 169.460 202.806  1.00  0.00     0.044 C 
ATOM      2  C   UNL     1     165.528 169.373 201.642  1.00  0.00    -0.055 C 
ATOM      3  C   UNL     1     166.776 168.913 201.813  1.00  0.00    -0.023 C 
ATOM      4  C   UNL     1     167.706 168.764 200.637  1.00  0.00     0.035 C 
ATOM      5  C   UNL     1     167.488 169.898 199.602  1.00  0.00     0.018 C 
ATOM      6  C   UNL     1     165.999 170.047 199.334  1.00  0.00    -0.023 C 
ATOM      7  C   UNL     1     165.103 169.858 200.311  1.00  0.00    -0.001 C 
ENDROOT
BRANCH   5   8
ATOM      8  C   UNL     1     168.286 169.678 198.278  1.00  0.00    -0.010 C 
ATOM      9  C   UNL     1     169.102 168.372 198.328  1.00  0.00     0.008 C 
ATOM     10  C   UNL     1     167.374 169.636 197.038  1.00  0.00     0.008 C 
ENDBRANCH   5   8
TORSDOF 1
ENDMDL
MODEL 7
REMARK VINA RESULT:    -4.202      1.597      4.233
REMARK INTER + INTRA:          -4.646
REMARK INTER:                  -4.491
REMARK INTRA:                  -0.155
REMARK UNBOUND:                -0.198
REMARK SMILES CC1=CC[C@@H](C(C)C)C=C1
REMARK SMILES IDX 1 1 2 2 3 3 4 4 5 5 9 6 10 7 6 8 7 9 8 10
REMARK H PARENT
REMARK Flexibility Score: inf
ROOT
ATOM      1  C   UNL     1     168.615 169.622 198.520  1.00  0.00     0.044 C 
ATOM      2  C   UNL     1     167.530 169.601 199.555  1.00  0.00    -0.055 C 
ATOM      3  C   UNL     1     167.743 169.024 200.747  1.00  0.00    -0.023 C 
ATOM      4  C   UNL     1     166.681 169.054 201.814  1.00  0.00     0.035 C 
ATOM      5  C   UNL     1     165.263 168.940 201.197  1.00  0.00     0.018 C 
ATOM      6  C   UNL     1     165.148 169.910 200.033  1.00  0.00    -0.023 C 
ATOM      7  C   UNL     1     166.197 170.160 199.242  1.00  0.00    -0.001 C 
ENDROOT
BRANCH   5   8
ATOM      8  C   UNL     1     164.123 169.164 202.241  1.00  0.00    -0.010 C 
ATOM      9  C   UNL     1     163.701 167.837 202.900  1.00  0.00     0.008 C 
ATOM     10  C   UNL     1     164.524 170.154 203.351  1.00  0.00     0.008 C 
ENDBRANCH   5   8
TORSDOF 1
ENDMDL
MODEL 8
REMARK VINA RESULT:    -4.201      6.337      6.951
REMARK INTER + INTRA:          -4.645
REMARK INTER:                  -4.491
REMARK INTRA:                  -0.154
REMARK UNBOUND:                -0.198
REMARK SMILES CC1=CC[C@@H](C(C)C)C=C1
REMARK SMILES IDX 1 1 2 2 3 3 4 4 5 5 9 6 10 7 6 8 7 9 8 10
REMARK H PARENT
REMARK Flexibility Score: inf
ROOT
ATOM      1  C   UNL     1     163.384 162.382 198.517  1.00  0.00     0.044 C 
ATOM      2  C   UNL     1     164.466 162.401 199.555  1.00  0.00    -0.055 C 
ATOM      3  C   UNL     1     164.251 162.974 200.748  1.00  0.00    -0.023 C 
ATOM      4  C   UNL     1     165.311 162.941 201.817  1.00  0.00     0.035 C 
ATOM      5  C   UNL     1     166.730 163.059 201.203  1.00  0.00     0.018 C 
ATOM      6  C   UNL     1     166.849 162.092 200.036  1.00  0.00    -0.023 C 
ATOM      7  C   UNL     1     165.800 161.844 199.242  1.00  0.00    -0.001 C 
ENDROOT
BRANCH   5   8
ATOM      8  C   UNL     1     167.868 162.832 202.248  1.00  0.00    -0.010 C 
ATOM      9  C   UNL     1     168.298 164.160 202.902  1.00  0.00     0.008 C 
ATOM     10  C   UNL     1     167.462 161.849 203.361  1.00  0.00     0.008 C 
ENDBRANCH   5   8
TORSDOF 1
ENDMDL
MODEL 9
REMARK VINA RESULT:    -4.189      1.886      4.721
REMARK INTER + INTRA:          -4.631
REMARK INTER:                  -4.492
REMARK INTRA:                  -0.139
REMARK UNBOUND:                -0.198
REMARK SMILES CC1=CC[C@@H](C(C)C)C=C1
REMARK SMILES IDX 1 1 2 2 3 3 4 4 5 5 9 6 10 7 6 8 7 9 8 10
REMARK H PARENT
REMARK Flexibility Score: inf
ROOT
ATOM      1  C   UNL     1     169.712 167.069 203.732  1.00  0.00     0.044 C 
ATOM      2  C   UNL     1     168.952 167.524 202.522  1.00  0.00    -0.055 C 
ATOM      3  C   UNL     1     169.377 167.198 201.293  1.00  0.00    -0.023 C 
ATOM      4  C   UNL     1     168.584 167.597 200.076  1.00  0.00     0.035 C 
ATOM      5  C   UNL     1     167.924 168.987 200.268  1.00  0.00     0.018 C 
ATOM      6  C   UNL     1     167.239 169.029 201.625  1.00  0.00    -0.023 C 
ATOM      7  C   UNL     1     167.764 168.392 202.678  1.00  0.00    -0.001 C 
ENDROOT
BRANCH   5   8
ATOM      8  C   UNL     1     166.934 169.357 199.119  1.00  0.00    -0.010 C 
ATOM      9  C   UNL     1     165.644 169.990 199.675  1.00  0.00     0.008 C 
ATOM     10  C   UNL     1     167.552 170.330 198.097  1.00  0.00     0.008 C 
ENDBRANCH   5   8
TORSDOF 1
ENDMDL
