MODEL 1
REMARK VINA RESULT:    -4.438      0.000      0.000
REMARK INTER + INTRA:          -9.749
REMARK INTER:                  -7.811
REMARK INTRA:                  -1.938
REMARK UNBOUND:                -1.938
REMARK SMILES CCCCCCCCCCCCCCC(=O)[O-]
REMARK SMILES IDX 9 1 10 2 11 3 12 4 13 5 14 6 15 7 16 8 17 9 8 10 7 11 6 12
REMARK SMILES IDX 5 13 4 14 3 15 2 16 1 17
REMARK H PARENT
REMARK Flexibility Score: inf
ROOT
ATOM      1  C   UNL     1      11.860   0.420   3.740  1.00  0.00     0.000 C 
ENDROOT
BRANCH   1   2
ATOM      2  C   UNL     1      10.471   0.172   3.136  1.00  0.00     0.000 C 
BRANCH   2   3
ATOM      3  C   UNL     1      10.441   0.558   1.649  1.00  0.00     0.000 C 
BRANCH   3   4
ATOM      4  C   UNL     1      11.826   0.487   0.981  1.00  0.00     0.000 C 
BRANCH   4   5
ATOM      5  C   UNL     1      11.989  -0.640  -0.056  1.00  0.00     0.006 C 
BRANCH   5   6
ATOM      6  C   UNL     1      12.236  -2.010   0.586  1.00  0.00     0.053 C 
BRANCH   6   7
ATOM      7  C   UNL     1      11.050  -2.901   0.389  1.00  0.00     0.041 C 
ATOM      8  O   UNL     1      11.091  -3.833  -0.457  1.00  0.00    -0.550 OA
ATOM      9  O   UNL     1       9.882  -2.671   1.105  1.00  0.00    -0.550 OA
ENDBRANCH   6   7
ENDBRANCH   5   6
ENDBRANCH   4   5
ENDBRANCH   3   4
ENDBRANCH   2   3
ENDBRANCH   1   2
BRANCH   1  10
ATOM     10  C   UNL     1      12.529  -0.866   4.256  1.00  0.00     0.000 C 
BRANCH  10  11
ATOM     11  C   UNL     1      14.067  -0.817   4.318  1.00  0.00    -0.000 C 
BRANCH  11  12
ATOM     12  C   UNL     1      14.738  -1.657   3.218  1.00  0.00    -0.000 C 
BRANCH  12  13
ATOM     13  C   UNL     1      15.992  -0.968   2.636  1.00  0.00    -0.000 C 
BRANCH  13  14
ATOM     14  C   UNL     1      15.679   0.315   1.842  1.00  0.00    -0.000 C 
BRANCH  14  15
ATOM     15  C   UNL     1      16.198   0.324   0.392  1.00  0.00    -0.000 C 
BRANCH  15  16
ATOM     16  C   UNL     1      15.728  -0.862  -0.469  1.00  0.00    -0.003 C 
ATOM     17  C   UNL     1      15.167  -0.431  -1.824  1.00  0.00     0.004 C 
ENDBRANCH  15  16
ENDBRANCH  14  15
ENDBRANCH  13  14
ENDBRANCH  12  13
ENDBRANCH  11  12
ENDBRANCH  10  11
ENDBRANCH   1  10
TORSDOF 13
ENDMDL
MODEL 2
REMARK VINA RESULT:    -4.335      1.756      2.404
REMARK INTER + INTRA:          -9.567
REMARK INTER:                  -8.068
REMARK INTRA:                  -1.499
REMARK UNBOUND:                -1.938
REMARK SMILES CCCCCCCCCCCCCCC(=O)[O-]
REMARK SMILES IDX 9 1 10 2 11 3 12 4 13 5 14 6 15 7 16 8 17 9 8 10 7 11 6 12
REMARK SMILES IDX 5 13 4 14 3 15 2 16 1 17
REMARK H PARENT
REMARK Flexibility Score: inf
ROOT
ATOM      1  C   UNL     1      12.514  -0.930   4.158  1.00  0.00     0.000 C 
ENDROOT
BRANCH   1   2
ATOM      2  C   UNL     1      12.866   0.328   3.352  1.00  0.00     0.000 C 
BRANCH   2   3
ATOM      3  C   UNL     1      11.740   0.685   2.371  1.00  0.00     0.000 C 
BRANCH   3   4
ATOM      4  C   UNL     1      10.357   0.196   2.837  1.00  0.00     0.000 C 
BRANCH   4   5
ATOM      5  C   UNL     1       9.791  -0.998   2.047  1.00  0.00     0.006 C 
BRANCH   5   6
ATOM      6  C   UNL     1       8.410  -1.443   2.544  1.00  0.00     0.053 C 
BRANCH   6   7
ATOM      7  C   UNL     1       7.821  -2.456   1.613  1.00  0.00     0.041 C 
ATOM      8  O   UNL     1       8.547  -3.354   1.113  1.00  0.00    -0.550 OA
ATOM      9  O   UNL     1       6.480  -2.378   1.259  1.00  0.00    -0.550 OA
ENDBRANCH   6   7
ENDBRANCH   5   6
ENDBRANCH   4   5
ENDBRANCH   3   4
ENDBRANCH   2   3
ENDBRANCH   1   2
BRANCH   1  10
ATOM     10  C   UNL     1      13.401  -2.137   3.805  1.00  0.00     0.000 C 
BRANCH  10  11
ATOM     11  C   UNL     1      13.538  -2.423   2.298  1.00  0.00    -0.000 C 
BRANCH  11  12
ATOM     12  C   UNL     1      14.995  -2.647   1.860  1.00  0.00    -0.000 C 
BRANCH  12  13
ATOM     13  C   UNL     1      15.856  -1.374   2.014  1.00  0.00    -0.000 C 
BRANCH  13  14
ATOM     14  C   UNL     1      15.447  -0.232   1.065  1.00  0.00    -0.000 C 
BRANCH  14  15
ATOM     15  C   UNL     1      15.948  -0.381  -0.384  1.00  0.00    -0.000 C 
BRANCH  15  16
ATOM     16  C   UNL     1      14.836  -0.518  -1.440  1.00  0.00    -0.003 C 
ATOM     17  C   UNL     1      13.433  -0.492  -0.835  1.00  0.00     0.004 C 
ENDBRANCH  15  16
ENDBRANCH  14  15
ENDBRANCH  13  14
ENDBRANCH  12  13
ENDBRANCH  11  12
ENDBRANCH  10  11
ENDBRANCH   1  10
TORSDOF 13
ENDMDL
MODEL 3
REMARK VINA RESULT:    -4.280      1.015      2.089
REMARK INTER + INTRA:          -9.470
REMARK INTER:                  -7.317
REMARK INTRA:                  -2.153
REMARK UNBOUND:                -1.938
REMARK SMILES CCCCCCCCCCCCCCC(=O)[O-]
REMARK SMILES IDX 9 1 10 2 11 3 12 4 13 5 14 6 15 7 16 8 17 9 8 10 7 11 6 12
REMARK SMILES IDX 5 13 4 14 3 15 2 16 1 17
REMARK H PARENT
REMARK Flexibility Score: inf
ROOT
ATOM      1  C   UNL     1      13.728  -1.983   3.313  1.00  0.00     0.000 C 
ENDROOT
BRANCH   1   2
ATOM      2  C   UNL     1      12.770  -1.270   4.277  1.00  0.00     0.000 C 
BRANCH   2   3
ATOM      3  C   UNL     1      12.286   0.063   3.685  1.00  0.00     0.000 C 
BRANCH   3   4
ATOM      4  C   UNL     1      12.730   0.270   2.225  1.00  0.00     0.000 C 
BRANCH   4   5
ATOM      5  C   UNL     1      11.585   0.542   1.232  1.00  0.00     0.006 C 
BRANCH   5   6
ATOM      6  C   UNL     1      11.534  -0.477   0.087  1.00  0.00     0.053 C 
BRANCH   6   7
ATOM      7  C   UNL     1      11.216  -1.840   0.613  1.00  0.00     0.041 C 
ATOM      8  O   UNL     1      10.281  -1.997   1.443  1.00  0.00    -0.550 OA
ATOM      9  O   UNL     1      11.984  -2.932   0.227  1.00  0.00    -0.550 OA
ENDBRANCH   6   7
ENDBRANCH   5   6
ENDBRANCH   4   5
ENDBRANCH   3   4
ENDBRANCH   2   3
ENDBRANCH   1   2
BRANCH   1  10
ATOM     10  C   UNL     1      15.030  -2.444   3.992  1.00  0.00     0.000 C 
BRANCH  10  11
ATOM     11  C   UNL     1      16.302  -1.714   3.522  1.00  0.00    -0.000 C 
BRANCH  11  12
ATOM     12  C   UNL     1      16.346  -0.241   3.963  1.00  0.00    -0.000 C 
BRANCH  12  13
ATOM     13  C   UNL     1      16.486   0.726   2.766  1.00  0.00    -0.000 C 
BRANCH  13  14
ATOM     14  C   UNL     1      16.765   0.016   1.427  1.00  0.00    -0.000 C 
BRANCH  14  15
ATOM     15  C   UNL     1      15.838   0.428   0.268  1.00  0.00    -0.000 C 
BRANCH  15  16
ATOM     16  C   UNL     1      15.175  -0.745  -0.475  1.00  0.00    -0.003 C 
ATOM     17  C   UNL     1      15.058  -0.508  -1.981  1.00  0.00     0.004 C 
ENDBRANCH  15  16
ENDBRANCH  14  15
ENDBRANCH  13  14
ENDBRANCH  12  13
ENDBRANCH  11  12
ENDBRANCH  10  11
ENDBRANCH   1  10
TORSDOF 13
ENDMDL
MODEL 4
REMARK VINA RESULT:    -4.235      2.064      4.613
REMARK INTER + INTRA:          -9.391
REMARK INTER:                  -7.503
REMARK INTRA:                  -1.888
REMARK UNBOUND:                -1.938
REMARK SMILES CCCCCCCCCCCCCCC(=O)[O-]
REMARK SMILES IDX 9 1 10 2 11 3 12 4 13 5 14 6 15 7 16 8 17 9 8 10 7 11 6 12
REMARK SMILES IDX 5 13 4 14 3 15 2 16 1 17
REMARK H PARENT
REMARK Flexibility Score: inf
ROOT
ATOM      1  C   UNL     1      13.142  -1.661   4.220  1.00  0.00     0.000 C 
ENDROOT
BRANCH   1   2
ATOM      2  C   UNL     1      14.416  -2.366   3.735  1.00  0.00     0.000 C 
BRANCH   2   3
ATOM      3  C   UNL     1      14.221  -2.943   2.325  1.00  0.00     0.000 C 
BRANCH   3   4
ATOM      4  C   UNL     1      15.178  -2.330   1.286  1.00  0.00     0.000 C 
BRANCH   4   5
ATOM      5  C   UNL     1      15.020  -0.813   1.073  1.00  0.00     0.006 C 
BRANCH   5   6
ATOM      6  C   UNL     1      15.688  -0.317  -0.214  1.00  0.00     0.053 C 
BRANCH   6   7
ATOM      7  C   UNL     1      14.743  -0.428  -1.369  1.00  0.00     0.041 C 
ATOM      8  O   UNL     1      13.500  -0.444  -1.172  1.00  0.00    -0.550 OA
ATOM      9  O   UNL     1      15.237  -0.566  -2.661  1.00  0.00    -0.550 OA
ENDBRANCH   6   7
ENDBRANCH   5   6
ENDBRANCH   4   5
ENDBRANCH   3   4
ENDBRANCH   2   3
ENDBRANCH   1   2
BRANCH   1  10
ATOM     10  C   UNL     1      13.259  -0.127   4.198  1.00  0.00     0.000 C 
BRANCH  10  11
ATOM     11  C   UNL     1      12.002   0.627   4.669  1.00  0.00    -0.000 C 
BRANCH  11  12
ATOM     12  C   UNL     1      11.053   0.993   3.515  1.00  0.00    -0.000 C 
BRANCH  12  13
ATOM     13  C   UNL     1      11.756   0.945   2.140  1.00  0.00    -0.000 C 
BRANCH  13  14
ATOM     14  C   UNL     1      11.115  -0.049   1.153  1.00  0.00    -0.000 C 
BRANCH  14  15
ATOM     15  C   UNL     1      10.092  -1.016   1.778  1.00  0.00    -0.000 C 
BRANCH  15  16
ATOM     16  C   UNL     1      10.330  -2.503   1.456  1.00  0.00    -0.003 C 
ATOM     17  C   UNL     1      11.229  -2.713   0.237  1.00  0.00     0.004 C 
ENDBRANCH  15  16
ENDBRANCH  14  15
ENDBRANCH  13  14
ENDBRANCH  12  13
ENDBRANCH  11  12
ENDBRANCH  10  11
ENDBRANCH   1  10
TORSDOF 13
ENDMDL
MODEL 5
REMARK VINA RESULT:    -4.219      1.625      2.957
REMARK INTER + INTRA:          -9.363
REMARK INTER:                  -7.316
REMARK INTRA:                  -2.047
REMARK UNBOUND:                -1.938
REMARK SMILES CCCCCCCCCCCCCCC(=O)[O-]
REMARK SMILES IDX 9 1 10 2 11 3 12 4 13 5 14 6 15 7 16 8 17 9 8 10 7 11 6 12
REMARK SMILES IDX 5 13 4 14 3 15 2 16 1 17
REMARK H PARENT
REMARK Flexibility Score: inf
ROOT
ATOM      1  C   UNL     1      14.070  -1.542   4.283  1.00  0.00     0.000 C 
ENDROOT
BRANCH   1   2
ATOM      2  C   UNL     1      13.526  -0.120   4.087  1.00  0.00     0.000 C 
BRANCH   2   3
ATOM      3  C   UNL     1      12.047  -0.149   3.677  1.00  0.00     0.000 C 
BRANCH   3   4
ATOM      4  C   UNL     1      11.760   0.658   2.397  1.00  0.00     0.000 C 
BRANCH   4   5
ATOM      5  C   UNL     1      10.734   0.019   1.443  1.00  0.00     0.006 C 
BRANCH   5   6
ATOM      6  C   UNL     1      10.485  -1.465   1.740  1.00  0.00     0.053 C 
BRANCH   6   7
ATOM      7  C   UNL     1       9.046  -1.696   2.075  1.00  0.00     0.041 C 
ATOM      8  O   UNL     1       8.417  -0.862   2.779  1.00  0.00    -0.550 OA
ATOM      9  O   UNL     1       8.411  -2.858   1.653  1.00  0.00    -0.550 OA
ENDBRANCH   6   7
ENDBRANCH   5   6
ENDBRANCH   4   5
ENDBRANCH   3   4
ENDBRANCH   2   3
ENDBRANCH   1   2
BRANCH   1  10
ATOM     10  C   UNL     1      13.729  -2.482   3.113  1.00  0.00     0.000 C 
BRANCH  10  11
ATOM     11  C   UNL     1      14.708  -2.424   1.926  1.00  0.00    -0.000 C 
BRANCH  11  12
ATOM     12  C   UNL     1      14.109  -1.734   0.688  1.00  0.00    -0.000 C 
BRANCH  12  13
ATOM     13  C   UNL     1      14.670  -0.310   0.481  1.00  0.00    -0.000 C 
BRANCH  13  14
ATOM     14  C   UNL     1      16.082  -0.285  -0.137  1.00  0.00    -0.000 C 
BRANCH  14  15
ATOM     15  C   UNL     1      17.185   0.263   0.787  1.00  0.00    -0.000 C 
BRANCH  15  16
ATOM     16  C   UNL     1      16.704   0.686   2.186  1.00  0.00    -0.003 C 
ATOM     17  C   UNL     1      17.238   2.053   2.614  1.00  0.00     0.004 C 
ENDBRANCH  15  16
ENDBRANCH  14  15
ENDBRANCH  13  14
ENDBRANCH  12  13
ENDBRANCH  11  12
ENDBRANCH  10  11
ENDBRANCH   1  10
TORSDOF 13
ENDMDL
MODEL 6
REMARK VINA RESULT:    -4.174      1.811      5.280
REMARK INTER + INTRA:          -9.285
REMARK INTER:                  -7.399
REMARK INTRA:                  -1.886
REMARK UNBOUND:                -1.938
REMARK SMILES CCCCCCCCCCCCCCC(=O)[O-]
REMARK SMILES IDX 9 1 10 2 11 3 12 4 13 5 14 6 15 7 16 8 17 9 8 10 7 11 6 12
REMARK SMILES IDX 5 13 4 14 3 15 2 16 1 17
REMARK H PARENT
REMARK Flexibility Score: inf
ROOT
ATOM      1  C   UNL     1      15.908  -0.844   0.040  1.00  0.00     0.000 C 
ENDROOT
BRANCH   1   2
ATOM      2  C   UNL     1      16.786   0.183   0.769  1.00  0.00     0.000 C 
BRANCH   2   3
ATOM      3  C   UNL     1      16.311   0.383   2.216  1.00  0.00     0.000 C 
BRANCH   3   4
ATOM      4  C   UNL     1      14.954  -0.286   2.503  1.00  0.00     0.000 C 
BRANCH   4   5
ATOM      5  C   UNL     1      14.998  -1.422   3.541  1.00  0.00     0.006 C 
BRANCH   5   6
ATOM      6  C   UNL     1      13.915  -2.483   3.312  1.00  0.00     0.053 C 
BRANCH   6   7
ATOM      7  C   UNL     1      14.362  -3.474   2.284  1.00  0.00     0.041 C 
ATOM      8  O   UNL     1      13.513  -4.128   1.624  1.00  0.00    -0.550 OA
ATOM      9  O   UNL     1      15.717  -3.711   2.090  1.00  0.00    -0.550 OA
ENDBRANCH   6   7
ENDBRANCH   5   6
ENDBRANCH   4   5
ENDBRANCH   3   4
ENDBRANCH   2   3
ENDBRANCH   1   2
BRANCH   1  10
ATOM     10  C   UNL     1      15.312  -0.301  -1.271  1.00  0.00     0.000 C 
BRANCH  10  11
ATOM     11  C   UNL     1      13.778  -0.383  -1.370  1.00  0.00    -0.000 C 
BRANCH  11  12
ATOM     12  C   UNL     1      13.136  -1.093  -0.166  1.00  0.00    -0.000 C 
BRANCH  12  13
ATOM     13  C   UNL     1      11.795  -0.447   0.249  1.00  0.00    -0.000 C 
BRANCH  13  14
ATOM     14  C   UNL     1      11.010  -1.268   1.290  1.00  0.00    -0.000 C 
BRANCH  14  15
ATOM     15  C   UNL     1      10.424  -0.449   2.455  1.00  0.00    -0.000 C 
BRANCH  15  16
ATOM     16  C   UNL     1      11.312   0.712   2.938  1.00  0.00    -0.003 C 
ATOM     17  C   UNL     1      11.901   0.475   4.328  1.00  0.00     0.004 C 
ENDBRANCH  15  16
ENDBRANCH  14  15
ENDBRANCH  13  14
ENDBRANCH  12  13
ENDBRANCH  11  12
ENDBRANCH  10  11
ENDBRANCH   1  10
TORSDOF 13
ENDMDL
MODEL 7
REMARK VINA RESULT:    -4.131      2.965      4.860
REMARK INTER + INTRA:          -9.208
REMARK INTER:                  -7.525
REMARK INTRA:                  -1.682
REMARK UNBOUND:                -1.938
REMARK SMILES CCCCCCCCCCCCCCC(=O)[O-]
REMARK SMILES IDX 9 1 10 2 11 3 12 4 13 5 14 6 15 7 16 8 17 9 8 10 7 11 6 12
REMARK SMILES IDX 5 13 4 14 3 15 2 16 1 17
REMARK H PARENT
REMARK Flexibility Score: inf
ROOT
ATOM      1  C   UNL     1      10.936   0.644   0.658  1.00  0.00     0.000 C 
ENDROOT
BRANCH   1   2
ATOM      2  C   UNL     1      11.769  -0.545   0.160  1.00  0.00     0.000 C 
BRANCH   2   3
ATOM      3  C   UNL     1      13.268  -0.303   0.396  1.00  0.00     0.000 C 
BRANCH   3   4
ATOM      4  C   UNL     1      14.110  -0.444  -0.885  1.00  0.00     0.000 C 
BRANCH   4   5
ATOM      5  C   UNL     1      15.631  -0.507  -0.657  1.00  0.00     0.006 C 
BRANCH   5   6
ATOM      6  C   UNL     1      16.123   0.507   0.383  1.00  0.00     0.053 C 
BRANCH   6   7
ATOM      7  C   UNL     1      17.459   0.100   0.919  1.00  0.00     0.041 C 
ATOM      8  O   UNL     1      17.566  -0.323   2.100  1.00  0.00    -0.550 OA
ATOM      9  O   UNL     1      18.595   0.234   0.130  1.00  0.00    -0.550 OA
ENDBRANCH   6   7
ENDBRANCH   5   6
ENDBRANCH   4   5
ENDBRANCH   3   4
ENDBRANCH   2   3
ENDBRANCH   1   2
BRANCH   1  10
ATOM     10  C   UNL     1       9.958   0.263   1.783  1.00  0.00     0.000 C 
BRANCH  10  11
ATOM     11  C   UNL     1      10.620  -0.286   3.061  1.00  0.00    -0.000 C 
BRANCH  11  12
ATOM     12  C   UNL     1      11.535   0.740   3.750  1.00  0.00    -0.000 C 
BRANCH  12  13
ATOM     13  C   UNL     1      12.633   0.067   4.604  1.00  0.00    -0.000 C 
BRANCH  13  14
ATOM     14  C   UNL     1      13.060  -1.317   4.081  1.00  0.00    -0.000 C 
BRANCH  14  15
ATOM     15  C   UNL     1      14.443  -1.358   3.404  1.00  0.00    -0.000 C 
BRANCH  15  16
ATOM     16  C   UNL     1      15.055  -2.764   3.271  1.00  0.00    -0.003 C 
ATOM     17  C   UNL     1      15.327  -3.162   1.821  1.00  0.00     0.004 C 
ENDBRANCH  15  16
ENDBRANCH  14  15
ENDBRANCH  13  14
ENDBRANCH  12  13
ENDBRANCH  11  12
ENDBRANCH  10  11
ENDBRANCH   1  10
TORSDOF 13
ENDMDL
MODEL 8
REMARK VINA RESULT:    -4.094      1.650      2.622
REMARK INTER + INTRA:          -9.143
REMARK INTER:                  -7.560
REMARK INTRA:                  -1.584
REMARK UNBOUND:                -1.938
REMARK SMILES CCCCCCCCCCCCCCC(=O)[O-]
REMARK SMILES IDX 9 1 10 2 11 3 12 4 13 5 14 6 15 7 16 8 17 9 8 10 7 11 6 12
REMARK SMILES IDX 5 13 4 14 3 15 2 16 1 17
REMARK H PARENT
REMARK Flexibility Score: inf
ROOT
ATOM      1  C   UNL     1      12.064   0.631   1.988  1.00  0.00     0.000 C 
ENDROOT
BRANCH   1   2
ATOM      2  C   UNL     1      11.165   0.280   0.794  1.00  0.00     0.000 C 
BRANCH   2   3
ATOM      3  C   UNL     1      11.575  -1.065   0.175  1.00  0.00     0.000 C 
BRANCH   3   4
ATOM      4  C   UNL     1      10.906  -2.272   0.858  1.00  0.00     0.000 C 
BRANCH   4   5
ATOM      5  C   UNL     1      10.777  -3.527  -0.024  1.00  0.00     0.006 C 
BRANCH   5   6
ATOM      6  C   UNL     1       9.328  -4.009  -0.169  1.00  0.00     0.053 C 
BRANCH   6   7
ATOM      7  C   UNL     1       9.272  -5.252  -1.000  1.00  0.00     0.041 C 
ATOM      8  O   UNL     1      10.270  -6.016  -1.068  1.00  0.00    -0.550 OA
ATOM      9  O   UNL     1       8.133  -5.541  -1.742  1.00  0.00    -0.550 OA
ENDBRANCH   6   7
ENDBRANCH   5   6
ENDBRANCH   4   5
ENDBRANCH   3   4
ENDBRANCH   2   3
ENDBRANCH   1   2
BRANCH   1  10
ATOM     10  C   UNL     1      11.411   0.313   3.345  1.00  0.00     0.000 C 
BRANCH  10  11
ATOM     11  C   UNL     1      12.350  -0.326   4.384  1.00  0.00    -0.000 C 
BRANCH  11  12
ATOM     12  C   UNL     1      13.033  -1.605   3.870  1.00  0.00    -0.000 C 
BRANCH  12  13
ATOM     13  C   UNL     1      14.573  -1.517   3.937  1.00  0.00    -0.000 C 
BRANCH  13  14
ATOM     14  C   UNL     1      15.287  -2.290   2.812  1.00  0.00    -0.000 C 
BRANCH  14  15
ATOM     15  C   UNL     1      14.735  -2.034   1.397  1.00  0.00    -0.000 C 
BRANCH  15  16
ATOM     16  C   UNL     1      15.708  -1.311   0.448  1.00  0.00    -0.003 C 
ATOM     17  C   UNL     1      15.106  -0.052  -0.177  1.00  0.00     0.004 C 
ENDBRANCH  15  16
ENDBRANCH  14  15
ENDBRANCH  13  14
ENDBRANCH  12  13
ENDBRANCH  11  12
ENDBRANCH  10  11
ENDBRANCH   1  10
TORSDOF 13
ENDMDL
MODEL 9
REMARK VINA RESULT:    -4.020      1.757      4.178
REMARK INTER + INTRA:          -9.012
REMARK INTER:                  -7.359
REMARK INTRA:                  -1.654
REMARK UNBOUND:                -1.938
REMARK SMILES CCCCCCCCCCCCCCC(=O)[O-]
REMARK SMILES IDX 9 1 10 2 11 3 12 4 13 5 14 6 15 7 16 8 17 9 8 10 7 11 6 12
REMARK SMILES IDX 5 13 4 14 3 15 2 16 1 17
REMARK H PARENT
REMARK Flexibility Score: inf
ROOT
ATOM      1  C   UNL     1      16.001  -0.632  -0.056  1.00  0.00     0.000 C 
ENDROOT
BRANCH   1   2
ATOM      2  C   UNL     1      15.046  -0.186  -1.172  1.00  0.00     0.000 C 
BRANCH   2   3
ATOM      3  C   UNL     1      13.603  -0.612  -0.863  1.00  0.00     0.000 C 
BRANCH   3   4
ATOM      4  C   UNL     1      13.133  -0.174   0.536  1.00  0.00     0.000 C 
BRANCH   4   5
ATOM      5  C   UNL     1      11.623   0.104   0.656  1.00  0.00     0.006 C 
BRANCH   5   6
ATOM      6  C   UNL     1      10.863  -1.020   1.370  1.00  0.00     0.053 C 
BRANCH   6   7
ATOM      7  C   UNL     1       9.897  -0.450   2.360  1.00  0.00     0.041 C 
ATOM      8  O   UNL     1       8.718  -0.889   2.419  1.00  0.00    -0.550 OA
ATOM      9  O   UNL     1      10.283   0.600   3.184  1.00  0.00    -0.550 OA
ENDBRANCH   6   7
ENDBRANCH   5   6
ENDBRANCH   4   5
ENDBRANCH   3   4
ENDBRANCH   2   3
ENDBRANCH   1   2
BRANCH   1  10
ATOM     10  C   UNL     1      16.541   0.545   0.777  1.00  0.00     0.000 C 
BRANCH  10  11
ATOM     11  C   UNL     1      17.566   0.158   1.859  1.00  0.00    -0.000 C 
BRANCH  11  12
ATOM     12  C   UNL     1      16.909  -0.306   3.170  1.00  0.00    -0.000 C 
BRANCH  12  13
ATOM     13  C   UNL     1      17.258  -1.771   3.515  1.00  0.00    -0.000 C 
BRANCH  13  14
ATOM     14  C   UNL     1      16.033  -2.624   3.896  1.00  0.00    -0.000 C 
BRANCH  14  15
ATOM     15  C   UNL     1      14.864  -2.567   2.894  1.00  0.00    -0.000 C 
BRANCH  15  16
ATOM     16  C   UNL     1      13.483  -2.329   3.528  1.00  0.00    -0.003 C 
ATOM     17  C   UNL     1      13.341  -0.938   4.147  1.00  0.00     0.004 C 
ENDBRANCH  15  16
ENDBRANCH  14  15
ENDBRANCH  13  14
ENDBRANCH  12  13
ENDBRANCH  11  12
ENDBRANCH  10  11
ENDBRANCH   1  10
TORSDOF 13
ENDMDL
