MODEL 1
REMARK VINA RESULT:    -9.630      0.000      0.000
REMARK INTER + INTRA:         -11.638
REMARK INTER:                 -11.319
REMARK INTRA:                  -0.318
REMARK UNBOUND:                -0.318
REMARK SMILES O=c1cc(-c2ccc(O)c(O)c2)oc2cc(O)cc(O)c12
REMARK SMILES IDX 4 1 3 2 2 3 1 4 21 5 19 6 18 7 16 8 15 9 14 10 13 11 5 12
REMARK SMILES IDX 6 13 7 14 8 15 12 16 10 17 9 18 11 20 20 22 17 24
REMARK H PARENT 9 19 11 21 20 23 17 25
REMARK Flexibility Score: inf
ROOT
ATOM      1  C   UNL     1       2.834 -28.194  26.866  1.00  0.00     0.138 A 
ATOM      2  C   UNL     1       4.144 -28.684  26.782  1.00  0.00     0.100 A 
ATOM      3  C   UNL     1       4.900 -28.441  25.635  1.00  0.00     0.197 A 
ATOM      4  O   UNL     1       6.090 -28.845  25.614  1.00  0.00    -0.289 OA
ATOM      5  C   UNL     1       4.326 -27.734  24.551  1.00  0.00     0.107 A 
ATOM      6  C   UNL     1       4.989 -27.457  23.317  1.00  0.00     0.134 A 
ATOM      7  C   UNL     1       4.353 -26.662  22.356  1.00  0.00     0.093 A 
ATOM      8  C   UNL     1       3.056 -26.184  22.558  1.00  0.00     0.123 A 
ATOM      9  C   UNL     1       2.382 -26.491  23.737  1.00  0.00     0.094 A 
ATOM     10  C   UNL     1       3.001 -27.251  24.731  1.00  0.00     0.146 A 
ATOM     11  O   UNL     1       2.329 -27.506  25.848  1.00  0.00    -0.456 OA
ENDROOT
BRANCH   1  12
ATOM     12  C   UNL     1       1.983 -28.426  28.063  1.00  0.00     0.021 A 
ATOM     13  C   UNL     1       2.450 -29.153  29.173  1.00  0.00     0.016 A 
ATOM     14  C   UNL     1       1.631 -29.347  30.288  1.00  0.00     0.051 A 
ATOM     15  C   UNL     1       0.337 -28.811  30.318  1.00  0.00     0.157 A 
ATOM     16  C   UNL     1       0.688 -27.880  28.105  1.00  0.00     0.062 A 
ATOM     17  C   UNL     1      -0.135 -28.073  29.221  1.00  0.00     0.158 A 
BRANCH  15  18
ATOM     18  O   UNL     1      -0.478 -29.008  31.431  1.00  0.00    -0.504 OA
ATOM     19  H   UNL     1      -0.701 -28.251  32.066  1.00  0.00     0.293 HD
ENDBRANCH  15  18
BRANCH  17  20
ATOM     20  O   UNL     1      -1.417 -27.524  29.219  1.00  0.00    -0.504 OA
ATOM     21  H   UNL     1      -2.243 -28.086  29.049  1.00  0.00     0.293 HD
ENDBRANCH  17  20
ENDBRANCH   1  12
BRANCH   6  22
ATOM     22  O   UNL     1       6.253 -27.951  22.978  1.00  0.00    -0.507 OA
ATOM     23  H   UNL     1       7.126 -27.610  23.349  1.00  0.00     0.293 HD
ENDBRANCH   6  22
BRANCH   8  24
ATOM     24  O   UNL     1       2.426 -25.406  21.589  1.00  0.00    -0.508 OA
ATOM     25  H   UNL     1       2.551 -24.401  21.552  1.00  0.00     0.293 HD
ENDBRANCH   8  24
TORSDOF 5
ENDMDL
MODEL 2
REMARK VINA RESULT:    -9.524     12.525     12.905
REMARK INTER + INTRA:         -11.513
REMARK INTER:                 -11.195
REMARK INTRA:                  -0.318
REMARK UNBOUND:                -0.318
REMARK SMILES O=c1cc(-c2ccc(O)c(O)c2)oc2cc(O)cc(O)c12
REMARK SMILES IDX 4 1 3 2 2 3 1 4 21 5 19 6 18 7 16 8 15 9 14 10 13 11 5 12
REMARK SMILES IDX 6 13 7 14 8 15 12 16 10 17 9 18 11 20 20 22 17 24
REMARK H PARENT 9 19 11 21 20 23 17 25
REMARK Flexibility Score: inf
ROOT
ATOM      1  C   UNL     1      -2.491 -37.811  19.877  1.00  0.00     0.138 A 
ATOM      2  C   UNL     1      -2.456 -37.883  18.478  1.00  0.00     0.100 A 
ATOM      3  C   UNL     1      -2.462 -36.708  17.725  1.00  0.00     0.197 A 
ATOM      4  O   UNL     1      -2.374 -36.806  16.475  1.00  0.00    -0.289 OA
ATOM      5  C   UNL     1      -2.541 -35.455  18.378  1.00  0.00     0.107 A 
ATOM      6  C   UNL     1      -2.588 -34.191  17.714  1.00  0.00     0.134 A 
ATOM      7  C   UNL     1      -2.564 -33.014  18.469  1.00  0.00     0.093 A 
ATOM      8  C   UNL     1      -2.554 -33.052  19.866  1.00  0.00     0.123 A 
ATOM      9  C   UNL     1      -2.558 -34.278  20.523  1.00  0.00     0.094 A 
ATOM     10  C   UNL     1      -2.545 -35.472  19.799  1.00  0.00     0.146 A 
ATOM     11  O   UNL     1      -2.531 -36.621  20.467  1.00  0.00    -0.456 OA
ENDROOT
BRANCH   1  12
ATOM     12  C   UNL     1      -2.489 -39.029  20.728  1.00  0.00     0.021 A 
ATOM     13  C   UNL     1      -2.546 -40.320  20.171  1.00  0.00     0.016 A 
ATOM     14  C   UNL     1      -2.533 -41.448  20.996  1.00  0.00     0.051 A 
ATOM     15  C   UNL     1      -2.454 -41.307  22.387  1.00  0.00     0.157 A 
ATOM     16  C   UNL     1      -2.396 -38.896  22.124  1.00  0.00     0.062 A 
ATOM     17  C   UNL     1      -2.383 -40.024  22.953  1.00  0.00     0.158 A 
BRANCH  15  18
ATOM     18  O   UNL     1      -2.443 -42.435  23.207  1.00  0.00    -0.504 OA
ATOM     19  H   UNL     1      -2.385 -42.357  24.215  1.00  0.00     0.293 HD
ENDBRANCH  15  18
BRANCH  17  20
ATOM     20  O   UNL     1      -2.300 -39.849  24.334  1.00  0.00    -0.504 OA
ATOM     21  H   UNL     1      -1.477 -40.117  24.861  1.00  0.00     0.293 HD
ENDBRANCH  17  20
ENDBRANCH   1  12
BRANCH   6  22
ATOM     22  O   UNL     1      -2.681 -34.039  16.326  1.00  0.00    -0.507 OA
ATOM     23  H   UNL     1      -3.527 -33.820  15.823  1.00  0.00     0.293 HD
ENDBRANCH   6  22
BRANCH   8  24
ATOM     24  O   UNL     1      -2.546 -31.873  20.609  1.00  0.00    -0.508 OA
ATOM     25  H   UNL     1      -2.452 -31.884  21.618  1.00  0.00     0.293 HD
ENDBRANCH   8  24
TORSDOF 5
ENDMDL
MODEL 3
REMARK VINA RESULT:    -9.467      1.638      7.421
REMARK INTER + INTRA:         -11.445
REMARK INTER:                 -11.127
REMARK INTRA:                  -0.318
REMARK UNBOUND:                -0.318
REMARK SMILES O=c1cc(-c2ccc(O)c(O)c2)oc2cc(O)cc(O)c12
REMARK SMILES IDX 4 1 3 2 2 3 1 4 21 5 19 6 18 7 16 8 15 9 14 10 13 11 5 12
REMARK SMILES IDX 6 13 7 14 8 15 12 16 10 17 9 18 11 20 20 22 17 24
REMARK H PARENT 9 19 11 21 20 23 17 25
REMARK Flexibility Score: inf
ROOT
ATOM      1  C   UNL     1       2.504 -28.111  26.847  1.00  0.00     0.138 A 
ATOM      2  C   UNL     1       1.282 -27.451  27.039  1.00  0.00     0.100 A 
ATOM      3  C   UNL     1       0.392 -27.915  28.008  1.00  0.00     0.197 A 
ATOM      4  O   UNL     1      -0.671 -27.267  28.193  1.00  0.00    -0.289 OA
ATOM      5  C   UNL     1       0.712 -29.067  28.765  1.00  0.00     0.107 A 
ATOM      6  C   UNL     1      -0.133 -29.651  29.757  1.00  0.00     0.134 A 
ATOM      7  C   UNL     1       0.335 -30.733  30.511  1.00  0.00     0.093 A 
ATOM      8  C   UNL     1       1.594 -31.291  30.270  1.00  0.00     0.123 A 
ATOM      9  C   UNL     1       2.404 -30.760  29.271  1.00  0.00     0.094 A 
ATOM     10  C   UNL     1       1.982 -29.658  28.525  1.00  0.00     0.146 A 
ATOM     11  O   UNL     1       2.795 -29.172  27.593  1.00  0.00    -0.456 OA
ENDROOT
BRANCH   1  12
ATOM     12  C   UNL     1       3.487 -27.663  25.828  1.00  0.00     0.021 A 
ATOM     13  C   UNL     1       3.256 -26.533  25.022  1.00  0.00     0.016 A 
ATOM     14  C   UNL     1       4.204 -26.131  24.078  1.00  0.00     0.051 A 
ATOM     15  C   UNL     1       5.401 -26.842  23.928  1.00  0.00     0.157 A 
ATOM     16  C   UNL     1       4.697 -28.365  25.682  1.00  0.00     0.062 A 
ATOM     17  C   UNL     1       5.649 -27.963  24.736  1.00  0.00     0.158 A 
BRANCH  15  18
ATOM     18  O   UNL     1       6.344 -26.438  22.984  1.00  0.00    -0.504 OA
ATOM     19  H   UNL     1       6.940 -27.106  22.511  1.00  0.00     0.293 HD
ENDBRANCH  15  18
BRANCH  17  20
ATOM     20  O   UNL     1       6.832 -28.692  24.616  1.00  0.00    -0.504 OA
ATOM     21  H   UNL     1       7.442 -28.862  25.407  1.00  0.00     0.293 HD
ENDBRANCH  17  20
ENDBRANCH   1  12
BRANCH   6  22
ATOM     22  O   UNL     1      -1.438 -29.224  30.025  1.00  0.00    -0.507 OA
ATOM     23  H   UNL     1      -1.868 -29.213  30.936  1.00  0.00     0.293 HD
ENDBRANCH   6  22
BRANCH   8  24
ATOM     24  O   UNL     1       2.044 -32.378  31.016  1.00  0.00    -0.508 OA
ATOM     25  H   UNL     1       1.864 -32.449  32.010  1.00  0.00     0.293 HD
ENDBRANCH   8  24
TORSDOF 5
ENDMDL
MODEL 4
REMARK VINA RESULT:    -8.916      1.337      3.074
REMARK INTER + INTRA:         -10.798
REMARK INTER:                 -10.483
REMARK INTRA:                  -0.315
REMARK UNBOUND:                -0.318
REMARK SMILES O=c1cc(-c2ccc(O)c(O)c2)oc2cc(O)cc(O)c12
REMARK SMILES IDX 4 1 3 2 2 3 1 4 21 5 19 6 18 7 16 8 15 9 14 10 13 11 5 12
REMARK SMILES IDX 6 13 7 14 8 15 12 16 10 17 9 18 11 20 20 22 17 24
REMARK H PARENT 9 19 11 21 20 23 17 25
REMARK Flexibility Score: inf
ROOT
ATOM      1  C   UNL     1       2.050 -27.747  26.816  1.00  0.00     0.138 A 
ATOM      2  C   UNL     1       1.520 -26.904  25.830  1.00  0.00     0.100 A 
ATOM      3  C   UNL     1       2.302 -26.555  24.728  1.00  0.00     0.197 A 
ATOM      4  O   UNL     1       1.778 -25.842  23.833  1.00  0.00    -0.289 OA
ATOM      5  C   UNL     1       3.634 -27.024  24.632  1.00  0.00     0.107 A 
ATOM      6  C   UNL     1       4.535 -26.706  23.571  1.00  0.00     0.134 A 
ATOM      7  C   UNL     1       5.797 -27.311  23.534  1.00  0.00     0.093 A 
ATOM      8  C   UNL     1       6.213 -28.177  24.549  1.00  0.00     0.123 A 
ATOM      9  C   UNL     1       5.359 -28.454  25.613  1.00  0.00     0.094 A 
ATOM     10  C   UNL     1       4.081 -27.895  25.662  1.00  0.00     0.146 A 
ATOM     11  O   UNL     1       3.292 -28.201  26.687  1.00  0.00    -0.456 OA
ENDROOT
BRANCH   1  12
ATOM     12  C   UNL     1       1.264 -28.149  28.011  1.00  0.00     0.021 A 
ATOM     13  C   UNL     1       0.088 -27.473  28.386  1.00  0.00     0.016 A 
ATOM     14  C   UNL     1      -0.635 -27.879  29.510  1.00  0.00     0.051 A 
ATOM     15  C   UNL     1      -0.203 -28.971  30.273  1.00  0.00     0.157 A 
ATOM     16  C   UNL     1       1.685 -29.252  28.775  1.00  0.00     0.062 A 
ATOM     17  C   UNL     1       0.962 -29.661  29.902  1.00  0.00     0.158 A 
BRANCH  15  18
ATOM     18  O   UNL     1      -0.926 -29.373  31.395  1.00  0.00    -0.504 OA
ATOM     19  H   UNL     1      -0.600 -29.179  32.334  1.00  0.00     0.293 HD
ENDBRANCH  15  18
BRANCH  17  20
ATOM     20  O   UNL     1       1.418 -30.754  30.638  1.00  0.00    -0.504 OA
ATOM     21  H   UNL     1       1.593 -31.656  30.210  1.00  0.00     0.293 HD
ENDBRANCH  17  20
ENDBRANCH   1  12
BRANCH   6  22
ATOM     22  O   UNL     1       4.253 -25.793  22.550  1.00  0.00    -0.507 OA
ATOM     23  H   UNL     1       4.519 -25.904  21.584  1.00  0.00     0.293 HD
ENDBRANCH   6  22
BRANCH   8  24
ATOM     24  O   UNL     1       7.476 -28.762  24.511  1.00  0.00    -0.508 OA
ATOM     25  H   UNL     1       8.089 -28.755  25.318  1.00  0.00     0.293 HD
ENDBRANCH   8  24
TORSDOF 5
ENDMDL
MODEL 5
REMARK VINA RESULT:    -8.698      1.548      6.791
REMARK INTER + INTRA:         -10.541
REMARK INTER:                 -10.228
REMARK INTRA:                  -0.313
REMARK UNBOUND:                -0.318
REMARK SMILES O=c1cc(-c2ccc(O)c(O)c2)oc2cc(O)cc(O)c12
REMARK SMILES IDX 4 1 3 2 2 3 1 4 21 5 19 6 18 7 16 8 15 9 14 10 13 11 5 12
REMARK SMILES IDX 6 13 7 14 8 15 12 16 10 17 9 18 11 20 20 22 17 24
REMARK H PARENT 9 19 11 21 20 23 17 25
REMARK Flexibility Score: inf
ROOT
ATOM      1  C   UNL     1       3.301 -28.635  26.953  1.00  0.00     0.138 A 
ATOM      2  C   UNL     1       3.666 -29.757  27.709  1.00  0.00     0.100 A 
ATOM      3  C   UNL     1       2.836 -30.194  28.741  1.00  0.00     0.197 A 
ATOM      4  O   UNL     1       3.164 -31.237  29.364  1.00  0.00    -0.289 OA
ATOM      5  C   UNL     1       1.650 -29.482  29.040  1.00  0.00     0.107 A 
ATOM      6  C   UNL     1       0.743 -29.814  30.092  1.00  0.00     0.134 A 
ATOM      7  C   UNL     1      -0.449 -29.094  30.228  1.00  0.00     0.093 A 
ATOM      8  C   UNL     1      -0.741 -28.015  29.388  1.00  0.00     0.123 A 
ATOM      9  C   UNL     1       0.160 -27.652  28.392  1.00  0.00     0.094 A 
ATOM     10  C   UNL     1       1.342 -28.372  28.207  1.00  0.00     0.146 A 
ATOM     11  O   UNL     1       2.167 -28.003  27.232  1.00  0.00    -0.456 OA
ENDROOT
BRANCH   1  12
ATOM     12  C   UNL     1       4.148 -28.124  25.844  1.00  0.00     0.021 A 
ATOM     13  C   UNL     1       5.505 -28.479  25.726  1.00  0.00     0.016 A 
ATOM     14  C   UNL     1       6.275 -27.990  24.667  1.00  0.00     0.051 A 
ATOM     15  C   UNL     1       5.703 -27.148  23.706  1.00  0.00     0.157 A 
ATOM     16  C   UNL     1       3.578 -27.289  24.868  1.00  0.00     0.062 A 
ATOM     17  C   UNL     1       4.347 -26.798  23.806  1.00  0.00     0.158 A 
BRANCH  15  18
ATOM     18  O   UNL     1       6.475 -26.661  22.652  1.00  0.00    -0.504 OA
ATOM     19  H   UNL     1       7.125 -25.895  22.780  1.00  0.00     0.293 HD
ENDBRANCH  15  18
BRANCH  17  20
ATOM     20  O   UNL     1       3.746 -25.964  22.864  1.00  0.00    -0.504 OA
ATOM     21  H   UNL     1       3.675 -24.962  23.000  1.00  0.00     0.293 HD
ENDBRANCH  17  20
ENDBRANCH   1  12
BRANCH   6  22
ATOM     22  O   UNL     1       0.972 -30.821  31.036  1.00  0.00    -0.507 OA
ATOM     23  H   UNL     1       1.873 -31.220  31.248  1.00  0.00     0.293 HD
ENDBRANCH   6  22
BRANCH   8  24
ATOM     24  O   UNL     1      -1.923 -27.294  29.542  1.00  0.00    -0.508 OA
ATOM     25  H   UNL     1      -2.824 -27.756  29.579  1.00  0.00     0.293 HD
ENDBRANCH   8  24
TORSDOF 5
ENDMDL
MODEL 6
REMARK VINA RESULT:    -8.466     13.184     13.441
REMARK INTER + INTRA:         -10.269
REMARK INTER:                  -9.957
REMARK INTRA:                  -0.312
REMARK UNBOUND:                -0.318
REMARK SMILES O=c1cc(-c2ccc(O)c(O)c2)oc2cc(O)cc(O)c12
REMARK SMILES IDX 4 1 3 2 2 3 1 4 21 5 19 6 18 7 16 8 15 9 14 10 13 11 5 12
REMARK SMILES IDX 6 13 7 14 8 15 12 16 10 17 9 18 11 20 20 22 17 24
REMARK H PARENT 9 19 11 21 20 23 17 25
REMARK Flexibility Score: inf
ROOT
ATOM      1  C   UNL     1      -3.058 -38.610  20.326  1.00  0.00     0.138 A 
ATOM      2  C   UNL     1      -3.322 -39.289  19.129  1.00  0.00     0.100 A 
ATOM      3  C   UNL     1      -3.395 -38.576  17.932  1.00  0.00     0.197 A 
ATOM      4  O   UNL     1      -3.578 -39.222  16.868  1.00  0.00    -0.289 OA
ATOM      5  C   UNL     1      -3.238 -37.169  17.939  1.00  0.00     0.107 A 
ATOM      6  C   UNL     1      -3.325 -36.333  16.785  1.00  0.00     0.134 A 
ATOM      7  C   UNL     1      -3.052 -34.966  16.902  1.00  0.00     0.093 A 
ATOM      8  C   UNL     1      -2.753 -34.392  18.141  1.00  0.00     0.123 A 
ATOM      9  C   UNL     1      -2.714 -35.191  19.280  1.00  0.00     0.094 A 
ATOM     10  C   UNL     1      -2.946 -36.565  19.192  1.00  0.00     0.146 A 
ATOM     11  O   UNL     1      -2.881 -37.293  20.302  1.00  0.00    -0.456 OA
ENDROOT
BRANCH   1  12
ATOM     12  C   UNL     1      -2.972 -39.318  21.629  1.00  0.00     0.021 A 
ATOM     13  C   UNL     1      -3.548 -40.587  21.821  1.00  0.00     0.016 A 
ATOM     14  C   UNL     1      -3.443 -41.233  23.056  1.00  0.00     0.051 A 
ATOM     15  C   UNL     1      -2.755 -40.628  24.115  1.00  0.00     0.157 A 
ATOM     16  C   UNL     1      -2.272 -38.722  22.693  1.00  0.00     0.062 A 
ATOM     17  C   UNL     1      -2.165 -39.367  23.931  1.00  0.00     0.158 A 
BRANCH  15  18
ATOM     18  O   UNL     1      -2.654 -41.275  25.346  1.00  0.00    -0.504 OA
ATOM     19  H   UNL     1      -3.442 -41.762  25.756  1.00  0.00     0.293 HD
ENDBRANCH  15  18
BRANCH  17  20
ATOM     20  O   UNL     1      -1.471 -38.739  24.964  1.00  0.00    -0.504 OA
ATOM     21  H   UNL     1      -0.511 -38.974  25.188  1.00  0.00     0.293 HD
ENDBRANCH  17  20
ENDBRANCH   1  12
BRANCH   6  22
ATOM     22  O   UNL     1      -3.695 -36.788  15.515  1.00  0.00    -0.507 OA
ATOM     23  H   UNL     1      -4.062 -36.208  14.776  1.00  0.00     0.293 HD
ENDBRANCH   6  22
BRANCH   8  24
ATOM     24  O   UNL     1      -2.498 -33.027  18.249  1.00  0.00    -0.508 OA
ATOM     25  H   UNL     1      -3.215 -32.376  18.545  1.00  0.00     0.293 HD
ENDBRANCH   8  24
TORSDOF 5
ENDMDL
MODEL 7
REMARK VINA RESULT:    -8.194     12.412     13.935
REMARK INTER + INTRA:          -9.949
REMARK INTER:                  -9.635
REMARK INTRA:                  -0.314
REMARK UNBOUND:                -0.318
REMARK SMILES O=c1cc(-c2ccc(O)c(O)c2)oc2cc(O)cc(O)c12
REMARK SMILES IDX 4 1 3 2 2 3 1 4 21 5 19 6 18 7 16 8 15 9 14 10 13 11 5 12
REMARK SMILES IDX 6 13 7 14 8 15 12 16 10 17 9 18 11 20 20 22 17 24
REMARK H PARENT 9 19 11 21 20 23 17 25
REMARK Flexibility Score: inf
ROOT
ATOM      1  C   UNL     1      -2.792 -37.345  19.714  1.00  0.00     0.138 A 
ATOM      2  C   UNL     1      -3.600 -38.442  20.042  1.00  0.00     0.100 A 
ATOM      3  C   UNL     1      -3.310 -39.197  21.179  1.00  0.00     0.197 A 
ATOM      4  O   UNL     1      -4.087 -40.140  21.477  1.00  0.00    -0.289 OA
ATOM      5  C   UNL     1      -2.184 -38.872  21.972  1.00  0.00     0.107 A 
ATOM      6  C   UNL     1      -1.771 -39.591  23.135  1.00  0.00     0.134 A 
ATOM      7  C   UNL     1      -0.696 -39.114  23.895  1.00  0.00     0.093 A 
ATOM      8  C   UNL     1       0.018 -37.979  23.503  1.00  0.00     0.123 A 
ATOM      9  C   UNL     1      -0.345 -37.300  22.344  1.00  0.00     0.094 A 
ATOM     10  C   UNL     1      -1.435 -37.728  21.582  1.00  0.00     0.146 A 
ATOM     11  O   UNL     1      -1.759 -37.040  20.492  1.00  0.00    -0.456 OA
ENDROOT
BRANCH   1  12
ATOM     12  C   UNL     1      -3.052 -36.508  18.514  1.00  0.00     0.021 A 
ATOM     13  C   UNL     1      -3.892 -36.947  17.474  1.00  0.00     0.016 A 
ATOM     14  C   UNL     1      -4.125 -36.134  16.361  1.00  0.00     0.051 A 
ATOM     15  C   UNL     1      -3.532 -34.869  16.272  1.00  0.00     0.157 A 
ATOM     16  C   UNL     1      -2.470 -35.231  18.423  1.00  0.00     0.062 A 
ATOM     17  C   UNL     1      -2.702 -34.415  17.310  1.00  0.00     0.158 A 
BRANCH  15  18
ATOM     18  O   UNL     1      -3.766 -34.061  15.160  1.00  0.00    -0.504 OA
ATOM     19  H   UNL     1      -3.683 -34.421  14.217  1.00  0.00     0.293 HD
ENDBRANCH  15  18
BRANCH  17  20
ATOM     20  O   UNL     1      -2.099 -33.159  17.254  1.00  0.00    -0.504 OA
ATOM     21  H   UNL     1      -1.466 -32.834  17.976  1.00  0.00     0.293 HD
ENDBRANCH  17  20
ENDBRANCH   1  12
BRANCH   6  22
ATOM     22  O   UNL     1      -2.363 -40.780  23.572  1.00  0.00    -0.507 OA
ATOM     23  H   UNL     1      -2.937 -41.384  23.004  1.00  0.00     0.293 HD
ENDBRANCH   6  22
BRANCH   8  24
ATOM     24  O   UNL     1       1.096 -37.522  24.258  1.00  0.00    -0.508 OA
ATOM     25  H   UNL     1       2.011 -37.381  23.845  1.00  0.00     0.293 HD
ENDBRANCH   8  24
TORSDOF 5
ENDMDL
MODEL 8
REMARK VINA RESULT:    -8.157     12.450     13.968
REMARK INTER + INTRA:          -9.906
REMARK INTER:                  -9.613
REMARK INTRA:                  -0.294
REMARK UNBOUND:                -0.318
REMARK SMILES O=c1cc(-c2ccc(O)c(O)c2)oc2cc(O)cc(O)c12
REMARK SMILES IDX 4 1 3 2 2 3 1 4 21 5 19 6 18 7 16 8 15 9 14 10 13 11 5 12
REMARK SMILES IDX 6 13 7 14 8 15 12 16 10 17 9 18 11 20 20 22 17 24
REMARK H PARENT 9 19 11 21 20 23 17 25
REMARK Flexibility Score: inf
ROOT
ATOM      1  C   UNL     1      -2.252 -36.828  19.585  1.00  0.00     0.138 A 
ATOM      2  C   UNL     1      -1.151 -36.359  20.314  1.00  0.00     0.100 A 
ATOM      3  C   UNL     1      -0.752 -37.030  21.471  1.00  0.00     0.197 A 
ATOM      4  O   UNL     1       0.273 -36.618  22.070  1.00  0.00    -0.289 OA
ATOM      5  C   UNL     1      -1.484 -38.156  21.919  1.00  0.00     0.107 A 
ATOM      6  C   UNL     1      -1.192 -38.900  23.102  1.00  0.00     0.134 A 
ATOM      7  C   UNL     1      -1.926 -40.056  23.389  1.00  0.00     0.093 A 
ATOM      8  C   UNL     1      -2.982 -40.463  22.568  1.00  0.00     0.123 A 
ATOM      9  C   UNL     1      -3.306 -39.717  21.439  1.00  0.00     0.094 A 
ATOM     10  C   UNL     1      -2.570 -38.579  21.105  1.00  0.00     0.146 A 
ATOM     11  O   UNL     1      -2.903 -37.906  20.008  1.00  0.00    -0.456 OA
ENDROOT
BRANCH   1  12
ATOM     12  C   UNL     1      -2.721 -36.151  18.348  1.00  0.00     0.021 A 
ATOM     13  C   UNL     1      -3.697 -36.727  17.513  1.00  0.00     0.016 A 
ATOM     14  C   UNL     1      -4.125 -36.063  16.361  1.00  0.00     0.051 A 
ATOM     15  C   UNL     1      -3.595 -34.811  16.027  1.00  0.00     0.157 A 
ATOM     16  C   UNL     1      -2.203 -34.887  18.014  1.00  0.00     0.062 A 
ATOM     17  C   UNL     1      -2.631 -34.220  16.860  1.00  0.00     0.158 A 
BRANCH  15  18
ATOM     18  O   UNL     1      -4.024 -34.151  14.876  1.00  0.00    -0.504 OA
ATOM     19  H   UNL     1      -3.979 -34.592  13.965  1.00  0.00     0.293 HD
ENDBRANCH  15  18
BRANCH  17  20
ATOM     20  O   UNL     1      -2.085 -32.972  16.558  1.00  0.00    -0.504 OA
ATOM     21  H   UNL     1      -1.184 -32.678  16.919  1.00  0.00     0.293 HD
ENDBRANCH  17  20
ENDBRANCH   1  12
BRANCH   6  22
ATOM     22  O   UNL     1      -0.213 -38.537  24.033  1.00  0.00    -0.507 OA
ATOM     23  H   UNL     1       0.691 -38.974  24.123  1.00  0.00     0.293 HD
ENDBRANCH   6  22
BRANCH   8  24
ATOM     24  O   UNL     1      -3.717 -41.607  22.872  1.00  0.00    -0.508 OA
ATOM     25  H   UNL     1      -3.263 -42.485  23.096  1.00  0.00     0.293 HD
ENDBRANCH   8  24
TORSDOF 5
ENDMDL
