MODEL 1
REMARK VINA RESULT:    -7.200      0.000      0.000
REMARK INTER + INTRA:          -7.825
REMARK INTER:                  -7.832
REMARK INTRA:                   0.007
REMARK UNBOUND:                 0.007
REMARK SMILES C[C@H]1[C@H](C)CC[C@]2(C(=O)[O-])CC[C@]3(C)C(=CC[C@@H]4[C@]5(C)CC[C@H](O)C(C)(C)[C@@H]5CC[C@@]43C)[C@H]12
REMARK SMILES IDX 7 1 6 2 11 3 33 4 5 5 12 6 15 7 2 8 3 9 13 10 16 11 1 12
REMARK SMILES IDX 4 13 14 14 31 15 17 16 18 17 30 18 32 19 19 20 29 21 28 22
REMARK SMILES IDX 21 23 20 24 25 25 22 26 23 27 26 28 27 29 8 30 9 31 10 32
REMARK SMILES IDX 24 33
REMARK H PARENT 24 34
REMARK Flexibility Score: inf
ROOT
ATOM      1  C   UNL     1      18.985  -8.303  40.143  1.00  0.00     0.017 C 
ATOM      2  C   UNL     1      18.220  -8.872  38.914  1.00  0.00     0.014 C 
ATOM      3  C   UNL     1      20.487  -8.625  40.042  1.00  0.00     0.014 C 
ATOM      4  C   UNL     1      18.423  -8.898  41.476  1.00  0.00     0.030 C 
ATOM      5  C   UNL     1      16.709  -8.642  38.993  1.00  0.00     0.004 C 
ATOM      6  C   UNL     1      20.810 -10.117  40.020  1.00  0.00     0.013 C 
ATOM      7  C   UNL     1      19.075 -10.224  41.947  1.00  0.00    -0.063 C 
ATOM      8  C   UNL     1      16.840  -8.874  41.559  1.00  0.00    -0.003 C 
ATOM      9  C   UNL     1      16.084  -9.261  40.253  1.00  0.00    -0.011 C 
ATOM     10  C   UNL     1      20.181 -10.990  41.181  1.00  0.00    -0.006 C 
ATOM     11  C   UNL     1      18.771 -10.602  43.209  1.00  0.00    -0.027 C 
ATOM     12  C   UNL     1      16.330  -7.511  42.072  1.00  0.00     0.008 C 
ATOM     13  C   UNL     1      15.895 -10.779  40.129  1.00  0.00     0.008 C 
ATOM     14  C   UNL     1      19.471 -12.216  40.523  1.00  0.00     0.017 C 
ATOM     15  C   UNL     1      21.338 -11.512  42.186  1.00  0.00    -0.020 C 
ATOM     16  C   UNL     1      19.579 -11.523  44.061  1.00  0.00     0.032 C 
ATOM     17  C   UNL     1      20.718 -12.334  43.380  1.00  0.00     0.006 C 
ATOM     18  C   UNL     1      22.121 -10.295  42.794  1.00  0.00     0.008 C 
ATOM     19  C   UNL     1      22.334 -12.429  41.376  1.00  0.00     0.012 C 
ATOM     20  C   UNL     1      21.807 -12.922  44.432  1.00  0.00    -0.025 C 
ATOM     21  C   UNL     1      22.707 -10.491  44.217  1.00  0.00     0.005 C 
ATOM     22  C   UNL     1      23.081 -11.958  44.554  1.00  0.00     0.003 C 
ATOM     23  C   UNL     1      21.139 -13.178  45.836  1.00  0.00     0.010 C 
ATOM     24  C   UNL     1      22.268 -14.329  43.911  1.00  0.00     0.012 C 
ATOM     25  C   UNL     1      23.978 -12.135  45.866  1.00  0.00    -0.006 C 
ATOM     26  C   UNL     1      22.112 -13.477  46.979  1.00  0.00     0.033 C 
ATOM     27  C   UNL     1      23.117 -12.334  47.144  1.00  0.00     0.120 C 
ATOM     28  C   UNL     1      24.917 -10.920  46.111  1.00  0.00     0.014 C 
ATOM     29  C   UNL     1      24.944 -13.344  45.700  1.00  0.00     0.014 C 
ENDROOT
BRANCH   1  30
ATOM     30  C   UNL     1      18.901  -6.776  40.153  1.00  0.00     0.048 C 
ATOM     31  O   UNL     1      19.451  -6.118  41.079  1.00  0.00    -0.550 OA
ATOM     32  O   UNL     1      18.343  -6.074  39.086  1.00  0.00    -0.550 OA
ENDBRANCH   1  30
BRANCH  27  33
ATOM     33  O   UNL     1      22.433 -11.146  47.461  1.00  0.00    -0.393 OA
ATOM     34  H   UNL     1      23.081 -10.400  47.352  1.00  0.00     0.210 HD
ENDBRANCH  27  33
TORSDOF 2
ENDMDL
MODEL 2
REMARK VINA RESULT:    -7.098      2.433      7.993
REMARK INTER + INTRA:          -7.714
REMARK INTER:                  -7.668
REMARK INTRA:                  -0.045
REMARK UNBOUND:                 0.007
REMARK SMILES C[C@H]1[C@H](C)CC[C@]2(C(=O)[O-])CC[C@]3(C)C(=CC[C@@H]4[C@]5(C)CC[C@H](O)C(C)(C)[C@@H]5CC[C@@]43C)[C@H]12
REMARK SMILES IDX 7 1 6 2 11 3 33 4 5 5 12 6 15 7 2 8 3 9 13 10 16 11 1 12
REMARK SMILES IDX 4 13 14 14 31 15 17 16 18 17 30 18 32 19 19 20 29 21 28 22
REMARK SMILES IDX 21 23 20 24 25 25 22 26 23 27 26 28 27 29 8 30 9 31 10 32
REMARK SMILES IDX 24 33
REMARK H PARENT 24 34
REMARK Flexibility Score: inf
ROOT
ATOM      1  C   UNL     1      20.750 -14.851  43.543  1.00  0.00     0.017 C 
ATOM      2  C   UNL     1      22.219 -14.790  44.050  1.00  0.00     0.014 C 
ATOM      3  C   UNL     1      20.686 -14.559  42.033  1.00  0.00     0.014 C 
ATOM      4  C   UNL     1      19.854 -13.817  44.301  1.00  0.00     0.030 C 
ATOM      5  C   UNL     1      22.338 -15.004  45.560  1.00  0.00     0.004 C 
ATOM      6  C   UNL     1      21.193 -13.174  41.638  1.00  0.00     0.013 C 
ATOM      7  C   UNL     1      19.790 -12.398  43.679  1.00  0.00    -0.063 C 
ATOM      8  C   UNL     1      20.058 -13.840  45.874  1.00  0.00    -0.003 C 
ATOM      9  C   UNL     1      21.529 -13.976  46.367  1.00  0.00    -0.011 C 
ATOM     10  C   UNL     1      20.568 -11.947  42.418  1.00  0.00    -0.006 C 
ATOM     11  C   UNL     1      18.832 -11.587  44.182  1.00  0.00    -0.027 C 
ATOM     12  C   UNL     1      19.183 -14.927  46.533  1.00  0.00     0.008 C 
ATOM     13  C   UNL     1      22.233 -12.615  46.456  1.00  0.00     0.008 C 
ATOM     14  C   UNL     1      21.747 -11.064  42.939  1.00  0.00     0.017 C 
ATOM     15  C   UNL     1      19.631 -11.069  41.432  1.00  0.00    -0.020 C 
ATOM     16  C   UNL     1      18.245 -10.401  43.493  1.00  0.00     0.032 C 
ATOM     17  C   UNL     1      18.956  -9.876  42.212  1.00  0.00     0.006 C 
ATOM     18  C   UNL     1      18.488 -11.960  40.830  1.00  0.00     0.008 C 
ATOM     19  C   UNL     1      20.524 -10.496  40.265  1.00  0.00     0.012 C 
ATOM     20  C   UNL     1      18.012  -8.921  41.298  1.00  0.00    -0.025 C 
ATOM     21  C   UNL     1      17.154 -11.242  40.496  1.00  0.00     0.005 C 
ATOM     22  C   UNL     1      17.316  -9.746  40.115  1.00  0.00     0.003 C 
ATOM     23  C   UNL     1      16.946  -8.178  42.190  1.00  0.00     0.010 C 
ATOM     24  C   UNL     1      18.919  -7.796  40.684  1.00  0.00     0.012 C 
ATOM     25  C   UNL     1      16.019  -9.081  39.457  1.00  0.00    -0.006 C 
ATOM     26  C   UNL     1      15.836  -7.459  41.421  1.00  0.00     0.033 C 
ATOM     27  C   UNL     1      15.084  -8.441  40.519  1.00  0.00     0.120 C 
ATOM     28  C   UNL     1      15.180 -10.101  38.637  1.00  0.00     0.014 C 
ATOM     29  C   UNL     1      16.438  -7.999  38.417  1.00  0.00     0.014 C 
ENDROOT
BRANCH   1  30
ATOM     30  C   UNL     1      20.196 -16.267  43.703  1.00  0.00     0.048 C 
ATOM     31  O   UNL     1      18.961 -16.483  43.564  1.00  0.00    -0.550 OA
ATOM     32  O   UNL     1      21.044 -17.362  43.867  1.00  0.00    -0.550 OA
ENDBRANCH   1  30
BRANCH  27  33
ATOM     33  O   UNL     1      14.484  -9.441  41.306  1.00  0.00    -0.393 OA
ATOM     34  H   UNL     1      14.807 -10.316  40.960  1.00  0.00     0.210 HD
ENDBRANCH  27  33
TORSDOF 2
ENDMDL
MODEL 3
REMARK VINA RESULT:    -7.045      1.189      1.423
REMARK INTER + INTRA:          -7.656
REMARK INTER:                  -7.614
REMARK INTRA:                  -0.042
REMARK UNBOUND:                 0.007
REMARK SMILES C[C@H]1[C@H](C)CC[C@]2(C(=O)[O-])CC[C@]3(C)C(=CC[C@@H]4[C@]5(C)CC[C@H](O)C(C)(C)[C@@H]5CC[C@@]43C)[C@H]12
REMARK SMILES IDX 7 1 6 2 11 3 33 4 5 5 12 6 15 7 2 8 3 9 13 10 16 11 1 12
REMARK SMILES IDX 4 13 14 14 31 15 17 16 18 17 30 18 32 19 19 20 29 21 28 22
REMARK SMILES IDX 21 23 20 24 25 25 22 26 23 27 26 28 27 29 8 30 9 31 10 32
REMARK SMILES IDX 24 33
REMARK H PARENT 24 34
REMARK Flexibility Score: inf
ROOT
ATOM      1  C   UNL     1      17.839  -9.509  39.883  1.00  0.00     0.017 C 
ATOM      2  C   UNL     1      16.626 -10.249  39.250  1.00  0.00     0.014 C 
ATOM      3  C   UNL     1      19.157 -10.207  39.503  1.00  0.00     0.014 C 
ATOM      4  C   UNL     1      17.715  -9.465  41.442  1.00  0.00     0.030 C 
ATOM      5  C   UNL     1      15.280  -9.640  39.650  1.00  0.00     0.004 C 
ATOM      6  C   UNL     1      19.266 -11.651  39.988  1.00  0.00     0.013 C 
ATOM      7  C   UNL     1      18.323 -10.674  42.199  1.00  0.00    -0.063 C 
ATOM      8  C   UNL     1      16.278  -9.024  41.948  1.00  0.00    -0.003 C 
ATOM      9  C   UNL     1      15.069  -9.626  41.172  1.00  0.00    -0.011 C 
ATOM     10  C   UNL     1      18.985 -11.901  41.525  1.00  0.00    -0.006 C 
ATOM     11  C   UNL     1      18.439 -10.521  43.538  1.00  0.00    -0.027 C 
ATOM     12  C   UNL     1      16.153  -7.487  41.997  1.00  0.00     0.008 C 
ATOM     13  C   UNL     1      14.663 -11.001  41.720  1.00  0.00     0.008 C 
ATOM     14  C   UNL     1      17.944 -13.061  41.636  1.00  0.00     0.017 C 
ATOM     15  C   UNL     1      20.348 -12.325  42.287  1.00  0.00    -0.020 C 
ATOM     16  C   UNL     1      19.376 -11.273  44.422  1.00  0.00     0.032 C 
ATOM     17  C   UNL     1      20.093 -12.520  43.831  1.00  0.00     0.006 C 
ATOM     18  C   UNL     1      21.439 -11.210  42.115  1.00  0.00     0.008 C 
ATOM     19  C   UNL     1      20.874 -13.677  41.666  1.00  0.00     0.012 C 
ATOM     20  C   UNL     1      21.403 -12.972  44.679  1.00  0.00    -0.025 C 
ATOM     21  C   UNL     1      22.460 -11.056  43.273  1.00  0.00     0.005 C 
ATOM     22  C   UNL     1      22.746 -12.370  44.047  1.00  0.00     0.003 C 
ATOM     23  C   UNL     1      21.247 -12.570  46.195  1.00  0.00     0.010 C 
ATOM     24  C   UNL     1      21.474 -14.540  44.655  1.00  0.00     0.012 C 
ATOM     25  C   UNL     1      24.019 -12.313  45.013  1.00  0.00    -0.006 C 
ATOM     26  C   UNL     1      22.515 -12.700  47.040  1.00  0.00     0.033 C 
ATOM     27  C   UNL     1      23.646 -11.854  46.449  1.00  0.00     0.120 C 
ATOM     28  C   UNL     1      25.125 -11.359  44.481  1.00  0.00     0.014 C 
ATOM     29  C   UNL     1      24.709 -13.708  45.078  1.00  0.00     0.014 C 
ENDROOT
BRANCH   1  30
ATOM     30  C   UNL     1      17.952  -8.097  39.309  1.00  0.00     0.048 C 
ATOM     31  O   UNL     1      18.700  -7.246  39.864  1.00  0.00    -0.550 OA
ATOM     32  O   UNL     1      17.350  -7.757  38.099  1.00  0.00    -0.550 OA
ENDBRANCH   1  30
BRANCH  27  33
ATOM     33  O   UNL     1      23.270 -10.499  46.445  1.00  0.00    -0.393 OA
ATOM     34  H   UNL     1      22.280 -10.472  46.346  1.00  0.00     0.210 HD
ENDBRANCH  27  33
TORSDOF 2
ENDMDL
MODEL 4
REMARK VINA RESULT:    -6.913      2.434      7.934
REMARK INTER + INTRA:          -7.513
REMARK INTER:                  -7.476
REMARK INTRA:                  -0.037
REMARK UNBOUND:                 0.007
REMARK SMILES C[C@H]1[C@H](C)CC[C@]2(C(=O)[O-])CC[C@]3(C)C(=CC[C@@H]4[C@]5(C)CC[C@H](O)C(C)(C)[C@@H]5CC[C@@]43C)[C@H]12
REMARK SMILES IDX 7 1 6 2 11 3 33 4 5 5 12 6 15 7 2 8 3 9 13 10 16 11 1 12
REMARK SMILES IDX 4 13 14 14 31 15 17 16 18 17 30 18 32 19 19 20 29 21 28 22
REMARK SMILES IDX 21 23 20 24 25 25 22 26 23 27 26 28 27 29 8 30 9 31 10 32
REMARK SMILES IDX 24 33
REMARK H PARENT 24 34
REMARK Flexibility Score: inf
ROOT
ATOM      1  C   UNL     1      23.483 -13.854  43.888  1.00  0.00     0.017 C 
ATOM      2  C   UNL     1      24.732 -13.079  44.397  1.00  0.00     0.014 C 
ATOM      3  C   UNL     1      23.263 -13.597  42.386  1.00  0.00     0.014 C 
ATOM      4  C   UNL     1      22.201 -13.424  44.674  1.00  0.00     0.030 C 
ATOM      5  C   UNL     1      24.962 -13.241  45.902  1.00  0.00     0.004 C 
ATOM      6  C   UNL     1      23.005 -12.135  42.029  1.00  0.00     0.013 C 
ATOM      7  C   UNL     1      21.429 -12.213  44.090  1.00  0.00    -0.063 C 
ATOM      8  C   UNL     1      22.410 -13.380  46.245  1.00  0.00    -0.003 C 
ATOM      9  C   UNL     1      23.759 -12.775  46.735  1.00  0.00    -0.011 C 
ATOM     10  C   UNL     1      21.861 -11.403  42.843  1.00  0.00    -0.006 C 
ATOM     11  C   UNL     1      20.201 -12.001  44.614  1.00  0.00    -0.027 C 
ATOM     12  C   UNL     1      22.203 -14.774  46.873  1.00  0.00     0.008 C 
ATOM     13  C   UNL     1      23.690 -11.247  46.862  1.00  0.00     0.008 C 
ATOM     14  C   UNL     1      22.448 -10.062  43.388  1.00  0.00     0.017 C 
ATOM     15  C   UNL     1      20.599 -11.087  41.880  1.00  0.00    -0.020 C 
ATOM     16  C   UNL     1      19.091 -11.251  43.957  1.00  0.00     0.032 C 
ATOM     17  C   UNL     1      19.428 -10.411  42.692  1.00  0.00     0.006 C 
ATOM     18  C   UNL     1      20.045 -12.415  41.253  1.00  0.00     0.008 C 
ATOM     19  C   UNL     1      21.070 -10.117  40.730  1.00  0.00     0.012 C 
ATOM     20  C   UNL     1      18.122 -10.033  41.804  1.00  0.00    -0.025 C 
ATOM     21  C   UNL     1      18.526 -12.452  40.938  1.00  0.00     0.005 C 
ATOM     22  C   UNL     1      17.915 -11.067  40.598  1.00  0.00     0.003 C 
ATOM     23  C   UNL     1      16.839  -9.943  42.715  1.00  0.00     0.010 C 
ATOM     24  C   UNL     1      18.337  -8.591  41.221  1.00  0.00     0.012 C 
ATOM     25  C   UNL     1      16.451 -11.122  39.957  1.00  0.00    -0.006 C 
ATOM     26  C   UNL     1      15.508  -9.857  41.965  1.00  0.00     0.033 C 
ATOM     27  C   UNL     1      15.335 -11.061  41.036  1.00  0.00     0.120 C 
ATOM     28  C   UNL     1      16.223 -12.405  39.110  1.00  0.00     0.014 C 
ATOM     29  C   UNL     1      16.260  -9.952  38.948  1.00  0.00     0.014 C 
ENDROOT
BRANCH   1  30
ATOM     30  C   UNL     1      23.713 -15.361  44.009  1.00  0.00     0.048 C 
ATOM     31  O   UNL     1      22.765 -16.165  43.796  1.00  0.00    -0.550 OA
ATOM     32  O   UNL     1      24.988 -15.884  44.218  1.00  0.00    -0.550 OA
ENDBRANCH   1  30
BRANCH  27  33
ATOM     33  O   UNL     1      15.324 -12.246  41.795  1.00  0.00    -0.393 OA
ATOM     34  H   UNL     1      16.218 -12.669  41.685  1.00  0.00     0.210 HD
ENDBRANCH  27  33
TORSDOF 2
ENDMDL
MODEL 5
REMARK VINA RESULT:    -6.627      1.885      2.554
REMARK INTER + INTRA:          -7.201
REMARK INTER:                  -7.187
REMARK INTRA:                  -0.015
REMARK UNBOUND:                 0.007
REMARK SMILES C[C@H]1[C@H](C)CC[C@]2(C(=O)[O-])CC[C@]3(C)C(=CC[C@@H]4[C@]5(C)CC[C@H](O)C(C)(C)[C@@H]5CC[C@@]43C)[C@H]12
REMARK SMILES IDX 7 1 6 2 11 3 33 4 5 5 12 6 15 7 2 8 3 9 13 10 16 11 1 12
REMARK SMILES IDX 4 13 14 14 31 15 17 16 18 17 30 18 32 19 19 20 29 21 28 22
REMARK SMILES IDX 21 23 20 24 25 25 22 26 23 27 26 28 27 29 8 30 9 31 10 32
REMARK SMILES IDX 24 33
REMARK H PARENT 24 34
REMARK Flexibility Score: inf
ROOT
ATOM      1  C   UNL     1      17.599  -9.971  41.236  1.00  0.00     0.017 C 
ATOM      2  C   UNL     1      17.452  -9.908  39.689  1.00  0.00     0.014 C 
ATOM      3  C   UNL     1      18.962  -9.403  41.673  1.00  0.00     0.014 C 
ATOM      4  C   UNL     1      17.470 -11.442  41.751  1.00  0.00     0.030 C 
ATOM      5  C   UNL     1      16.143 -10.523  39.189  1.00  0.00     0.004 C 
ATOM      6  C   UNL     1      20.166 -10.163  41.121  1.00  0.00     0.013 C 
ATOM      7  C   UNL     1      18.789 -12.255  41.801  1.00  0.00    -0.063 C 
ATOM      8  C   UNL     1      16.236 -12.221  41.129  1.00  0.00    -0.003 C 
ATOM      9  C   UNL     1      15.985 -11.993  39.609  1.00  0.00    -0.011 C 
ATOM     10  C   UNL     1      20.173 -11.730  41.347  1.00  0.00    -0.006 C 
ATOM     11  C   UNL     1      18.722 -13.427  42.473  1.00  0.00    -0.027 C 
ATOM     12  C   UNL     1      14.943 -11.938  41.921  1.00  0.00     0.008 C 
ATOM     13  C   UNL     1      16.819 -12.944  38.740  1.00  0.00     0.008 C 
ATOM     14  C   UNL     1      20.454 -12.408  39.968  1.00  0.00     0.017 C 
ATOM     15  C   UNL     1      21.332 -12.143  42.398  1.00  0.00    -0.020 C 
ATOM     16  C   UNL     1      19.879 -14.155  43.070  1.00  0.00     0.032 C 
ATOM     17  C   UNL     1      21.312 -13.695  42.676  1.00  0.00     0.006 C 
ATOM     18  C   UNL     1      21.117 -11.406  43.766  1.00  0.00     0.008 C 
ATOM     19  C   UNL     1      22.731 -11.736  41.793  1.00  0.00     0.012 C 
ATOM     20  C   UNL     1      22.459 -14.212  43.704  1.00  0.00    -0.025 C 
ATOM     21  C   UNL     1      21.605 -12.149  45.037  1.00  0.00     0.005 C 
ATOM     22  C   UNL     1      22.810 -13.095  44.797  1.00  0.00     0.003 C 
ATOM     23  C   UNL     1      22.027 -15.567  44.381  1.00  0.00     0.010 C 
ATOM     24  C   UNL     1      23.744 -14.540  42.864  1.00  0.00     0.012 C 
ATOM     25  C   UNL     1      23.531 -13.610  46.128  1.00  0.00    -0.006 C 
ATOM     26  C   UNL     1      22.894 -16.017  45.558  1.00  0.00     0.033 C 
ATOM     27  C   UNL     1      22.923 -14.941  46.648  1.00  0.00     0.120 C 
ATOM     28  C   UNL     1      23.458 -12.572  47.283  1.00  0.00     0.014 C 
ATOM     29  C   UNL     1      25.056 -13.802  45.876  1.00  0.00     0.014 C 
ENDROOT
BRANCH   1  30
ATOM     30  C   UNL     1      16.557  -9.071  41.900  1.00  0.00     0.048 C 
ATOM     31  O   UNL     1      16.461  -9.034  43.158  1.00  0.00    -0.550 OA
ATOM     32  O   UNL     1      15.791  -8.177  41.154  1.00  0.00    -0.550 OA
ENDBRANCH   1  30
BRANCH  27  33
ATOM     33  O   UNL     1      21.619 -14.726  47.132  1.00  0.00    -0.393 OA
ATOM     34  H   UNL     1      21.512 -15.295  47.941  1.00  0.00     0.210 HD
ENDBRANCH  27  33
TORSDOF 2
ENDMDL
MODEL 6
REMARK VINA RESULT:    -6.321      1.302      7.819
REMARK INTER + INTRA:          -6.868
REMARK INTER:                  -6.956
REMARK INTRA:                   0.088
REMARK UNBOUND:                 0.007
REMARK SMILES C[C@H]1[C@H](C)CC[C@]2(C(=O)[O-])CC[C@]3(C)C(=CC[C@@H]4[C@]5(C)CC[C@H](O)C(C)(C)[C@@H]5CC[C@@]43C)[C@H]12
REMARK SMILES IDX 7 1 6 2 11 3 33 4 5 5 12 6 15 7 2 8 3 9 13 10 16 11 1 12
REMARK SMILES IDX 4 13 14 14 31 15 17 16 18 17 30 18 32 19 19 20 29 21 28 22
REMARK SMILES IDX 21 23 20 24 25 25 22 26 23 27 26 28 27 29 8 30 9 31 10 32
REMARK SMILES IDX 24 33
REMARK H PARENT 24 34
REMARK Flexibility Score: inf
ROOT
ATOM      1  C   UNL     1      22.185 -12.910  45.339  1.00  0.00     0.017 C 
ATOM      2  C   UNL     1      22.977 -14.222  45.068  1.00  0.00     0.014 C 
ATOM      3  C   UNL     1      20.674 -13.145  45.163  1.00  0.00     0.014 C 
ATOM      4  C   UNL     1      22.642 -11.772  44.369  1.00  0.00     0.030 C 
ATOM      5  C   UNL     1      24.493 -14.034  45.162  1.00  0.00     0.004 C 
ATOM      6  C   UNL     1      20.265 -13.582  43.758  1.00  0.00     0.013 C 
ATOM      7  C   UNL     1      21.891 -11.701  43.014  1.00  0.00    -0.063 C 
ATOM      8  C   UNL     1      24.218 -11.633  44.258  1.00  0.00    -0.003 C 
ATOM      9  C   UNL     1      25.015 -12.969  44.184  1.00  0.00    -0.011 C 
ATOM     10  C   UNL     1      20.782 -12.682  42.562  1.00  0.00    -0.006 C 
ATOM     11  C   UNL     1      22.107 -10.579  42.290  1.00  0.00    -0.027 C 
ATOM     12  C   UNL     1      24.780 -10.752  45.393  1.00  0.00     0.008 C 
ATOM     13  C   UNL     1      25.121 -13.495  42.746  1.00  0.00     0.008 C 
ATOM     14  C   UNL     1      21.450 -13.625  41.512  1.00  0.00     0.017 C 
ATOM     15  C   UNL     1      19.546 -11.896  41.873  1.00  0.00    -0.020 C 
ATOM     16  C   UNL     1      21.204 -10.037  41.233  1.00  0.00     0.032 C 
ATOM     17  C   UNL     1      20.055 -10.951  40.718  1.00  0.00     0.006 C 
ATOM     18  C   UNL     1      18.806 -11.006  42.933  1.00  0.00     0.008 C 
ATOM     19  C   UNL     1      18.541 -12.957  41.279  1.00  0.00     0.012 C 
ATOM     20  C   UNL     1      18.881 -10.135  39.947  1.00  0.00    -0.025 C 
ATOM     21  C   UNL     1      18.139  -9.710  42.403  1.00  0.00     0.005 C 
ATOM     22  C   UNL     1      17.662  -9.797  40.929  1.00  0.00     0.003 C 
ATOM     23  C   UNL     1      19.460  -8.832  39.276  1.00  0.00     0.010 C 
ATOM     24  C   UNL     1      18.365 -11.034  38.768  1.00  0.00     0.012 C 
ATOM     25  C   UNL     1      16.690  -8.613  40.470  1.00  0.00    -0.006 C 
ATOM     26  C   UNL     1      18.415  -7.846  38.749  1.00  0.00     0.033 C 
ATOM     27  C   UNL     1      17.472  -7.410  39.874  1.00  0.00     0.120 C 
ATOM     28  C   UNL     1      15.814  -8.078  41.637  1.00  0.00     0.014 C 
ATOM     29  C   UNL     1      15.664  -9.134  39.421  1.00  0.00     0.014 C 
ENDROOT
BRANCH   1  30
ATOM     30  C   UNL     1      22.358 -12.482  46.796  1.00  0.00     0.048 C 
ATOM     31  O   UNL     1      22.929 -13.251  47.618  1.00  0.00    -0.550 OA
ATOM     32  O   UNL     1      22.021 -11.198  47.219  1.00  0.00    -0.550 OA
ENDBRANCH   1  30
BRANCH  27  33
ATOM     33  O   UNL     1      18.208  -6.759  40.881  1.00  0.00    -0.393 OA
ATOM     34  H   UNL     1      17.798  -7.014  41.751  1.00  0.00     0.210 HD
ENDBRANCH  27  33
TORSDOF 2
ENDMDL
MODEL 7
REMARK VINA RESULT:    -5.903      3.972      8.299
REMARK INTER + INTRA:          -6.414
REMARK INTER:                  -6.519
REMARK INTRA:                   0.105
REMARK UNBOUND:                 0.007
REMARK SMILES C[C@H]1[C@H](C)CC[C@]2(C(=O)[O-])CC[C@]3(C)C(=CC[C@@H]4[C@]5(C)CC[C@H](O)C(C)(C)[C@@H]5CC[C@@]43C)[C@H]12
REMARK SMILES IDX 7 1 6 2 11 3 33 4 5 5 12 6 15 7 2 8 3 9 13 10 16 11 1 12
REMARK SMILES IDX 4 13 14 14 31 15 17 16 18 17 30 18 32 19 19 20 29 21 28 22
REMARK SMILES IDX 21 23 20 24 25 25 22 26 23 27 26 28 27 29 8 30 9 31 10 32
REMARK SMILES IDX 24 33
REMARK H PARENT 24 34
REMARK Flexibility Score: inf
ROOT
ATOM      1  C   UNL     1      22.068 -13.023  45.751  1.00  0.00     0.017 C 
ATOM      2  C   UNL     1      22.755 -13.936  46.807  1.00  0.00     0.014 C 
ATOM      3  C   UNL     1      20.559 -13.320  45.679  1.00  0.00     0.014 C 
ATOM      4  C   UNL     1      22.699 -13.235  44.335  1.00  0.00     0.030 C 
ATOM      5  C   UNL     1      24.271 -13.734  46.875  1.00  0.00     0.004 C 
ATOM      6  C   UNL     1      20.219 -14.749  45.262  1.00  0.00     0.013 C 
ATOM      7  C   UNL     1      22.061 -14.357  43.476  1.00  0.00    -0.063 C 
ATOM      8  C   UNL     1      24.285 -13.231  44.345  1.00  0.00    -0.003 C 
ATOM      9  C   UNL     1      24.960 -13.990  45.526  1.00  0.00    -0.011 C 
ATOM     10  C   UNL     1      20.904 -15.278  43.936  1.00  0.00    -0.006 C 
ATOM     11  C   UNL     1      22.433 -14.374  42.176  1.00  0.00    -0.027 C 
ATOM     12  C   UNL     1      24.838 -11.794  44.264  1.00  0.00     0.008 C 
ATOM     13  C   UNL     1      25.125 -15.487  45.227  1.00  0.00     0.008 C 
ATOM     14  C   UNL     1      21.561 -16.658  44.258  1.00  0.00     0.017 C 
ATOM     15  C   UNL     1      19.801 -15.464  42.767  1.00  0.00    -0.020 C 
ATOM     16  C   UNL     1      21.665 -14.996  41.058  1.00  0.00     0.032 C 
ATOM     17  C   UNL     1      20.479 -15.935  41.423  1.00  0.00     0.006 C 
ATOM     18  C   UNL     1      19.068 -14.106  42.486  1.00  0.00     0.008 C 
ATOM     19  C   UNL     1      18.750 -16.545  43.232  1.00  0.00     0.012 C 
ATOM     20  C   UNL     1      19.445 -16.173  40.193  1.00  0.00    -0.025 C 
ATOM     21  C   UNL     1      18.563 -13.877  41.037  1.00  0.00     0.005 C 
ATOM     22  C   UNL     1      18.192 -15.181  40.281  1.00  0.00     0.003 C 
ATOM     23  C   UNL     1      20.190 -16.043  38.810  1.00  0.00     0.010 C 
ATOM     24  C   UNL     1      18.940 -17.658  40.271  1.00  0.00     0.012 C 
ATOM     25  C   UNL     1      17.370 -14.957  38.928  1.00  0.00    -0.006 C 
ATOM     26  C   UNL     1      19.282 -15.983  37.581  1.00  0.00     0.033 C 
ATOM     27  C   UNL     1      18.300 -14.812  37.693  1.00  0.00     0.120 C 
ATOM     28  C   UNL     1      16.461 -13.697  38.987  1.00  0.00     0.014 C 
ATOM     29  C   UNL     1      16.382 -16.138  38.696  1.00  0.00     0.014 C 
ENDROOT
BRANCH   1  30
ATOM     30  C   UNL     1      22.170 -11.558  46.176  1.00  0.00     0.048 C 
ATOM     31  O   UNL     1      22.755 -11.250  47.250  1.00  0.00    -0.550 OA
ATOM     32  O   UNL     1      21.749 -10.529  45.335  1.00  0.00    -0.550 OA
ENDBRANCH   1  30
BRANCH  27  33
ATOM     33  O   UNL     1      19.015 -13.602  37.759  1.00  0.00    -0.393 OA
ATOM     34  H   UNL     1      19.387 -13.434  36.852  1.00  0.00     0.210 HD
ENDBRANCH  27  33
TORSDOF 2
ENDMDL
MODEL 8
REMARK VINA RESULT:    -5.843      8.920     12.541
REMARK INTER + INTRA:          -6.349
REMARK INTER:                  -6.304
REMARK INTRA:                  -0.045
REMARK UNBOUND:                 0.007
REMARK SMILES C[C@H]1[C@H](C)CC[C@]2(C(=O)[O-])CC[C@]3(C)C(=CC[C@@H]4[C@]5(C)CC[C@H](O)C(C)(C)[C@@H]5CC[C@@]43C)[C@H]12
REMARK SMILES IDX 7 1 6 2 11 3 33 4 5 5 12 6 15 7 2 8 3 9 13 10 16 11 1 12
REMARK SMILES IDX 4 13 14 14 31 15 17 16 18 17 30 18 32 19 19 20 29 21 28 22
REMARK SMILES IDX 21 23 20 24 25 25 22 26 23 27 26 28 27 29 8 30 9 31 10 32
REMARK SMILES IDX 24 33
REMARK H PARENT 24 34
REMARK Flexibility Score: inf
ROOT
ATOM      1  C   UNL     1      13.615  -6.602  34.544  1.00  0.00     0.017 C 
ATOM      2  C   UNL     1      15.162  -6.631  34.378  1.00  0.00     0.014 C 
ATOM      3  C   UNL     1      13.099  -5.152  34.549  1.00  0.00     0.014 C 
ATOM      4  C   UNL     1      13.183  -7.303  35.874  1.00  0.00     0.030 C 
ATOM      5  C   UNL     1      15.741  -8.046  34.435  1.00  0.00     0.004 C 
ATOM      6  C   UNL     1      13.644  -4.294  35.688  1.00  0.00     0.013 C 
ATOM      7  C   UNL     1      13.126  -6.390  37.127  1.00  0.00    -0.063 C 
ATOM      8  C   UNL     1      13.890  -8.703  36.107  1.00  0.00    -0.003 C 
ATOM      9  C   UNL     1      15.405  -8.768  35.749  1.00  0.00    -0.011 C 
ATOM     10  C   UNL     1      13.501  -4.888  37.148  1.00  0.00    -0.006 C 
ATOM     11  C   UNL     1      12.519  -6.929  38.209  1.00  0.00    -0.027 C 
ATOM     12  C   UNL     1      13.133  -9.836  35.384  1.00  0.00     0.008 C 
ATOM     13  C   UNL     1      16.290  -8.306  36.915  1.00  0.00     0.008 C 
ATOM     14  C   UNL     1      14.902  -4.808  37.834  1.00  0.00     0.017 C 
ATOM     15  C   UNL     1      12.430  -4.028  38.004  1.00  0.00    -0.020 C 
ATOM     16  C   UNL     1      11.917  -6.165  39.340  1.00  0.00     0.032 C 
ATOM     17  C   UNL     1      12.234  -4.645  39.442  1.00  0.00     0.006 C 
ATOM     18  C   UNL     1      11.034  -4.024  37.287  1.00  0.00     0.008 C 
ATOM     19  C   UNL     1      12.960  -2.548  38.135  1.00  0.00     0.012 C 
ATOM     20  C   UNL     1      11.192  -3.833  40.388  1.00  0.00    -0.025 C 
ATOM     21  C   UNL     1       9.786  -3.921  38.202  1.00  0.00     0.005 C 
ATOM     22  C   UNL     1      10.030  -3.148  39.525  1.00  0.00     0.003 C 
ATOM     23  C   UNL     1      10.603  -4.779  41.503  1.00  0.00     0.010 C 
ATOM     24  C   UNL     1      11.999  -2.722  41.149  1.00  0.00     0.012 C 
ATOM     25  C   UNL     1       8.702  -2.747  40.320  1.00  0.00    -0.006 C 
ATOM     26  C   UNL     1       9.419  -4.209  42.287  1.00  0.00     0.033 C 
ATOM     27  C   UNL     1       8.275  -3.838  41.339  1.00  0.00     0.120 C 
ATOM     28  C   UNL     1       7.498  -2.487  39.371  1.00  0.00     0.014 C 
ATOM     29  C   UNL     1       8.907  -1.395  41.065  1.00  0.00     0.014 C 
ENDROOT
BRANCH   1  30
ATOM     30  C   UNL     1      12.944  -7.264  33.340  1.00  0.00     0.048 C 
ATOM     31  O   UNL     1      11.718  -7.558  33.382  1.00  0.00    -0.550 OA
ATOM     32  O   UNL     1      13.623  -7.431  32.134  1.00  0.00    -0.550 OA
ENDBRANCH   1  30
BRANCH  27  33
ATOM     33  O   UNL     1       7.829  -4.989  40.664  1.00  0.00    -0.393 OA
ATOM     34  H   UNL     1       8.632  -5.421  40.264  1.00  0.00     0.210 HD
ENDBRANCH  27  33
TORSDOF 2
ENDMDL
MODEL 9
REMARK VINA RESULT:    -5.621      5.233      8.965
REMARK INTER + INTRA:          -6.107
REMARK INTER:                  -6.064
REMARK INTRA:                  -0.043
REMARK UNBOUND:                 0.007
REMARK SMILES C[C@H]1[C@H](C)CC[C@]2(C(=O)[O-])CC[C@]3(C)C(=CC[C@@H]4[C@]5(C)CC[C@H](O)C(C)(C)[C@@H]5CC[C@@]43C)[C@H]12
REMARK SMILES IDX 7 1 6 2 11 3 33 4 5 5 12 6 15 7 2 8 3 9 13 10 16 11 1 12
REMARK SMILES IDX 4 13 14 14 31 15 17 16 18 17 30 18 32 19 19 20 29 21 28 22
REMARK SMILES IDX 21 23 20 24 25 25 22 26 23 27 26 28 27 29 8 30 9 31 10 32
REMARK SMILES IDX 24 33
REMARK H PARENT 24 34
REMARK Flexibility Score: inf
ROOT
ATOM      1  C   UNL     1      13.611  -6.001  33.549  1.00  0.00     0.017 C 
ATOM      2  C   UNL     1      12.834  -6.732  32.416  1.00  0.00     0.014 C 
ATOM      3  C   UNL     1      15.034  -6.574  33.685  1.00  0.00     0.014 C 
ATOM      4  C   UNL     1      12.869  -6.145  34.918  1.00  0.00     0.030 C 
ATOM      5  C   UNL     1      11.388  -6.251  32.280  1.00  0.00     0.004 C 
ATOM      6  C   UNL     1      15.083  -8.055  34.051  1.00  0.00     0.013 C 
ATOM      7  C   UNL     1      13.240  -7.396  35.756  1.00  0.00    -0.063 C 
ATOM      8  C   UNL     1      11.314  -5.848  34.827  1.00  0.00    -0.003 C 
ATOM      9  C   UNL     1      10.584  -6.425  33.578  1.00  0.00    -0.011 C 
ATOM     10  C   UNL     1      14.235  -8.497  35.313  1.00  0.00    -0.006 C 
ATOM     11  C   UNL     1      12.795  -7.392  37.033  1.00  0.00    -0.027 C 
ATOM     12  C   UNL     1      11.028  -4.337  34.947  1.00  0.00     0.008 C 
ATOM     13  C   UNL     1      10.131  -7.876  33.797  1.00  0.00     0.008 C 
ATOM     14  C   UNL     1      13.358  -9.720  34.893  1.00  0.00     0.017 C 
ATOM     15  C   UNL     1      15.215  -8.927  36.528  1.00  0.00    -0.020 C 
ATOM     16  C   UNL     1      13.369  -8.186  38.158  1.00  0.00     0.032 C 
ATOM     17  C   UNL     1      14.383  -9.314  37.811  1.00  0.00     0.006 C 
ATOM     18  C   UNL     1      16.165  -7.738  36.910  1.00  0.00     0.008 C 
ATOM     19  C   UNL     1      16.076 -10.166  36.067  1.00  0.00     0.012 C 
ATOM     20  C   UNL     1      15.281  -9.784  39.080  1.00  0.00    -0.025 C 
ATOM     21  C   UNL     1      16.616  -7.661  38.392  1.00  0.00     0.005 C 
ATOM     22  C   UNL     1      16.697  -9.037  39.104  1.00  0.00     0.003 C 
ATOM     23  C   UNL     1      14.492  -9.569  40.427  1.00  0.00     0.010 C 
ATOM     24  C   UNL     1      15.511 -11.332  38.958  1.00  0.00     0.012 C 
ATOM     25  C   UNL     1      17.464  -9.019  40.507  1.00  0.00    -0.006 C 
ATOM     26  C   UNL     1      15.321  -9.723  41.704  1.00  0.00     0.033 C 
ATOM     27  C   UNL     1      16.504  -8.751  41.698  1.00  0.00     0.120 C 
ATOM     28  C   UNL     1      18.590  -7.948  40.554  1.00  0.00     0.014 C 
ATOM     29  C   UNL     1      18.205 -10.370  40.733  1.00  0.00     0.014 C 
ENDROOT
BRANCH   1  30
ATOM     30  C   UNL     1      13.804  -4.528  33.189  1.00  0.00     0.048 C 
ATOM     31  O   UNL     1      14.206  -3.710  34.062  1.00  0.00    -0.550 OA
ATOM     32  O   UNL     1      13.676  -4.080  31.875  1.00  0.00    -0.550 OA
ENDBRANCH   1  30
BRANCH  27  33
ATOM     33  O   UNL     1      16.027  -7.428  41.652  1.00  0.00    -0.393 OA
ATOM     34  H   UNL     1      16.076  -7.135  40.703  1.00  0.00     0.210 HD
ENDBRANCH  27  33
TORSDOF 2
ENDMDL
