MODEL 1
REMARK VINA RESULT:    15.132      0.000      0.000
REMARK INTER + INTRA:          27.721
REMARK INTER:                  28.401
REMARK INTRA:                  -0.680
REMARK UNBOUND:                -0.680
REMARK SMILES O=C([O-])CCCCCCCCCCCCCCC(=O)[O-]
REMARK SMILES IDX 10 1 9 2 8 3 7 4 6 5 5 6 4 7 2 8 1 9 3 10 11 11 12 12 13 13
REMARK SMILES IDX 14 14 15 15 16 16 17 17 18 18 19 19 20 20
REMARK H PARENT
REMARK Flexibility Score: inf
ROOT
ATOM      1  C   UNL     1     -12.875   2.957 -18.174  1.00  0.00     0.000 C 
ENDROOT
BRANCH   1   2
ATOM      2  C   UNL     1     -13.146   1.466 -17.908  1.00  0.00     0.000 C 
BRANCH   2   3
ATOM      3  C   UNL     1     -11.929   0.732 -17.326  1.00  0.00     0.000 C 
BRANCH   3   4
ATOM      4  C   UNL     1     -12.089  -0.791 -17.461  1.00  0.00     0.000 C 
BRANCH   4   5
ATOM      5  C   UNL     1     -10.923  -1.445 -18.220  1.00  0.00     0.000 C 
BRANCH   5   6
ATOM      6  C   UNL     1      -9.571  -0.793 -17.903  1.00  0.00     0.006 C 
BRANCH   6   7
ATOM      7  C   UNL     1      -8.673  -1.750 -17.110  1.00  0.00     0.053 C 
BRANCH   7   8
ATOM      8  C   UNL     1      -7.534  -1.005 -16.490  1.00  0.00     0.041 C 
ATOM      9  O   UNL     1      -6.878  -0.171 -17.170  1.00  0.00    -0.550 OA
ATOM     10  O   UNL     1      -7.163  -1.267 -15.177  1.00  0.00    -0.550 OA
ENDBRANCH   7   8
ENDBRANCH   6   7
ENDBRANCH   5   6
ENDBRANCH   4   5
ENDBRANCH   3   4
ENDBRANCH   2   3
ENDBRANCH   1   2
BRANCH   1  11
ATOM     11  C   UNL     1     -14.135   3.844 -18.267  1.00  0.00     0.000 C 
BRANCH  11  12
ATOM     12  C   UNL     1     -14.059   4.988 -19.298  1.00  0.00     0.000 C 
BRANCH  12  13
ATOM     13  C   UNL     1     -15.384   5.732 -19.544  1.00  0.00     0.000 C 
BRANCH  13  14
ATOM     14  C   UNL     1     -15.191   7.050 -20.312  1.00  0.00     0.000 C 
BRANCH  14  15
ATOM     15  C   UNL     1     -14.097   7.939 -19.699  1.00  0.00     0.000 C 
BRANCH  15  16
ATOM     16  C   UNL     1     -14.504   8.532 -18.342  1.00  0.00     0.006 C 
BRANCH  16  17
ATOM     17  C   UNL     1     -13.288   8.681 -17.422  1.00  0.00     0.053 C 
BRANCH  17  18
ATOM     18  C   UNL     1     -13.528   7.987 -16.118  1.00  0.00     0.041 C 
ATOM     19  O   UNL     1     -14.495   8.328 -15.388  1.00  0.00    -0.550 OA
ATOM     20  O   UNL     1     -12.715   6.926 -15.735  1.00  0.00    -0.550 OA
ENDBRANCH  17  18
ENDBRANCH  16  17
ENDBRANCH  15  16
ENDBRANCH  14  15
ENDBRANCH  13  14
ENDBRANCH  12  13
ENDBRANCH  11  12
ENDBRANCH   1  11
TORSDOF 15
ENDMDL
MODEL 2
REMARK VINA RESULT:    15.211      0.720      1.221
REMARK INTER + INTRA:          27.870
REMARK INTER:                  28.583
REMARK INTRA:                  -0.713
REMARK UNBOUND:                -0.680
REMARK SMILES O=C([O-])CCCCCCCCCCCCCCC(=O)[O-]
REMARK SMILES IDX 10 1 9 2 8 3 7 4 6 5 5 6 4 7 2 8 1 9 3 10 11 11 12 12 13 13
REMARK SMILES IDX 14 14 15 15 16 16 17 17 18 18 19 19 20 20
REMARK H PARENT
REMARK Flexibility Score: inf
ROOT
ATOM      1  C   UNL     1     -13.136   2.303 -18.382  1.00  0.00     0.000 C 
ENDROOT
BRANCH   1   2
ATOM      2  C   UNL     1     -12.189   1.565 -17.419  1.00  0.00     0.000 C 
BRANCH   2   3
ATOM      3  C   UNL     1     -12.516   0.069 -17.289  1.00  0.00     0.000 C 
BRANCH   3   4
ATOM      4  C   UNL     1     -11.671  -0.764 -18.266  1.00  0.00     0.000 C 
BRANCH   4   5
ATOM      5  C   UNL     1     -10.503  -1.485 -17.575  1.00  0.00     0.000 C 
BRANCH   5   6
ATOM      6  C   UNL     1      -9.134  -0.933 -17.997  1.00  0.00     0.006 C 
BRANCH   6   7
ATOM      7  C   UNL     1      -7.997  -1.749 -17.371  1.00  0.00     0.053 C 
BRANCH   7   8
ATOM      8  C   UNL     1      -7.490  -1.076 -16.136  1.00  0.00     0.041 C 
ATOM      9  O   UNL     1      -7.080  -1.764 -15.163  1.00  0.00    -0.550 OA
ATOM     10  O   UNL     1      -7.517   0.310 -16.037  1.00  0.00    -0.550 OA
ENDBRANCH   7   8
ENDBRANCH   6   7
ENDBRANCH   5   6
ENDBRANCH   4   5
ENDBRANCH   3   4
ENDBRANCH   2   3
ENDBRANCH   1   2
BRANCH   1  11
ATOM     11  C   UNL     1     -13.056   3.843 -18.325  1.00  0.00     0.000 C 
BRANCH  11  12
ATOM     12  C   UNL     1     -14.363   4.583 -18.673  1.00  0.00     0.000 C 
BRANCH  12  13
ATOM     13  C   UNL     1     -14.289   5.488 -19.916  1.00  0.00     0.000 C 
BRANCH  13  14
ATOM     14  C   UNL     1     -15.382   6.569 -19.929  1.00  0.00     0.000 C 
BRANCH  14  15
ATOM     15  C   UNL     1     -14.827   7.977 -19.658  1.00  0.00     0.000 C 
BRANCH  15  16
ATOM     16  C   UNL     1     -14.935   8.385 -18.181  1.00  0.00     0.006 C 
BRANCH  16  17
ATOM     17  C   UNL     1     -13.549   8.497 -17.540  1.00  0.00     0.053 C 
BRANCH  17  18
ATOM     18  C   UNL     1     -13.579   7.991 -16.132  1.00  0.00     0.041 C 
ATOM     19  O   UNL     1     -12.754   7.119 -15.756  1.00  0.00    -0.550 OA
ATOM     20  O   UNL     1     -14.486   8.522 -15.222  1.00  0.00    -0.550 OA
ENDBRANCH  17  18
ENDBRANCH  16  17
ENDBRANCH  15  16
ENDBRANCH  14  15
ENDBRANCH  13  14
ENDBRANCH  12  13
ENDBRANCH  11  12
ENDBRANCH   1  11
TORSDOF 15
ENDMDL
MODEL 3
REMARK VINA RESULT:    15.346      5.474      8.860
REMARK INTER + INTRA:          28.124
REMARK INTER:                  28.690
REMARK INTRA:                  -0.566
REMARK UNBOUND:                -0.680
REMARK SMILES O=C([O-])CCCCCCCCCCCCCCC(=O)[O-]
REMARK SMILES IDX 10 1 9 2 8 3 7 4 6 5 5 6 4 7 2 8 1 9 3 10 11 11 12 12 13 13
REMARK SMILES IDX 14 14 15 15 16 16 17 17 18 18 19 19 20 20
REMARK H PARENT
REMARK Flexibility Score: inf
ROOT
ATOM      1  C   UNL     1     -14.444  -2.582 -16.069  1.00  0.00     0.000 C 
ENDROOT
BRANCH   1   2
ATOM      2  C   UNL     1     -14.214  -3.651 -14.986  1.00  0.00     0.000 C 
BRANCH   2   3
ATOM      3  C   UNL     1     -15.065  -3.419 -13.728  1.00  0.00     0.000 C 
BRANCH   3   4
ATOM      4  C   UNL     1     -14.270  -3.757 -12.457  1.00  0.00     0.000 C 
BRANCH   4   5
ATOM      5  C   UNL     1     -15.065  -3.488 -11.170  1.00  0.00     0.000 C 
BRANCH   5   6
ATOM      6  C   UNL     1     -14.447  -2.374 -10.314  1.00  0.00     0.006 C 
BRANCH   6   7
ATOM      7  C   UNL     1     -15.290  -1.095 -10.389  1.00  0.00     0.053 C 
BRANCH   7   8
ATOM      8  C   UNL     1     -14.416   0.093 -10.636  1.00  0.00     0.041 C 
ATOM      9  O   UNL     1     -14.720   0.929 -11.528  1.00  0.00    -0.550 OA
ATOM     10  O   UNL     1     -13.237   0.252  -9.916  1.00  0.00    -0.550 OA
ENDBRANCH   7   8
ENDBRANCH   6   7
ENDBRANCH   5   6
ENDBRANCH   4   5
ENDBRANCH   3   4
ENDBRANCH   2   3
ENDBRANCH   1   2
BRANCH   1  11
ATOM     11  C   UNL     1     -13.158  -1.960 -16.655  1.00  0.00     0.000 C 
BRANCH  11  12
ATOM     12  C   UNL     1     -13.275  -0.480 -17.072  1.00  0.00     0.000 C 
BRANCH  12  13
ATOM     13  C   UNL     1     -11.970   0.159 -17.580  1.00  0.00     0.000 C 
BRANCH  13  14
ATOM     14  C   UNL     1     -10.859  -0.875 -17.824  1.00  0.00     0.000 C 
BRANCH  14  15
ATOM     15  C   UNL     1      -9.586  -0.582 -17.014  1.00  0.00     0.000 C 
BRANCH  15  16
ATOM     16  C   UNL     1      -8.331  -1.228 -17.620  1.00  0.00     0.006 C 
BRANCH  16  17
ATOM     17  C   UNL     1      -7.062  -0.706 -16.939  1.00  0.00     0.053 C 
BRANCH  17  18
ATOM     18  C   UNL     1      -7.112  -0.966 -15.466  1.00  0.00     0.041 C 
ATOM     19  O   UNL     1      -7.416  -0.039 -14.670  1.00  0.00    -0.550 OA
ATOM     20  O   UNL     1      -6.875  -2.245 -14.977  1.00  0.00    -0.550 OA
ENDBRANCH  17  18
ENDBRANCH  16  17
ENDBRANCH  15  16
ENDBRANCH  14  15
ENDBRANCH  13  14
ENDBRANCH  12  13
ENDBRANCH  11  12
ENDBRANCH   1  11
TORSDOF 15
ENDMDL
MODEL 4
REMARK VINA RESULT:    15.422      2.051      3.247
REMARK INTER + INTRA:          28.266
REMARK INTER:                  27.829
REMARK INTRA:                   0.437
REMARK UNBOUND:                -0.680
REMARK SMILES O=C([O-])CCCCCCCCCCCCCCC(=O)[O-]
REMARK SMILES IDX 10 1 9 2 8 3 7 4 6 5 5 6 4 7 2 8 1 9 3 10 11 11 12 12 13 13
REMARK SMILES IDX 14 14 15 15 16 16 17 17 18 18 19 19 20 20
REMARK H PARENT
REMARK Flexibility Score: inf
ROOT
ATOM      1  C   UNL     1     -12.793   0.055 -18.025  1.00  0.00     0.000 C 
ENDROOT
BRANCH   1   2
ATOM      2  C   UNL     1     -12.172  -1.256 -17.510  1.00  0.00     0.000 C 
BRANCH   2   3
ATOM      3  C   UNL     1     -10.861  -1.617 -18.225  1.00  0.00     0.000 C 
BRANCH   3   4
ATOM      4  C   UNL     1      -9.711  -0.714 -17.752  1.00  0.00     0.000 C 
BRANCH   4   5
ATOM      5  C   UNL     1      -8.334  -1.383 -17.893  1.00  0.00     0.000 C 
BRANCH   5   6
ATOM      6  C   UNL     1      -7.175  -0.400 -17.682  1.00  0.00     0.006 C 
BRANCH   6   7
ATOM      7  C   UNL     1      -6.899  -0.190 -16.188  1.00  0.00     0.053 C 
BRANCH   7   8
ATOM      8  C   UNL     1      -7.172  -1.446 -15.425  1.00  0.00     0.041 C 
ATOM      9  O   UNL     1      -7.321  -2.538 -16.035  1.00  0.00    -0.550 OA
ATOM     10  O   UNL     1      -7.313  -1.404 -14.042  1.00  0.00    -0.550 OA
ENDBRANCH   7   8
ENDBRANCH   6   7
ENDBRANCH   5   6
ENDBRANCH   4   5
ENDBRANCH   3   4
ENDBRANCH   2   3
ENDBRANCH   1   2
BRANCH   1  11
ATOM     11  C   UNL     1     -12.750   1.233 -17.029  1.00  0.00     0.000 C 
BRANCH  11  12
ATOM     12  C   UNL     1     -12.110   2.528 -17.570  1.00  0.00     0.000 C 
BRANCH  12  13
ATOM     13  C   UNL     1     -12.953   3.284 -18.613  1.00  0.00     0.000 C 
BRANCH  13  14
ATOM     14  C   UNL     1     -14.427   3.419 -18.200  1.00  0.00     0.000 C 
BRANCH  14  15
ATOM     15  C   UNL     1     -15.070   4.718 -18.711  1.00  0.00     0.000 C 
BRANCH  15  16
ATOM     16  C   UNL     1     -14.282   5.359 -19.864  1.00  0.00     0.006 C 
BRANCH  16  17
ATOM     17  C   UNL     1     -15.122   6.423 -20.577  1.00  0.00     0.053 C 
BRANCH  17  18
ATOM     18  C   UNL     1     -15.031   7.732 -19.859  1.00  0.00     0.041 C 
ATOM     19  O   UNL     1     -15.950   8.092 -19.079  1.00  0.00    -0.550 OA
ATOM     20  O   UNL     1     -13.903   8.532 -20.011  1.00  0.00    -0.550 OA
ENDBRANCH  17  18
ENDBRANCH  16  17
ENDBRANCH  15  16
ENDBRANCH  14  15
ENDBRANCH  13  14
ENDBRANCH  12  13
ENDBRANCH  11  12
ENDBRANCH   1  11
TORSDOF 15
ENDMDL
MODEL 5
REMARK VINA RESULT:    15.483      0.559      9.117
REMARK INTER + INTRA:          28.380
REMARK INTER:                  28.732
REMARK INTRA:                  -0.352
REMARK UNBOUND:                -0.680
REMARK SMILES O=C([O-])CCCCCCCCCCCCCCC(=O)[O-]
REMARK SMILES IDX 10 1 9 2 8 3 7 4 6 5 5 6 4 7 2 8 1 9 3 10 11 11 12 12 13 13
REMARK SMILES IDX 14 14 15 15 16 16 17 17 18 18 19 19 20 20
REMARK H PARENT
REMARK Flexibility Score: inf
ROOT
ATOM      1  C   UNL     1     -13.911   3.239 -18.485  1.00  0.00     0.000 C 
ENDROOT
BRANCH   1   2
ATOM      2  C   UNL     1     -13.750   4.638 -19.109  1.00  0.00     0.000 C 
BRANCH   2   3
ATOM      3  C   UNL     1     -15.051   5.454 -19.086  1.00  0.00     0.000 C 
BRANCH   3   4
ATOM      4  C   UNL     1     -15.096   6.448 -20.258  1.00  0.00     0.000 C 
BRANCH   4   5
ATOM      5  C   UNL     1     -14.865   7.901 -19.813  1.00  0.00     0.000 C 
BRANCH   5   6
ATOM      6  C   UNL     1     -15.075   8.099 -18.305  1.00  0.00     0.006 C 
BRANCH   6   7
ATOM      7  C   UNL     1     -13.786   8.586 -17.632  1.00  0.00     0.053 C 
BRANCH   7   8
ATOM      8  C   UNL     1     -13.723   8.107 -16.217  1.00  0.00     0.041 C 
ATOM      9  O   UNL     1     -12.928   7.183 -15.897  1.00  0.00    -0.550 OA
ATOM     10  O   UNL     1     -14.576   8.646 -15.261  1.00  0.00    -0.550 OA
ENDBRANCH   7   8
ENDBRANCH   6   7
ENDBRANCH   5   6
ENDBRANCH   4   5
ENDBRANCH   3   4
ENDBRANCH   2   3
ENDBRANCH   1   2
BRANCH   1  11
ATOM     11  C   UNL     1     -12.776   2.818 -17.527  1.00  0.00     0.000 C 
BRANCH  11  12
ATOM     12  C   UNL     1     -12.086   1.483 -17.873  1.00  0.00     0.000 C 
BRANCH  12  13
ATOM     13  C   UNL     1     -12.339   0.340 -16.874  1.00  0.00     0.000 C 
BRANCH  13  14
ATOM     14  C   UNL     1     -12.467  -1.030 -17.559  1.00  0.00     0.000 C 
BRANCH  14  15
ATOM     15  C   UNL     1     -11.110  -1.602 -17.999  1.00  0.00     0.000 C 
BRANCH  15  16
ATOM     16  C   UNL     1      -9.920  -0.784 -17.476  1.00  0.00     0.006 C 
BRANCH  16  17
ATOM     17  C   UNL     1      -8.655  -1.644 -17.395  1.00  0.00     0.053 C 
BRANCH  17  18
ATOM     18  C   UNL     1      -7.589  -0.938 -16.619  1.00  0.00     0.041 C 
ATOM     19  O   UNL     1      -7.302  -1.313 -15.453  1.00  0.00    -0.550 OA
ATOM     20  O   UNL     1      -6.875   0.102 -17.205  1.00  0.00    -0.550 OA
ENDBRANCH  17  18
ENDBRANCH  16  17
ENDBRANCH  15  16
ENDBRANCH  14  15
ENDBRANCH  13  14
ENDBRANCH  12  13
ENDBRANCH  11  12
ENDBRANCH   1  11
TORSDOF 15
ENDMDL
MODEL 6
REMARK VINA RESULT:    15.607      1.954      9.324
REMARK INTER + INTRA:          28.614
REMARK INTER:                  29.406
REMARK INTRA:                  -0.792
REMARK UNBOUND:                -0.680
REMARK SMILES O=C([O-])CCCCCCCCCCCCCCC(=O)[O-]
REMARK SMILES IDX 10 1 9 2 8 3 7 4 6 5 5 6 4 7 2 8 1 9 3 10 11 11 12 12 13 13
REMARK SMILES IDX 14 14 15 15 16 16 17 17 18 18 19 19 20 20
REMARK H PARENT
REMARK Flexibility Score: inf
ROOT
ATOM      1  C   UNL     1     -12.949   2.076 -17.998  1.00  0.00     0.000 C 
ENDROOT
BRANCH   1   2
ATOM      2  C   UNL     1     -12.699   3.528 -17.552  1.00  0.00     0.000 C 
BRANCH   2   3
ATOM      3  C   UNL     1     -11.349   3.710 -16.842  1.00  0.00     0.000 C 
BRANCH   3   4
ATOM      4  C   UNL     1     -11.305   5.043 -16.078  1.00  0.00     0.000 C 
BRANCH   4   5
ATOM      5  C   UNL     1     -12.603   5.854 -16.224  1.00  0.00     0.000 C 
BRANCH   5   6
ATOM      6  C   UNL     1     -12.369   7.368 -16.128  1.00  0.00     0.006 C 
BRANCH   6   7
ATOM      7  C   UNL     1     -13.546   8.144 -16.731  1.00  0.00     0.053 C 
BRANCH   7   8
ATOM      8  C   UNL     1     -14.451   8.643 -15.650  1.00  0.00     0.041 C 
ATOM      9  O   UNL     1     -14.285   8.264 -14.460  1.00  0.00    -0.550 OA
ATOM     10  O   UNL     1     -15.509   9.489 -15.963  1.00  0.00    -0.550 OA
ENDBRANCH   7   8
ENDBRANCH   6   7
ENDBRANCH   5   6
ENDBRANCH   4   5
ENDBRANCH   3   4
ENDBRANCH   2   3
ENDBRANCH   1   2
BRANCH   1  11
ATOM     11  C   UNL     1     -12.066   1.019 -17.302  1.00  0.00     0.000 C 
BRANCH  11  12
ATOM     12  C   UNL     1     -12.395  -0.446 -17.653  1.00  0.00     0.000 C 
BRANCH  12  13
ATOM     13  C   UNL     1     -11.270  -1.213 -18.372  1.00  0.00     0.000 C 
BRANCH  13  14
ATOM     14  C   UNL     1      -9.991  -1.322 -17.525  1.00  0.00     0.000 C 
BRANCH  14  15
ATOM     15  C   UNL     1      -8.729  -0.917 -18.303  1.00  0.00     0.000 C 
BRANCH  15  16
ATOM     16  C   UNL     1      -7.568  -0.509 -17.384  1.00  0.00     0.006 C 
BRANCH  16  17
ATOM     17  C   UNL     1      -7.176  -1.660 -16.451  1.00  0.00     0.053 C 
BRANCH  17  18
ATOM     18  C   UNL     1      -7.243  -1.223 -15.022  1.00  0.00     0.041 C 
ATOM     19  O   UNL     1      -7.444  -0.013 -14.739  1.00  0.00    -0.550 OA
ATOM     20  O   UNL     1      -7.136  -2.161 -14.002  1.00  0.00    -0.550 OA
ENDBRANCH  17  18
ENDBRANCH  16  17
ENDBRANCH  15  16
ENDBRANCH  14  15
ENDBRANCH  13  14
ENDBRANCH  12  13
ENDBRANCH  11  12
ENDBRANCH   1  11
TORSDOF 15
ENDMDL
MODEL 7
REMARK VINA RESULT:    15.661      1.873      2.642
REMARK INTER + INTRA:          28.714
REMARK INTER:                  29.210
REMARK INTRA:                  -0.496
REMARK UNBOUND:                -0.680
REMARK SMILES O=C([O-])CCCCCCCCCCCCCCC(=O)[O-]
REMARK SMILES IDX 10 1 9 2 8 3 7 4 6 5 5 6 4 7 2 8 1 9 3 10 11 11 12 12 13 13
REMARK SMILES IDX 14 14 15 15 16 16 17 17 18 18 19 19 20 20
REMARK H PARENT
REMARK Flexibility Score: inf
ROOT
ATOM      1  C   UNL     1     -12.912   1.526 -18.075  1.00  0.00     0.000 C 
ENDROOT
BRANCH   1   2
ATOM      2  C   UNL     1     -12.029   0.489 -17.356  1.00  0.00     0.000 C 
BRANCH   2   3
ATOM      3  C   UNL     1     -12.153  -0.919 -17.955  1.00  0.00     0.000 C 
BRANCH   3   4
ATOM      4  C   UNL     1     -10.815  -1.670 -17.876  1.00  0.00     0.000 C 
BRANCH   4   5
ATOM      5  C   UNL     1      -9.638  -0.750 -17.514  1.00  0.00     0.000 C 
BRANCH   5   6
ATOM      6  C   UNL     1      -8.286  -1.475 -17.554  1.00  0.00     0.006 C 
BRANCH   6   7
ATOM      7  C   UNL     1      -7.202  -0.652 -16.847  1.00  0.00     0.053 C 
BRANCH   7   8
ATOM      8  C   UNL     1      -7.195  -0.948 -15.381  1.00  0.00     0.041 C 
ATOM      9  O   UNL     1      -7.423  -0.030 -14.549  1.00  0.00    -0.550 OA
ATOM     10  O   UNL     1      -6.886  -2.226 -14.929  1.00  0.00    -0.550 OA
ENDBRANCH   7   8
ENDBRANCH   6   7
ENDBRANCH   5   6
ENDBRANCH   4   5
ENDBRANCH   3   4
ENDBRANCH   2   3
ENDBRANCH   1   2
BRANCH   1  11
ATOM     11  C   UNL     1     -12.485   2.996 -17.877  1.00  0.00     0.000 C 
BRANCH  11  12
ATOM     12  C   UNL     1     -11.789   3.303 -16.536  1.00  0.00     0.000 C 
BRANCH  12  13
ATOM     13  C   UNL     1     -11.266   4.743 -16.388  1.00  0.00     0.000 C 
BRANCH  13  14
ATOM     14  C   UNL     1     -12.397   5.784 -16.351  1.00  0.00     0.000 C 
BRANCH  14  15
ATOM     15  C   UNL     1     -11.916   7.166 -15.878  1.00  0.00     0.000 C 
BRANCH  15  16
ATOM     16  C   UNL     1     -12.450   8.313 -16.749  1.00  0.00     0.006 C 
BRANCH  16  17
ATOM     17  C   UNL     1     -13.965   8.195 -16.943  1.00  0.00     0.053 C 
BRANCH  17  18
ATOM     18  C   UNL     1     -14.691   8.761 -15.764  1.00  0.00     0.041 C 
ATOM     19  O   UNL     1     -15.683   9.516 -15.935  1.00  0.00    -0.550 OA
ATOM     20  O   UNL     1     -14.304   8.410 -14.476  1.00  0.00    -0.550 OA
ENDBRANCH  17  18
ENDBRANCH  16  17
ENDBRANCH  15  16
ENDBRANCH  14  15
ENDBRANCH  13  14
ENDBRANCH  12  13
ENDBRANCH  11  12
ENDBRANCH   1  11
TORSDOF 15
ENDMDL
MODEL 8
REMARK VINA RESULT:    15.956      1.933      2.789
REMARK INTER + INTRA:          29.268
REMARK INTER:                  29.804
REMARK INTRA:                  -0.536
REMARK UNBOUND:                -0.680
REMARK SMILES O=C([O-])CCCCCCCCCCCCCCC(=O)[O-]
REMARK SMILES IDX 10 1 9 2 8 3 7 4 6 5 5 6 4 7 2 8 1 9 3 10 11 11 12 12 13 13
REMARK SMILES IDX 14 14 15 15 16 16 17 17 18 18 19 19 20 20
REMARK H PARENT
REMARK Flexibility Score: inf
ROOT
ATOM      1  C   UNL     1     -13.028   2.074 -18.037  1.00  0.00     0.000 C 
ENDROOT
BRANCH   1   2
ATOM      2  C   UNL     1     -12.259   1.096 -17.130  1.00  0.00     0.000 C 
BRANCH   2   3
ATOM      3  C   UNL     1     -12.480  -0.375 -17.516  1.00  0.00     0.000 C 
BRANCH   3   4
ATOM      4  C   UNL     1     -11.221  -0.966 -18.170  1.00  0.00     0.000 C 
BRANCH   4   5
ATOM      5  C   UNL     1     -10.011  -0.982 -17.222  1.00  0.00     0.000 C 
BRANCH   5   6
ATOM      6  C   UNL     1      -8.673  -1.029 -17.972  1.00  0.00     0.006 C 
BRANCH   6   7
ATOM      7  C   UNL     1      -7.604  -1.748 -17.141  1.00  0.00     0.053 C 
BRANCH   7   8
ATOM      8  C   UNL     1      -7.373  -1.027 -15.851  1.00  0.00     0.041 C 
ATOM      9  O   UNL     1      -7.553   0.218 -15.780  1.00  0.00    -0.550 OA
ATOM     10  O   UNL     1      -6.910  -1.721 -14.739  1.00  0.00    -0.550 OA
ENDBRANCH   7   8
ENDBRANCH   6   7
ENDBRANCH   5   6
ENDBRANCH   4   5
ENDBRANCH   3   4
ENDBRANCH   2   3
ENDBRANCH   1   2
BRANCH   1  11
ATOM     11  C   UNL     1     -12.638   3.558 -17.873  1.00  0.00     0.000 C 
BRANCH  11  12
ATOM     12  C   UNL     1     -11.735   3.871 -16.662  1.00  0.00     0.000 C 
BRANCH  12  13
ATOM     13  C   UNL     1     -11.586   5.367 -16.330  1.00  0.00     0.000 C 
BRANCH  13  14
ATOM     14  C   UNL     1     -12.939   6.090 -16.227  1.00  0.00     0.000 C 
BRANCH  14  15
ATOM     15  C   UNL     1     -12.790   7.618 -16.149  1.00  0.00     0.000 C 
BRANCH  15  16
ATOM     16  C   UNL     1     -13.145   8.319 -17.469  1.00  0.00     0.006 C 
BRANCH  16  17
ATOM     17  C   UNL     1     -14.596   8.035 -17.867  1.00  0.00     0.053 C 
BRANCH  17  18
ATOM     18  C   UNL     1     -14.690   7.741 -19.331  1.00  0.00     0.041 C 
ATOM     19  O   UNL     1     -15.194   6.657 -19.727  1.00  0.00    -0.550 OA
ATOM     20  O   UNL     1     -14.271   8.686 -20.259  1.00  0.00    -0.550 OA
ENDBRANCH  17  18
ENDBRANCH  16  17
ENDBRANCH  15  16
ENDBRANCH  14  15
ENDBRANCH  13  14
ENDBRANCH  12  13
ENDBRANCH  11  12
ENDBRANCH   1  11
TORSDOF 15
ENDMDL
MODEL 9
REMARK VINA RESULT:    18.088      5.412      8.005
REMARK INTER + INTRA:          33.269
REMARK INTER:                  33.989
REMARK INTRA:                  -0.719
REMARK UNBOUND:                -0.680
REMARK SMILES O=C([O-])CCCCCCCCCCCCCCC(=O)[O-]
REMARK SMILES IDX 10 1 9 2 8 3 7 4 6 5 5 6 4 7 2 8 1 9 3 10 11 11 12 12 13 13
REMARK SMILES IDX 14 14 15 15 16 16 17 17 18 18 19 19 20 20
REMARK H PARENT
REMARK Flexibility Score: inf
ROOT
ATOM      1  C   UNL     1     -13.549  -2.013 -16.772  1.00  0.00     0.000 C 
ENDROOT
BRANCH   1   2
ATOM      2  C   UNL     1     -13.062  -0.564 -16.586  1.00  0.00     0.000 C 
BRANCH   2   3
ATOM      3  C   UNL     1     -12.484   0.041 -17.874  1.00  0.00     0.000 C 
BRANCH   3   4
ATOM      4  C   UNL     1     -11.330  -0.818 -18.415  1.00  0.00     0.000 C 
BRANCH   4   5
ATOM      5  C   UNL     1     -10.127  -0.867 -17.459  1.00  0.00     0.000 C 
BRANCH   5   6
ATOM      6  C   UNL     1      -8.862  -1.423 -18.128  1.00  0.00     0.006 C 
BRANCH   6   7
ATOM      7  C   UNL     1      -7.927  -2.055 -17.091  1.00  0.00     0.053 C 
BRANCH   7   8
ATOM      8  C   UNL     1      -7.319  -1.000 -16.223  1.00  0.00     0.041 C 
ATOM      9  O   UNL     1      -6.875   0.062 -16.735  1.00  0.00    -0.550 OA
ATOM     10  O   UNL     1      -7.198  -1.210 -14.854  1.00  0.00    -0.550 OA
ENDBRANCH   7   8
ENDBRANCH   6   7
ENDBRANCH   5   6
ENDBRANCH   4   5
ENDBRANCH   3   4
ENDBRANCH   2   3
ENDBRANCH   1   2
BRANCH   1  11
ATOM     11  C   UNL     1     -14.407  -2.566 -15.615  1.00  0.00     0.000 C 
BRANCH  11  12
ATOM     12  C   UNL     1     -14.092  -4.018 -15.199  1.00  0.00     0.000 C 
BRANCH  12  13
ATOM     13  C   UNL     1     -14.019  -4.259 -13.681  1.00  0.00     0.000 C 
BRANCH  13  14
ATOM     14  C   UNL     1     -14.741  -3.170 -12.871  1.00  0.00     0.000 C 
BRANCH  14  15
ATOM     15  C   UNL     1     -14.973  -3.576 -11.407  1.00  0.00     0.000 C 
BRANCH  15  16
ATOM     16  C   UNL     1     -14.368  -2.577 -10.409  1.00  0.00     0.006 C 
BRANCH  16  17
ATOM     17  C   UNL     1     -15.216  -1.305 -10.323  1.00  0.00     0.053 C 
BRANCH  17  18
ATOM     18  C   UNL     1     -14.357  -0.090 -10.478  1.00  0.00     0.041 C 
ATOM     19  O   UNL     1     -13.348   0.070  -9.743  1.00  0.00    -0.550 OA
ATOM     20  O   UNL     1     -14.640   0.839 -11.473  1.00  0.00    -0.550 OA
ENDBRANCH  17  18
ENDBRANCH  16  17
ENDBRANCH  15  16
ENDBRANCH  14  15
ENDBRANCH  13  14
ENDBRANCH  12  13
ENDBRANCH  11  12
ENDBRANCH   1  11
TORSDOF 15
ENDMDL
