MODEL 1
REMARK VINA RESULT:    -2.779      0.000      0.000
REMARK INTER + INTRA:          -4.689
REMARK INTER:                  -4.079
REMARK INTRA:                  -0.610
REMARK UNBOUND:                -0.610
REMARK SMILES O=C([O-])CCCCCCCC(=O)[O-]
REMARK SMILES IDX 7 1 6 2 5 3 4 4 2 5 1 6 3 7 8 8 9 9 10 10 11 11 12 12 13 13
REMARK H PARENT
REMARK Flexibility Score: inf
ROOT
ATOM      1  C   UNL     1      39.657  36.464  18.994  1.00  0.00     0.000 C 
ENDROOT
BRANCH   1   2
ATOM      2  C   UNL     1      38.205  36.073  19.311  1.00  0.00     0.000 C 
BRANCH   2   3
ATOM      3  C   UNL     1      37.516  37.071  20.258  1.00  0.00     0.006 C 
BRANCH   3   4
ATOM      4  C   UNL     1      38.303  38.382  20.388  1.00  0.00     0.053 C 
BRANCH   4   5
ATOM      5  C   UNL     1      37.505  39.557  19.911  1.00  0.00     0.041 C 
ATOM      6  O   UNL     1      38.044  40.440  19.192  1.00  0.00    -0.550 OA
ATOM      7  O   UNL     1      36.175  39.693  20.289  1.00  0.00    -0.550 OA
ENDBRANCH   4   5
ENDBRANCH   3   4
ENDBRANCH   2   3
ENDBRANCH   1   2
BRANCH   1   8
ATOM      8  C   UNL     1      40.055  36.135  17.548  1.00  0.00     0.000 C 
BRANCH   8   9
ATOM      9  C   UNL     1      40.370  37.415  16.760  1.00  0.00     0.006 C 
BRANCH   9  10
ATOM     10  C   UNL     1      41.023  38.493  17.637  1.00  0.00     0.053 C 
BRANCH  10  11
ATOM     11  C   UNL     1      40.743  39.871  17.121  1.00  0.00     0.041 C 
ATOM     12  O   UNL     1      41.069  40.880  17.801  1.00  0.00    -0.550 OA
ATOM     13  O   UNL     1      40.153  40.043  15.876  1.00  0.00    -0.550 OA
ENDBRANCH  10  11
ENDBRANCH   9  10
ENDBRANCH   8   9
ENDBRANCH   1   8
TORSDOF 8
ENDMDL
MODEL 2
REMARK VINA RESULT:    -2.742      1.031      4.084
REMARK INTER + INTRA:          -4.635
REMARK INTER:                  -3.991
REMARK INTRA:                  -0.644
REMARK UNBOUND:                -0.610
REMARK SMILES O=C([O-])CCCCCCCC(=O)[O-]
REMARK SMILES IDX 7 1 6 2 5 3 4 4 2 5 1 6 3 7 8 8 9 9 10 10 11 11 12 12 13 13
REMARK H PARENT
REMARK Flexibility Score: inf
ROOT
ATOM      1  C   UNL     1      38.924  35.215  19.678  1.00  0.00     0.000 C 
ENDROOT
BRANCH   1   2
ATOM      2  C   UNL     1      38.319  35.445  18.285  1.00  0.00     0.000 C 
BRANCH   2   3
ATOM      3  C   UNL     1      39.341  36.004  17.280  1.00  0.00     0.006 C 
BRANCH   3   4
ATOM      4  C   UNL     1      40.373  36.919  17.953  1.00  0.00     0.053 C 
BRANCH   4   5
ATOM      5  C   UNL     1      40.558  38.198  17.195  1.00  0.00     0.041 C 
ATOM      6  O   UNL     1      40.300  38.247  15.963  1.00  0.00    -0.550 OA
ATOM      7  O   UNL     1      41.049  39.324  17.842  1.00  0.00    -0.550 OA
ENDBRANCH   4   5
ENDBRANCH   3   4
ENDBRANCH   2   3
ENDBRANCH   1   2
BRANCH   1   8
ATOM      8  C   UNL     1      38.032  35.752  20.807  1.00  0.00     0.000 C 
BRANCH   8   9
ATOM      9  C   UNL     1      37.318  37.041  20.377  1.00  0.00     0.006 C 
BRANCH   9  10
ATOM     10  C   UNL     1      38.195  38.285  20.571  1.00  0.00     0.053 C 
BRANCH  10  11
ATOM     11  C   UNL     1      37.548  39.514  20.008  1.00  0.00     0.041 C 
ATOM     12  O   UNL     1      38.202  40.290  19.262  1.00  0.00    -0.550 OA
ATOM     13  O   UNL     1      36.212  39.785  20.279  1.00  0.00    -0.550 OA
ENDBRANCH  10  11
ENDBRANCH   9  10
ENDBRANCH   8   9
ENDBRANCH   1   8
TORSDOF 8
ENDMDL
MODEL 3
REMARK VINA RESULT:    -2.602      2.513      4.662
REMARK INTER + INTRA:          -4.430
REMARK INTER:                  -3.917
REMARK INTRA:                  -0.513
REMARK UNBOUND:                -0.610
REMARK SMILES O=C([O-])CCCCCCCC(=O)[O-]
REMARK SMILES IDX 7 1 6 2 5 3 4 4 2 5 1 6 3 7 8 8 9 9 10 10 11 11 12 12 13 13
REMARK H PARENT
REMARK Flexibility Score: inf
ROOT
ATOM      1  C   UNL     1      40.581  38.759  16.304  1.00  0.00     0.000 C 
ENDROOT
BRANCH   1   2
ATOM      2  C   UNL     1      41.084  37.431  16.891  1.00  0.00     0.000 C 
BRANCH   2   3
ATOM      3  C   UNL     1      40.363  36.210  16.296  1.00  0.00     0.006 C 
BRANCH   3   4
ATOM      4  C   UNL     1      40.449  34.983  17.213  1.00  0.00     0.053 C 
BRANCH   4   5
ATOM      5  C   UNL     1      39.524  35.101  18.386  1.00  0.00     0.041 C 
ATOM      6  O   UNL     1      39.974  35.019  19.559  1.00  0.00    -0.550 OA
ATOM      7  O   UNL     1      38.160  35.266  18.180  1.00  0.00    -0.550 OA
ENDBRANCH   4   5
ENDBRANCH   3   4
ENDBRANCH   2   3
ENDBRANCH   1   2
BRANCH   1   8
ATOM      8  C   UNL     1      40.036  39.712  17.378  1.00  0.00     0.000 C 
BRANCH   8   9
ATOM      9  C   UNL     1      39.317  38.934  18.489  1.00  0.00     0.006 C 
BRANCH   9  10
ATOM     10  C   UNL     1      38.433  39.840  19.357  1.00  0.00     0.053 C 
BRANCH  10  11
ATOM     11  C   UNL     1      37.364  39.063  20.061  1.00  0.00     0.041 C 
ATOM     12  O   UNL     1      36.265  39.609  20.343  1.00  0.00    -0.550 OA
ATOM     13  O   UNL     1      37.568  37.726  20.378  1.00  0.00    -0.550 OA
ENDBRANCH  10  11
ENDBRANCH   9  10
ENDBRANCH   8   9
ENDBRANCH   1   8
TORSDOF 8
ENDMDL
MODEL 4
REMARK VINA RESULT:    -2.568      2.383      3.662
REMARK INTER + INTRA:          -4.380
REMARK INTER:                  -3.721
REMARK INTRA:                  -0.658
REMARK UNBOUND:                -0.610
REMARK SMILES O=C([O-])CCCCCCCC(=O)[O-]
REMARK SMILES IDX 7 1 6 2 5 3 4 4 2 5 1 6 3 7 8 8 9 9 10 10 11 11 12 12 13 13
REMARK H PARENT
REMARK Flexibility Score: inf
ROOT
ATOM      1  C   UNL     1      40.032  38.976  17.063  1.00  0.00     0.000 C 
ENDROOT
BRANCH   1   2
ATOM      2  C   UNL     1      40.494  39.963  18.146  1.00  0.00     0.000 C 
BRANCH   2   3
ATOM      3  C   UNL     1      39.345  40.415  19.065  1.00  0.00     0.006 C 
BRANCH   3   4
ATOM      4  C   UNL     1      38.101  39.529  18.914  1.00  0.00     0.053 C 
BRANCH   4   5
ATOM      5  C   UNL     1      37.399  39.331  20.222  1.00  0.00     0.041 C 
ATOM      6  O   UNL     1      38.020  38.854  21.209  1.00  0.00    -0.550 OA
ATOM      7  O   UNL     1      36.050  39.641  20.341  1.00  0.00    -0.550 OA
ENDBRANCH   4   5
ENDBRANCH   3   4
ENDBRANCH   2   3
ENDBRANCH   1   2
BRANCH   1   8
ATOM      8  C   UNL     1      40.819  37.658  17.089  1.00  0.00     0.000 C 
BRANCH   8   9
ATOM      9  C   UNL     1      40.858  37.069  18.506  1.00  0.00     0.006 C 
BRANCH   9  10
ATOM     10  C   UNL     1      40.327  35.630  18.553  1.00  0.00     0.053 C 
BRANCH  10  11
ATOM     11  C   UNL     1      38.830  35.590  18.564  1.00  0.00     0.041 C 
ATOM     12  O   UNL     1      38.197  35.258  17.527  1.00  0.00    -0.550 OA
ATOM     13  O   UNL     1      38.133  35.888  19.728  1.00  0.00    -0.550 OA
ENDBRANCH  10  11
ENDBRANCH   9  10
ENDBRANCH   8   9
ENDBRANCH   1   8
TORSDOF 8
ENDMDL
MODEL 5
REMARK VINA RESULT:    -2.547     22.671     25.616
REMARK INTER + INTRA:          -4.349
REMARK INTER:                  -4.109
REMARK INTRA:                  -0.240
REMARK UNBOUND:                -0.610
REMARK SMILES O=C([O-])CCCCCCCC(=O)[O-]
REMARK SMILES IDX 7 1 6 2 5 3 4 4 2 5 1 6 3 7 8 8 9 9 10 10 11 11 12 12 13 13
REMARK H PARENT
REMARK Flexibility Score: inf
ROOT
ATOM      1  C   UNL     1      22.088  54.859  30.689  1.00  0.00     0.000 C 
ENDROOT
BRANCH   1   2
ATOM      2  C   UNL     1      22.202  54.599  29.179  1.00  0.00     0.000 C 
BRANCH   2   3
ATOM      3  C   UNL     1      23.153  53.435  28.849  1.00  0.00     0.006 C 
BRANCH   3   4
ATOM      4  C   UNL     1      23.659  53.493  27.401  1.00  0.00     0.053 C 
BRANCH   4   5
ATOM      5  C   UNL     1      23.926  52.126  26.852  1.00  0.00     0.041 C 
ATOM      6  O   UNL     1      23.665  51.104  27.540  1.00  0.00    -0.550 OA
ATOM      7  O   UNL     1      24.498  51.982  25.594  1.00  0.00    -0.550 OA
ENDBRANCH   4   5
ENDBRANCH   3   4
ENDBRANCH   2   3
ENDBRANCH   1   2
BRANCH   1   8
ATOM      8  C   UNL     1      23.441  54.772  31.409  1.00  0.00     0.000 C 
BRANCH   8   9
ATOM      9  C   UNL     1      23.253  54.760  32.932  1.00  0.00     0.006 C 
BRANCH   9  10
ATOM     10  C   UNL     1      24.590  54.806  33.685  1.00  0.00     0.053 C 
BRANCH  10  11
ATOM     11  C   UNL     1      24.413  54.536  35.147  1.00  0.00     0.041 C 
ATOM     12  O   UNL     1      25.324  54.838  35.963  1.00  0.00    -0.550 OA
ATOM     13  O   UNL     1      23.229  53.979  35.615  1.00  0.00    -0.550 OA
ENDBRANCH  10  11
ENDBRANCH   9  10
ENDBRANCH   8   9
ENDBRANCH   1   8
TORSDOF 8
ENDMDL
MODEL 6
REMARK VINA RESULT:    -2.463      2.249      3.382
REMARK INTER + INTRA:          -4.225
REMARK INTER:                  -3.694
REMARK INTRA:                  -0.531
REMARK UNBOUND:                -0.610
REMARK SMILES O=C([O-])CCCCCCCC(=O)[O-]
REMARK SMILES IDX 7 1 6 2 5 3 4 4 2 5 1 6 3 7 8 8 9 9 10 10 11 11 12 12 13 13
REMARK H PARENT
REMARK Flexibility Score: inf
ROOT
ATOM      1  C   UNL     1      37.435  39.441  20.002  1.00  0.00     0.000 C 
ENDROOT
BRANCH   1   2
ATOM      2  C   UNL     1      38.128  38.237  20.659  1.00  0.00     0.000 C 
BRANCH   2   3
ATOM      3  C   UNL     1      37.369  36.919  20.430  1.00  0.00     0.006 C 
BRANCH   3   4
ATOM      4  C   UNL     1      38.320  35.732  20.221  1.00  0.00     0.053 C 
BRANCH   4   5
ATOM      5  C   UNL     1      38.989  35.787  18.883  1.00  0.00     0.041 C 
ATOM      6  O   UNL     1      40.225  36.019  18.800  1.00  0.00    -0.550 OA
ATOM      7  O   UNL     1      38.242  35.617  17.725  1.00  0.00    -0.550 OA
ENDBRANCH   4   5
ENDBRANCH   3   4
ENDBRANCH   2   3
ENDBRANCH   1   2
BRANCH   1   8
ATOM      8  C   UNL     1      38.403  40.307  19.184  1.00  0.00     0.000 C 
BRANCH   8   9
ATOM      9  C   UNL     1      39.220  39.447  18.209  1.00  0.00     0.006 C 
BRANCH   9  10
ATOM     10  C   UNL     1      40.721  39.766  18.267  1.00  0.00     0.053 C 
BRANCH  10  11
ATOM     11  C   UNL     1      41.001  41.188  17.887  1.00  0.00     0.041 C 
ATOM     12  O   UNL     1      41.125  41.507  16.675  1.00  0.00    -0.550 OA
ATOM     13  O   UNL     1      41.093  42.166  18.869  1.00  0.00    -0.550 OA
ENDBRANCH  10  11
ENDBRANCH   9  10
ENDBRANCH   8   9
ENDBRANCH   1   8
TORSDOF 8
ENDMDL
MODEL 7
REMARK VINA RESULT:    -2.395     23.365     26.010
REMARK INTER + INTRA:          -4.126
REMARK INTER:                  -3.788
REMARK INTRA:                  -0.338
REMARK UNBOUND:                -0.610
REMARK SMILES O=C([O-])CCCCCCCC(=O)[O-]
REMARK SMILES IDX 7 1 6 2 5 3 4 4 2 5 1 6 3 7 8 8 9 9 10 10 11 11 12 12 13 13
REMARK H PARENT
REMARK Flexibility Score: inf
ROOT
ATOM      1  C   UNL     1      22.212  55.013  31.104  1.00  0.00     0.000 C 
ENDROOT
BRANCH   1   2
ATOM      2  C   UNL     1      21.307  54.421  32.196  1.00  0.00     0.000 C 
BRANCH   2   3
ATOM      3  C   UNL     1      21.574  55.033  33.582  1.00  0.00     0.006 C 
BRANCH   3   4
ATOM      4  C   UNL     1      22.297  54.054  34.517  1.00  0.00     0.053 C 
BRANCH   4   5
ATOM      5  C   UNL     1      23.724  54.451  34.739  1.00  0.00     0.041 C 
ATOM      6  O   UNL     1      24.097  54.874  35.865  1.00  0.00    -0.550 OA
ATOM      7  O   UNL     1      24.634  54.389  33.691  1.00  0.00    -0.550 OA
ENDBRANCH   4   5
ENDBRANCH   3   4
ENDBRANCH   2   3
ENDBRANCH   1   2
BRANCH   1   8
ATOM      8  C   UNL     1      21.506  55.124  29.745  1.00  0.00     0.000 C 
BRANCH   8   9
ATOM      9  C   UNL     1      22.399  54.588  28.617  1.00  0.00     0.006 C 
BRANCH   9  10
ATOM     10  C   UNL     1      22.906  53.167  28.899  1.00  0.00     0.053 C 
BRANCH  10  11
ATOM     11  C   UNL     1      23.526  52.548  27.684  1.00  0.00     0.041 C 
ATOM     12  O   UNL     1      23.547  51.296  27.552  1.00  0.00    -0.550 OA
ATOM     13  O   UNL     1      24.051  53.354  26.682  1.00  0.00    -0.550 OA
ENDBRANCH  10  11
ENDBRANCH   9  10
ENDBRANCH   8   9
ENDBRANCH   1   8
TORSDOF 8
ENDMDL
MODEL 8
REMARK VINA RESULT:    -1.697      2.342      3.630
REMARK INTER + INTRA:          -3.101
REMARK INTER:                  -2.581
REMARK INTRA:                  -0.520
REMARK UNBOUND:                -0.610
REMARK SMILES O=C([O-])CCCCCCCC(=O)[O-]
REMARK SMILES IDX 7 1 6 2 5 3 4 4 2 5 1 6 3 7 8 8 9 9 10 10 11 11 12 12 13 13
REMARK H PARENT
REMARK Flexibility Score: inf
ROOT
ATOM      1  C   UNL     1      37.375  38.184  20.002  1.00  0.00     0.000 C 
ENDROOT
BRANCH   1   2
ATOM      2  C   UNL     1      37.635  36.705  20.323  1.00  0.00     0.000 C 
BRANCH   2   3
ATOM      3  C   UNL     1      38.868  36.148  19.590  1.00  0.00     0.006 C 
BRANCH   3   4
ATOM      4  C   UNL     1      38.481  35.220  18.430  1.00  0.00     0.053 C 
BRANCH   4   5
ATOM      5  C   UNL     1      39.351  35.439  17.231  1.00  0.00     0.041 C 
ATOM      6  O   UNL     1      38.841  35.501  16.081  1.00  0.00    -0.550 OA
ATOM      7  O   UNL     1      40.728  35.538  17.381  1.00  0.00    -0.550 OA
ENDBRANCH   4   5
ENDBRANCH   3   4
ENDBRANCH   2   3
ENDBRANCH   1   2
BRANCH   1   8
ATOM      8  C   UNL     1      38.662  39.021  19.981  1.00  0.00     0.000 C 
BRANCH   8   9
ATOM      9  C   UNL     1      38.876  39.667  18.605  1.00  0.00     0.006 C 
BRANCH   9  10
ATOM     10  C   UNL     1      40.334  39.572  18.137  1.00  0.00     0.053 C 
BRANCH  10  11
ATOM     11  C   UNL     1      40.445  39.654  16.645  1.00  0.00     0.041 C 
ATOM     12  O   UNL     1      40.647  40.764  16.085  1.00  0.00    -0.550 OA
ATOM     13  O   UNL     1      40.357  38.501  15.875  1.00  0.00    -0.550 OA
ENDBRANCH  10  11
ENDBRANCH   9  10
ENDBRANCH   8   9
ENDBRANCH   1   8
TORSDOF 8
ENDMDL
