MODEL 1
REMARK VINA RESULT:    -4.421      0.000      0.000
REMARK INTER + INTRA:          -8.273
REMARK INTER:                  -6.230
REMARK INTRA:                  -2.043
REMARK UNBOUND:                -2.043
REMARK SMILES C=CC(=C)CCC=C(C)CCC=C(C)C
REMARK SMILES IDX 8 1 7 2 9 3 10 4 11 5 12 6 14 7 13 8 15 9 6 10 5 11 3 12
REMARK SMILES IDX 4 13 2 14 1 15
REMARK H PARENT
REMARK Flexibility Score: inf
ROOT
ATOM      1  C   UNL     1       5.926  -2.306  18.099  1.00  0.00    -0.077 C 
ATOM      2  C   UNL     1       4.840  -2.597  17.350  1.00  0.00    -0.028 C 
ATOM      3  C   UNL     1       7.291  -2.597  17.531  1.00  0.00     0.039 C 
ENDROOT
BRANCH   1   4
ATOM      4  C   UNL     1       5.832  -1.646  19.460  1.00  0.00     0.034 C 
BRANCH   4   5
ATOM      5  C   UNL     1       6.105  -2.662  20.574  1.00  0.00     0.032 C 
BRANCH   5   6
ATOM      6  C   UNL     1       4.823  -3.052  21.266  1.00  0.00    -0.028 C 
ATOM      7  C   UNL     1       4.640  -5.232  20.047  1.00  0.00     0.039 C 
ATOM      8  C   UNL     1       4.141  -4.192  21.022  1.00  0.00    -0.080 C 
ATOM      9  C   UNL     1       2.850  -4.429  21.764  1.00  0.00     0.039 C 
ENDBRANCH   5   6
ENDBRANCH   4   5
ENDBRANCH   1   4
BRANCH   2  10
ATOM     10  C   UNL     1       3.420  -2.345  17.798  1.00  0.00     0.032 C 
BRANCH  10  11
ATOM     11  C   UNL     1       2.481  -3.523  17.494  1.00  0.00     0.039 C 
BRANCH  11  12
ATOM     12  C   UNL     1       1.308  -3.592  18.456  1.00  0.00    -0.055 C 
ATOM     13  C   UNL     1       0.805  -4.794  18.762  1.00  0.00     0.012 C 
BRANCH  12  14
ATOM     14  C   UNL     1       0.684  -2.390  19.075  1.00  0.00    -0.005 C 
ATOM     15  C   UNL     1       0.005  -2.389  20.223  1.00  0.00     0.009 C 
ENDBRANCH  12  14
ENDBRANCH  11  12
ENDBRANCH  10  11
ENDBRANCH   2  10
TORSDOF 7
ENDMDL
MODEL 2
REMARK VINA RESULT:    -4.377      2.154      4.651
REMARK INTER + INTRA:          -8.212
REMARK INTER:                  -7.025
REMARK INTRA:                  -1.187
REMARK UNBOUND:                -2.043
REMARK SMILES C=CC(=C)CCC=C(C)CCC=C(C)C
REMARK SMILES IDX 8 1 7 2 9 3 10 4 11 5 12 6 14 7 13 8 15 9 6 10 5 11 3 12
REMARK SMILES IDX 4 13 2 14 1 15
REMARK H PARENT
REMARK Flexibility Score: inf
ROOT
ATOM      1  C   UNL     1       3.497  -3.517  19.120  1.00  0.00    -0.077 C 
ATOM      2  C   UNL     1       2.163  -3.536  18.904  1.00  0.00    -0.028 C 
ATOM      3  C   UNL     1       4.143  -4.731  19.734  1.00  0.00     0.039 C 
ENDROOT
BRANCH   1   4
ATOM      4  C   UNL     1       4.378  -2.351  18.717  1.00  0.00     0.034 C 
BRANCH   4   5
ATOM      5  C   UNL     1       4.982  -2.585  17.328  1.00  0.00     0.032 C 
BRANCH   5   6
ATOM      6  C   UNL     1       6.487  -2.496  17.378  1.00  0.00    -0.028 C 
ATOM      7  C   UNL     1       6.696  -1.955  14.942  1.00  0.00     0.039 C 
ATOM      8  C   UNL     1       7.272  -2.238  16.310  1.00  0.00    -0.080 C 
ATOM      9  C   UNL     1       8.766  -2.218  16.505  1.00  0.00     0.039 C 
ENDBRANCH   5   6
ENDBRANCH   4   5
ENDBRANCH   1   4
BRANCH   2  10
ATOM     10  C   UNL     1       1.397  -2.389  18.286  1.00  0.00     0.032 C 
BRANCH  10  11
ATOM     11  C   UNL     1       1.146  -2.583  16.783  1.00  0.00     0.039 C 
BRANCH  11  12
ATOM     12  C   UNL     1       1.207  -1.276  16.012  1.00  0.00    -0.055 C 
ATOM     13  C   UNL     1       0.059  -0.728  15.595  1.00  0.00     0.012 C 
BRANCH  12  14
ATOM     14  C   UNL     1       2.479  -0.571  15.693  1.00  0.00    -0.005 C 
ATOM     15  C   UNL     1       3.175  -0.724  14.565  1.00  0.00     0.009 C 
ENDBRANCH  12  14
ENDBRANCH  11  12
ENDBRANCH  10  11
ENDBRANCH   2  10
TORSDOF 7
ENDMDL
MODEL 3
REMARK VINA RESULT:    -4.323      2.308      4.176
REMARK INTER + INTRA:          -8.136
REMARK INTER:                  -6.572
REMARK INTRA:                  -1.563
REMARK UNBOUND:                -2.043
REMARK SMILES C=CC(=C)CCC=C(C)CCC=C(C)C
REMARK SMILES IDX 8 1 7 2 9 3 10 4 11 5 12 6 14 7 13 8 15 9 6 10 5 11 3 12
REMARK SMILES IDX 4 13 2 14 1 15
REMARK H PARENT
REMARK Flexibility Score: inf
ROOT
ATOM      1  C   UNL     1       3.914  -3.016  17.973  1.00  0.00    -0.077 C 
ATOM      2  C   UNL     1       4.333  -2.320  16.893  1.00  0.00    -0.028 C 
ATOM      3  C   UNL     1       4.706  -2.906  19.250  1.00  0.00     0.039 C 
ENDROOT
BRANCH   1   4
ATOM      4  C   UNL     1       2.650  -3.853  17.973  1.00  0.00     0.034 C 
BRANCH   4   5
ATOM      5  C   UNL     1       1.784  -3.525  19.193  1.00  0.00     0.032 C 
BRANCH   5   6
ATOM      6  C   UNL     1       0.689  -2.555  18.825  1.00  0.00    -0.028 C 
ATOM      7  C   UNL     1      -0.093  -2.291  21.189  1.00  0.00     0.039 C 
ATOM      8  C   UNL     1      -0.177  -2.011  19.708  1.00  0.00    -0.080 C 
ATOM      9  C   UNL     1      -1.247  -1.085  19.187  1.00  0.00     0.039 C 
ENDBRANCH   5   6
ENDBRANCH   4   5
ENDBRANCH   1   4
BRANCH   2  10
ATOM     10  C   UNL     1       3.623  -2.336  15.559  1.00  0.00     0.032 C 
BRANCH  10  11
ATOM     11  C   UNL     1       2.714  -1.114  15.356  1.00  0.00     0.039 C 
BRANCH  11  12
ATOM     12  C   UNL     1       1.240  -1.479  15.380  1.00  0.00    -0.055 C 
ATOM     13  C   UNL     1       0.879  -2.699  14.965  1.00  0.00     0.012 C 
BRANCH  12  14
ATOM     14  C   UNL     1       0.172  -0.549  15.840  1.00  0.00    -0.005 C 
ATOM     15  C   UNL     1      -0.972  -0.321  15.194  1.00  0.00     0.009 C 
ENDBRANCH  12  14
ENDBRANCH  11  12
ENDBRANCH  10  11
ENDBRANCH   2  10
TORSDOF 7
ENDMDL
MODEL 4
REMARK VINA RESULT:    -4.271      2.088      4.437
REMARK INTER + INTRA:          -8.062
REMARK INTER:                  -6.324
REMARK INTRA:                  -1.738
REMARK UNBOUND:                -2.043
REMARK SMILES C=CC(=C)CCC=C(C)CCC=C(C)C
REMARK SMILES IDX 8 1 7 2 9 3 10 4 11 5 12 6 14 7 13 8 15 9 6 10 5 11 3 12
REMARK SMILES IDX 4 13 2 14 1 15
REMARK H PARENT
REMARK Flexibility Score: inf
ROOT
ATOM      1  C   UNL     1       3.890  -3.172  18.230  1.00  0.00    -0.077 C 
ATOM      2  C   UNL     1       3.160  -4.302  18.349  1.00  0.00    -0.028 C 
ATOM      3  C   UNL     1       5.381  -3.255  18.426  1.00  0.00     0.039 C 
ENDROOT
BRANCH   1   4
ATOM      4  C   UNL     1       3.281  -1.836  17.850  1.00  0.00     0.034 C 
BRANCH   4   5
ATOM      5  C   UNL     1       3.198  -1.694  16.326  1.00  0.00     0.032 C 
BRANCH   5   6
ATOM      6  C   UNL     1       1.964  -0.923  15.929  1.00  0.00    -0.028 C 
ATOM      7  C   UNL     1       0.814  -2.937  14.984  1.00  0.00     0.039 C 
ATOM      8  C   UNL     1       0.895  -1.463  15.303  1.00  0.00    -0.080 C 
ATOM      9  C   UNL     1      -0.252  -0.559  14.932  1.00  0.00     0.039 C 
ENDBRANCH   5   6
ENDBRANCH   4   5
ENDBRANCH   1   4
BRANCH   2  10
ATOM     10  C   UNL     1       1.661  -4.356  18.165  1.00  0.00     0.032 C 
BRANCH  10  11
ATOM     11  C   UNL     1       0.898  -4.355  19.499  1.00  0.00     0.039 C 
BRANCH  11  12
ATOM     12  C   UNL     1       0.339  -2.986  19.845  1.00  0.00    -0.055 C 
ATOM     13  C   UNL     1       0.318  -2.612  21.130  1.00  0.00     0.012 C 
BRANCH  12  14
ATOM     14  C   UNL     1      -0.191  -2.037  18.829  1.00  0.00    -0.005 C 
ATOM     15  C   UNL     1      -1.042  -1.041  19.084  1.00  0.00     0.009 C 
ENDBRANCH  12  14
ENDBRANCH  11  12
ENDBRANCH  10  11
ENDBRANCH   2  10
TORSDOF 7
ENDMDL
MODEL 5
REMARK VINA RESULT:    -4.270      2.317      4.400
REMARK INTER + INTRA:          -8.061
REMARK INTER:                  -6.370
REMARK INTRA:                  -1.691
REMARK UNBOUND:                -2.043
REMARK SMILES C=CC(=C)CCC=C(C)CCC=C(C)C
REMARK SMILES IDX 8 1 7 2 9 3 10 4 11 5 12 6 14 7 13 8 15 9 6 10 5 11 3 12
REMARK SMILES IDX 4 13 2 14 1 15
REMARK H PARENT
REMARK Flexibility Score: inf
ROOT
ATOM      1  C   UNL     1       3.806  -3.081  18.125  1.00  0.00    -0.077 C 
ATOM      2  C   UNL     1       4.118  -2.141  17.206  1.00  0.00    -0.028 C 
ATOM      3  C   UNL     1       4.542  -3.072  19.440  1.00  0.00     0.039 C 
ENDROOT
BRANCH   1   4
ATOM      4  C   UNL     1       2.709  -4.106  17.914  1.00  0.00     0.034 C 
BRANCH   4   5
ATOM      5  C   UNL     1       1.612  -3.948  18.972  1.00  0.00     0.032 C 
BRANCH   5   6
ATOM      6  C   UNL     1       0.686  -2.812  18.616  1.00  0.00    -0.028 C 
ATOM      7  C   UNL     1      -0.116  -2.515  20.969  1.00  0.00     0.039 C 
ATOM      8  C   UNL     1      -0.114  -2.174  19.498  1.00  0.00    -0.080 C 
ATOM      9  C   UNL     1      -1.017  -1.080  18.987  1.00  0.00     0.039 C 
ENDBRANCH   5   6
ENDBRANCH   4   5
ENDBRANCH   1   4
BRANCH   2  10
ATOM     10  C   UNL     1       3.447  -2.035  15.856  1.00  0.00     0.032 C 
BRANCH  10  11
ATOM     11  C   UNL     1       2.351  -0.959  15.820  1.00  0.00     0.039 C 
BRANCH  11  12
ATOM     12  C   UNL     1       1.023  -1.502  15.321  1.00  0.00    -0.055 C 
ATOM     13  C   UNL     1      -0.023  -0.671  15.260  1.00  0.00     0.012 C 
BRANCH  12  14
ATOM     14  C   UNL     1       0.823  -2.916  14.898  1.00  0.00    -0.005 C 
ATOM     15  C   UNL     1       0.132  -3.301  13.824  1.00  0.00     0.009 C 
ENDBRANCH  12  14
ENDBRANCH  11  12
ENDBRANCH  10  11
ENDBRANCH   2  10
TORSDOF 7
ENDMDL
MODEL 6
REMARK VINA RESULT:    -4.243      1.203      2.436
REMARK INTER + INTRA:          -8.022
REMARK INTER:                  -5.716
REMARK INTRA:                  -2.306
REMARK UNBOUND:                -2.043
REMARK SMILES C=CC(=C)CCC=C(C)CCC=C(C)C
REMARK SMILES IDX 8 1 7 2 9 3 10 4 11 5 12 6 14 7 13 8 15 9 6 10 5 11 3 12
REMARK SMILES IDX 4 13 2 14 1 15
REMARK H PARENT
REMARK Flexibility Score: inf
ROOT
ATOM      1  C   UNL     1       4.462  -3.269  18.825  1.00  0.00    -0.077 C 
ATOM      2  C   UNL     1       3.599  -2.429  18.211  1.00  0.00    -0.028 C 
ATOM      3  C   UNL     1       5.740  -2.701  19.387  1.00  0.00     0.039 C 
ENDROOT
BRANCH   1   4
ATOM      4  C   UNL     1       4.174  -4.743  19.024  1.00  0.00     0.034 C 
BRANCH   4   5
ATOM      5  C   UNL     1       4.710  -5.221  20.378  1.00  0.00     0.032 C 
BRANCH   5   6
ATOM      6  C   UNL     1       3.575  -5.545  21.317  1.00  0.00    -0.028 C 
ATOM      7  C   UNL     1       3.698  -3.334  22.486  1.00  0.00     0.039 C 
ATOM      8  C   UNL     1       3.126  -4.717  22.286  1.00  0.00    -0.080 C 
ATOM      9  C   UNL     1       2.007  -5.194  23.176  1.00  0.00     0.039 C 
ENDBRANCH   5   6
ENDBRANCH   4   5
ENDBRANCH   1   4
BRANCH   2  10
ATOM     10  C   UNL     1       2.281  -2.870  17.617  1.00  0.00     0.032 C 
BRANCH  10  11
ATOM     11  C   UNL     1       1.070  -2.361  18.414  1.00  0.00     0.039 C 
BRANCH  11  12
ATOM     12  C   UNL     1       0.645  -3.331  19.501  1.00  0.00    -0.055 C 
ATOM     13  C   UNL     1       0.386  -2.847  20.722  1.00  0.00     0.012 C 
BRANCH  12  14
ATOM     14  C   UNL     1       0.502  -4.797  19.283  1.00  0.00    -0.005 C 
ATOM     15  C   UNL     1       0.017  -5.659  20.178  1.00  0.00     0.009 C 
ENDBRANCH  12  14
ENDBRANCH  11  12
ENDBRANCH  10  11
ENDBRANCH   2  10
TORSDOF 7
ENDMDL
MODEL 7
REMARK VINA RESULT:    -4.213      1.404      2.661
REMARK INTER + INTRA:          -7.980
REMARK INTER:                  -6.261
REMARK INTRA:                  -1.719
REMARK UNBOUND:                -2.043
REMARK SMILES C=CC(=C)CCC=C(C)CCC=C(C)C
REMARK SMILES IDX 8 1 7 2 9 3 10 4 11 5 12 6 14 7 13 8 15 9 6 10 5 11 3 12
REMARK SMILES IDX 4 13 2 14 1 15
REMARK H PARENT
REMARK Flexibility Score: inf
ROOT
ATOM      1  C   UNL     1       3.344  -2.339  16.588  1.00  0.00    -0.077 C 
ATOM      2  C   UNL     1       2.080  -2.797  16.452  1.00  0.00    -0.028 C 
ATOM      3  C   UNL     1       4.211  -2.248  15.359  1.00  0.00     0.039 C 
ENDROOT
BRANCH   1   4
ATOM      4  C   UNL     1       3.907  -1.859  17.911  1.00  0.00     0.034 C 
BRANCH   4   5
ATOM      5  C   UNL     1       5.132  -2.688  18.310  1.00  0.00     0.032 C 
BRANCH   5   6
ATOM      6  C   UNL     1       4.715  -3.933  19.052  1.00  0.00    -0.028 C 
ATOM      7  C   UNL     1       5.800  -3.216  21.191  1.00  0.00     0.039 C 
ATOM      8  C   UNL     1       5.029  -4.195  20.340  1.00  0.00    -0.080 C 
ATOM      9  C   UNL     1       4.575  -5.503  20.937  1.00  0.00     0.039 C 
ENDBRANCH   5   6
ENDBRANCH   4   5
ENDBRANCH   1   4
BRANCH   2  10
ATOM     10  C   UNL     1       1.107  -2.926  17.601  1.00  0.00     0.032 C 
BRANCH  10  11
ATOM     11  C   UNL     1       1.131  -4.320  18.247  1.00  0.00     0.039 C 
BRANCH  11  12
ATOM     12  C   UNL     1       0.990  -4.260  19.758  1.00  0.00    -0.055 C 
ATOM     13  C   UNL     1       1.389  -3.151  20.392  1.00  0.00     0.012 C 
BRANCH  12  14
ATOM     14  C   UNL     1       0.433  -5.373  20.574  1.00  0.00    -0.005 C 
ATOM     15  C   UNL     1      -0.342  -6.352  20.103  1.00  0.00     0.009 C 
ENDBRANCH  12  14
ENDBRANCH  11  12
ENDBRANCH  10  11
ENDBRANCH   2  10
TORSDOF 7
ENDMDL
MODEL 8
REMARK VINA RESULT:    -4.175      1.515      4.529
REMARK INTER + INTRA:          -7.927
REMARK INTER:                  -5.924
REMARK INTRA:                  -2.004
REMARK UNBOUND:                -2.043
REMARK SMILES C=CC(=C)CCC=C(C)CCC=C(C)C
REMARK SMILES IDX 8 1 7 2 9 3 10 4 11 5 12 6 14 7 13 8 15 9 6 10 5 11 3 12
REMARK SMILES IDX 4 13 2 14 1 15
REMARK H PARENT
REMARK Flexibility Score: inf
ROOT
ATOM      1  C   UNL     1       0.249  -3.353  20.113  1.00  0.00    -0.077 C 
ATOM      2  C   UNL     1       0.736  -2.923  18.928  1.00  0.00    -0.028 C 
ATOM      3  C   UNL     1      -0.250  -2.330  21.099  1.00  0.00     0.039 C 
ENDROOT
BRANCH   1   4
ATOM      4  C   UNL     1       0.127  -4.822  20.467  1.00  0.00     0.034 C 
BRANCH   4   5
ATOM      5  C   UNL     1       1.001  -5.159  21.681  1.00  0.00     0.032 C 
BRANCH   5   6
ATOM      6  C   UNL     1       2.386  -5.567  21.245  1.00  0.00    -0.028 C 
ATOM      7  C   UNL     1       3.429  -3.420  22.001  1.00  0.00     0.039 C 
ATOM      8  C   UNL     1       3.483  -4.786  21.360  1.00  0.00    -0.080 C 
ATOM      9  C   UNL     1       4.797  -5.314  20.843  1.00  0.00     0.039 C 
ENDBRANCH   5   6
ENDBRANCH   4   5
ENDBRANCH   1   4
BRANCH   2  10
ATOM     10  C   UNL     1       1.255  -3.847  17.850  1.00  0.00     0.032 C 
BRANCH  10  11
ATOM     11  C   UNL     1       2.779  -4.032  17.910  1.00  0.00     0.039 C 
BRANCH  11  12
ATOM     12  C   UNL     1       3.532  -2.773  17.517  1.00  0.00    -0.055 C 
ATOM     13  C   UNL     1       4.350  -2.213  18.416  1.00  0.00     0.012 C 
BRANCH  12  14
ATOM     14  C   UNL     1       3.405  -2.125  16.183  1.00  0.00    -0.005 C 
ATOM     15  C   UNL     1       2.725  -1.003  15.940  1.00  0.00     0.009 C 
ENDBRANCH  12  14
ENDBRANCH  11  12
ENDBRANCH  10  11
ENDBRANCH   2  10
TORSDOF 7
ENDMDL
MODEL 9
REMARK VINA RESULT:    -4.155      1.959      5.827
REMARK INTER + INTRA:          -7.899
REMARK INTER:                  -6.300
REMARK INTRA:                  -1.598
REMARK UNBOUND:                -2.043
REMARK SMILES C=CC(=C)CCC=C(C)CCC=C(C)C
REMARK SMILES IDX 8 1 7 2 9 3 10 4 11 5 12 6 14 7 13 8 15 9 6 10 5 11 3 12
REMARK SMILES IDX 4 13 2 14 1 15
REMARK H PARENT
REMARK Flexibility Score: inf
ROOT
ATOM      1  C   UNL     1       2.372  -3.633  18.823  1.00  0.00    -0.077 C 
ATOM      2  C   UNL     1       3.075  -4.171  19.845  1.00  0.00    -0.028 C 
ATOM      3  C   UNL     1       0.933  -3.256  19.061  1.00  0.00     0.039 C 
ENDROOT
BRANCH   1   4
ATOM      4  C   UNL     1       2.985  -3.338  17.469  1.00  0.00     0.034 C 
BRANCH   4   5
ATOM      5  C   UNL     1       3.220  -1.833  17.298  1.00  0.00     0.032 C 
BRANCH   5   6
ATOM      6  C   UNL     1       3.146  -1.443  15.843  1.00  0.00    -0.028 C 
ATOM      7  C   UNL     1       0.716  -0.849  15.960  1.00  0.00     0.039 C 
ATOM      8  C   UNL     1       2.022  -1.022  15.222  1.00  0.00    -0.080 C 
ATOM      9  C   UNL     1       2.091  -0.705  13.750  1.00  0.00     0.039 C 
ENDBRANCH   5   6
ENDBRANCH   4   5
ENDBRANCH   1   4
BRANCH   2  10
ATOM     10  C   UNL     1       4.526  -4.580  19.740  1.00  0.00     0.032 C 
BRANCH  10  11
ATOM     11  C   UNL     1       5.476  -3.582  20.419  1.00  0.00     0.039 C 
BRANCH  11  12
ATOM     12  C   UNL     1       6.107  -2.618  19.430  1.00  0.00    -0.055 C 
ATOM     13  C   UNL     1       6.167  -1.321  19.753  1.00  0.00     0.012 C 
BRANCH  12  14
ATOM     14  C   UNL     1       6.661  -3.041  18.114  1.00  0.00    -0.005 C 
ATOM     15  C   UNL     1       7.155  -2.213  17.192  1.00  0.00     0.009 C 
ENDBRANCH  12  14
ENDBRANCH  11  12
ENDBRANCH  10  11
ENDBRANCH   2  10
TORSDOF 7
ENDMDL
