MODEL 1
REMARK VINA RESULT:    -7.071      0.000      0.000
REMARK INTER + INTRA:          -9.059
REMARK INTER:                  -8.724
REMARK INTRA:                  -0.335
REMARK UNBOUND:                -0.335
REMARK SMILES Oc1cc(O)c2cc(O)c(-c3cc(O)c(O)c(O)c3)[o+]c2c1
REMARK SMILES IDX 10 1 20 2 21 3 22 4 2 5 3 6 4 7 6 8 7 9 8 10 11 11 12 12
REMARK SMILES IDX 13 13 19 14 15 15 17 16 14 17 16 19 18 21 9 23 1 25 5 27
REMARK H PARENT 14 18 16 20 18 22 9 24 1 26 5 28
REMARK Flexibility Score: inf
ROOT
ATOM      1  C   UNL     1       7.926  40.314  22.902  1.00  0.00     0.402 A 
ATOM      2  O   UNL     1       7.178  40.503  23.986  1.00  0.00    -0.202 OA
ATOM      3  C   UNL     1       6.504  39.527  24.588  1.00  0.00     0.368 A 
ATOM      4  C   UNL     1       5.743  39.825  25.721  1.00  0.00     0.162 A 
ATOM      5  C   UNL     1       5.023  38.823  26.371  1.00  0.00     0.128 A 
ATOM      6  C   UNL     1       5.064  37.510  25.886  1.00  0.00     0.093 A 
ATOM      7  C   UNL     1       5.820  37.186  24.753  1.00  0.00     0.136 A 
ATOM      8  C   UNL     1       6.555  38.203  24.091  1.00  0.00     0.125 A 
ATOM      9  C   UNL     1       7.349  37.967  22.958  1.00  0.00     0.078 A 
ATOM     10  C   UNL     1       8.050  39.020  22.360  1.00  0.00     0.223 A 
ENDROOT
BRANCH   1  11
ATOM     11  C   UNL     1       8.620  41.483  22.318  1.00  0.00     0.091 A 
ATOM     12  C   UNL     1       7.929  42.435  21.549  1.00  0.00     0.068 A 
ATOM     13  C   UNL     1       8.599  43.548  21.023  1.00  0.00     0.162 A 
ATOM     14  C   UNL     1       9.985  41.679  22.580  1.00  0.00     0.068 A 
ATOM     15  C   UNL     1       9.967  43.724  21.271  1.00  0.00     0.200 A 
ATOM     16  C   UNL     1      10.661  42.789  22.056  1.00  0.00     0.162 A 
BRANCH  13  17
ATOM     17  O   UNL     1       7.912  44.486  20.256  1.00  0.00    -0.504 OA
ATOM     18  H   UNL     1       7.489  45.306  20.674  1.00  0.00     0.293 HD
ENDBRANCH  13  17
BRANCH  15  19
ATOM     19  O   UNL     1      10.619  44.836  20.736  1.00  0.00    -0.502 OA
ATOM     20  H   UNL     1      11.413  45.266  21.194  1.00  0.00     0.293 HD
ENDBRANCH  15  19
BRANCH  16  21
ATOM     21  O   UNL     1      12.020  42.964  22.313  1.00  0.00    -0.504 OA
ATOM     22  H   UNL     1      12.468  43.869  22.212  1.00  0.00     0.293 HD
ENDBRANCH  16  21
ENDBRANCH   1  11
BRANCH  10  23
ATOM     23  O   UNL     1       8.878  38.777  21.265  1.00  0.00    -0.500 OA
ATOM     24  H   UNL     1       9.707  38.200  21.341  1.00  0.00     0.294 HD
ENDBRANCH  10  23
BRANCH   5  25
ATOM     25  O   UNL     1       4.269  39.140  27.500  1.00  0.00    -0.507 OA
ATOM     26  H   UNL     1       3.436  38.618  27.743  1.00  0.00     0.293 HD
ENDBRANCH   5  25
BRANCH   7  27
ATOM     27  O   UNL     1       5.807  35.853  24.330  1.00  0.00    -0.507 OA
ATOM     28  H   UNL     1       5.305  35.111  24.796  1.00  0.00     0.293 HD
ENDBRANCH   7  27
TORSDOF 7
ENDMDL
MODEL 2
REMARK VINA RESULT:    -7.040      4.541     10.491
REMARK INTER + INTRA:          -9.021
REMARK INTER:                  -8.704
REMARK INTRA:                  -0.316
REMARK UNBOUND:                -0.335
REMARK SMILES Oc1cc(O)c2cc(O)c(-c3cc(O)c(O)c(O)c3)[o+]c2c1
REMARK SMILES IDX 10 1 20 2 21 3 22 4 2 5 3 6 4 7 6 8 7 9 8 10 11 11 12 12
REMARK SMILES IDX 13 13 19 14 15 15 17 16 14 17 16 19 18 21 9 23 1 25 5 27
REMARK H PARENT 14 18 16 20 18 22 9 24 1 26 5 28
REMARK Flexibility Score: inf
ROOT
ATOM      1  C   UNL     1       3.640  36.075  28.101  1.00  0.00     0.402 A 
ATOM      2  O   UNL     1       4.482  35.898  27.087  1.00  0.00    -0.202 OA
ATOM      3  C   UNL     1       4.963  36.897  26.353  1.00  0.00     0.368 A 
ATOM      4  C   UNL     1       5.841  36.610  25.305  1.00  0.00     0.162 A 
ATOM      5  C   UNL     1       6.359  37.638  24.517  1.00  0.00     0.128 A 
ATOM      6  C   UNL     1       5.997  38.965  24.778  1.00  0.00     0.093 A 
ATOM      7  C   UNL     1       5.120  39.278  25.822  1.00  0.00     0.136 A 
ATOM      8  C   UNL     1       4.594  38.236  26.627  1.00  0.00     0.125 A 
ATOM      9  C   UNL     1       3.719  38.457  27.703  1.00  0.00     0.078 A 
ATOM     10  C   UNL     1       3.244  37.378  28.456  1.00  0.00     0.223 A 
ENDROOT
BRANCH   1  11
ATOM     11  C   UNL     1       3.167  34.880  28.835  1.00  0.00     0.091 A 
ATOM     12  C   UNL     1       2.219  34.006  28.277  1.00  0.00     0.068 A 
ATOM     13  C   UNL     1       1.800  32.867  28.979  1.00  0.00     0.162 A 
ATOM     14  C   UNL     1       3.715  34.579  30.092  1.00  0.00     0.068 A 
ATOM     15  C   UNL     1       2.336  32.586  30.243  1.00  0.00     0.200 A 
ATOM     16  C   UNL     1       3.299  33.443  30.799  1.00  0.00     0.162 A 
BRANCH  13  17
ATOM     17  O   UNL     1       0.855  32.006  28.424  1.00  0.00    -0.504 OA
ATOM     18  H   UNL     1       0.863  31.774  27.438  1.00  0.00     0.293 HD
ENDBRANCH  13  17
BRANCH  15  19
ATOM     19  O   UNL     1       1.904  31.450  30.928  1.00  0.00    -0.502 OA
ATOM     20  H   UNL     1       2.333  30.543  30.791  1.00  0.00     0.293 HD
ENDBRANCH  15  19
BRANCH  16  21
ATOM     21  O   UNL     1       3.841  33.163  32.053  1.00  0.00    -0.504 OA
ATOM     22  H   UNL     1       3.541  33.659  32.885  1.00  0.00     0.293 HD
ENDBRANCH  16  21
ENDBRANCH   1  11
BRANCH  10  23
ATOM     23  O   UNL     1       2.415  37.603  29.555  1.00  0.00    -0.500 OA
ATOM     24  H   UNL     1       1.925  38.480  29.683  1.00  0.00     0.294 HD
ENDBRANCH  10  23
BRANCH   5  25
ATOM     25  O   UNL     1       7.233  37.331  23.475  1.00  0.00    -0.507 OA
ATOM     26  H   UNL     1       7.813  38.041  23.045  1.00  0.00     0.293 HD
ENDBRANCH   5  25
BRANCH   7  27
ATOM     27  O   UNL     1       4.806  40.627  26.017  1.00  0.00    -0.507 OA
ATOM     28  H   UNL     1       4.304  41.198  25.353  1.00  0.00     0.293 HD
ENDBRANCH   7  27
TORSDOF 7
ENDMDL
MODEL 3
REMARK VINA RESULT:    -6.897      1.356      7.048
REMARK INTER + INTRA:          -8.845
REMARK INTER:                  -9.137
REMARK INTRA:                   0.292
REMARK UNBOUND:                -0.335
REMARK SMILES Oc1cc(O)c2cc(O)c(-c3cc(O)c(O)c(O)c3)[o+]c2c1
REMARK SMILES IDX 10 1 20 2 21 3 22 4 2 5 3 6 4 7 6 8 7 9 8 10 11 11 12 12
REMARK SMILES IDX 13 13 19 14 15 15 17 16 14 17 16 19 18 21 9 23 1 25 5 27
REMARK H PARENT 14 18 16 20 18 22 9 24 1 26 5 28
REMARK Flexibility Score: inf
ROOT
ATOM      1  C   UNL     1       8.110  40.147  22.777  1.00  0.00     0.402 A 
ATOM      2  O   UNL     1       7.835  41.399  22.420  1.00  0.00    -0.202 OA
ATOM      3  C   UNL     1       8.632  42.130  21.646  1.00  0.00     0.368 A 
ATOM      4  C   UNL     1       8.258  43.437  21.328  1.00  0.00     0.162 A 
ATOM      5  C   UNL     1       9.076  44.228  20.521  1.00  0.00     0.128 A 
ATOM      6  C   UNL     1      10.278  43.709  20.027  1.00  0.00     0.093 A 
ATOM      7  C   UNL     1      10.675  42.402  20.331  1.00  0.00     0.136 A 
ATOM      8  C   UNL     1       9.845  41.594  21.149  1.00  0.00     0.125 A 
ATOM      9  C   UNL     1      10.155  40.268  21.494  1.00  0.00     0.078 A 
ATOM     10  C   UNL     1       9.284  39.531  22.303  1.00  0.00     0.223 A 
ENDROOT
BRANCH   1  11
ATOM     11  C   UNL     1       7.147  39.441  23.652  1.00  0.00     0.091 A 
ATOM     12  C   UNL     1       7.101  38.037  23.705  1.00  0.00     0.068 A 
ATOM     13  C   UNL     1       6.197  37.387  24.557  1.00  0.00     0.162 A 
ATOM     14  C   UNL     1       6.299  40.184  24.487  1.00  0.00     0.068 A 
ATOM     15  C   UNL     1       5.338  38.137  25.372  1.00  0.00     0.200 A 
ATOM     16  C   UNL     1       5.392  39.539  25.339  1.00  0.00     0.162 A 
BRANCH  13  17
ATOM     17  O   UNL     1       6.150  35.995  24.603  1.00  0.00    -0.504 OA
ATOM     18  H   UNL     1       6.952  35.446  24.890  1.00  0.00     0.293 HD
ENDBRANCH  13  17
BRANCH  15  19
ATOM     19  O   UNL     1       4.442  37.472  26.210  1.00  0.00    -0.502 OA
ATOM     20  H   UNL     1       3.834  36.736  25.872  1.00  0.00     0.293 HD
ENDBRANCH  15  19
BRANCH  16  21
ATOM     21  O   UNL     1       4.545  40.289  26.155  1.00  0.00    -0.504 OA
ATOM     22  H   UNL     1       4.521  41.302  26.108  1.00  0.00     0.293 HD
ENDBRANCH  16  21
ENDBRANCH   1  11
BRANCH  10  23
ATOM     23  O   UNL     1       9.568  38.199  22.605  1.00  0.00    -0.500 OA
ATOM     24  H   UNL     1       9.722  37.509  21.879  1.00  0.00     0.294 HD
ENDBRANCH  10  23
BRANCH   5  25
ATOM     25  O   UNL     1       8.687  45.531  20.215  1.00  0.00    -0.507 OA
ATOM     26  H   UNL     1       8.705  45.880  19.264  1.00  0.00     0.293 HD
ENDBRANCH   5  25
BRANCH   7  27
ATOM     27  O   UNL     1      11.891  41.957  19.801  1.00  0.00    -0.507 OA
ATOM     28  H   UNL     1      12.766  41.959  20.303  1.00  0.00     0.293 HD
ENDBRANCH   7  27
TORSDOF 7
ENDMDL
MODEL 4
REMARK VINA RESULT:    -6.746      2.133      7.113
REMARK INTER + INTRA:          -8.658
REMARK INTER:                  -8.365
REMARK INTRA:                  -0.293
REMARK UNBOUND:                -0.335
REMARK SMILES Oc1cc(O)c2cc(O)c(-c3cc(O)c(O)c(O)c3)[o+]c2c1
REMARK SMILES IDX 10 1 20 2 21 3 22 4 2 5 3 6 4 7 6 8 7 9 8 10 11 11 12 12
REMARK SMILES IDX 13 13 19 14 15 15 17 16 14 17 16 19 18 21 9 23 1 25 5 27
REMARK H PARENT 14 18 16 20 18 22 9 24 1 26 5 28
REMARK Flexibility Score: inf
ROOT
ATOM      1  C   UNL     1       9.094  40.192  23.063  1.00  0.00     0.402 A 
ATOM      2  O   UNL     1       8.674  41.422  22.776  1.00  0.00    -0.202 OA
ATOM      3  C   UNL     1       9.222  42.179  21.831  1.00  0.00     0.368 A 
ATOM      4  C   UNL     1       8.713  43.460  21.606  1.00  0.00     0.162 A 
ATOM      5  C   UNL     1       9.271  44.278  20.622  1.00  0.00     0.128 A 
ATOM      6  C   UNL     1      10.345  43.812  19.856  1.00  0.00     0.093 A 
ATOM      7  C   UNL     1      10.873  42.532  20.062  1.00  0.00     0.136 A 
ATOM      8  C   UNL     1      10.307  41.697  21.059  1.00  0.00     0.125 A 
ATOM      9  C   UNL     1      10.762  40.396  21.326  1.00  0.00     0.078 A 
ATOM     10  C   UNL     1      10.151  39.629  22.324  1.00  0.00     0.223 A 
ENDROOT
BRANCH   1  11
ATOM     11  C   UNL     1       8.408  39.453  24.146  1.00  0.00     0.091 A 
ATOM     12  C   UNL     1       9.058  39.158  25.357  1.00  0.00     0.068 A 
ATOM     13  C   UNL     1       8.384  38.477  26.380  1.00  0.00     0.162 A 
ATOM     14  C   UNL     1       7.062  39.086  23.988  1.00  0.00     0.068 A 
ATOM     15  C   UNL     1       7.048  38.094  26.205  1.00  0.00     0.200 A 
ATOM     16  C   UNL     1       6.384  38.403  25.006  1.00  0.00     0.162 A 
BRANCH  13  17
ATOM     17  O   UNL     1       9.035  38.181  27.576  1.00  0.00    -0.504 OA
ATOM     18  H   UNL     1       8.625  38.410  28.473  1.00  0.00     0.293 HD
ENDBRANCH  13  17
BRANCH  15  19
ATOM     19  O   UNL     1       6.394  37.413  27.232  1.00  0.00    -0.502 OA
ATOM     20  H   UNL     1       6.752  36.548  27.617  1.00  0.00     0.293 HD
ENDBRANCH  15  19
BRANCH  16  21
ATOM     21  O   UNL     1       5.051  38.032  24.831  1.00  0.00    -0.504 OA
ATOM     22  H   UNL     1       4.775  37.359  24.124  1.00  0.00     0.293 HD
ENDBRANCH  16  21
ENDBRANCH   1  11
BRANCH  10  23
ATOM     23  O   UNL     1      10.570  38.319  22.555  1.00  0.00    -0.500 OA
ATOM     24  H   UNL     1      10.134  37.736  23.260  1.00  0.00     0.294 HD
ENDBRANCH  10  23
BRANCH   5  25
ATOM     25  O   UNL     1       8.749  45.553  20.413  1.00  0.00    -0.507 OA
ATOM     26  H   UNL     1       9.152  46.184  19.730  1.00  0.00     0.293 HD
ENDBRANCH   5  25
BRANCH   7  27
ATOM     27  O   UNL     1      11.948  42.141  19.258  1.00  0.00    -0.507 OA
ATOM     28  H   UNL     1      11.935  42.139  18.249  1.00  0.00     0.293 HD
ENDBRANCH   7  27
TORSDOF 7
ENDMDL
MODEL 5
REMARK VINA RESULT:    -6.730      2.110      6.912
REMARK INTER + INTRA:          -8.639
REMARK INTER:                  -8.371
REMARK INTRA:                  -0.267
REMARK UNBOUND:                -0.335
REMARK SMILES Oc1cc(O)c2cc(O)c(-c3cc(O)c(O)c(O)c3)[o+]c2c1
REMARK SMILES IDX 10 1 20 2 21 3 22 4 2 5 3 6 4 7 6 8 7 9 8 10 11 11 12 12
REMARK SMILES IDX 13 13 19 14 15 15 17 16 14 17 16 19 18 21 9 23 1 25 5 27
REMARK H PARENT 14 18 16 20 18 22 9 24 1 26 5 28
REMARK Flexibility Score: inf
ROOT
ATOM      1  C   UNL     1       9.031  40.154  23.064  1.00  0.00     0.402 A 
ATOM      2  O   UNL     1       8.620  41.381  22.756  1.00  0.00    -0.202 OA
ATOM      3  C   UNL     1       9.190  42.129  21.816  1.00  0.00     0.368 A 
ATOM      4  C   UNL     1       8.688  43.408  21.567  1.00  0.00     0.162 A 
ATOM      5  C   UNL     1       9.269  44.216  20.589  1.00  0.00     0.128 A 
ATOM      6  C   UNL     1      10.361  43.743  19.853  1.00  0.00     0.093 A 
ATOM      7  C   UNL     1      10.883  42.464  20.084  1.00  0.00     0.136 A 
ATOM      8  C   UNL     1      10.293  41.639  21.075  1.00  0.00     0.125 A 
ATOM      9  C   UNL     1      10.741  40.340  21.365  1.00  0.00     0.078 A 
ATOM     10  C   UNL     1      10.106  39.583  22.355  1.00  0.00     0.223 A 
ENDROOT
BRANCH   1  11
ATOM     11  C   UNL     1       8.319  39.426  24.138  1.00  0.00     0.091 A 
ATOM     12  C   UNL     1       7.004  38.964  23.960  1.00  0.00     0.068 A 
ATOM     13  C   UNL     1       6.354  38.256  24.981  1.00  0.00     0.162 A 
ATOM     14  C   UNL     1       8.987  39.139  25.338  1.00  0.00     0.068 A 
ATOM     15  C   UNL     1       7.020  37.994  26.186  1.00  0.00     0.200 A 
ATOM     16  C   UNL     1       8.342  38.433  26.363  1.00  0.00     0.162 A 
BRANCH  13  17
ATOM     17  O   UNL     1       5.047  37.806  24.804  1.00  0.00    -0.504 OA
ATOM     18  H   UNL     1       4.251  38.368  25.081  1.00  0.00     0.293 HD
ENDBRANCH  13  17
BRANCH  15  19
ATOM     19  O   UNL     1       6.356  37.291  27.192  1.00  0.00    -0.502 OA
ATOM     20  H   UNL     1       6.231  37.672  28.122  1.00  0.00     0.293 HD
ENDBRANCH  15  19
BRANCH  16  21
ATOM     21  O   UNL     1       9.012  38.167  27.557  1.00  0.00    -0.504 OA
ATOM     22  H   UNL     1       8.971  37.254  27.997  1.00  0.00     0.293 HD
ENDBRANCH  16  21
ENDBRANCH   1  11
BRANCH  10  23
ATOM     23  O   UNL     1      10.518  38.275  22.609  1.00  0.00    -0.500 OA
ATOM     24  H   UNL     1      11.477  37.982  22.467  1.00  0.00     0.294 HD
ENDBRANCH  10  23
BRANCH   5  25
ATOM     25  O   UNL     1       8.754  45.490  20.355  1.00  0.00    -0.507 OA
ATOM     26  H   UNL     1       9.088  46.298  20.867  1.00  0.00     0.293 HD
ENDBRANCH   5  25
BRANCH   7  27
ATOM     27  O   UNL     1      11.977  42.066  19.309  1.00  0.00    -0.507 OA
ATOM     28  H   UNL     1      11.908  41.693  18.374  1.00  0.00     0.293 HD
ENDBRANCH   7  27
TORSDOF 7
ENDMDL
MODEL 6
REMARK VINA RESULT:    -6.694      5.591     11.088
REMARK INTER + INTRA:          -8.594
REMARK INTER:                  -8.260
REMARK INTRA:                  -0.334
REMARK UNBOUND:                -0.335
REMARK SMILES Oc1cc(O)c2cc(O)c(-c3cc(O)c(O)c(O)c3)[o+]c2c1
REMARK SMILES IDX 10 1 20 2 21 3 22 4 2 5 3 6 4 7 6 8 7 9 8 10 11 11 12 12
REMARK SMILES IDX 13 13 19 14 15 15 17 16 14 17 16 19 18 21 9 23 1 25 5 27
REMARK H PARENT 14 18 16 20 18 22 9 24 1 26 5 28
REMARK Flexibility Score: inf
ROOT
ATOM      1  C   UNL     1       4.001  35.203  28.962  1.00  0.00     0.402 A 
ATOM      2  O   UNL     1       5.041  35.904  29.406  1.00  0.00    -0.202 OA
ATOM      3  C   UNL     1       5.585  36.912  28.730  1.00  0.00     0.368 A 
ATOM      4  C   UNL     1       6.678  37.586  29.278  1.00  0.00     0.162 A 
ATOM      5  C   UNL     1       7.271  38.645  28.590  1.00  0.00     0.128 A 
ATOM      6  C   UNL     1       6.768  39.034  27.343  1.00  0.00     0.093 A 
ATOM      7  C   UNL     1       5.673  38.374  26.773  1.00  0.00     0.136 A 
ATOM      8  C   UNL     1       5.066  37.299  27.471  1.00  0.00     0.125 A 
ATOM      9  C   UNL     1       3.957  36.589  26.982  1.00  0.00     0.078 A 
ATOM     10  C   UNL     1       3.410  35.541  27.730  1.00  0.00     0.223 A 
ENDROOT
BRANCH   1  11
ATOM     11  C   UNL     1       3.492  34.096  29.803  1.00  0.00     0.091 A 
ATOM     12  C   UNL     1       2.330  34.242  30.579  1.00  0.00     0.068 A 
ATOM     13  C   UNL     1       1.851  33.175  31.352  1.00  0.00     0.162 A 
ATOM     14  C   UNL     1       4.150  32.856  29.785  1.00  0.00     0.068 A 
ATOM     15  C   UNL     1       2.526  31.947  31.346  1.00  0.00     0.200 A 
ATOM     16  C   UNL     1       3.677  31.786  30.557  1.00  0.00     0.162 A 
BRANCH  13  17
ATOM     17  O   UNL     1       0.702  33.326  32.125  1.00  0.00    -0.504 OA
ATOM     18  H   UNL     1       0.533  32.751  32.942  1.00  0.00     0.293 HD
ENDBRANCH  13  17
BRANCH  15  19
ATOM     19  O   UNL     1       2.037  30.897  32.124  1.00  0.00    -0.502 OA
ATOM     20  H   UNL     1       2.617  30.112  32.395  1.00  0.00     0.293 HD
ENDBRANCH  15  19
BRANCH  16  21
ATOM     21  O   UNL     1       4.347  30.563  30.541  1.00  0.00    -0.504 OA
ATOM     22  H   UNL     1       5.237  30.439  31.010  1.00  0.00     0.293 HD
ENDBRANCH  16  21
ENDBRANCH   1  11
BRANCH  10  23
ATOM     23  O   UNL     1       2.278  34.869  27.268  1.00  0.00    -0.500 OA
ATOM     24  H   UNL     1       2.018  33.956  27.623  1.00  0.00     0.294 HD
ENDBRANCH  10  23
BRANCH   5  25
ATOM     25  O   UNL     1       8.361  39.306  29.153  1.00  0.00    -0.507 OA
ATOM     26  H   UNL     1       9.155  38.797  29.524  1.00  0.00     0.293 HD
ENDBRANCH   5  25
BRANCH   7  27
ATOM     27  O   UNL     1       5.231  38.821  25.523  1.00  0.00    -0.507 OA
ATOM     28  H   UNL     1       5.639  39.592  25.016  1.00  0.00     0.293 HD
ENDBRANCH   7  27
TORSDOF 7
ENDMDL
MODEL 7
REMARK VINA RESULT:    -6.631      2.528      2.986
REMARK INTER + INTRA:          -8.516
REMARK INTER:                  -8.223
REMARK INTRA:                  -0.293
REMARK UNBOUND:                -0.335
REMARK SMILES Oc1cc(O)c2cc(O)c(-c3cc(O)c(O)c(O)c3)[o+]c2c1
REMARK SMILES IDX 10 1 20 2 21 3 22 4 2 5 3 6 4 7 6 8 7 9 8 10 11 11 12 12
REMARK SMILES IDX 13 13 19 14 15 15 17 16 14 17 16 19 18 21 9 23 1 25 5 27
REMARK H PARENT 14 18 16 20 18 22 9 24 1 26 5 28
REMARK Flexibility Score: inf
ROOT
ATOM      1  C   UNL     1       9.039  39.552  23.219  1.00  0.00     0.402 A 
ATOM      2  O   UNL     1       9.454  39.560  24.482  1.00  0.00    -0.202 OA
ATOM      3  C   UNL     1       8.803  38.951  25.469  1.00  0.00     0.368 A 
ATOM      4  C   UNL     1       9.317  39.019  26.766  1.00  0.00     0.162 A 
ATOM      5  C   UNL     1       8.654  38.391  27.821  1.00  0.00     0.128 A 
ATOM      6  C   UNL     1       7.468  37.690  27.579  1.00  0.00     0.093 A 
ATOM      7  C   UNL     1       6.933  37.607  26.288  1.00  0.00     0.136 A 
ATOM      8  C   UNL     1       7.606  38.241  25.212  1.00  0.00     0.125 A 
ATOM      9  C   UNL     1       7.150  38.199  23.885  1.00  0.00     0.078 A 
ATOM     10  C   UNL     1       7.870  38.847  22.875  1.00  0.00     0.223 A 
ENDROOT
BRANCH   1  11
ATOM     11  C   UNL     1       9.846  40.278  22.212  1.00  0.00     0.091 A 
ATOM     12  C   UNL     1      10.617  39.590  21.259  1.00  0.00     0.068 A 
ATOM     13  C   UNL     1      11.357  40.295  20.299  1.00  0.00     0.162 A 
ATOM     14  C   UNL     1       9.801  41.680  22.170  1.00  0.00     0.068 A 
ATOM     15  C   UNL     1      11.323  41.696  20.278  1.00  0.00     0.200 A 
ATOM     16  C   UNL     1      10.540  42.390  21.214  1.00  0.00     0.162 A 
BRANCH  13  17
ATOM     17  O   UNL     1      12.124  39.610  19.359  1.00  0.00    -0.504 OA
ATOM     18  H   UNL     1      11.773  39.411  18.430  1.00  0.00     0.293 HD
ENDBRANCH  13  17
BRANCH  15  19
ATOM     19  O   UNL     1      12.070  42.380  19.318  1.00  0.00    -0.502 OA
ATOM     20  H   UNL     1      11.683  42.637  18.418  1.00  0.00     0.293 HD
ENDBRANCH  15  19
BRANCH  16  21
ATOM     21  O   UNL     1      10.497  43.784  21.191  1.00  0.00    -0.504 OA
ATOM     22  H   UNL     1      10.248  44.294  20.351  1.00  0.00     0.293 HD
ENDBRANCH  16  21
ENDBRANCH   1  11
BRANCH  10  23
ATOM     23  O   UNL     1       7.445  38.763  21.549  1.00  0.00    -0.500 OA
ATOM     24  H   UNL     1       8.094  38.585  20.792  1.00  0.00     0.294 HD
ENDBRANCH  10  23
BRANCH   5  25
ATOM     25  O   UNL     1       9.182  38.471  29.109  1.00  0.00    -0.507 OA
ATOM     26  H   UNL     1       9.554  37.655  29.579  1.00  0.00     0.293 HD
ENDBRANCH   5  25
BRANCH   7  27
ATOM     27  O   UNL     1       5.743  36.889  26.129  1.00  0.00    -0.507 OA
ATOM     28  H   UNL     1       5.272  36.394  26.871  1.00  0.00     0.293 HD
ENDBRANCH   7  27
TORSDOF 7
ENDMDL
MODEL 8
REMARK VINA RESULT:    -6.620      6.625      9.264
REMARK INTER + INTRA:          -8.503
REMARK INTER:                  -8.123
REMARK INTRA:                  -0.380
REMARK UNBOUND:                -0.335
REMARK SMILES Oc1cc(O)c2cc(O)c(-c3cc(O)c(O)c(O)c3)[o+]c2c1
REMARK SMILES IDX 10 1 20 2 21 3 22 4 2 5 3 6 4 7 6 8 7 9 8 10 11 11 12 12
REMARK SMILES IDX 13 13 19 14 15 15 17 16 14 17 16 19 18 21 9 23 1 25 5 27
REMARK H PARENT 14 18 16 20 18 22 9 24 1 26 5 28
REMARK Flexibility Score: inf
ROOT
ATOM      1  C   UNL     1       4.238  35.409  29.189  1.00  0.00     0.402 A 
ATOM      2  O   UNL     1       4.579  34.321  29.874  1.00  0.00    -0.202 OA
ATOM      3  C   UNL     1       3.847  33.211  29.894  1.00  0.00     0.368 A 
ATOM      4  C   UNL     1       4.287  32.120  30.648  1.00  0.00     0.162 A 
ATOM      5  C   UNL     1       3.539  30.944  30.689  1.00  0.00     0.128 A 
ATOM      6  C   UNL     1       2.340  30.855  29.972  1.00  0.00     0.093 A 
ATOM      7  C   UNL     1       1.878  31.934  29.209  1.00  0.00     0.136 A 
ATOM      8  C   UNL     1       2.638  33.131  29.162  1.00  0.00     0.125 A 
ATOM      9  C   UNL     1       2.260  34.257  28.414  1.00  0.00     0.078 A 
ATOM     10  C   UNL     1       3.063  35.402  28.414  1.00  0.00     0.223 A 
ENDROOT
BRANCH   1  11
ATOM     11  C   UNL     1       5.132  36.587  29.256  1.00  0.00     0.091 A 
ATOM     12  C   UNL     1       6.170  36.771  28.326  1.00  0.00     0.068 A 
ATOM     13  C   UNL     1       6.992  37.905  28.392  1.00  0.00     0.162 A 
ATOM     14  C   UNL     1       4.907  37.571  30.231  1.00  0.00     0.068 A 
ATOM     15  C   UNL     1       6.774  38.872  29.383  1.00  0.00     0.200 A 
ATOM     16  C   UNL     1       5.726  38.706  30.303  1.00  0.00     0.162 A 
BRANCH  13  17
ATOM     17  O   UNL     1       8.024  38.080  27.473  1.00  0.00    -0.504 OA
ATOM     18  H   UNL     1       7.876  37.957  26.479  1.00  0.00     0.293 HD
ENDBRANCH  13  17
BRANCH  15  19
ATOM     19  O   UNL     1       7.604  39.992  29.436  1.00  0.00    -0.502 OA
ATOM     20  H   UNL     1       7.256  40.928  29.272  1.00  0.00     0.293 HD
ENDBRANCH  15  19
BRANCH  16  21
ATOM     21  O   UNL     1       5.500  39.669  31.285  1.00  0.00    -0.504 OA
ATOM     22  H   UNL     1       4.586  39.796  31.705  1.00  0.00     0.293 HD
ENDBRANCH  16  21
ENDBRANCH   1  11
BRANCH  10  23
ATOM     23  O   UNL     1       2.713  36.502  27.632  1.00  0.00    -0.500 OA
ATOM     24  H   UNL     1       3.395  36.992  27.065  1.00  0.00     0.294 HD
ENDBRANCH  10  23
BRANCH   5  25
ATOM     25  O   UNL     1       3.994  29.866  31.448  1.00  0.00    -0.507 OA
ATOM     26  H   UNL     1       4.235  28.981  31.018  1.00  0.00     0.293 HD
ENDBRANCH   5  25
BRANCH   7  27
ATOM     27  O   UNL     1       0.671  31.768  28.523  1.00  0.00    -0.507 OA
ATOM     28  H   UNL     1       0.054  30.977  28.637  1.00  0.00     0.293 HD
ENDBRANCH   7  27
TORSDOF 7
ENDMDL
