MODEL 1
REMARK VINA RESULT:     0.394      0.000      0.000
REMARK INTER + INTRA:           5.160
REMARK INTER:                   0.900
REMARK INTRA:                   4.260
REMARK UNBOUND:                 4.260
REMARK SMILES CCCCCCCCCCCCCCCCCCCCCCCC(=O)[O-]
REMARK SMILES IDX 13 1 14 2 15 3 16 4 17 5 18 6 19 7 20 8 21 9 22 10 23 11
REMARK SMILES IDX 24 12 25 13 26 14 12 15 11 16 10 17 9 18 8 19 7 20 6 21 5 22
REMARK SMILES IDX 4 23 3 24 2 25 1 26
REMARK H PARENT
REMARK Flexibility Score: inf
ROOT
ATOM      1  C   UNL     1     -54.183 120.774  -8.284  1.00  0.00     0.000 C 
ENDROOT
BRANCH   1   2
ATOM      2  C   UNL     1     -53.987 119.810  -9.468  1.00  0.00     0.000 C 
BRANCH   2   3
ATOM      3  C   UNL     1     -52.853 120.250 -10.410  1.00  0.00     0.000 C 
BRANCH   3   4
ATOM      4  C   UNL     1     -53.359 121.093 -11.591  1.00  0.00     0.000 C 
BRANCH   4   5
ATOM      5  C   UNL     1     -53.503 122.583 -11.231  1.00  0.00     0.000 C 
BRANCH   5   6
ATOM      6  C   UNL     1     -54.529 123.316 -12.124  1.00  0.00     0.000 C 
BRANCH   6   7
ATOM      7  C   UNL     1     -55.931 122.678 -12.116  1.00  0.00     0.000 C 
BRANCH   7   8
ATOM      8  C   UNL     1     -55.951 121.141 -12.023  1.00  0.00     0.000 C 
BRANCH   8   9
ATOM      9  C   UNL     1     -57.346 120.498 -12.125  1.00  0.00     0.000 C 
BRANCH   9  10
ATOM     10  C   UNL     1     -57.824 119.886 -10.796  1.00  0.00     0.006 C 
BRANCH  10  11
ATOM     11  C   UNL     1     -56.779 120.032  -9.683  1.00  0.00     0.053 C 
BRANCH  11  12
ATOM     12  C   UNL     1     -56.987 121.281  -8.882  1.00  0.00     0.041 C 
ATOM     13  O   UNL     1     -56.767 121.282  -7.642  1.00  0.00    -0.550 OA
ATOM     14  O   UNL     1     -57.446 122.436  -9.500  1.00  0.00    -0.550 OA
ENDBRANCH  11  12
ENDBRANCH  10  11
ENDBRANCH   9  10
ENDBRANCH   8   9
ENDBRANCH   7   8
ENDBRANCH   6   7
ENDBRANCH   5   6
ENDBRANCH   4   5
ENDBRANCH   3   4
ENDBRANCH   2   3
ENDBRANCH   1   2
BRANCH   1  15
ATOM     15  C   UNL     1     -53.635 122.198  -8.509  1.00  0.00     0.000 C 
BRANCH  15  16
ATOM     16  C   UNL     1     -52.317 122.517  -7.774  1.00  0.00     0.000 C 
BRANCH  16  17
ATOM     17  C   UNL     1     -51.545 123.728  -8.325  1.00  0.00     0.000 C 
BRANCH  17  18
ATOM     18  C   UNL     1     -50.389 123.324  -9.252  1.00  0.00    -0.000 C 
BRANCH  18  19
ATOM     19  C   UNL     1     -49.271 124.373  -9.230  1.00  0.00    -0.000 C 
BRANCH  19  20
ATOM     20  C   UNL     1     -49.121 125.036 -10.606  1.00  0.00    -0.000 C 
BRANCH  20  21
ATOM     21  C   UNL     1     -48.929 124.016 -11.741  1.00  0.00    -0.000 C 
BRANCH  21  22
ATOM     22  C   UNL     1     -50.136 123.093 -11.991  1.00  0.00    -0.000 C 
BRANCH  22  23
ATOM     23  C   UNL     1     -49.761 121.598 -12.102  1.00  0.00    -0.000 C 
BRANCH  23  24
ATOM     24  C   UNL     1     -48.876 121.133 -10.932  1.00  0.00    -0.000 C 
BRANCH  24  25
ATOM     25  C   UNL     1     -49.686 120.817  -9.665  1.00  0.00    -0.003 C 
ATOM     26  C   UNL     1     -49.041 119.729  -8.806  1.00  0.00     0.004 C 
ENDBRANCH  24  25
ENDBRANCH  23  24
ENDBRANCH  22  23
ENDBRANCH  21  22
ENDBRANCH  20  21
ENDBRANCH  19  20
ENDBRANCH  18  19
ENDBRANCH  17  18
ENDBRANCH  16  17
ENDBRANCH  15  16
ENDBRANCH   1  15
TORSDOF 22
ENDMDL
MODEL 2
REMARK VINA RESULT:     1.463      1.847      4.410
REMARK INTER + INTRA:           7.604
REMARK INTER:                   6.526
REMARK INTRA:                   1.078
REMARK UNBOUND:                 4.260
REMARK SMILES CCCCCCCCCCCCCCCCCCCCCCCC(=O)[O-]
REMARK SMILES IDX 13 1 14 2 15 3 16 4 17 5 18 6 19 7 20 8 21 9 22 10 23 11
REMARK SMILES IDX 24 12 25 13 26 14 12 15 11 16 10 17 9 18 8 19 7 20 6 21 5 22
REMARK SMILES IDX 4 23 3 24 2 25 1 26
REMARK H PARENT
REMARK Flexibility Score: inf
ROOT
ATOM      1  C   UNL     1     -55.359 121.125 -12.037  1.00  0.00     0.000 C 
ENDROOT
BRANCH   1   2
ATOM      2  C   UNL     1     -56.682 120.343 -11.946  1.00  0.00     0.000 C 
BRANCH   2   3
ATOM      3  C   UNL     1     -56.638 119.223 -10.893  1.00  0.00     0.000 C 
BRANCH   3   4
ATOM      4  C   UNL     1     -57.366 119.603  -9.594  1.00  0.00     0.000 C 
BRANCH   4   5
ATOM      5  C   UNL     1     -57.912 121.042  -9.625  1.00  0.00     0.000 C 
BRANCH   5   6
ATOM      6  C   UNL     1     -56.948 122.059  -8.974  1.00  0.00     0.000 C 
BRANCH   6   7
ATOM      7  C   UNL     1     -55.718 121.415  -8.309  1.00  0.00     0.000 C 
BRANCH   7   8
ATOM      8  C   UNL     1     -54.803 122.387  -7.542  1.00  0.00     0.000 C 
BRANCH   8   9
ATOM      9  C   UNL     1     -53.370 122.508  -8.092  1.00  0.00     0.000 C 
BRANCH   9  10
ATOM     10  C   UNL     1     -53.006 121.379  -9.072  1.00  0.00     0.006 C 
BRANCH  10  11
ATOM     11  C   UNL     1     -53.536 120.016  -8.610  1.00  0.00     0.053 C 
BRANCH  11  12
ATOM     12  C   UNL     1     -53.175 118.923  -9.569  1.00  0.00     0.041 C 
ATOM     13  O   UNL     1     -53.407 119.059 -10.800  1.00  0.00    -0.550 OA
ATOM     14  O   UNL     1     -52.606 117.746  -9.103  1.00  0.00    -0.550 OA
ENDBRANCH  11  12
ENDBRANCH  10  11
ENDBRANCH   9  10
ENDBRANCH   8   9
ENDBRANCH   7   8
ENDBRANCH   6   7
ENDBRANCH   5   6
ENDBRANCH   4   5
ENDBRANCH   3   4
ENDBRANCH   2   3
ENDBRANCH   1   2
BRANCH   1  15
ATOM     15  C   UNL     1     -55.510 122.659 -12.028  1.00  0.00     0.000 C 
BRANCH  15  16
ATOM     16  C   UNL     1     -54.335 123.430 -11.392  1.00  0.00     0.000 C 
BRANCH  16  17
ATOM     17  C   UNL     1     -52.942 123.027 -11.905  1.00  0.00     0.000 C 
BRANCH  17  18
ATOM     18  C   UNL     1     -52.745 121.504 -11.952  1.00  0.00    -0.000 C 
BRANCH  18  19
ATOM     19  C   UNL     1     -51.265 121.145 -12.125  1.00  0.00    -0.000 C 
BRANCH  19  20
ATOM     20  C   UNL     1     -50.658 120.685 -10.791  1.00  0.00    -0.000 C 
BRANCH  20  21
ATOM     21  C   UNL     1     -49.166 121.036 -10.663  1.00  0.00    -0.000 C 
BRANCH  21  22
ATOM     22  C   UNL     1     -48.875 122.364  -9.938  1.00  0.00    -0.000 C 
BRANCH  22  23
ATOM     23  C   UNL     1     -49.161 123.615 -10.797  1.00  0.00    -0.000 C 
BRANCH  23  24
ATOM     24  C   UNL     1     -50.228 124.525 -10.161  1.00  0.00    -0.000 C 
BRANCH  24  25
ATOM     25  C   UNL     1     -50.547 124.138  -8.709  1.00  0.00    -0.003 C 
ATOM     26  C   UNL     1     -49.864 125.049  -7.689  1.00  0.00     0.004 C 
ENDBRANCH  24  25
ENDBRANCH  23  24
ENDBRANCH  22  23
ENDBRANCH  21  22
ENDBRANCH  20  21
ENDBRANCH  19  20
ENDBRANCH  18  19
ENDBRANCH  17  18
ENDBRANCH  16  17
ENDBRANCH  15  16
ENDBRANCH   1  15
TORSDOF 22
ENDMDL
MODEL 3
REMARK VINA RESULT:     2.399      2.601      4.538
REMARK INTER + INTRA:           9.744
REMARK INTER:                   7.713
REMARK INTRA:                   2.031
REMARK UNBOUND:                 4.260
REMARK SMILES CCCCCCCCCCCCCCCCCCCCCCCC(=O)[O-]
REMARK SMILES IDX 13 1 14 2 15 3 16 4 17 5 18 6 19 7 20 8 21 9 22 10 23 11
REMARK SMILES IDX 24 12 25 13 26 14 12 15 11 16 10 17 9 18 8 19 7 20 6 21 5 22
REMARK SMILES IDX 4 23 3 24 2 25 1 26
REMARK H PARENT
REMARK Flexibility Score: inf
ROOT
ATOM      1  C   UNL     1     -56.540 120.833  -8.110  1.00  0.00     0.000 C 
ENDROOT
BRANCH   1   2
ATOM      2  C   UNL     1     -57.485 121.076  -9.301  1.00  0.00     0.000 C 
BRANCH   2   3
ATOM      3  C   UNL     1     -56.867 121.995 -10.369  1.00  0.00     0.000 C 
BRANCH   3   4
ATOM      4  C   UNL     1     -57.213 121.554 -11.801  1.00  0.00     0.000 C 
BRANCH   4   5
ATOM      5  C   UNL     1     -57.333 120.025 -11.932  1.00  0.00     0.000 C 
BRANCH   5   6
ATOM      6  C   UNL     1     -55.960 119.317 -11.929  1.00  0.00     0.000 C 
BRANCH   6   7
ATOM      7  C   UNL     1     -54.918 119.981 -11.011  1.00  0.00     0.000 C 
BRANCH   7   8
ATOM      8  C   UNL     1     -53.554 120.264 -11.666  1.00  0.00     0.000 C 
BRANCH   8   9
ATOM      9  C   UNL     1     -52.359 119.526 -11.035  1.00  0.00     0.000 C 
BRANCH   9  10
ATOM     10  C   UNL     1     -52.161 119.865  -9.548  1.00  0.00     0.006 C 
BRANCH  10  11
ATOM     11  C   UNL     1     -51.081 120.934  -9.336  1.00  0.00     0.053 C 
BRANCH  11  12
ATOM     12  C   UNL     1     -49.720 120.434  -9.711  1.00  0.00     0.041 C 
ATOM     13  O   UNL     1     -49.090 119.669  -8.933  1.00  0.00    -0.550 OA
ATOM     14  O   UNL     1     -49.137 120.829 -10.907  1.00  0.00    -0.550 OA
ENDBRANCH  11  12
ENDBRANCH  10  11
ENDBRANCH   9  10
ENDBRANCH   8   9
ENDBRANCH   7   8
ENDBRANCH   6   7
ENDBRANCH   5   6
ENDBRANCH   4   5
ENDBRANCH   3   4
ENDBRANCH   2   3
ENDBRANCH   1   2
BRANCH   1  15
ATOM     15  C   UNL     1     -55.418 121.878  -7.947  1.00  0.00     0.000 C 
BRANCH  15  16
ATOM     16  C   UNL     1     -54.354 121.877  -9.064  1.00  0.00     0.000 C 
BRANCH  16  17
ATOM     17  C   UNL     1     -53.603 123.207  -9.245  1.00  0.00     0.000 C 
BRANCH  17  18
ATOM     18  C   UNL     1     -54.109 124.016 -10.449  1.00  0.00    -0.000 C 
BRANCH  18  19
ATOM     19  C   UNL     1     -53.666 123.375 -11.769  1.00  0.00    -0.000 C 
BRANCH  19  20
ATOM     20  C   UNL     1     -52.234 123.800 -12.125  1.00  0.00    -0.000 C 
BRANCH  20  21
ATOM     21  C   UNL     1     -51.192 122.718 -11.793  1.00  0.00    -0.000 C 
BRANCH  21  22
ATOM     22  C   UNL     1     -49.736 123.103 -12.117  1.00  0.00    -0.000 C 
BRANCH  22  23
ATOM     23  C   UNL     1     -49.484 124.627 -12.125  1.00  0.00    -0.000 C 
BRANCH  23  24
ATOM     24  C   UNL     1     -48.875 125.122 -10.800  1.00  0.00    -0.000 C 
BRANCH  24  25
ATOM     25  C   UNL     1     -49.054 124.116  -9.653  1.00  0.00    -0.003 C 
ATOM     26  C   UNL     1     -49.381 124.789  -8.320  1.00  0.00     0.004 C 
ENDBRANCH  24  25
ENDBRANCH  23  24
ENDBRANCH  22  23
ENDBRANCH  21  22
ENDBRANCH  20  21
ENDBRANCH  19  20
ENDBRANCH  18  19
ENDBRANCH  17  18
ENDBRANCH  16  17
ENDBRANCH  15  16
ENDBRANCH   1  15
TORSDOF 22
ENDMDL
MODEL 4
REMARK VINA RESULT:     2.639      3.202      5.176
REMARK INTER + INTRA:          10.294
REMARK INTER:                  12.229
REMARK INTRA:                  -1.935
REMARK UNBOUND:                 4.260
REMARK SMILES CCCCCCCCCCCCCCCCCCCCCCCC(=O)[O-]
REMARK SMILES IDX 13 1 14 2 15 3 16 4 17 5 18 6 19 7 20 8 21 9 22 10 23 11
REMARK SMILES IDX 24 12 25 13 26 14 12 15 11 16 10 17 9 18 8 19 7 20 6 21 5 22
REMARK SMILES IDX 4 23 3 24 2 25 1 26
REMARK H PARENT
REMARK Flexibility Score: inf
ROOT
ATOM      1  C   UNL     1     -54.772 121.847 -11.915  1.00  0.00     0.000 C 
ENDROOT
BRANCH   1   2
ATOM      2  C   UNL     1     -55.235 120.406 -11.630  1.00  0.00     0.000 C 
BRANCH   2   3
ATOM      3  C   UNL     1     -56.688 120.153 -12.066  1.00  0.00     0.000 C 
BRANCH   3   4
ATOM      4  C   UNL     1     -57.677 120.210 -10.891  1.00  0.00     0.000 C 
BRANCH   4   5
ATOM      5  C   UNL     1     -57.398 119.126  -9.834  1.00  0.00     0.000 C 
BRANCH   5   6
ATOM      6  C   UNL     1     -58.077 119.426  -8.480  1.00  0.00     0.000 C 
BRANCH   6   7
ATOM      7  C   UNL     1     -58.235 118.190  -7.574  1.00  0.00     0.000 C 
BRANCH   7   8
ATOM      8  C   UNL     1     -59.320 118.307  -6.489  1.00  0.00     0.000 C 
BRANCH   8   9
ATOM      9  C   UNL     1     -58.796 118.347  -5.041  1.00  0.00     0.000 C 
BRANCH   9  10
ATOM     10  C   UNL     1     -59.544 119.363  -4.161  1.00  0.00     0.006 C 
BRANCH  10  11
ATOM     11  C   UNL     1     -58.674 120.577  -3.810  1.00  0.00     0.053 C 
BRANCH  11  12
ATOM     12  C   UNL     1     -58.953 121.083  -2.428  1.00  0.00     0.041 C 
ATOM     13  O   UNL     1     -58.489 120.476  -1.427  1.00  0.00    -0.550 OA
ATOM     14  O   UNL     1     -59.744 122.209  -2.244  1.00  0.00    -0.550 OA
ENDBRANCH  11  12
ENDBRANCH  10  11
ENDBRANCH   9  10
ENDBRANCH   8   9
ENDBRANCH   7   8
ENDBRANCH   6   7
ENDBRANCH   5   6
ENDBRANCH   4   5
ENDBRANCH   3   4
ENDBRANCH   2   3
ENDBRANCH   1   2
BRANCH   1  15
ATOM     15  C   UNL     1     -53.253 122.011 -12.125  1.00  0.00     0.000 C 
BRANCH  15  16
ATOM     16  C   UNL     1     -52.440 120.700 -12.084  1.00  0.00     0.000 C 
BRANCH  16  17
ATOM     17  C   UNL     1     -50.913 120.884 -12.111  1.00  0.00     0.000 C 
BRANCH  17  18
ATOM     18  C   UNL     1     -50.487 122.343 -11.887  1.00  0.00    -0.000 C 
BRANCH  18  19
ATOM     19  C   UNL     1     -49.065 122.421 -11.320  1.00  0.00    -0.000 C 
BRANCH  19  20
ATOM     20  C   UNL     1     -49.097 122.635  -9.800  1.00  0.00    -0.000 C 
BRANCH  20  21
ATOM     21  C   UNL     1     -49.597 124.035  -9.406  1.00  0.00    -0.000 C 
BRANCH  21  22
ATOM     22  C   UNL     1     -50.805 124.044  -8.450  1.00  0.00    -0.000 C 
BRANCH  22  23
ATOM     23  C   UNL     1     -51.627 122.736  -8.478  1.00  0.00    -0.000 C 
BRANCH  23  24
ATOM     24  C   UNL     1     -53.143 123.004  -8.486  1.00  0.00    -0.000 C 
BRANCH  24  25
ATOM     25  C   UNL     1     -53.966 121.744  -8.795  1.00  0.00    -0.003 C 
ATOM     26  C   UNL     1     -53.165 120.455  -8.618  1.00  0.00     0.004 C 
ENDBRANCH  24  25
ENDBRANCH  23  24
ENDBRANCH  22  23
ENDBRANCH  21  22
ENDBRANCH  20  21
ENDBRANCH  19  20
ENDBRANCH  18  19
ENDBRANCH  17  18
ENDBRANCH  16  17
ENDBRANCH  15  16
ENDBRANCH   1  15
TORSDOF 22
ENDMDL
MODEL 5
REMARK VINA RESULT:     3.201      3.925      8.394
REMARK INTER + INTRA:          11.578
REMARK INTER:                  13.109
REMARK INTRA:                  -1.531
REMARK UNBOUND:                 4.260
REMARK SMILES CCCCCCCCCCCCCCCCCCCCCCCC(=O)[O-]
REMARK SMILES IDX 13 1 14 2 15 3 16 4 17 5 18 6 19 7 20 8 21 9 22 10 23 11
REMARK SMILES IDX 24 12 25 13 26 14 12 15 11 16 10 17 9 18 8 19 7 20 6 21 5 22
REMARK SMILES IDX 4 23 3 24 2 25 1 26
REMARK H PARENT
REMARK Flexibility Score: inf
ROOT
ATOM      1  C   UNL     1     -56.123 121.888 -11.606  1.00  0.00     0.000 C 
ENDROOT
BRANCH   1   2
ATOM      2  C   UNL     1     -54.936 122.770 -12.036  1.00  0.00     0.000 C 
BRANCH   2   3
ATOM      3  C   UNL     1     -54.471 123.722 -10.921  1.00  0.00     0.000 C 
BRANCH   3   4
ATOM      4  C   UNL     1     -53.271 123.171 -10.135  1.00  0.00     0.000 C 
BRANCH   4   5
ATOM      5  C   UNL     1     -53.678 122.599  -8.764  1.00  0.00     0.000 C 
BRANCH   5   6
ATOM      6  C   UNL     1     -53.806 121.060  -8.775  1.00  0.00     0.000 C 
BRANCH   6   7
ATOM      7  C   UNL     1     -52.668 120.345  -9.527  1.00  0.00     0.000 C 
BRANCH   7   8
ATOM      8  C   UNL     1     -53.060 119.738 -10.887  1.00  0.00     0.000 C 
BRANCH   8   9
ATOM      9  C   UNL     1     -52.201 120.195 -12.080  1.00  0.00     0.000 C 
BRANCH   9  10
ATOM     10  C   UNL     1     -51.487 121.534 -11.826  1.00  0.00     0.006 C 
BRANCH  10  11
ATOM     11  C   UNL     1     -50.209 121.362 -10.994  1.00  0.00     0.053 C 
BRANCH  11  12
ATOM     12  C   UNL     1     -49.670 122.677 -10.523  1.00  0.00     0.041 C 
ATOM     13  O   UNL     1     -49.558 122.910  -9.289  1.00  0.00    -0.550 OA
ATOM     14  O   UNL     1     -49.312 123.654 -11.441  1.00  0.00    -0.550 OA
ENDBRANCH  11  12
ENDBRANCH  10  11
ENDBRANCH   9  10
ENDBRANCH   8   9
ENDBRANCH   7   8
ENDBRANCH   6   7
ENDBRANCH   5   6
ENDBRANCH   4   5
ENDBRANCH   3   4
ENDBRANCH   2   3
ENDBRANCH   1   2
BRANCH   1  15
ATOM     15  C   UNL     1     -55.966 120.388 -11.926  1.00  0.00     0.000 C 
BRANCH  15  16
ATOM     16  C   UNL     1     -57.033 119.468 -11.298  1.00  0.00     0.000 C 
BRANCH  16  17
ATOM     17  C   UNL     1     -56.857 119.206  -9.792  1.00  0.00     0.000 C 
BRANCH  17  18
ATOM     18  C   UNL     1     -58.105 119.579  -8.976  1.00  0.00    -0.000 C 
BRANCH  18  19
ATOM     19  C   UNL     1     -57.965 119.127  -7.518  1.00  0.00    -0.000 C 
BRANCH  19  20
ATOM     20  C   UNL     1     -58.902 117.947  -7.224  1.00  0.00    -0.000 C 
BRANCH  20  21
ATOM     21  C   UNL     1     -59.372 117.910  -5.760  1.00  0.00    -0.000 C 
BRANCH  21  22
ATOM     22  C   UNL     1     -58.606 118.852  -4.812  1.00  0.00    -0.000 C 
BRANCH  22  23
ATOM     23  C   UNL     1     -59.504 119.905  -4.125  1.00  0.00    -0.000 C 
BRANCH  23  24
ATOM     24  C   UNL     1     -58.734 120.728  -3.076  1.00  0.00    -0.000 C 
BRANCH  24  25
ATOM     25  C   UNL     1     -59.395 122.084  -2.786  1.00  0.00    -0.003 C 
ATOM     26  C   UNL     1     -59.759 122.263  -1.312  1.00  0.00     0.004 C 
ENDBRANCH  24  25
ENDBRANCH  23  24
ENDBRANCH  22  23
ENDBRANCH  21  22
ENDBRANCH  20  21
ENDBRANCH  19  20
ENDBRANCH  18  19
ENDBRANCH  17  18
ENDBRANCH  16  17
ENDBRANCH  15  16
ENDBRANCH   1  15
TORSDOF 22
ENDMDL
MODEL 6
REMARK VINA RESULT:     3.281      2.536      6.761
REMARK INTER + INTRA:          11.762
REMARK INTER:                  10.182
REMARK INTRA:                   1.579
REMARK UNBOUND:                 4.260
REMARK SMILES CCCCCCCCCCCCCCCCCCCCCCCC(=O)[O-]
REMARK SMILES IDX 13 1 14 2 15 3 16 4 17 5 18 6 19 7 20 8 21 9 22 10 23 11
REMARK SMILES IDX 24 12 25 13 26 14 12 15 11 16 10 17 9 18 8 19 7 20 6 21 5 22
REMARK SMILES IDX 4 23 3 24 2 25 1 26
REMARK H PARENT
REMARK Flexibility Score: inf
ROOT
ATOM      1  C   UNL     1     -54.968 122.128  -8.791  1.00  0.00     0.000 C 
ENDROOT
BRANCH   1   2
ATOM      2  C   UNL     1     -53.466 122.079  -8.458  1.00  0.00     0.000 C 
BRANCH   2   3
ATOM      3  C   UNL     1     -52.941 123.408  -7.887  1.00  0.00     0.000 C 
BRANCH   3   4
ATOM      4  C   UNL     1     -51.459 123.648  -8.214  1.00  0.00     0.000 C 
BRANCH   4   5
ATOM      5  C   UNL     1     -50.907 124.918  -7.541  1.00  0.00     0.000 C 
BRANCH   5   6
ATOM      6  C   UNL     1     -49.396 125.118  -7.793  1.00  0.00     0.000 C 
BRANCH   6   7
ATOM      7  C   UNL     1     -48.876 124.411  -9.059  1.00  0.00     0.000 C 
BRANCH   7   8
ATOM      8  C   UNL     1     -49.196 125.124 -10.386  1.00  0.00     0.000 C 
BRANCH   8   9
ATOM      9  C   UNL     1     -49.798 124.226 -11.482  1.00  0.00     0.000 C 
BRANCH   9  10
ATOM     10  C   UNL     1     -49.263 122.785 -11.439  1.00  0.00     0.006 C 
BRANCH  10  11
ATOM     11  C   UNL     1     -49.642 122.064 -10.138  1.00  0.00     0.053 C 
BRANCH  11  12
ATOM     12  C   UNL     1     -49.371 120.593 -10.216  1.00  0.00     0.041 C 
ATOM     13  O   UNL     1     -49.072 119.949  -9.176  1.00  0.00    -0.550 OA
ATOM     14  O   UNL     1     -49.425 119.938 -11.439  1.00  0.00    -0.550 OA
ENDBRANCH  11  12
ENDBRANCH  10  11
ENDBRANCH   9  10
ENDBRANCH   8   9
ENDBRANCH   7   8
ENDBRANCH   6   7
ENDBRANCH   5   6
ENDBRANCH   4   5
ENDBRANCH   3   4
ENDBRANCH   2   3
ENDBRANCH   1   2
BRANCH   1  15
ATOM     15  C   UNL     1     -55.367 123.188  -9.837  1.00  0.00     0.000 C 
BRANCH  15  16
ATOM     16  C   UNL     1     -55.157 122.770 -11.307  1.00  0.00     0.000 C 
BRANCH  16  17
ATOM     17  C   UNL     1     -56.451 122.575 -12.116  1.00  0.00     0.000 C 
BRANCH  17  18
ATOM     18  C   UNL     1     -57.103 121.205 -11.872  1.00  0.00    -0.000 C 
BRANCH  18  19
ATOM     19  C   UNL     1     -57.383 120.986 -10.381  1.00  0.00    -0.000 C 
BRANCH  19  20
ATOM     20  C   UNL     1     -57.553 119.492 -10.074  1.00  0.00    -0.000 C 
BRANCH  20  21
ATOM     21  C   UNL     1     -56.754 118.593 -11.032  1.00  0.00    -0.000 C 
BRANCH  21  22
ATOM     22  C   UNL     1     -55.390 119.162 -11.466  1.00  0.00    -0.000 C 
BRANCH  22  23
ATOM     23  C   UNL     1     -54.382 119.309 -10.305  1.00  0.00    -0.000 C 
BRANCH  23  24
ATOM     24  C   UNL     1     -53.050 119.928 -10.768  1.00  0.00    -0.000 C 
BRANCH  24  25
ATOM     25  C   UNL     1     -53.170 120.653 -12.117  1.00  0.00    -0.003 C 
ATOM     26  C   UNL     1     -52.730 122.115 -12.045  1.00  0.00     0.004 C 
ENDBRANCH  24  25
ENDBRANCH  23  24
ENDBRANCH  22  23
ENDBRANCH  21  22
ENDBRANCH  20  21
ENDBRANCH  19  20
ENDBRANCH  18  19
ENDBRANCH  17  18
ENDBRANCH  16  17
ENDBRANCH  15  16
ENDBRANCH   1  15
TORSDOF 22
ENDMDL
MODEL 7
REMARK VINA RESULT:     3.341      3.010      8.059
REMARK INTER + INTRA:          11.897
REMARK INTER:                  13.329
REMARK INTRA:                  -1.432
REMARK UNBOUND:                 4.260
REMARK SMILES CCCCCCCCCCCCCCCCCCCCCCCC(=O)[O-]
REMARK SMILES IDX 13 1 14 2 15 3 16 4 17 5 18 6 19 7 20 8 21 9 22 10 23 11
REMARK SMILES IDX 24 12 25 13 26 14 12 15 11 16 10 17 9 18 8 19 7 20 6 21 5 22
REMARK SMILES IDX 4 23 3 24 2 25 1 26
REMARK H PARENT
REMARK Flexibility Score: inf
ROOT
ATOM      1  C   UNL     1     -53.932 120.230 -11.497  1.00  0.00     0.000 C 
ENDROOT
BRANCH   1   2
ATOM      2  C   UNL     1     -53.926 121.637 -12.124  1.00  0.00     0.000 C 
BRANCH   2   3
ATOM      3  C   UNL     1     -52.537 122.297 -12.082  1.00  0.00     0.000 C 
BRANCH   3   4
ATOM      4  C   UNL     1     -51.394 121.270 -12.035  1.00  0.00     0.000 C 
BRANCH   4   5
ATOM      5  C   UNL     1     -50.006 121.930 -12.125  1.00  0.00     0.000 C 
BRANCH   5   6
ATOM      6  C   UNL     1     -48.994 121.327 -11.126  1.00  0.00     0.000 C 
BRANCH   6   7
ATOM      7  C   UNL     1     -48.941 122.060  -9.773  1.00  0.00     0.000 C 
BRANCH   7   8
ATOM      8  C   UNL     1     -49.294 123.558  -9.824  1.00  0.00     0.000 C 
BRANCH   8   9
ATOM      9  C   UNL     1     -49.637 124.196  -8.466  1.00  0.00     0.000 C 
BRANCH   9  10
ATOM     10  C   UNL     1     -51.146 124.198  -8.167  1.00  0.00     0.006 C 
BRANCH  10  11
ATOM     11  C   UNL     1     -51.797 122.840  -8.460  1.00  0.00     0.053 C 
BRANCH  11  12
ATOM     12  C   UNL     1     -53.272 122.966  -8.688  1.00  0.00     0.041 C 
ATOM     13  O   UNL     1     -54.017 121.956  -8.586  1.00  0.00    -0.550 OA
ATOM     14  O   UNL     1     -53.822 124.193  -9.036  1.00  0.00    -0.550 OA
ENDBRANCH  11  12
ENDBRANCH  10  11
ENDBRANCH   9  10
ENDBRANCH   8   9
ENDBRANCH   7   8
ENDBRANCH   6   7
ENDBRANCH   5   6
ENDBRANCH   4   5
ENDBRANCH   3   4
ENDBRANCH   2   3
ENDBRANCH   1   2
BRANCH   1  15
ATOM     15  C   UNL     1     -55.309 119.535 -11.478  1.00  0.00     0.000 C 
BRANCH  15  16
ATOM     16  C   UNL     1     -56.468 120.359 -12.077  1.00  0.00     0.000 C 
BRANCH  16  17
ATOM     17  C   UNL     1     -57.677 120.549 -11.146  1.00  0.00     0.000 C 
BRANCH  17  18
ATOM     18  C   UNL     1     -57.269 120.759  -9.679  1.00  0.00    -0.000 C 
BRANCH  18  19
ATOM     19  C   UNL     1     -57.163 119.420  -8.940  1.00  0.00    -0.000 C 
BRANCH  19  20
ATOM     20  C   UNL     1     -58.474 119.099  -8.207  1.00  0.00    -0.000 C 
BRANCH  20  21
ATOM     21  C   UNL     1     -58.249 118.338  -6.890  1.00  0.00    -0.000 C 
BRANCH  21  22
ATOM     22  C   UNL     1     -59.537 117.881  -6.180  1.00  0.00    -0.000 C 
BRANCH  22  23
ATOM     23  C   UNL     1     -59.576 118.233  -4.677  1.00  0.00    -0.000 C 
BRANCH  23  24
ATOM     24  C   UNL     1     -59.088 119.667  -4.405  1.00  0.00    -0.000 C 
BRANCH  24  25
ATOM     25  C   UNL     1     -59.613 120.230  -3.075  1.00  0.00    -0.003 C 
ATOM     26  C   UNL     1     -58.578 121.083  -2.342  1.00  0.00     0.004 C 
ENDBRANCH  24  25
ENDBRANCH  23  24
ENDBRANCH  22  23
ENDBRANCH  21  22
ENDBRANCH  20  21
ENDBRANCH  19  20
ENDBRANCH  18  19
ENDBRANCH  17  18
ENDBRANCH  16  17
ENDBRANCH  15  16
ENDBRANCH   1  15
TORSDOF 22
ENDMDL
