MODEL 1
REMARK VINA RESULT:     8.969      0.000      0.000
REMARK INTER + INTRA:          11.790
REMARK INTER:                  11.066
REMARK INTRA:                   0.725
REMARK UNBOUND:                 0.725
REMARK SMILES CC1=CC=CC(C)(C)CC1=O
REMARK SMILES IDX 1 1 2 2 3 3 10 4 11 5 9 6 4 8 5 9 6 10 7 11 8 12
REMARK H PARENT
REMARK Flexibility Score: 80.00
ROOT
ATOM      1  C   UNL     1      11.109  13.707  -3.948  1.00  0.00     0.048 C 
ATOM      2  C   UNL     1      10.618  13.814  -2.524  1.00  0.00    -0.008 C 
ATOM      3  C   UNL     1       9.341  14.210  -2.331  1.00  0.00     0.007 C 
ENDROOT
BRANCH   2   4
ATOM      4  C   UNL     1      11.604  13.550  -1.447  1.00  0.00     0.159 C 
ATOM      5  O   UNL     1      12.825  13.448  -1.751  1.00  0.00    -0.295 OA
BRANCH   4   6
ATOM      6  C   UNL     1      11.229  13.383  -0.007  1.00  0.00     0.091 CG0
ATOM      7  G   UNL     1      10.493  14.609   0.578  1.00  0.00     0.000 G0
ENDBRANCH   4   6
ENDBRANCH   2   4
BRANCH   3   8
ATOM      8  C   UNL     1       8.594  14.430  -1.070  1.00  0.00    -0.003 C 
ATOM      9  C   UNL     1       9.065  14.605   0.170  1.00  0.00    -0.020 C 
BRANCH   9  10
ATOM     10  C   UNL     1      10.515  14.590   0.590  1.00  0.00    -0.010 CG0
ATOM     11  C   UNL     1      11.181  15.940   0.240  1.00  0.00     0.016 C 
ATOM     12  C   UNL     1      10.574  14.414   2.125  1.00  0.00     0.016 C 
ATOM     13  G   UNL     1      11.233  13.386  -0.061  1.00  0.00     0.000 G0
ENDBRANCH   9  10
ENDBRANCH   3   8
TORSDOF 0
ENDMDL
MODEL 2
REMARK VINA RESULT:     9.270     13.915     15.217
REMARK INTER + INTRA:          12.162
REMARK INTER:                  11.118
REMARK INTRA:                   1.044
REMARK UNBOUND:                 0.725
REMARK SMILES CC1=CC=CC(C)(C)CC1=O
REMARK SMILES IDX 1 1 2 2 3 3 10 4 11 5 9 6 4 8 5 9 6 10 7 11 8 12
REMARK H PARENT
REMARK Flexibility Score: 80.00
ROOT
ATOM      1  C   UNL     1      17.936  15.920 -13.247  1.00  0.00     0.048 C 
ATOM      2  C   UNL     1      18.092  17.311 -12.678  1.00  0.00    -0.008 C 
ATOM      3  C   UNL     1      17.991  17.453 -11.338  1.00  0.00     0.007 C 
ENDROOT
BRANCH   2   4
ATOM      4  C   UNL     1      18.267  18.422 -13.646  1.00  0.00     0.159 C 
ATOM      5  O   UNL     1      18.595  18.148 -14.833  1.00  0.00    -0.295 OA
BRANCH   4   6
ATOM      6  C   UNL     1      18.089  19.865 -13.287  1.00  0.00     0.091 CG0
ATOM      7  G   UNL     1      19.047  20.339 -12.172  1.00  0.00     0.000 G0
ENDBRANCH   4   6
ENDBRANCH   2   4
BRANCH   3   8
ATOM      8  C   UNL     1      18.070  18.674 -10.503  1.00  0.00    -0.003 C 
ATOM      9  C   UNL     1      18.496  19.898 -10.836  1.00  0.00    -0.020 C 
BRANCH   9  10
ATOM     10  C   UNL     1      19.039  20.325 -12.179  1.00  0.00    -0.010 CG0
ATOM     11  C   UNL     1      19.267  21.854 -12.195  1.00  0.00     0.016 C 
ATOM     12  C   UNL     1      20.408  19.637 -12.389  1.00  0.00     0.016 C 
ATOM     13  G   UNL     1      18.086  19.853 -13.300  1.00  0.00     0.000 G0
ENDBRANCH   9  10
ENDBRANCH   3   8
TORSDOF 0
ENDMDL
MODEL 3
REMARK VINA RESULT:     9.495     14.053     15.070
REMARK INTER + INTRA:          12.439
REMARK INTER:                  11.675
REMARK INTRA:                   0.764
REMARK UNBOUND:                 0.725
REMARK SMILES CC1=CC=CC(C)(C)CC1=O
REMARK SMILES IDX 1 1 2 2 3 3 10 4 11 5 9 6 4 8 5 9 6 10 7 11 8 12
REMARK H PARENT
REMARK Flexibility Score: 80.00
ROOT
ATOM      1  C   UNL     1      17.905  16.086 -12.872  1.00  0.00     0.048 C 
ATOM      2  C   UNL     1      17.970  17.588 -12.722  1.00  0.00    -0.008 C 
ATOM      3  C   UNL     1      17.541  18.340 -13.759  1.00  0.00     0.007 C 
ENDROOT
BRANCH   2   4
ATOM      4  C   UNL     1      18.574  18.117 -11.473  1.00  0.00     0.159 C 
ATOM      5  O   UNL     1      19.162  17.316 -10.695  1.00  0.00    -0.295 OA
BRANCH   4   6
ATOM      6  C   UNL     1      18.512  19.559 -11.073  1.00  0.00     0.091 CG0
ATOM      7  G   UNL     1      19.155  20.507 -12.110  1.00  0.00     0.000 G0
ENDBRANCH   4   6
ENDBRANCH   2   4
BRANCH   3   8
ATOM      8  C   UNL     1      17.508  19.813 -13.916  1.00  0.00    -0.003 C 
ATOM      9  C   UNL     1      18.186  20.749 -13.242  1.00  0.00    -0.020 C 
BRANCH   9  10
ATOM     10  C   UNL     1      19.154  20.514 -12.107  1.00  0.00    -0.010 CG0
ATOM     11  C   UNL     1      20.497  19.986 -12.660  1.00  0.00     0.016 C 
ATOM     12  C   UNL     1      19.424  21.868 -11.411  1.00  0.00     0.016 C 
ATOM     13  G   UNL     1      18.519  19.558 -11.071  1.00  0.00     0.000 G0
ENDBRANCH   9  10
ENDBRANCH   3   8
TORSDOF 0
ENDMDL
MODEL 4
REMARK VINA RESULT:     9.724     13.782     15.527
REMARK INTER + INTRA:          12.722
REMARK INTER:                  11.700
REMARK INTRA:                   1.023
REMARK UNBOUND:                 0.725
REMARK SMILES CC1=CC=CC(C)(C)CC1=O
REMARK SMILES IDX 1 1 2 2 3 3 10 4 11 5 9 6 4 8 5 9 6 10 7 11 8 12
REMARK H PARENT
REMARK Flexibility Score: 80.00
ROOT
ATOM      1  C   UNL     1      19.341  22.267 -12.494  1.00  0.00     0.048 C 
ATOM      2  C   UNL     1      19.375  20.757 -12.519  1.00  0.00    -0.008 C 
ATOM      3  C   UNL     1      20.500  20.149 -12.082  1.00  0.00     0.007 C 
ENDROOT
BRANCH   2   4
ATOM      4  C   UNL     1      18.196  20.063 -13.095  1.00  0.00     0.159 C 
ATOM      5  O   UNL     1      17.124  20.711 -13.248  1.00  0.00    -0.295 OA
BRANCH   4   6
ATOM      6  C   UNL     1      18.201  18.621 -13.496  1.00  0.00     0.091 CG0
ATOM      7  G   UNL     1      18.523  17.664 -12.326  1.00  0.00     0.000 G0
ENDBRANCH   4   6
ENDBRANCH   2   4
BRANCH   3   8
ATOM      8  C   UNL     1      20.836  18.708 -12.012  1.00  0.00    -0.003 C 
ATOM      9  C   UNL     1      20.029  17.646 -12.125  1.00  0.00    -0.020 C 
BRANCH   9  10
ATOM     10  C   UNL     1      18.533  17.674 -12.329  1.00  0.00    -0.010 CG0
ATOM     11  C   UNL     1      18.007  16.242 -12.575  1.00  0.00     0.016 C 
ATOM     12  C   UNL     1      17.877  18.208 -11.035  1.00  0.00     0.016 C 
ATOM     13  G   UNL     1      18.183  18.643 -13.481  1.00  0.00     0.000 G0
ENDBRANCH   9  10
ENDBRANCH   3   8
TORSDOF 0
ENDMDL
MODEL 5
REMARK VINA RESULT:    10.747     13.254     14.683
REMARK INTER + INTRA:          13.985
REMARK INTER:                  13.232
REMARK INTRA:                   0.752
REMARK UNBOUND:                 0.725
REMARK SMILES CC1=CC=CC(C)(C)CC1=O
REMARK SMILES IDX 1 1 2 2 3 3 10 4 11 5 9 6 4 8 5 9 6 10 7 11 8 12
REMARK H PARENT
REMARK Flexibility Score: 80.00
ROOT
ATOM      1  C   UNL     1      18.690  13.295 -12.892  1.00  0.00     0.048 C 
ATOM      2  C   UNL     1      19.035  14.754 -12.708  1.00  0.00    -0.008 C 
ATOM      3  C   UNL     1      20.250  15.050 -12.197  1.00  0.00     0.007 C 
ENDROOT
BRANCH   2   4
ATOM      4  C   UNL     1      17.979  15.745 -13.034  1.00  0.00     0.159 C 
ATOM      5  O   UNL     1      16.801  15.337 -13.226  1.00  0.00    -0.295 OA
BRANCH   4   6
ATOM      6  C   UNL     1      18.237  17.215 -13.162  1.00  0.00     0.091 CG0
ATOM      7  G   UNL     1      18.784  17.853 -11.866  1.00  0.00     0.000 G0
ENDBRANCH   4   6
ENDBRANCH   2   4
BRANCH   3   8
ATOM      8  C   UNL     1      20.854  16.366 -11.882  1.00  0.00    -0.003 C 
ATOM      9  C   UNL     1      20.257  17.554 -11.728  1.00  0.00    -0.020 C 
BRANCH   9  10
ATOM     10  C   UNL     1      18.782  17.842 -11.872  1.00  0.00    -0.010 CG0
ATOM     11  C   UNL     1      18.025  17.366 -10.612  1.00  0.00     0.016 C 
ATOM     12  C   UNL     1      18.596  19.373 -11.990  1.00  0.00     0.016 C 
ATOM     13  G   UNL     1      18.249  17.192 -13.169  1.00  0.00     0.000 G0
ENDBRANCH   9  10
ENDBRANCH   3   8
TORSDOF 0
ENDMDL
MODEL 6
REMARK VINA RESULT:    10.801     13.778     15.477
REMARK INTER + INTRA:          14.051
REMARK INTER:                  13.299
REMARK INTRA:                   0.752
REMARK UNBOUND:                 0.725
REMARK SMILES CC1=CC=CC(C)(C)CC1=O
REMARK SMILES IDX 1 1 2 2 3 3 10 4 11 5 9 6 4 8 5 9 6 10 7 11 8 12
REMARK H PARENT
REMARK Flexibility Score: 80.00
ROOT
ATOM      1  C   UNL     1      21.320  21.589 -11.714  1.00  0.00     0.048 C 
ATOM      2  C   UNL     1      20.252  20.636 -12.196  1.00  0.00    -0.008 C 
ATOM      3  C   UNL     1      19.039  21.153 -12.492  1.00  0.00     0.007 C 
ENDROOT
BRANCH   2   4
ATOM      4  C   UNL     1      20.600  19.193 -12.232  1.00  0.00     0.159 C 
ATOM      5  O   UNL     1      21.684  18.815 -11.709  1.00  0.00    -0.295 OA
BRANCH   4   6
ATOM      6  C   UNL     1      19.735  18.152 -12.873  1.00  0.00     0.091 CG0
ATOM      7  G   UNL     1      18.316  18.079 -12.267  1.00  0.00     0.000 G0
ENDBRANCH   4   6
ENDBRANCH   2   4
BRANCH   3   8
ATOM      8  C   UNL     1      17.805  20.477 -12.954  1.00  0.00    -0.003 C 
ATOM      9  C   UNL     1      17.468  19.184 -12.870  1.00  0.00    -0.020 C 
BRANCH   9  10
ATOM     10  C   UNL     1      18.310  18.073 -12.290  1.00  0.00    -0.010 CG0
ATOM     11  C   UNL     1      18.279  18.139 -10.746  1.00  0.00     0.016 C 
ATOM     12  C   UNL     1      17.695  16.722 -12.722  1.00  0.00     0.016 C 
ATOM     13  G   UNL     1      19.744  18.154 -12.861  1.00  0.00     0.000 G0
ENDBRANCH   9  10
ENDBRANCH   3   8
TORSDOF 0
ENDMDL
MODEL 7
REMARK VINA RESULT:    10.976     13.840     15.117
REMARK INTER + INTRA:          14.268
REMARK INTER:                  13.515
REMARK INTRA:                   0.753
REMARK UNBOUND:                 0.725
REMARK SMILES CC1=CC=CC(C)(C)CC1=O
REMARK SMILES IDX 1 1 2 2 3 3 10 4 11 5 9 6 4 8 5 9 6 10 7 11 8 12
REMARK H PARENT
REMARK Flexibility Score: 80.00
ROOT
ATOM      1  C   UNL     1      17.373  15.727 -12.958  1.00  0.00     0.048 C 
ATOM      2  C   UNL     1      17.958  17.040 -12.494  1.00  0.00    -0.008 C 
ATOM      3  C   UNL     1      17.793  17.375 -11.196  1.00  0.00     0.007 C 
ENDROOT
BRANCH   2   4
ATOM      4  C   UNL     1      18.603  17.893 -13.523  1.00  0.00     0.159 C 
ATOM      5  O   UNL     1      18.473  17.584 -14.739  1.00  0.00    -0.295 OA
BRANCH   4   6
ATOM      6  C   UNL     1      19.420  19.105 -13.196  1.00  0.00     0.091 CG0
ATOM      7  G   UNL     1      18.640  20.166 -12.387  1.00  0.00     0.000 G0
ENDBRANCH   4   6
ENDBRANCH   2   4
BRANCH   3   8
ATOM      8  C   UNL     1      18.223  18.590 -10.465  1.00  0.00    -0.003 C 
ATOM      9  C   UNL     1      18.578  19.786 -10.951  1.00  0.00    -0.020 C 
BRANCH   9  10
ATOM     10  C   UNL     1      18.652  20.177 -12.407  1.00  0.00    -0.010 CG0
ATOM     11  C   UNL     1      17.230  20.425 -12.959  1.00  0.00     0.016 C 
ATOM     12  C   UNL     1      19.443  21.501 -12.514  1.00  0.00     0.016 C 
ATOM     13  G   UNL     1      19.417  19.093 -13.199  1.00  0.00     0.000 G0
ENDBRANCH   9  10
ENDBRANCH   3   8
TORSDOF 0
ENDMDL
MODEL 8
REMARK VINA RESULT:    11.394     14.248     15.500
REMARK INTER + INTRA:          14.783
REMARK INTER:                  14.047
REMARK INTRA:                   0.737
REMARK UNBOUND:                 0.725
REMARK SMILES CC1=CC=CC(C)(C)CC1=O
REMARK SMILES IDX 1 1 2 2 3 3 10 4 11 5 9 6 4 8 5 9 6 10 7 11 8 12
REMARK H PARENT
REMARK Flexibility Score: 80.00
ROOT
ATOM      1  C   UNL     1      20.848  16.340 -11.359  1.00  0.00     0.048 C 
ATOM      2  C   UNL     1      20.352  17.663 -11.893  1.00  0.00    -0.008 C 
ATOM      3  C   UNL     1      21.153  18.740 -11.739  1.00  0.00     0.007 C 
ENDROOT
BRANCH   2   4
ATOM      4  C   UNL     1      18.988  17.688 -12.478  1.00  0.00     0.159 C 
ATOM      5  O   UNL     1      18.239  16.685 -12.316  1.00  0.00    -0.295 OA
BRANCH   4   6
ATOM      6  C   UNL     1      18.449  18.840 -13.267  1.00  0.00     0.091 CG0
ATOM      7  G   UNL     1      18.407  20.161 -12.467  1.00  0.00     0.000 G0
ENDBRANCH   4   6
ENDBRANCH   2   4
BRANCH   3   8
ATOM      8  C   UNL     1      20.933  20.153 -12.128  1.00  0.00    -0.003 C 
ATOM      9  C   UNL     1      19.787  20.777 -12.428  1.00  0.00    -0.020 C 
BRANCH   9  10
ATOM     10  C   UNL     1      18.411  20.157 -12.467  1.00  0.00    -0.010 CG0
ATOM     11  C   UNL     1      17.870  19.983 -11.029  1.00  0.00     0.016 C 
ATOM     12  C   UNL     1      17.465  21.122 -13.218  1.00  0.00     0.016 C 
ATOM     13  G   UNL     1      18.461  18.825 -13.249  1.00  0.00     0.000 G0
ENDBRANCH   9  10
ENDBRANCH   3   8
TORSDOF 0
ENDMDL
MODEL 9
REMARK VINA RESULT:    11.637     13.425     14.858
REMARK INTER + INTRA:          15.083
REMARK INTER:                  14.337
REMARK INTRA:                   0.746
REMARK UNBOUND:                 0.725
REMARK SMILES CC1=CC=CC(C)(C)CC1=O
REMARK SMILES IDX 1 1 2 2 3 3 10 4 11 5 9 6 4 8 5 9 6 10 7 11 8 12
REMARK H PARENT
REMARK Flexibility Score: 80.00
ROOT
ATOM      1  C   UNL     1      19.441  21.384 -12.107  1.00  0.00     0.048 C 
ATOM      2  C   UNL     1      18.761  20.041 -11.978  1.00  0.00    -0.008 C 
ATOM      3  C   UNL     1      18.491  19.593 -10.733  1.00  0.00     0.007 C 
ENDROOT
BRANCH   2   4
ATOM      4  C   UNL     1      18.514  19.286 -13.232  1.00  0.00     0.159 C 
ATOM      5  O   UNL     1      19.036  19.699 -14.304  1.00  0.00    -0.295 OA
BRANCH   4   6
ATOM      6  C   UNL     1      17.661  18.057 -13.301  1.00  0.00     0.091 CG0
ATOM      7  G   UNL     1      18.161  16.916 -12.387  1.00  0.00     0.000 G0
ENDBRANCH   4   6
ENDBRANCH   2   4
BRANCH   3   8
ATOM      8  C   UNL     1      17.866  18.323 -10.294  1.00  0.00    -0.003 C 
ATOM      9  C   UNL     1      17.720  17.176 -10.969  1.00  0.00    -0.020 C 
BRANCH   9  10
ATOM     10  C   UNL     1      18.147  16.913 -12.393  1.00  0.00    -0.010 CG0
ATOM     11  C   UNL     1      19.676  16.694 -12.453  1.00  0.00     0.016 C 
ATOM     12  C   UNL     1      17.461  15.613 -12.873  1.00  0.00     0.016 C 
ATOM     13  G   UNL     1      17.675  18.070 -13.301  1.00  0.00     0.000 G0
ENDBRANCH   9  10
ENDBRANCH   3   8
TORSDOF 0
ENDMDL
