MODEL 1
REMARK VINA RESULT:    -6.598      0.000      0.000
REMARK INTER + INTRA:         -10.225
REMARK INTER:                  -9.684
REMARK INTRA:                  -0.541
REMARK UNBOUND:                -0.541
REMARK SMILES Cc1cc2c(C(C)C)c(O)c(O)c(C=O)c2c(O)c1-c1c(C)cc2c(C(C)C)c(O)c(O)c(C=O)c2c1O
REMARK SMILES IDX 1 1 2 2 3 3 4 4 16 5 13 6 11 7 9 8 5 9 17 10 19 11 20 12
REMARK SMILES IDX 37 13 21 14 36 15 23 16 22 17 24 18 33 19 25 20 31 21 29 22
REMARK SMILES IDX 38 23 34 25 35 26 26 27 27 28 28 29 32 30 30 32 18 34 6 36
REMARK SMILES IDX 7 37 8 38 14 39 15 40 10 41 12 43
REMARK H PARENT 38 24 32 31 30 33 18 35 10 42 12 44
REMARK Flexibility Score: inf
ROOT
ATOM      1  C   UNL     1      33.390   0.957  75.646  1.00  0.00     0.045 C 
ATOM      2  C   UNL     1      34.468   0.083  75.051  1.00  0.00    -0.039 A 
ATOM      3  C   UNL     1      35.159   0.518  73.921  1.00  0.00     0.013 A 
ATOM      4  C   UNL     1      36.178  -0.249  73.323  1.00  0.00    -0.006 A 
ATOM      5  C   UNL     1      36.428  -1.564  73.829  1.00  0.00     0.039 A 
ATOM      6  C   UNL     1      37.337  -2.413  73.129  1.00  0.00     0.072 A 
ATOM      7  C   UNL     1      37.992  -1.941  71.974  1.00  0.00     0.169 A 
ATOM      8  C   UNL     1      37.815  -0.623  71.544  1.00  0.00     0.162 A 
ATOM      9  C   UNL     1      36.947   0.258  72.227  1.00  0.00     0.008 A 
ATOM     10  C   UNL     1      35.772  -1.976  75.029  1.00  0.00     0.132 A 
ATOM     11  C   UNL     1      34.795  -1.153  75.629  1.00  0.00     0.031 A 
ENDROOT
BRANCH  11  12
ATOM     12  C   UNL     1      34.108  -1.588  76.874  1.00  0.00     0.031 A 
ATOM     13  C   UNL     1      32.794  -2.099  76.817  1.00  0.00     0.132 A 
ATOM     14  C   UNL     1      34.785  -1.520  78.101  1.00  0.00    -0.039 A 
ATOM     15  C   UNL     1      32.118  -2.498  78.012  1.00  0.00     0.039 A 
ATOM     16  C   UNL     1      34.145  -1.946  79.265  1.00  0.00     0.013 A 
ATOM     17  C   UNL     1      36.218  -1.051  78.175  1.00  0.00     0.045 C 
ATOM     18  C   UNL     1      32.802  -2.382  79.262  1.00  0.00    -0.006 A 
ATOM     19  C   UNL     1      30.800  -3.048  77.997  1.00  0.00     0.072 A 
ATOM     20  C   UNL     1      32.144  -2.744  80.480  1.00  0.00     0.008 A 
ATOM     21  C   UNL     1      30.229  -3.539  79.189  1.00  0.00     0.169 A 
ATOM     22  C   UNL     1      30.912  -3.427  80.403  1.00  0.00     0.162 A 
BRANCH  13  23
ATOM     23  O   UNL     1      32.168  -2.228  75.572  1.00  0.00    -0.507 OA
ATOM     24  H   UNL     1      31.788  -3.096  75.217  1.00  0.00     0.293 HD
ENDBRANCH  13  23
BRANCH  19  25
ATOM     25  C   UNL     1      30.000  -3.125  76.758  1.00  0.00     0.264 C 
ATOM     26  O   UNL     1      28.755  -2.936  76.787  1.00  0.00    -0.298 OA
ENDBRANCH  19  25
BRANCH  20  27
ATOM     27  C   UNL     1      32.755  -2.429  81.857  1.00  0.00     0.017 C 
ATOM     28  C   UNL     1      33.377  -1.028  81.870  1.00  0.00     0.012 C 
ATOM     29  C   UNL     1      33.756  -3.489  82.355  1.00  0.00     0.012 C 
ENDBRANCH  20  27
BRANCH  21  30
ATOM     30  O   UNL     1      28.955  -4.122  79.207  1.00  0.00    -0.504 OA
ATOM     31  H   UNL     1      28.647  -4.795  79.896  1.00  0.00     0.293 HD
ENDBRANCH  21  30
BRANCH  22  32
ATOM     32  O   UNL     1      30.359  -3.996  81.552  1.00  0.00    -0.504 OA
ATOM     33  H   UNL     1      29.398  -4.314  81.605  1.00  0.00     0.293 HD
ENDBRANCH  22  32
ENDBRANCH  11  12
BRANCH  10  34
ATOM     34  O   UNL     1      36.105  -3.191  75.639  1.00  0.00    -0.507 OA
ATOM     35  H   UNL     1      35.989  -3.380  76.626  1.00  0.00     0.293 HD
ENDBRANCH  10  34
BRANCH   9  36
ATOM     36  C   UNL     1      36.898   1.722  71.742  1.00  0.00     0.017 C 
ATOM     37  C   UNL     1      35.823   1.942  70.669  1.00  0.00     0.012 C 
ATOM     38  C   UNL     1      36.848   2.767  72.876  1.00  0.00     0.012 C 
ENDBRANCH   9  36
BRANCH   6  39
ATOM     39  C   UNL     1      37.563  -3.816  73.532  1.00  0.00     0.264 C 
ATOM     40  O   UNL     1      38.549  -4.124  74.253  1.00  0.00    -0.298 OA
ENDBRANCH   6  39
BRANCH   8  41
ATOM     41  O   UNL     1      38.498  -0.180  70.406  1.00  0.00    -0.504 OA
ATOM     42  H   UNL     1      38.029   0.135  69.566  1.00  0.00     0.293 HD
ENDBRANCH   8  41
BRANCH   7  43
ATOM     43  O   UNL     1      38.819  -2.773  71.209  1.00  0.00    -0.504 OA
ATOM     44  H   UNL     1      39.172  -2.535  70.292  1.00  0.00     0.293 HD
ENDBRANCH   7  43
TORSDOF 11
ENDMDL
MODEL 2
REMARK VINA RESULT:    -6.497     14.441     16.825
REMARK INTER + INTRA:         -10.077
REMARK INTER:                  -8.946
REMARK INTRA:                  -1.132
REMARK UNBOUND:                -0.541
REMARK SMILES Cc1cc2c(C(C)C)c(O)c(O)c(C=O)c2c(O)c1-c1c(C)cc2c(C(C)C)c(O)c(O)c(C=O)c2c1O
REMARK SMILES IDX 1 1 2 2 3 3 4 4 16 5 13 6 11 7 9 8 5 9 17 10 19 11 20 12
REMARK SMILES IDX 37 13 21 14 36 15 23 16 22 17 24 18 33 19 25 20 31 21 29 22
REMARK SMILES IDX 38 23 34 25 35 26 26 27 27 28 28 29 32 30 30 32 18 34 6 36
REMARK SMILES IDX 7 37 8 38 14 39 15 40 10 41 12 43
REMARK H PARENT 38 24 32 31 30 33 18 35 10 42 12 44
REMARK Flexibility Score: inf
ROOT
ATOM      1  C   UNL     1      29.193  14.016  81.313  1.00  0.00     0.045 C 
ATOM      2  C   UNL     1      30.375  13.902  80.380  1.00  0.00    -0.039 A 
ATOM      3  C   UNL     1      31.668  13.940  80.902  1.00  0.00     0.013 A 
ATOM      4  C   UNL     1      32.810  13.834  80.084  1.00  0.00    -0.006 A 
ATOM      5  C   UNL     1      32.631  13.801  78.665  1.00  0.00     0.039 A 
ATOM      6  C   UNL     1      33.782  13.864  77.822  1.00  0.00     0.072 A 
ATOM      7  C   UNL     1      35.068  13.930  78.393  1.00  0.00     0.169 A 
ATOM      8  C   UNL     1      35.236  13.864  79.779  1.00  0.00     0.162 A 
ATOM      9  C   UNL     1      34.125  13.770  80.646  1.00  0.00     0.008 A 
ATOM     10  C   UNL     1      31.308  13.688  78.139  1.00  0.00     0.132 A 
ATOM     11  C   UNL     1      30.190  13.742  78.999  1.00  0.00     0.031 A 
ENDROOT
BRANCH  11  12
ATOM     12  C   UNL     1      28.813  13.633  78.448  1.00  0.00     0.031 A 
ATOM     13  C   UNL     1      28.134  12.397  78.473  1.00  0.00     0.132 A 
ATOM     14  C   UNL     1      28.179  14.775  77.933  1.00  0.00    -0.039 A 
ATOM     15  C   UNL     1      26.819  12.279  77.924  1.00  0.00     0.039 A 
ATOM     16  C   UNL     1      26.881  14.675  77.433  1.00  0.00     0.013 A 
ATOM     17  C   UNL     1      28.856  16.124  77.968  1.00  0.00     0.045 C 
ATOM     18  C   UNL     1      26.201  13.439  77.362  1.00  0.00    -0.006 A 
ATOM     19  C   UNL     1      26.085  11.055  77.956  1.00  0.00     0.072 A 
ATOM     20  C   UNL     1      24.899  13.350  76.777  1.00  0.00     0.008 A 
ATOM     21  C   UNL     1      24.747  11.025  77.513  1.00  0.00     0.169 A 
ATOM     22  C   UNL     1      24.152  12.169  76.972  1.00  0.00     0.162 A 
BRANCH  13  23
ATOM     23  O   UNL     1      28.759  11.291  79.061  1.00  0.00    -0.507 OA
ATOM     24  H   UNL     1      29.726  11.279  79.359  1.00  0.00     0.293 HD
ENDBRANCH  13  23
BRANCH  19  25
ATOM     25  C   UNL     1      26.685   9.797  78.446  1.00  0.00     0.264 C 
ATOM     26  O   UNL     1      25.978   8.937  79.036  1.00  0.00    -0.298 OA
ENDBRANCH  19  25
BRANCH  20  27
ATOM     27  C   UNL     1      24.291  14.509  75.967  1.00  0.00     0.017 C 
ATOM     28  C   UNL     1      23.356  15.353  76.840  1.00  0.00     0.012 C 
ATOM     29  C   UNL     1      23.592  14.065  74.667  1.00  0.00     0.012 C 
ENDBRANCH  20  27
BRANCH  21  30
ATOM     30  O   UNL     1      23.982   9.853  77.565  1.00  0.00    -0.504 OA
ATOM     31  H   UNL     1      23.121   9.758  78.087  1.00  0.00     0.293 HD
ENDBRANCH  21  30
BRANCH  22  32
ATOM     32  O   UNL     1      22.801  12.133  76.620  1.00  0.00    -0.504 OA
ATOM     33  H   UNL     1      22.078  11.775  77.234  1.00  0.00     0.293 HD
ENDBRANCH  22  32
ENDBRANCH  11  12
BRANCH  10  34
ATOM     34  O   UNL     1      31.103  13.497  76.768  1.00  0.00    -0.507 OA
ATOM     35  H   UNL     1      31.322  14.186  76.061  1.00  0.00     0.293 HD
ENDBRANCH  10  34
BRANCH   9  36
ATOM     36  C   UNL     1      34.413  13.596  82.151  1.00  0.00     0.017 C 
ATOM     37  C   UNL     1      34.204  14.897  82.937  1.00  0.00     0.012 C 
ATOM     38  C   UNL     1      33.718  12.379  82.796  1.00  0.00     0.012 C 
ENDBRANCH   9  36
BRANCH   6  39
ATOM     39  C   UNL     1      33.669  13.941  76.351  1.00  0.00     0.264 C 
ATOM     40  O   UNL     1      34.082  12.996  75.627  1.00  0.00    -0.298 OA
ENDBRANCH   6  39
BRANCH   8  41
ATOM     41  O   UNL     1      36.530  13.909  80.312  1.00  0.00    -0.504 OA
ATOM     42  H   UNL     1      37.232  14.570  80.004  1.00  0.00     0.293 HD
ENDBRANCH   8  41
BRANCH   7  43
ATOM     43  O   UNL     1      36.214  14.086  77.603  1.00  0.00    -0.504 OA
ATOM     44  H   UNL     1      36.402  14.895  77.027  1.00  0.00     0.293 HD
ENDBRANCH   7  43
TORSDOF 11
ENDMDL
MODEL 3
REMARK VINA RESULT:    -6.414      3.930      6.389
REMARK INTER + INTRA:          -9.955
REMARK INTER:                  -9.147
REMARK INTRA:                  -0.808
REMARK UNBOUND:                -0.541
REMARK SMILES Cc1cc2c(C(C)C)c(O)c(O)c(C=O)c2c(O)c1-c1c(C)cc2c(C(C)C)c(O)c(O)c(C=O)c2c1O
REMARK SMILES IDX 1 1 2 2 3 3 4 4 16 5 13 6 11 7 9 8 5 9 17 10 19 11 20 12
REMARK SMILES IDX 37 13 21 14 36 15 23 16 22 17 24 18 33 19 25 20 31 21 29 22
REMARK SMILES IDX 38 23 34 25 35 26 26 27 27 28 28 29 32 30 30 32 18 34 6 36
REMARK SMILES IDX 7 37 8 38 14 39 15 40 10 41 12 43
REMARK H PARENT 38 24 32 31 30 33 18 35 10 42 12 44
REMARK Flexibility Score: inf
ROOT
ATOM      1  C   UNL     1      29.410  -4.125  77.820  1.00  0.00     0.045 C 
ATOM      2  C   UNL     1      30.526  -3.113  77.925  1.00  0.00    -0.039 A 
ATOM      3  C   UNL     1      31.542  -3.108  76.970  1.00  0.00     0.013 A 
ATOM      4  C   UNL     1      32.606  -2.187  77.011  1.00  0.00    -0.006 A 
ATOM      5  C   UNL     1      32.702  -1.305  78.133  1.00  0.00     0.039 A 
ATOM      6  C   UNL     1      33.862  -0.486  78.272  1.00  0.00     0.072 A 
ATOM      7  C   UNL     1      34.878  -0.536  77.296  1.00  0.00     0.169 A 
ATOM      8  C   UNL     1      34.730  -1.328  76.154  1.00  0.00     0.162 A 
ATOM      9  C   UNL     1      33.582  -2.130  75.965  1.00  0.00     0.008 A 
ATOM     10  C   UNL     1      31.623  -1.262  79.069  1.00  0.00     0.132 A 
ATOM     11  C   UNL     1      30.545  -2.167  78.961  1.00  0.00     0.031 A 
ENDROOT
BRANCH  11  12
ATOM     12  C   UNL     1      29.428  -2.125  79.941  1.00  0.00     0.031 A 
ATOM     13  C   UNL     1      28.182  -1.575  79.574  1.00  0.00     0.132 A 
ATOM     14  C   UNL     1      29.610  -2.666  81.223  1.00  0.00    -0.039 A 
ATOM     15  C   UNL     1      27.111  -1.510  80.519  1.00  0.00     0.039 A 
ATOM     16  C   UNL     1      28.555  -2.642  82.136  1.00  0.00     0.013 A 
ATOM     17  C   UNL     1      30.909  -3.330  81.611  1.00  0.00     0.045 C 
ATOM     18  C   UNL     1      27.321  -2.024  81.836  1.00  0.00    -0.006 A 
ATOM     19  C   UNL     1      25.824  -0.990  80.181  1.00  0.00     0.072 A 
ATOM     20  C   UNL     1      26.281  -1.948  82.815  1.00  0.00     0.008 A 
ATOM     21  C   UNL     1      24.769  -1.064  81.112  1.00  0.00     0.169 A 
ATOM     22  C   UNL     1      24.987  -1.576  82.395  1.00  0.00     0.162 A 
BRANCH  13  23
ATOM     23  O   UNL     1      28.002  -1.112  78.266  1.00  0.00    -0.507 OA
ATOM     24  H   UNL     1      27.191  -0.591  77.956  1.00  0.00     0.293 HD
ENDBRANCH  13  23
BRANCH  19  25
ATOM     25  C   UNL     1      25.554  -0.369  78.869  1.00  0.00     0.264 C 
ATOM     26  O   UNL     1      24.887  -0.984  77.994  1.00  0.00    -0.298 OA
ENDBRANCH  19  25
BRANCH  20  27
ATOM     27  C   UNL     1      26.534  -2.281  84.296  1.00  0.00     0.017 C 
ATOM     28  C   UNL     1      26.114  -3.721  84.611  1.00  0.00     0.012 C 
ATOM     29  C   UNL     1      25.891  -1.284  85.280  1.00  0.00     0.012 C 
ENDBRANCH  20  27
BRANCH  21  30
ATOM     30  O   UNL     1      23.483  -0.601  80.804  1.00  0.00    -0.504 OA
ATOM     31  H   UNL     1      22.895  -0.993  80.081  1.00  0.00     0.293 HD
ENDBRANCH  21  30
BRANCH  22  32
ATOM     32  O   UNL     1      23.905  -1.714  83.267  1.00  0.00    -0.504 OA
ATOM     33  H   UNL     1      23.123  -1.069  83.285  1.00  0.00     0.293 HD
ENDBRANCH  22  32
ENDBRANCH  11  12
BRANCH  10  34
ATOM     34  O   UNL     1      31.608  -0.306  80.091  1.00  0.00    -0.507 OA
ATOM     35  H   UNL     1      30.871  -0.223  80.778  1.00  0.00     0.293 HD
ENDBRANCH  10  34
BRANCH   9  36
ATOM     36  C   UNL     1      33.460  -2.887  74.627  1.00  0.00     0.017 C 
ATOM     37  C   UNL     1      33.556  -1.948  73.418  1.00  0.00     0.012 C 
ATOM     38  C   UNL     1      34.373  -4.125  74.509  1.00  0.00     0.012 C 
ENDBRANCH   9  36
BRANCH   6  39
ATOM     39  C   UNL     1      34.078   0.369  79.457  1.00  0.00     0.264 C 
ATOM     40  O   UNL     1      34.783  -0.035  80.419  1.00  0.00    -0.298 OA
ENDBRANCH   6  39
BRANCH   8  41
ATOM     41  O   UNL     1      35.748  -1.336  75.194  1.00  0.00    -0.504 OA
ATOM     42  H   UNL     1      36.661  -0.929  75.353  1.00  0.00     0.293 HD
ENDBRANCH   8  41
BRANCH   7  43
ATOM     43  O   UNL     1      36.071   0.183  77.443  1.00  0.00    -0.504 OA
ATOM     44  H   UNL     1      36.987  -0.241  77.503  1.00  0.00     0.293 HD
ENDBRANCH   7  43
TORSDOF 11
ENDMDL
MODEL 4
REMARK VINA RESULT:    -6.335      7.599     14.361
REMARK INTER + INTRA:          -9.839
REMARK INTER:                  -9.828
REMARK INTRA:                  -0.010
REMARK UNBOUND:                -0.541
REMARK SMILES Cc1cc2c(C(C)C)c(O)c(O)c(C=O)c2c(O)c1-c1c(C)cc2c(C(C)C)c(O)c(O)c(C=O)c2c1O
REMARK SMILES IDX 1 1 2 2 3 3 4 4 16 5 13 6 11 7 9 8 5 9 17 10 19 11 20 12
REMARK SMILES IDX 37 13 21 14 36 15 23 16 22 17 24 18 33 19 25 20 31 21 29 22
REMARK SMILES IDX 38 23 34 25 35 26 26 27 27 28 28 29 32 30 30 32 18 34 6 36
REMARK SMILES IDX 7 37 8 38 14 39 15 40 10 41 12 43
REMARK H PARENT 38 24 32 31 30 33 18 35 10 42 12 44
REMARK Flexibility Score: inf
ROOT
ATOM      1  C   UNL     1      26.266   0.748  83.264  1.00  0.00     0.045 C 
ATOM      2  C   UNL     1      25.132  -0.088  83.808  1.00  0.00    -0.039 A 
ATOM      3  C   UNL     1      24.433   0.351  84.933  1.00  0.00     0.013 A 
ATOM      4  C   UNL     1      23.364  -0.382  85.484  1.00  0.00    -0.006 A 
ATOM      5  C   UNL     1      23.065  -1.669  84.937  1.00  0.00     0.039 A 
ATOM      6  C   UNL     1      22.099  -2.491  85.592  1.00  0.00     0.072 A 
ATOM      7  C   UNL     1      21.438  -2.018  86.742  1.00  0.00     0.169 A 
ATOM      8  C   UNL     1      21.666  -0.721  87.212  1.00  0.00     0.162 A 
ATOM      9  C   UNL     1      22.592   0.134  86.574  1.00  0.00     0.008 A 
ATOM     10  C   UNL     1      23.732  -2.082  83.743  1.00  0.00     0.132 A 
ATOM     11  C   UNL     1      24.762  -1.291  83.189  1.00  0.00     0.031 A 
ENDROOT
BRANCH  11  12
ATOM     12  C   UNL     1      25.460  -1.728  81.951  1.00  0.00     0.031 A 
ATOM     13  C   UNL     1      26.791  -2.190  82.012  1.00  0.00     0.132 A 
ATOM     14  C   UNL     1      24.776  -1.709  80.725  1.00  0.00    -0.039 A 
ATOM     15  C   UNL     1      27.477  -2.589  80.823  1.00  0.00     0.039 A 
ATOM     16  C   UNL     1      25.427  -2.135  79.568  1.00  0.00     0.013 A 
ATOM     17  C   UNL     1      23.327  -1.292  80.648  1.00  0.00     0.045 C 
ATOM     18  C   UNL     1      26.785  -2.524  79.574  1.00  0.00    -0.006 A 
ATOM     19  C   UNL     1      28.813  -3.092  80.843  1.00  0.00     0.072 A 
ATOM     20  C   UNL     1      27.450  -2.887  78.361  1.00  0.00     0.008 A 
ATOM     21  C   UNL     1      29.397  -3.587  79.660  1.00  0.00     0.169 A 
ATOM     22  C   UNL     1      28.706  -3.524  78.446  1.00  0.00     0.162 A 
BRANCH  13  23
ATOM     23  O   UNL     1      27.425  -2.272  83.257  1.00  0.00    -0.507 OA
ATOM     24  H   UNL     1      27.090  -1.812  84.095  1.00  0.00     0.293 HD
ENDBRANCH  13  23
BRANCH  19  25
ATOM     25  C   UNL     1      29.620  -3.116  82.080  1.00  0.00     0.264 C 
ATOM     26  O   UNL     1      30.846  -2.828  82.052  1.00  0.00    -0.298 OA
ENDBRANCH  19  25
BRANCH  20  27
ATOM     27  C   UNL     1      26.824  -2.621  76.980  1.00  0.00     0.017 C 
ATOM     28  C   UNL     1      26.093  -1.274  76.962  1.00  0.00     0.012 C 
ATOM     29  C   UNL     1      25.913  -3.758  76.477  1.00  0.00     0.012 C 
ENDBRANCH  20  27
BRANCH  21  30
ATOM     30  O   UNL     1      30.690  -4.125  79.648  1.00  0.00    -0.504 OA
ATOM     31  H   UNL     1      30.905  -5.089  79.431  1.00  0.00     0.293 HD
ENDBRANCH  21  30
BRANCH  22  32
ATOM     32  O   UNL     1      29.275  -4.097  77.306  1.00  0.00    -0.504 OA
ATOM     33  H   UNL     1      29.673  -3.549  76.552  1.00  0.00     0.293 HD
ENDBRANCH  22  32
ENDBRANCH  11  12
BRANCH  10  34
ATOM     34  O   UNL     1      23.357  -3.263  83.092  1.00  0.00    -0.507 OA
ATOM     35  H   UNL     1      22.472  -3.731  83.234  1.00  0.00     0.293 HD
ENDBRANCH  10  34
BRANCH   9  36
ATOM     36  C   UNL     1      22.698   1.581  87.099  1.00  0.00     0.017 C 
ATOM     37  C   UNL     1      23.722   1.713  88.233  1.00  0.00     0.012 C 
ATOM     38  C   UNL     1      22.870   2.647  85.997  1.00  0.00     0.012 C 
ENDBRANCH   9  36
BRANCH   6  39
ATOM     39  C   UNL     1      21.817  -3.871  85.146  1.00  0.00     0.264 C 
ATOM     40  O   UNL     1      20.794  -4.125  84.456  1.00  0.00    -0.298 OA
ENDBRANCH   6  39
BRANCH   8  41
ATOM     41  O   UNL     1      20.975  -0.275  88.344  1.00  0.00    -0.504 OA
ATOM     42  H   UNL     1      21.412  -0.161  89.250  1.00  0.00     0.293 HD
ENDBRANCH   8  41
BRANCH   7  43
ATOM     43  O   UNL     1      20.553  -2.828  87.464  1.00  0.00    -0.504 OA
ATOM     44  H   UNL     1      20.522  -2.878  88.474  1.00  0.00     0.293 HD
ENDBRANCH   7  43
TORSDOF 11
ENDMDL
MODEL 5
REMARK VINA RESULT:    -6.287      1.653      3.137
REMARK INTER + INTRA:          -9.768
REMARK INTER:                  -9.607
REMARK INTRA:                  -0.161
REMARK UNBOUND:                -0.541
REMARK SMILES Cc1cc2c(C(C)C)c(O)c(O)c(C=O)c2c(O)c1-c1c(C)cc2c(C(C)C)c(O)c(O)c(C=O)c2c1O
REMARK SMILES IDX 1 1 2 2 3 3 4 4 16 5 13 6 11 7 9 8 5 9 17 10 19 11 20 12
REMARK SMILES IDX 37 13 21 14 36 15 23 16 22 17 24 18 33 19 25 20 31 21 29 22
REMARK SMILES IDX 38 23 34 25 35 26 26 27 27 28 28 29 32 30 30 32 18 34 6 36
REMARK SMILES IDX 7 37 8 38 14 39 15 40 10 41 12 43
REMARK H PARENT 38 24 32 31 30 33 18 35 10 42 12 44
REMARK Flexibility Score: inf
ROOT
ATOM      1  C   UNL     1      33.259   1.111  75.603  1.00  0.00     0.045 C 
ATOM      2  C   UNL     1      34.337   0.197  75.071  1.00  0.00    -0.039 A 
ATOM      3  C   UNL     1      35.076   0.584  73.954  1.00  0.00     0.013 A 
ATOM      4  C   UNL     1      36.097  -0.223  73.414  1.00  0.00    -0.006 A 
ATOM      5  C   UNL     1      36.299  -1.527  73.965  1.00  0.00     0.039 A 
ATOM      6  C   UNL     1      37.211  -2.416  73.322  1.00  0.00     0.072 A 
ATOM      7  C   UNL     1      37.916  -1.992  72.177  1.00  0.00     0.169 A 
ATOM      8  C   UNL     1      37.784  -0.683  71.705  1.00  0.00     0.162 A 
ATOM      9  C   UNL     1      36.914   0.236  72.332  1.00  0.00     0.008 A 
ATOM     10  C   UNL     1      35.592  -1.890  75.153  1.00  0.00     0.132 A 
ATOM     11  C   UNL     1      34.615  -1.028  75.695  1.00  0.00     0.031 A 
ENDROOT
BRANCH  11  12
ATOM     12  C   UNL     1      33.875  -1.413  76.927  1.00  0.00     0.031 A 
ATOM     13  C   UNL     1      34.516  -1.367  78.183  1.00  0.00     0.132 A 
ATOM     14  C   UNL     1      32.526  -1.789  76.837  1.00  0.00    -0.039 A 
ATOM     15  C   UNL     1      33.817  -1.757  79.368  1.00  0.00     0.039 A 
ATOM     16  C   UNL     1      31.828  -2.132  77.995  1.00  0.00     0.013 A 
ATOM     17  C   UNL     1      31.799  -1.770  75.514  1.00  0.00     0.045 C 
ATOM     18  C   UNL     1      32.457  -2.181  79.259  1.00  0.00    -0.006 A 
ATOM     19  C   UNL     1      34.417  -1.697  80.663  1.00  0.00     0.072 A 
ATOM     20  C   UNL     1      31.739  -2.607  80.420  1.00  0.00     0.008 A 
ATOM     21  C   UNL     1      33.646  -1.975  81.809  1.00  0.00     0.169 A 
ATOM     22  C   UNL     1      32.313  -2.382  81.688  1.00  0.00     0.162 A 
BRANCH  13  23
ATOM     23  O   UNL     1      35.838  -0.915  78.255  1.00  0.00    -0.507 OA
ATOM     24  H   UNL     1      36.137   0.010  77.972  1.00  0.00     0.293 HD
ENDBRANCH  13  23
BRANCH  19  25
ATOM     25  C   UNL     1      35.840  -1.347  80.849  1.00  0.00     0.264 C 
ATOM     26  O   UNL     1      36.688  -2.236  81.125  1.00  0.00    -0.298 OA
ENDBRANCH  19  25
BRANCH  20  27
ATOM     27  C   UNL     1      30.357  -3.278  80.319  1.00  0.00     0.017 C 
ATOM     28  C   UNL     1      30.252  -4.123  79.045  1.00  0.00     0.012 C 
ATOM     29  C   UNL     1      29.174  -2.297  80.438  1.00  0.00     0.012 C 
ENDBRANCH  20  27
BRANCH  21  30
ATOM     30  O   UNL     1      34.187  -1.889  83.098  1.00  0.00    -0.504 OA
ATOM     31  H   UNL     1      34.343  -1.021  83.594  1.00  0.00     0.293 HD
ENDBRANCH  21  30
BRANCH  22  32
ATOM     32  O   UNL     1      31.550  -2.569  82.842  1.00  0.00    -0.504 OA
ATOM     33  H   UNL     1      31.702  -2.046  83.697  1.00  0.00     0.293 HD
ENDBRANCH  22  32
ENDBRANCH  11  12
BRANCH  10  34
ATOM     34  O   UNL     1      35.877  -3.094  75.808  1.00  0.00    -0.507 OA
ATOM     35  H   UNL     1      35.681  -3.267  76.785  1.00  0.00     0.293 HD
ENDBRANCH  10  34
BRANCH   9  36
ATOM     36  C   UNL     1      36.915   1.685  71.805  1.00  0.00     0.017 C 
ATOM     37  C   UNL     1      35.955   1.874  70.623  1.00  0.00     0.012 C 
ATOM     38  C   UNL     1      36.752   2.761  72.898  1.00  0.00     0.012 C 
ENDBRANCH   9  36
BRANCH   6  39
ATOM     39  C   UNL     1      37.392  -3.811  73.772  1.00  0.00     0.264 C 
ATOM     40  O   UNL     1      38.358  -4.125  74.516  1.00  0.00    -0.298 OA
ENDBRANCH   6  39
BRANCH   8  41
ATOM     41  O   UNL     1      38.517  -0.289  70.579  1.00  0.00    -0.504 OA
ATOM     42  H   UNL     1      38.090   0.125  69.759  1.00  0.00     0.293 HD
ENDBRANCH   8  41
BRANCH   7  43
ATOM     43  O   UNL     1      38.750  -2.864  71.465  1.00  0.00    -0.504 OA
ATOM     44  H   UNL     1      39.592  -3.278  71.840  1.00  0.00     0.293 HD
ENDBRANCH   7  43
TORSDOF 11
ENDMDL
MODEL 6
REMARK VINA RESULT:    -6.140     14.423     17.488
REMARK INTER + INTRA:          -9.552
REMARK INTER:                  -8.868
REMARK INTRA:                  -0.684
REMARK UNBOUND:                -0.541
REMARK SMILES Cc1cc2c(C(C)C)c(O)c(O)c(C=O)c2c(O)c1-c1c(C)cc2c(C(C)C)c(O)c(O)c(C=O)c2c1O
REMARK SMILES IDX 1 1 2 2 3 3 4 4 16 5 13 6 11 7 9 8 5 9 17 10 19 11 20 12
REMARK SMILES IDX 37 13 21 14 36 15 23 16 22 17 24 18 33 19 25 20 31 21 29 22
REMARK SMILES IDX 38 23 34 25 35 26 26 27 27 28 28 29 32 30 30 32 18 34 6 36
REMARK SMILES IDX 7 37 8 38 14 39 15 40 10 41 12 43
REMARK H PARENT 38 24 32 31 30 33 18 35 10 42 12 44
REMARK Flexibility Score: inf
ROOT
ATOM      1  C   UNL     1      28.843  16.125  78.747  1.00  0.00     0.045 C 
ATOM      2  C   UNL     1      28.181  14.790  78.497  1.00  0.00    -0.039 A 
ATOM      3  C   UNL     1      26.887  14.752  77.979  1.00  0.00     0.013 A 
ATOM      4  C   UNL     1      26.218  13.539  77.720  1.00  0.00    -0.006 A 
ATOM      5  C   UNL     1      26.850  12.316  78.109  1.00  0.00     0.039 A 
ATOM      6  C   UNL     1      26.116  11.096  78.008  1.00  0.00     0.072 A 
ATOM      7  C   UNL     1      24.799  11.109  77.505  1.00  0.00     0.169 A 
ATOM      8  C   UNL     1      24.227  12.295  77.037  1.00  0.00     0.162 A 
ATOM      9  C   UNL     1      24.932  13.517  77.093  1.00  0.00     0.008 A 
ATOM     10  C   UNL     1      28.202  12.355  78.569  1.00  0.00     0.132 A 
ATOM     11  C   UNL     1      28.856  13.590  78.763  1.00  0.00     0.031 A 
ENDROOT
BRANCH  11  12
ATOM     12  C   UNL     1      30.261  13.627  79.250  1.00  0.00     0.031 A 
ATOM     13  C   UNL     1      31.329  13.705  78.333  1.00  0.00     0.132 A 
ATOM     14  C   UNL     1      30.516  13.619  80.630  1.00  0.00    -0.039 A 
ATOM     15  C   UNL     1      32.683  13.718  78.793  1.00  0.00     0.039 A 
ATOM     16  C   UNL     1      31.834  13.672  81.087  1.00  0.00     0.013 A 
ATOM     17  C   UNL     1      29.387  13.614  81.632  1.00  0.00     0.045 C 
ATOM     18  C   UNL     1      32.933  13.664  80.200  1.00  0.00    -0.006 A 
ATOM     19  C   UNL     1      33.792  13.827  77.901  1.00  0.00     0.072 A 
ATOM     20  C   UNL     1      34.275  13.645  80.693  1.00  0.00     0.008 A 
ATOM     21  C   UNL     1      35.097  13.960  78.415  1.00  0.00     0.169 A 
ATOM     22  C   UNL     1      35.328  13.913  79.793  1.00  0.00     0.162 A 
BRANCH  13  23
ATOM     23  O   UNL     1      31.045  13.790  76.965  1.00  0.00    -0.507 OA
ATOM     24  H   UNL     1      30.692  14.623  76.510  1.00  0.00     0.293 HD
ENDBRANCH  13  23
BRANCH  19  25
ATOM     25  C   UNL     1      33.619  13.807  76.434  1.00  0.00     0.264 C 
ATOM     26  O   UNL     1      34.170  12.915  75.736  1.00  0.00    -0.298 OA
ENDBRANCH  19  25
BRANCH  20  27
ATOM     27  C   UNL     1      34.592  13.363  82.173  1.00  0.00     0.017 C 
ATOM     28  C   UNL     1      33.877  12.095  82.652  1.00  0.00     0.012 C 
ATOM     29  C   UNL     1      34.308  14.553  83.111  1.00  0.00     0.012 C 
ENDBRANCH  20  27
BRANCH  21  30
ATOM     30  O   UNL     1      36.207  14.109  77.573  1.00  0.00    -0.504 OA
ATOM     31  H   UNL     1      36.158  14.120  76.563  1.00  0.00     0.293 HD
ENDBRANCH  21  30
BRANCH  22  32
ATOM     32  O   UNL     1      36.619  14.131  80.277  1.00  0.00    -0.504 OA
ATOM     33  H   UNL     1      37.051  15.047  80.307  1.00  0.00     0.293 HD
ENDBRANCH  22  32
ENDBRANCH  11  12
BRANCH  10  34
ATOM     34  O   UNL     1      28.904  11.168  78.811  1.00  0.00    -0.507 OA
ATOM     35  H   UNL     1      29.766  10.915  78.347  1.00  0.00     0.293 HD
ENDBRANCH  10  34
BRANCH   9  36
ATOM     36  C   UNL     1      24.260  14.752  76.457  1.00  0.00     0.017 C 
ATOM     37  C   UNL     1      23.635  14.435  75.093  1.00  0.00     0.012 C 
ATOM     38  C   UNL     1      23.307  15.515  77.400  1.00  0.00     0.012 C 
ENDBRANCH   9  36
BRANCH   6  39
ATOM     39  C   UNL     1      26.665   9.812  78.488  1.00  0.00     0.264 C 
ATOM     40  O   UNL     1      25.910   8.946  79.007  1.00  0.00    -0.298 OA
ENDBRANCH   6  39
BRANCH   8  41
ATOM     41  O   UNL     1      22.925  12.267  76.524  1.00  0.00    -0.504 OA
ATOM     42  H   UNL     1      22.154  11.811  76.995  1.00  0.00     0.293 HD
ENDBRANCH   8  41
BRANCH   7  43
ATOM     43  O   UNL     1      24.015   9.948  77.476  1.00  0.00    -0.504 OA
ATOM     44  H   UNL     1      23.010   9.938  77.584  1.00  0.00     0.293 HD
ENDBRANCH   7  43
TORSDOF 11
ENDMDL
MODEL 7
REMARK VINA RESULT:    -5.893      7.715     14.263
REMARK INTER + INTRA:          -9.190
REMARK INTER:                  -9.641
REMARK INTRA:                   0.451
REMARK UNBOUND:                -0.541
REMARK SMILES Cc1cc2c(C(C)C)c(O)c(O)c(C=O)c2c(O)c1-c1c(C)cc2c(C(C)C)c(O)c(O)c(C=O)c2c1O
REMARK SMILES IDX 1 1 2 2 3 3 4 4 16 5 13 6 11 7 9 8 5 9 17 10 19 11 20 12
REMARK SMILES IDX 37 13 21 14 36 15 23 16 22 17 24 18 33 19 25 20 31 21 29 22
REMARK SMILES IDX 38 23 34 25 35 26 26 27 27 28 28 29 32 30 30 32 18 34 6 36
REMARK SMILES IDX 7 37 8 38 14 39 15 40 10 41 12 43
REMARK H PARENT 38 24 32 31 30 33 18 35 10 42 12 44
REMARK Flexibility Score: inf
ROOT
ATOM      1  C   UNL     1      26.343   0.777  83.481  1.00  0.00     0.045 C 
ATOM      2  C   UNL     1      25.192  -0.075  83.960  1.00  0.00    -0.039 A 
ATOM      3  C   UNL     1      24.443   0.339  85.061  1.00  0.00     0.013 A 
ATOM      4  C   UNL     1      23.355  -0.410  85.552  1.00  0.00    -0.006 A 
ATOM      5  C   UNL     1      23.088  -1.688  84.968  1.00  0.00     0.039 A 
ATOM      6  C   UNL     1      22.100  -2.527  85.564  1.00  0.00     0.072 A 
ATOM      7  C   UNL     1      21.386  -2.079  86.694  1.00  0.00     0.169 A 
ATOM      8  C   UNL     1      21.586  -0.791  87.197  1.00  0.00     0.162 A 
ATOM      9  C   UNL     1      22.534   0.081  86.617  1.00  0.00     0.008 A 
ATOM     10  C   UNL     1      23.808  -2.074  83.796  1.00  0.00     0.132 A 
ATOM     11  C   UNL     1      24.856  -1.268  83.303  1.00  0.00     0.031 A 
ENDROOT
BRANCH  11  12
ATOM     12  C   UNL     1      25.610  -1.677  82.088  1.00  0.00     0.031 A 
ATOM     13  C   UNL     1      25.008  -1.586  80.815  1.00  0.00     0.132 A 
ATOM     14  C   UNL     1      26.935  -2.121  82.210  1.00  0.00    -0.039 A 
ATOM     15  C   UNL     1      25.718  -1.999  79.645  1.00  0.00     0.039 A 
ATOM     16  C   UNL     1      27.647  -2.488  81.068  1.00  0.00     0.013 A 
ATOM     17  C   UNL     1      27.625  -2.152  83.553  1.00  0.00     0.045 C 
ATOM     18  C   UNL     1      27.053  -2.493  79.787  1.00  0.00    -0.006 A 
ATOM     19  C   UNL     1      25.159  -1.896  78.335  1.00  0.00     0.072 A 
ATOM     20  C   UNL     1      27.780  -2.942  78.641  1.00  0.00     0.008 A 
ATOM     21  C   UNL     1      25.947  -2.201  77.208  1.00  0.00     0.169 A 
ATOM     22  C   UNL     1      27.253  -2.676  77.360  1.00  0.00     0.162 A 
BRANCH  13  23
ATOM     23  O   UNL     1      23.712  -1.067  80.711  1.00  0.00    -0.507 OA
ATOM     24  H   UNL     1      23.419  -0.414  79.995  1.00  0.00     0.293 HD
ENDBRANCH  13  23
BRANCH  19  25
ATOM     25  C   UNL     1      23.761  -1.472  78.114  1.00  0.00     0.264 C 
ATOM     26  O   UNL     1      22.849  -2.328  77.961  1.00  0.00    -0.298 OA
ENDBRANCH  19  25
BRANCH  20  27
ATOM     27  C   UNL     1      29.123  -3.684  78.772  1.00  0.00     0.017 C 
ATOM     28  C   UNL     1      29.365  -4.125  80.219  1.00  0.00     0.012 C 
ATOM     29  C   UNL     1      30.328  -2.898  78.219  1.00  0.00     0.012 C 
ENDBRANCH  20  27
BRANCH  21  30
ATOM     30  O   UNL     1      25.447  -2.075  75.905  1.00  0.00    -0.504 OA
ATOM     31  H   UNL     1      24.469  -2.155  75.660  1.00  0.00     0.293 HD
ENDBRANCH  21  30
BRANCH  22  32
ATOM     32  O   UNL     1      28.039  -2.890  76.225  1.00  0.00    -0.504 OA
ATOM     33  H   UNL     1      28.989  -3.238  76.269  1.00  0.00     0.293 HD
ENDBRANCH  22  32
ENDBRANCH  11  12
BRANCH  10  34
ATOM     34  O   UNL     1      23.469  -3.244  83.108  1.00  0.00    -0.507 OA
ATOM     35  H   UNL     1      23.307  -4.137  83.554  1.00  0.00     0.293 HD
ENDBRANCH  10  34
BRANCH   9  36
ATOM     36  C   UNL     1      22.609   1.518  87.173  1.00  0.00     0.017 C 
ATOM     37  C   UNL     1      23.689   1.667  88.252  1.00  0.00     0.012 C 
ATOM     38  C   UNL     1      22.673   2.617  86.093  1.00  0.00     0.012 C 
ENDBRANCH   9  36
BRANCH   6  39
ATOM     39  C   UNL     1      21.845  -3.899  85.081  1.00  0.00     0.264 C 
ATOM     40  O   UNL     1      20.930  -4.125  84.245  1.00  0.00    -0.298 OA
ENDBRANCH   6  39
BRANCH   8  41
ATOM     41  O   UNL     1      20.844  -0.370  88.307  1.00  0.00    -0.504 OA
ATOM     42  H   UNL     1      20.011  -0.847  88.628  1.00  0.00     0.293 HD
ENDBRANCH   8  41
BRANCH   7  43
ATOM     43  O   UNL     1      20.476  -2.908  87.362  1.00  0.00    -0.504 OA
ATOM     44  H   UNL     1      19.728  -3.413  86.907  1.00  0.00     0.293 HD
ENDBRANCH   7  43
TORSDOF 11
ENDMDL
MODEL 8
REMARK VINA RESULT:    -5.463      4.693     11.262
REMARK INTER + INTRA:          -8.559
REMARK INTER:                  -8.120
REMARK INTRA:                  -0.439
REMARK UNBOUND:                -0.541
REMARK SMILES Cc1cc2c(C(C)C)c(O)c(O)c(C=O)c2c(O)c1-c1c(C)cc2c(C(C)C)c(O)c(O)c(C=O)c2c1O
REMARK SMILES IDX 1 1 2 2 3 3 4 4 16 5 13 6 11 7 9 8 5 9 17 10 19 11 20 12
REMARK SMILES IDX 37 13 21 14 36 15 23 16 22 17 24 18 33 19 25 20 31 21 29 22
REMARK SMILES IDX 38 23 34 25 35 26 26 27 27 28 28 29 32 30 30 32 18 34 6 36
REMARK SMILES IDX 7 37 8 38 14 39 15 40 10 41 12 43
REMARK H PARENT 38 24 32 31 30 33 18 35 10 42 12 44
REMARK Flexibility Score: inf
ROOT
ATOM      1  C   UNL     1      26.629  -0.248  77.828  1.00  0.00     0.045 C 
ATOM      2  C   UNL     1      26.367  -1.124  79.031  1.00  0.00    -0.039 A 
ATOM      3  C   UNL     1      25.136  -1.045  79.682  1.00  0.00     0.013 A 
ATOM      4  C   UNL     1      24.830  -1.838  80.805  1.00  0.00    -0.006 A 
ATOM      5  C   UNL     1      25.859  -2.664  81.357  1.00  0.00     0.039 A 
ATOM      6  C   UNL     1      25.615  -3.341  82.590  1.00  0.00     0.072 A 
ATOM      7  C   UNL     1      24.365  -3.211  83.228  1.00  0.00     0.169 A 
ATOM      8  C   UNL     1      23.334  -2.480  82.631  1.00  0.00     0.162 A 
ATOM      9  C   UNL     1      23.526  -1.821  81.396  1.00  0.00     0.008 A 
ATOM     10  C   UNL     1      27.092  -2.797  80.647  1.00  0.00     0.132 A 
ATOM     11  C   UNL     1      27.338  -2.025  79.492  1.00  0.00     0.031 A 
ENDROOT
BRANCH  11  12
ATOM     12  C   UNL     1      28.625  -2.159  78.759  1.00  0.00     0.031 A 
ATOM     13  C   UNL     1      29.833  -1.756  79.367  1.00  0.00     0.132 A 
ATOM     14  C   UNL     1      28.636  -2.721  77.473  1.00  0.00    -0.039 A 
ATOM     15  C   UNL     1      31.071  -1.861  78.660  1.00  0.00     0.039 A 
ATOM     16  C   UNL     1      29.846  -2.862  76.794  1.00  0.00     0.013 A 
ATOM     17  C   UNL     1      27.366  -3.230  76.835  1.00  0.00     0.045 C 
ATOM     18  C   UNL     1      31.064  -2.393  77.333  1.00  0.00    -0.006 A 
ATOM     19  C   UNL     1      32.320  -1.493  79.247  1.00  0.00     0.072 A 
ATOM     20  C   UNL     1      32.281  -2.483  76.586  1.00  0.00     0.008 A 
ATOM     21  C   UNL     1      33.522  -1.732  78.551  1.00  0.00     0.169 A 
ATOM     22  C   UNL     1      33.502  -2.260  77.257  1.00  0.00     0.162 A 
BRANCH  13  23
ATOM     23  O   UNL     1      29.805  -1.271  80.679  1.00  0.00    -0.507 OA
ATOM     24  H   UNL     1      30.624  -1.175  81.265  1.00  0.00     0.293 HD
ENDBRANCH  13  23
BRANCH  19  25
ATOM     25  C   UNL     1      32.400  -0.862  80.580  1.00  0.00     0.264 C 
ATOM     26  O   UNL     1      33.026   0.219  80.741  1.00  0.00    -0.298 OA
ENDBRANCH  19  25
BRANCH  20  27
ATOM     27  C   UNL     1      32.290  -2.836  75.088  1.00  0.00     0.017 C 
ATOM     28  C   UNL     1      33.080  -4.125  74.836  1.00  0.00     0.012 C 
ATOM     29  C   UNL     1      32.780  -1.693  74.179  1.00  0.00     0.012 C 
ENDBRANCH  20  27
BRANCH  21  30
ATOM     30  O   UNL     1      34.768  -1.422  79.110  1.00  0.00    -0.504 OA
ATOM     31  H   UNL     1      35.393  -0.712  78.752  1.00  0.00     0.293 HD
ENDBRANCH  21  30
BRANCH  22  32
ATOM     32  O   UNL     1      34.709  -2.564  76.625  1.00  0.00    -0.504 OA
ATOM     33  H   UNL     1      35.590  -2.635  77.121  1.00  0.00     0.293 HD
ENDBRANCH  22  32
ENDBRANCH  11  12
BRANCH  10  34
ATOM     34  O   UNL     1      28.061  -3.713  81.072  1.00  0.00    -0.507 OA
ATOM     35  H   UNL     1      28.393  -3.785  82.025  1.00  0.00     0.293 HD
ENDBRANCH  10  34
BRANCH   9  36
ATOM     36  C   UNL     1      22.301  -1.129  80.764  1.00  0.00     0.017 C 
ATOM     37  C   UNL     1      22.506   0.383  80.606  1.00  0.00     0.012 C 
ATOM     38  C   UNL     1      21.776  -1.809  79.483  1.00  0.00     0.012 C 
ENDBRANCH   9  36
BRANCH   6  39
ATOM     39  C   UNL     1      26.665  -4.125  83.273  1.00  0.00     0.264 C 
ATOM     40  O   UNL     1      27.317  -3.627  84.228  1.00  0.00    -0.298 OA
ENDBRANCH   6  39
BRANCH   8  41
ATOM     41  O   UNL     1      22.098  -2.390  83.281  1.00  0.00    -0.504 OA
ATOM     42  H   UNL     1      21.798  -3.045  83.992  1.00  0.00     0.293 HD
ENDBRANCH   8  41
BRANCH   7  43
ATOM     43  O   UNL     1      24.119  -3.784  84.482  1.00  0.00    -0.504 OA
ATOM     44  H   UNL     1      24.761  -4.399  84.962  1.00  0.00     0.293 HD
ENDBRANCH   7  43
TORSDOF 11
ENDMDL
MODEL 9
REMARK VINA RESULT:    -5.213      7.618     11.897
REMARK INTER + INTRA:          -8.193
REMARK INTER:                  -9.668
REMARK INTRA:                   1.475
REMARK UNBOUND:                -0.541
REMARK SMILES Cc1cc2c(C(C)C)c(O)c(O)c(C=O)c2c(O)c1-c1c(C)cc2c(C(C)C)c(O)c(O)c(C=O)c2c1O
REMARK SMILES IDX 1 1 2 2 3 3 4 4 16 5 13 6 11 7 9 8 5 9 17 10 19 11 20 12
REMARK SMILES IDX 37 13 21 14 36 15 23 16 22 17 24 18 33 19 25 20 31 21 29 22
REMARK SMILES IDX 38 23 34 25 35 26 26 27 27 28 28 29 32 30 30 32 18 34 6 36
REMARK SMILES IDX 7 37 8 38 14 39 15 40 10 41 12 43
REMARK H PARENT 38 24 32 31 30 33 18 35 10 42 12 44
REMARK Flexibility Score: inf
ROOT
ATOM      1  C   UNL     1      27.707  -2.022  83.881  1.00  0.00     0.045 C 
ATOM      2  C   UNL     1      27.161  -2.054  82.473  1.00  0.00    -0.039 A 
ATOM      3  C   UNL     1      27.967  -2.518  81.434  1.00  0.00     0.013 A 
ATOM      4  C   UNL     1      27.514  -2.576  80.101  1.00  0.00    -0.006 A 
ATOM      5  C   UNL     1      26.226  -2.036  79.796  1.00  0.00     0.039 A 
ATOM      6  C   UNL     1      25.825  -1.935  78.429  1.00  0.00     0.072 A 
ATOM      7  C   UNL     1      26.685  -2.391  77.410  1.00  0.00     0.169 A 
ATOM      8  C   UNL     1      27.900  -3.006  77.725  1.00  0.00     0.162 A 
ATOM      9  C   UNL     1      28.318  -3.152  79.066  1.00  0.00     0.008 A 
ATOM     10  C   UNL     1      25.375  -1.631  80.870  1.00  0.00     0.132 A 
ATOM     11  C   UNL     1      25.849  -1.640  82.199  1.00  0.00     0.031 A 
ENDROOT
BRANCH  11  12
ATOM     12  C   UNL     1      24.964  -1.209  83.314  1.00  0.00     0.031 A 
ATOM     13  C   UNL     1      23.806  -1.950  83.628  1.00  0.00     0.132 A 
ATOM     14  C   UNL     1      25.307  -0.080  84.075  1.00  0.00    -0.039 A 
ATOM     15  C   UNL     1      22.938  -1.529  84.684  1.00  0.00     0.039 A 
ATOM     16  C   UNL     1      24.485   0.312  85.132  1.00  0.00     0.013 A 
ATOM     17  C   UNL     1      26.582   0.682  83.807  1.00  0.00     0.045 C 
ATOM     18  C   UNL     1      23.273  -0.352  85.423  1.00  0.00    -0.006 A 
ATOM     19  C   UNL     1      21.773  -2.266  85.054  1.00  0.00     0.072 A 
ATOM     20  C   UNL     1      22.412   0.113  86.465  1.00  0.00     0.008 A 
ATOM     21  C   UNL     1      21.022  -1.874  86.181  1.00  0.00     0.169 A 
ATOM     22  C   UNL     1      21.365  -0.726  86.900  1.00  0.00     0.162 A 
BRANCH  13  23
ATOM     23  O   UNL     1      23.527  -3.115  82.904  1.00  0.00    -0.507 OA
ATOM     24  H   UNL     1      22.786  -3.764  83.137  1.00  0.00     0.293 HD
ENDBRANCH  13  23
BRANCH  19  25
ATOM     25  C   UNL     1      21.317  -3.444  84.289  1.00  0.00     0.264 C 
ATOM     26  O   UNL     1      20.372  -3.345  83.462  1.00  0.00    -0.298 OA
ENDBRANCH  19  25
BRANCH  20  27
ATOM     27  C   UNL     1      22.614   1.486  87.132  1.00  0.00     0.017 C 
ATOM     28  C   UNL     1      22.909   2.564  86.084  1.00  0.00     0.012 C 
ATOM     29  C   UNL     1      23.674   1.489  88.250  1.00  0.00     0.012 C 
ENDBRANCH  20  27
BRANCH  21  30
ATOM     30  O   UNL     1      19.895  -2.594  86.599  1.00  0.00    -0.504 OA
ATOM     31  H   UNL     1      19.057  -2.172  86.976  1.00  0.00     0.293 HD
ENDBRANCH  21  30
BRANCH  22  32
ATOM     32  O   UNL     1      20.654  -0.409  88.060  1.00  0.00    -0.504 OA
ATOM     33  H   UNL     1      20.135   0.454  88.172  1.00  0.00     0.293 HD
ENDBRANCH  22  32
ENDBRANCH  11  12
BRANCH  10  34
ATOM     34  O   UNL     1      24.053  -1.243  80.621  1.00  0.00    -0.507 OA
ATOM     35  H   UNL     1      23.253  -1.849  80.744  1.00  0.00     0.293 HD
ENDBRANCH  10  34
BRANCH   9  36
ATOM     36  C   UNL     1      29.621  -3.937  79.321  1.00  0.00     0.017 C 
ATOM     37  C   UNL     1      30.793  -3.402  78.488  1.00  0.00     0.012 C 
ATOM     38  C   UNL     1      29.971  -4.125  80.812  1.00  0.00     0.012 C 
ENDBRANCH   9  36
BRANCH   6  39
ATOM     39  C   UNL     1      24.556  -1.293  78.032  1.00  0.00     0.264 C 
ATOM     40  O   UNL     1      23.556  -1.990  77.713  1.00  0.00    -0.298 OA
ENDBRANCH   6  39
BRANCH   8  41
ATOM     41  O   UNL     1      28.719  -3.467  76.688  1.00  0.00    -0.504 OA
ATOM     42  H   UNL     1      28.516  -4.302  76.152  1.00  0.00     0.293 HD
ENDBRANCH   8  41
BRANCH   7  43
ATOM     43  O   UNL     1      26.368  -2.226  76.055  1.00  0.00    -0.504 OA
ATOM     44  H   UNL     1      25.438  -2.331  75.672  1.00  0.00     0.293 HD
ENDBRANCH   7  43
TORSDOF 11
ENDMDL
