MODEL 1
REMARK VINA RESULT:    -3.805      0.000      0.000
REMARK INTER + INTRA:          -9.689
REMARK INTER:                  -7.364
REMARK INTRA:                  -2.325
REMARK UNBOUND:                -2.325
REMARK SMILES CCCCCCCCCCCCCCCCCC(=O)[O-]
REMARK SMILES IDX 10 1 11 2 12 3 13 4 14 5 15 6 16 7 17 8 18 9 19 10 20 11
REMARK SMILES IDX 9 12 8 13 7 14 6 15 5 16 4 17 3 18 2 19 1 20
REMARK H PARENT
REMARK Flexibility Score: inf
ROOT
ATOM      1  C   UNL     1      32.960  36.055  21.625  1.00  0.00     0.000 C 
ENDROOT
BRANCH   1   2
ATOM      2  C   UNL     1      31.523  36.101  21.076  1.00  0.00     0.000 C 
BRANCH   2   3
ATOM      3  C   UNL     1      31.420  35.528  19.653  1.00  0.00     0.000 C 
BRANCH   3   4
ATOM      4  C   UNL     1      31.074  34.029  19.648  1.00  0.00     0.000 C 
BRANCH   4   5
ATOM      5  C   UNL     1      32.084  33.193  18.846  1.00  0.00     0.000 C 
BRANCH   5   6
ATOM      6  C   UNL     1      33.369  32.890  19.638  1.00  0.00     0.000 C 
BRANCH   6   7
ATOM      7  C   UNL     1      34.365  32.029  18.845  1.00  0.00     0.006 C 
BRANCH   7   8
ATOM      8  C   UNL     1      33.704  31.281  17.680  1.00  0.00     0.053 C 
BRANCH   8   9
ATOM      9  C   UNL     1      34.265  31.742  16.374  1.00  0.00     0.041 C 
ATOM     10  O   UNL     1      34.088  32.929  15.990  1.00  0.00    -0.550 OA
ATOM     11  O   UNL     1      35.017  30.873  15.593  1.00  0.00    -0.550 OA
ENDBRANCH   8   9
ENDBRANCH   7   8
ENDBRANCH   6   7
ENDBRANCH   5   6
ENDBRANCH   4   5
ENDBRANCH   3   4
ENDBRANCH   2   3
ENDBRANCH   1   2
BRANCH   1  12
ATOM     12  C   UNL     1      33.125  35.029  22.757  1.00  0.00     0.000 C 
BRANCH  12  13
ATOM     13  C   UNL     1      31.778  34.538  23.310  1.00  0.00    -0.000 C 
BRANCH  13  14
ATOM     14  C   UNL     1      31.568  33.050  22.998  1.00  0.00    -0.000 C 
BRANCH  14  15
ATOM     15  C   UNL     1      30.080  32.646  22.980  1.00  0.00    -0.000 C 
BRANCH  15  16
ATOM     16  C   UNL     1      29.093  33.787  23.292  1.00  0.00    -0.000 C 
BRANCH  16  17
ATOM     17  C   UNL     1      28.289  34.308  22.085  1.00  0.00    -0.000 C 
BRANCH  17  18
ATOM     18  C   UNL     1      27.802  33.198  21.130  1.00  0.00    -0.000 C 
BRANCH  18  19
ATOM     19  C   UNL     1      27.074  33.757  19.897  1.00  0.00    -0.003 C 
ATOM     20  C   UNL     1      25.646  33.224  19.814  1.00  0.00     0.004 C 
ENDBRANCH  18  19
ENDBRANCH  17  18
ENDBRANCH  16  17
ENDBRANCH  15  16
ENDBRANCH  14  15
ENDBRANCH  13  14
ENDBRANCH  12  13
ENDBRANCH   1  12
TORSDOF 16
ENDMDL
MODEL 2
REMARK VINA RESULT:    -3.797      1.675      2.948
REMARK INTER + INTRA:          -9.674
REMARK INTER:                  -7.008
REMARK INTRA:                  -2.666
REMARK UNBOUND:                -2.325
REMARK SMILES CCCCCCCCCCCCCCCCCC(=O)[O-]
REMARK SMILES IDX 10 1 11 2 12 3 13 4 14 5 15 6 16 7 17 8 18 9 19 10 20 11
REMARK SMILES IDX 9 12 8 13 7 14 6 15 5 16 4 17 3 18 2 19 1 20
REMARK H PARENT
REMARK Flexibility Score: inf
ROOT
ATOM      1  C   UNL     1      32.359  32.813  22.649  1.00  0.00     0.000 C 
ENDROOT
BRANCH   1   2
ATOM      2  C   UNL     1      33.334  33.951  22.298  1.00  0.00     0.000 C 
BRANCH   2   3
ATOM      3  C   UNL     1      33.979  33.767  20.915  1.00  0.00     0.000 C 
BRANCH   3   4
ATOM      4  C   UNL     1      33.999  32.295  20.467  1.00  0.00     0.000 C 
BRANCH   4   5
ATOM      5  C   UNL     1      33.589  32.120  18.996  1.00  0.00     0.000 C 
BRANCH   5   6
ATOM      6  C   UNL     1      33.814  33.392  18.159  1.00  0.00     0.000 C 
BRANCH   6   7
ATOM      7  C   UNL     1      32.850  33.497  16.967  1.00  0.00     0.006 C 
BRANCH   7   8
ATOM      8  C   UNL     1      33.567  33.833  15.654  1.00  0.00     0.053 C 
BRANCH   8   9
ATOM      9  C   UNL     1      33.664  32.622  14.782  1.00  0.00     0.041 C 
ATOM     10  O   UNL     1      34.155  31.553  15.233  1.00  0.00    -0.550 OA
ATOM     11  O   UNL     1      33.176  32.659  13.481  1.00  0.00    -0.550 OA
ENDBRANCH   8   9
ENDBRANCH   7   8
ENDBRANCH   6   7
ENDBRANCH   5   6
ENDBRANCH   4   5
ENDBRANCH   3   4
ENDBRANCH   2   3
ENDBRANCH   1   2
BRANCH   1  12
ATOM     12  C   UNL     1      31.052  33.328  23.271  1.00  0.00     0.000 C 
BRANCH  12  13
ATOM     13  C   UNL     1      29.882  32.349  23.081  1.00  0.00    -0.000 C 
BRANCH  13  14
ATOM     14  C   UNL     1      28.542  33.097  23.047  1.00  0.00    -0.000 C 
BRANCH  14  15
ATOM     15  C   UNL     1      28.710  34.628  23.087  1.00  0.00    -0.000 C 
BRANCH  15  16
ATOM     16  C   UNL     1      27.861  35.403  22.061  1.00  0.00    -0.000 C 
BRANCH  16  17
ATOM     17  C   UNL     1      28.585  35.766  20.749  1.00  0.00    -0.000 C 
BRANCH  17  18
ATOM     18  C   UNL     1      30.121  35.642  20.827  1.00  0.00    -0.000 C 
BRANCH  18  19
ATOM     19  C   UNL     1      30.711  34.854  19.646  1.00  0.00    -0.003 C 
ATOM     20  C   UNL     1      30.194  33.418  19.630  1.00  0.00     0.004 C 
ENDBRANCH  18  19
ENDBRANCH  17  18
ENDBRANCH  16  17
ENDBRANCH  15  16
ENDBRANCH  14  15
ENDBRANCH  13  14
ENDBRANCH  12  13
ENDBRANCH   1  12
TORSDOF 16
ENDMDL
MODEL 3
REMARK VINA RESULT:    -3.788      1.551      3.310
REMARK INTER + INTRA:          -9.655
REMARK INTER:                  -7.592
REMARK INTRA:                  -2.063
REMARK UNBOUND:                -2.325
REMARK SMILES CCCCCCCCCCCCCCCCCC(=O)[O-]
REMARK SMILES IDX 10 1 11 2 12 3 13 4 14 5 15 6 16 7 17 8 18 9 19 10 20 11
REMARK SMILES IDX 9 12 8 13 7 14 6 15 5 16 4 17 3 18 2 19 1 20
REMARK H PARENT
REMARK Flexibility Score: inf
ROOT
ATOM      1  C   UNL     1      28.451  33.329  23.238  1.00  0.00     0.000 C 
ENDROOT
BRANCH   1   2
ATOM      2  C   UNL     1      29.764  32.526  23.218  1.00  0.00     0.000 C 
BRANCH   2   3
ATOM      3  C   UNL     1      30.998  33.422  23.030  1.00  0.00     0.000 C 
BRANCH   3   4
ATOM      4  C   UNL     1      32.270  32.613  22.720  1.00  0.00     0.000 C 
BRANCH   4   5
ATOM      5  C   UNL     1      33.435  33.500  22.254  1.00  0.00     0.000 C 
BRANCH   5   6
ATOM      6  C   UNL     1      33.875  33.198  20.810  1.00  0.00     0.000 C 
BRANCH   6   7
ATOM      7  C   UNL     1      32.888  33.742  19.764  1.00  0.00     0.006 C 
BRANCH   7   8
ATOM      8  C   UNL     1      32.487  32.687  18.725  1.00  0.00     0.053 C 
BRANCH   8   9
ATOM      9  C   UNL     1      33.668  32.288  17.899  1.00  0.00     0.041 C 
ATOM     10  O   UNL     1      34.013  31.079  17.825  1.00  0.00    -0.550 OA
ATOM     11  O   UNL     1      34.369  33.248  17.177  1.00  0.00    -0.550 OA
ENDBRANCH   8   9
ENDBRANCH   7   8
ENDBRANCH   6   7
ENDBRANCH   5   6
ENDBRANCH   4   5
ENDBRANCH   3   4
ENDBRANCH   2   3
ENDBRANCH   1   2
BRANCH   1  12
ATOM     12  C   UNL     1      28.565  34.624  24.058  1.00  0.00     0.000 C 
BRANCH  12  13
ATOM     13  C   UNL     1      28.107  35.862  23.272  1.00  0.00    -0.000 C 
BRANCH  13  14
ATOM     14  C   UNL     1      29.204  36.336  22.309  1.00  0.00    -0.000 C 
BRANCH  14  15
ATOM     15  C   UNL     1      28.824  36.142  20.828  1.00  0.00    -0.000 C 
BRANCH  15  16
ATOM     16  C   UNL     1      29.377  34.861  20.177  1.00  0.00    -0.000 C 
BRANCH  16  17
ATOM     17  C   UNL     1      28.331  33.763  19.896  1.00  0.00    -0.000 C 
BRANCH  17  18
ATOM     18  C   UNL     1      26.870  34.239  20.038  1.00  0.00    -0.000 C 
BRANCH  18  19
ATOM     19  C   UNL     1      25.929  33.121  20.515  1.00  0.00    -0.003 C 
ATOM     20  C   UNL     1      24.878  32.799  19.456  1.00  0.00     0.004 C 
ENDBRANCH  18  19
ENDBRANCH  17  18
ENDBRANCH  16  17
ENDBRANCH  15  16
ENDBRANCH  14  15
ENDBRANCH  13  14
ENDBRANCH  12  13
ENDBRANCH   1  12
TORSDOF 16
ENDMDL
MODEL 4
REMARK VINA RESULT:    -3.701      2.718      3.563
REMARK INTER + INTRA:          -9.487
REMARK INTER:                  -6.368
REMARK INTRA:                  -3.120
REMARK UNBOUND:                -2.325
REMARK SMILES CCCCCCCCCCCCCCCCCC(=O)[O-]
REMARK SMILES IDX 10 1 11 2 12 3 13 4 14 5 15 6 16 7 17 8 18 9 19 10 20 11
REMARK SMILES IDX 9 12 8 13 7 14 6 15 5 16 4 17 3 18 2 19 1 20
REMARK H PARENT
REMARK Flexibility Score: inf
ROOT
ATOM      1  C   UNL     1      31.216  35.367  19.665  1.00  0.00     0.000 C 
ENDROOT
BRANCH   1   2
ATOM      2  C   UNL     1      31.662  34.374  18.577  1.00  0.00     0.000 C 
BRANCH   2   3
ATOM      3  C   UNL     1      31.889  32.958  19.130  1.00  0.00     0.000 C 
BRANCH   3   4
ATOM      4  C   UNL     1      33.258  32.382  18.727  1.00  0.00     0.000 C 
BRANCH   4   5
ATOM      5  C   UNL     1      34.182  32.157  19.935  1.00  0.00     0.000 C 
BRANCH   5   6
ATOM      6  C   UNL     1      33.526  32.554  21.269  1.00  0.00     0.000 C 
BRANCH   6   7
ATOM      7  C   UNL     1      34.479  33.335  22.189  1.00  0.00     0.006 C 
BRANCH   7   8
ATOM      8  C   UNL     1      35.624  34.005  21.420  1.00  0.00     0.053 C 
BRANCH   8   9
ATOM      9  C   UNL     1      36.943  33.444  21.848  1.00  0.00     0.041 C 
ATOM     10  O   UNL     1      37.403  33.704  22.991  1.00  0.00    -0.550 OA
ATOM     11  O   UNL     1      37.649  32.600  20.998  1.00  0.00    -0.550 OA
ENDBRANCH   8   9
ENDBRANCH   7   8
ENDBRANCH   6   7
ENDBRANCH   5   6
ENDBRANCH   4   5
ENDBRANCH   3   4
ENDBRANCH   2   3
ENDBRANCH   1   2
BRANCH   1  12
ATOM     12  C   UNL     1      32.404  35.993  20.413  1.00  0.00     0.000 C 
BRANCH  12  13
ATOM     13  C   UNL     1      32.156  36.102  21.926  1.00  0.00    -0.000 C 
BRANCH  13  14
ATOM     14  C   UNL     1      30.846  35.405  22.318  1.00  0.00    -0.000 C 
BRANCH  14  15
ATOM     15  C   UNL     1      31.053  34.275  23.345  1.00  0.00    -0.000 C 
BRANCH  15  16
ATOM     16  C   UNL     1      30.261  32.985  23.061  1.00  0.00    -0.000 C 
BRANCH  16  17
ATOM     17  C   UNL     1      28.847  33.195  22.485  1.00  0.00    -0.000 C 
BRANCH  17  18
ATOM     18  C   UNL     1      28.688  32.719  21.026  1.00  0.00    -0.000 C 
BRANCH  18  19
ATOM     19  C   UNL     1      27.967  33.750  20.142  1.00  0.00    -0.003 C 
ATOM     20  C   UNL     1      27.424  34.906  20.978  1.00  0.00     0.004 C 
ENDBRANCH  18  19
ENDBRANCH  17  18
ENDBRANCH  16  17
ENDBRANCH  15  16
ENDBRANCH  14  15
ENDBRANCH  13  14
ENDBRANCH  12  13
ENDBRANCH   1  12
TORSDOF 16
ENDMDL
MODEL 5
REMARK VINA RESULT:    -3.676      1.516      2.716
REMARK INTER + INTRA:          -9.439
REMARK INTER:                  -6.542
REMARK INTRA:                  -2.896
REMARK UNBOUND:                -2.325
REMARK SMILES CCCCCCCCCCCCCCCCCC(=O)[O-]
REMARK SMILES IDX 10 1 11 2 12 3 13 4 14 5 15 6 16 7 17 8 18 9 19 10 20 11
REMARK SMILES IDX 9 12 8 13 7 14 6 15 5 16 4 17 3 18 2 19 1 20
REMARK H PARENT
REMARK Flexibility Score: inf
ROOT
ATOM      1  C   UNL     1      32.751  35.293  22.901  1.00  0.00     0.000 C 
ENDROOT
BRANCH   1   2
ATOM      2  C   UNL     1      32.242  36.236  21.797  1.00  0.00     0.000 C 
BRANCH   2   3
ATOM      3  C   UNL     1      33.012  36.065  20.477  1.00  0.00     0.000 C 
BRANCH   3   4
ATOM      4  C   UNL     1      32.080  35.786  19.285  1.00  0.00     0.000 C 
BRANCH   4   5
ATOM      5  C   UNL     1      30.823  35.000  19.690  1.00  0.00     0.000 C 
BRANCH   5   6
ATOM      6  C   UNL     1      30.911  33.507  19.327  1.00  0.00     0.000 C 
BRANCH   6   7
ATOM      7  C   UNL     1      32.058  33.200  18.352  1.00  0.00     0.006 C 
BRANCH   7   8
ATOM      8  C   UNL     1      33.066  32.195  18.923  1.00  0.00     0.053 C 
BRANCH   8   9
ATOM      9  C   UNL     1      34.257  32.078  18.027  1.00  0.00     0.041 C 
ATOM     10  O   UNL     1      35.327  32.680  18.311  1.00  0.00    -0.550 OA
ATOM     11  O   UNL     1      34.201  31.273  16.895  1.00  0.00    -0.550 OA
ENDBRANCH   8   9
ENDBRANCH   7   8
ENDBRANCH   6   7
ENDBRANCH   5   6
ENDBRANCH   4   5
ENDBRANCH   3   4
ENDBRANCH   2   3
ENDBRANCH   1   2
BRANCH   1  12
ATOM     12  C   UNL     1      33.331  33.986  22.339  1.00  0.00     0.000 C 
BRANCH  12  13
ATOM     13  C   UNL     1      32.388  32.788  22.539  1.00  0.00    -0.000 C 
BRANCH  13  14
ATOM     14  C   UNL     1      31.137  33.202  23.326  1.00  0.00    -0.000 C 
BRANCH  14  15
ATOM     15  C   UNL     1      29.851  32.534  22.801  1.00  0.00    -0.000 C 
BRANCH  15  16
ATOM     16  C   UNL     1      28.546  33.274  23.147  1.00  0.00    -0.000 C 
BRANCH  16  17
ATOM     17  C   UNL     1      28.326  34.603  22.399  1.00  0.00    -0.000 C 
BRANCH  17  18
ATOM     18  C   UNL     1      28.140  35.822  23.328  1.00  0.00    -0.000 C 
BRANCH  18  19
ATOM     19  C   UNL     1      28.520  35.517  24.785  1.00  0.00    -0.003 C 
ATOM     20  C   UNL     1      29.847  36.173  25.156  1.00  0.00     0.004 C 
ENDBRANCH  18  19
ENDBRANCH  17  18
ENDBRANCH  16  17
ENDBRANCH  15  16
ENDBRANCH  14  15
ENDBRANCH  13  14
ENDBRANCH  12  13
ENDBRANCH   1  12
TORSDOF 16
ENDMDL
MODEL 6
REMARK VINA RESULT:    -3.655      1.437      2.784
REMARK INTER + INTRA:          -9.398
REMARK INTER:                  -6.800
REMARK INTRA:                  -2.598
REMARK UNBOUND:                -2.325
REMARK SMILES CCCCCCCCCCCCCCCCCC(=O)[O-]
REMARK SMILES IDX 10 1 11 2 12 3 13 4 14 5 15 6 16 7 17 8 18 9 19 10 20 11
REMARK SMILES IDX 9 12 8 13 7 14 6 15 5 16 4 17 3 18 2 19 1 20
REMARK H PARENT
REMARK Flexibility Score: inf
ROOT
ATOM      1  C   UNL     1      31.001  35.316  20.730  1.00  0.00     0.000 C 
ENDROOT
BRANCH   1   2
ATOM      2  C   UNL     1      32.396  35.267  21.378  1.00  0.00     0.000 C 
BRANCH   2   3
ATOM      3  C   UNL     1      32.465  34.275  22.550  1.00  0.00     0.000 C 
BRANCH   3   4
ATOM      4  C   UNL     1      33.500  33.160  22.315  1.00  0.00     0.000 C 
BRANCH   4   5
ATOM      5  C   UNL     1      34.150  33.241  20.925  1.00  0.00     0.000 C 
BRANCH   5   6
ATOM      6  C   UNL     1      34.020  31.930  20.129  1.00  0.00     0.000 C 
BRANCH   6   7
ATOM      7  C   UNL     1      33.399  32.140  18.738  1.00  0.00     0.006 C 
BRANCH   7   8
ATOM      8  C   UNL     1      34.063  31.276  17.659  1.00  0.00     0.053 C 
BRANCH   8   9
ATOM      9  C   UNL     1      34.432  32.110  16.473  1.00  0.00     0.041 C 
ATOM     10  O   UNL     1      35.640  32.236  16.138  1.00  0.00    -0.550 OA
ATOM     11  O   UNL     1      33.440  32.718  15.713  1.00  0.00    -0.550 OA
ENDBRANCH   8   9
ENDBRANCH   7   8
ENDBRANCH   6   7
ENDBRANCH   5   6
ENDBRANCH   4   5
ENDBRANCH   3   4
ENDBRANCH   2   3
ENDBRANCH   1   2
BRANCH   1  12
ATOM     12  C   UNL     1      30.557  33.950  20.183  1.00  0.00     0.000 C 
BRANCH  12  13
ATOM     13  C   UNL     1      29.031  33.835  20.051  1.00  0.00    -0.000 C 
BRANCH  13  14
ATOM     14  C   UNL     1      28.488  32.711  20.945  1.00  0.00    -0.000 C 
BRANCH  14  15
ATOM     15  C   UNL     1      29.078  32.740  22.368  1.00  0.00    -0.000 C 
BRANCH  15  16
ATOM     16  C   UNL     1      28.305  33.612  23.375  1.00  0.00    -0.000 C 
BRANCH  16  17
ATOM     17  C   UNL     1      29.117  34.757  24.013  1.00  0.00    -0.000 C 
BRANCH  17  18
ATOM     18  C   UNL     1      28.769  36.155  23.461  1.00  0.00    -0.000 C 
BRANCH  18  19
ATOM     19  C   UNL     1      27.561  36.132  22.511  1.00  0.00    -0.003 C 
ATOM     20  C   UNL     1      27.756  37.104  21.351  1.00  0.00     0.004 C 
ENDBRANCH  18  19
ENDBRANCH  17  18
ENDBRANCH  16  17
ENDBRANCH  15  16
ENDBRANCH  14  15
ENDBRANCH  13  14
ENDBRANCH  12  13
ENDBRANCH   1  12
TORSDOF 16
ENDMDL
MODEL 7
REMARK VINA RESULT:    -3.621      1.792      3.851
REMARK INTER + INTRA:          -9.332
REMARK INTER:                  -6.002
REMARK INTRA:                  -3.329
REMARK UNBOUND:                -2.325
REMARK SMILES CCCCCCCCCCCCCCCCCC(=O)[O-]
REMARK SMILES IDX 10 1 11 2 12 3 13 4 14 5 15 6 16 7 17 8 18 9 19 10 20 11
REMARK SMILES IDX 9 12 8 13 7 14 6 15 5 16 4 17 3 18 2 19 1 20
REMARK H PARENT
REMARK Flexibility Score: inf
ROOT
ATOM      1  C   UNL     1      30.936  32.654  23.131  1.00  0.00     0.000 C 
ENDROOT
BRANCH   1   2
ATOM      2  C   UNL     1      31.455  33.805  22.252  1.00  0.00     0.000 C 
BRANCH   2   3
ATOM      3  C   UNL     1      32.840  34.305  22.696  1.00  0.00     0.000 C 
BRANCH   3   4
ATOM      4  C   UNL     1      33.430  35.341  21.722  1.00  0.00     0.000 C 
BRANCH   4   5
ATOM      5  C   UNL     1      32.408  35.820  20.679  1.00  0.00     0.000 C 
BRANCH   5   6
ATOM      6  C   UNL     1      32.843  35.516  19.235  1.00  0.00     0.000 C 
BRANCH   6   7
ATOM      7  C   UNL     1      31.777  34.741  18.445  1.00  0.00     0.006 C 
BRANCH   7   8
ATOM      8  C   UNL     1      31.657  33.279  18.893  1.00  0.00     0.053 C 
BRANCH   8   9
ATOM      9  C   UNL     1      32.975  32.583  18.774  1.00  0.00     0.041 C 
ATOM     10  O   UNL     1      33.492  32.392  17.642  1.00  0.00    -0.550 OA
ATOM     11  O   UNL     1      33.654  32.177  19.917  1.00  0.00    -0.550 OA
ENDBRANCH   8   9
ENDBRANCH   7   8
ENDBRANCH   6   7
ENDBRANCH   5   6
ENDBRANCH   4   5
ENDBRANCH   3   4
ENDBRANCH   2   3
ENDBRANCH   1   2
BRANCH   1  12
ATOM     12  C   UNL     1      29.411  32.486  23.041  1.00  0.00     0.000 C 
BRANCH  12  13
ATOM     13  C   UNL     1      28.906  32.453  21.590  1.00  0.00    -0.000 C 
BRANCH  13  14
ATOM     14  C   UNL     1      27.909  33.591  21.331  1.00  0.00    -0.000 C 
BRANCH  14  15
ATOM     15  C   UNL     1      28.406  34.593  20.271  1.00  0.00    -0.000 C 
BRANCH  15  16
ATOM     16  C   UNL     1      28.700  36.009  20.802  1.00  0.00    -0.000 C 
BRANCH  16  17
ATOM     17  C   UNL     1      28.397  36.225  22.298  1.00  0.00    -0.000 C 
BRANCH  17  18
ATOM     18  C   UNL     1      29.615  36.695  23.121  1.00  0.00    -0.000 C 
BRANCH  18  19
ATOM     19  C   UNL     1      29.663  36.060  24.520  1.00  0.00    -0.003 C 
ATOM     20  C   UNL     1      28.305  35.484  24.910  1.00  0.00     0.004 C 
ENDBRANCH  18  19
ENDBRANCH  17  18
ENDBRANCH  16  17
ENDBRANCH  15  16
ENDBRANCH  14  15
ENDBRANCH  13  14
ENDBRANCH  12  13
ENDBRANCH   1  12
TORSDOF 16
ENDMDL
MODEL 8
REMARK VINA RESULT:    -3.620      3.629      6.452
REMARK INTER + INTRA:          -9.330
REMARK INTER:                  -6.588
REMARK INTRA:                  -2.742
REMARK UNBOUND:                -2.325
REMARK SMILES CCCCCCCCCCCCCCCCCC(=O)[O-]
REMARK SMILES IDX 10 1 11 2 12 3 13 4 14 5 15 6 16 7 17 8 18 9 19 10 20 11
REMARK SMILES IDX 9 12 8 13 7 14 6 15 5 16 4 17 3 18 2 19 1 20
REMARK H PARENT
REMARK Flexibility Score: inf
ROOT
ATOM      1  C   UNL     1      31.189  33.980  22.442  1.00  0.00     0.000 C 
ENDROOT
BRANCH   1   2
ATOM      2  C   UNL     1      30.455  32.766  23.038  1.00  0.00     0.000 C 
BRANCH   2   3
ATOM      3  C   UNL     1      28.947  32.787  22.743  1.00  0.00     0.000 C 
BRANCH   3   4
ATOM      4  C   UNL     1      28.644  32.753  21.234  1.00  0.00     0.000 C 
BRANCH   4   5
ATOM      5  C   UNL     1      27.307  33.427  20.885  1.00  0.00     0.000 C 
BRANCH   5   6
ATOM      6  C   UNL     1      27.484  34.702  20.042  1.00  0.00     0.000 C 
BRANCH   6   7
ATOM      7  C   UNL     1      27.300  35.988  20.865  1.00  0.00     0.006 C 
BRANCH   7   8
ATOM      8  C   UNL     1      28.617  36.500  21.462  1.00  0.00     0.053 C 
BRANCH   8   9
ATOM      9  C   UNL     1      28.512  36.606  22.950  1.00  0.00     0.041 C 
ATOM     10  O   UNL     1      29.545  36.782  23.649  1.00  0.00    -0.550 OA
ATOM     11  O   UNL     1      27.267  36.549  23.566  1.00  0.00    -0.550 OA
ENDBRANCH   8   9
ENDBRANCH   7   8
ENDBRANCH   6   7
ENDBRANCH   5   6
ENDBRANCH   4   5
ENDBRANCH   3   4
ENDBRANCH   2   3
ENDBRANCH   1   2
BRANCH   1  12
ATOM     12  C   UNL     1      32.710  33.909  22.651  1.00  0.00     0.000 C 
BRANCH  12  13
ATOM     13  C   UNL     1      33.351  32.718  21.921  1.00  0.00    -0.000 C 
BRANCH  13  14
ATOM     14  C   UNL     1      34.655  33.138  21.228  1.00  0.00    -0.000 C 
BRANCH  14  15
ATOM     15  C   UNL     1      34.815  32.515  19.828  1.00  0.00    -0.000 C 
BRANCH  15  16
ATOM     16  C   UNL     1      33.515  31.977  19.203  1.00  0.00    -0.000 C 
BRANCH  16  17
ATOM     17  C   UNL     1      32.776  32.961  18.273  1.00  0.00    -0.000 C 
BRANCH  17  18
ATOM     18  C   UNL     1      31.371  33.359  18.773  1.00  0.00    -0.000 C 
BRANCH  18  19
ATOM     19  C   UNL     1      31.278  34.845  19.152  1.00  0.00    -0.003 C 
ATOM     20  C   UNL     1      32.638  35.528  19.037  1.00  0.00     0.004 C 
ENDBRANCH  18  19
ENDBRANCH  17  18
ENDBRANCH  16  17
ENDBRANCH  15  16
ENDBRANCH  14  15
ENDBRANCH  13  14
ENDBRANCH  12  13
ENDBRANCH   1  12
TORSDOF 16
ENDMDL
MODEL 9
REMARK VINA RESULT:    -3.392      1.489      2.572
REMARK INTER + INTRA:          -8.889
REMARK INTER:                  -7.444
REMARK INTRA:                  -1.445
REMARK UNBOUND:                -2.325
REMARK SMILES CCCCCCCCCCCCCCCCCC(=O)[O-]
REMARK SMILES IDX 10 1 11 2 12 3 13 4 14 5 15 6 16 7 17 8 18 9 19 10 20 11
REMARK SMILES IDX 9 12 8 13 7 14 6 15 5 16 4 17 3 18 2 19 1 20
REMARK H PARENT
REMARK Flexibility Score: inf
ROOT
ATOM      1  C   UNL     1      31.251  34.297  23.335  1.00  0.00     0.000 C 
ENDROOT
BRANCH   1   2
ATOM      2  C   UNL     1      32.628  34.292  22.648  1.00  0.00     0.000 C 
BRANCH   2   3
ATOM      3  C   UNL     1      33.076  32.879  22.240  1.00  0.00     0.000 C 
BRANCH   3   4
ATOM      4  C   UNL     1      33.657  32.836  20.815  1.00  0.00     0.000 C 
BRANCH   4   5
ATOM      5  C   UNL     1      32.847  33.686  19.822  1.00  0.00     0.000 C 
BRANCH   5   6
ATOM      6  C   UNL     1      32.362  32.878  18.604  1.00  0.00     0.000 C 
BRANCH   6   7
ATOM      7  C   UNL     1      32.753  33.529  17.268  1.00  0.00     0.006 C 
BRANCH   7   8
ATOM      8  C   UNL     1      34.143  33.095  16.783  1.00  0.00     0.053 C 
BRANCH   8   9
ATOM      9  C   UNL     1      34.024  32.065  15.705  1.00  0.00     0.041 C 
ATOM     10  O   UNL     1      34.294  30.859  15.947  1.00  0.00    -0.550 OA
ATOM     11  O   UNL     1      33.580  32.430  14.439  1.00  0.00    -0.550 OA
ENDBRANCH   8   9
ENDBRANCH   7   8
ENDBRANCH   6   7
ENDBRANCH   5   6
ENDBRANCH   4   5
ENDBRANCH   3   4
ENDBRANCH   2   3
ENDBRANCH   1   2
BRANCH   1  12
ATOM     12  C   UNL     1      30.426  33.042  23.009  1.00  0.00     0.000 C 
BRANCH  12  13
ATOM     13  C   UNL     1      28.919  33.257  23.220  1.00  0.00    -0.000 C 
BRANCH  13  14
ATOM     14  C   UNL     1      28.640  34.646  23.810  1.00  0.00    -0.000 C 
BRANCH  14  15
ATOM     15  C   UNL     1      27.787  35.531  22.881  1.00  0.00    -0.000 C 
BRANCH  15  16
ATOM     16  C   UNL     1      28.476  35.953  21.570  1.00  0.00    -0.000 C 
BRANCH  16  17
ATOM     17  C   UNL     1      28.225  35.022  20.367  1.00  0.00    -0.000 C 
BRANCH  17  18
ATOM     18  C   UNL     1      26.732  34.787  20.058  1.00  0.00    -0.000 C 
BRANCH  18  19
ATOM     19  C   UNL     1      26.340  33.302  20.127  1.00  0.00    -0.003 C 
ATOM     20  C   UNL     1      24.875  33.102  19.749  1.00  0.00     0.004 C 
ENDBRANCH  18  19
ENDBRANCH  17  18
ENDBRANCH  16  17
ENDBRANCH  15  16
ENDBRANCH  14  15
ENDBRANCH  13  14
ENDBRANCH  12  13
ENDBRANCH   1  12
TORSDOF 16
ENDMDL
