MODEL 1
REMARK VINA RESULT:    -4.099      0.000      0.000
REMARK INTER + INTRA:          -6.657
REMARK INTER:                  -6.255
REMARK INTRA:                  -0.402
REMARK UNBOUND:                -0.402
REMARK SMILES O=C([O-])CCCCCCCCC(=O)[O-]
REMARK SMILES IDX 7 1 6 2 5 3 4 4 2 5 1 6 3 7 8 8 9 9 10 10 11 11 12 12 13 13
REMARK SMILES IDX 14 14
REMARK H PARENT
REMARK Flexibility Score: inf
ROOT
ATOM      1  C   UNL     1     -11.862   3.699 -41.330  1.00  0.00     0.000 C 
ENDROOT
BRANCH   1   2
ATOM      2  C   UNL     1     -11.190   2.318 -41.413  1.00  0.00     0.000 C 
BRANCH   2   3
ATOM      3  C   UNL     1     -12.153   1.168 -41.069  1.00  0.00     0.006 C 
BRANCH   3   4
ATOM      4  C   UNL     1     -11.407  -0.131 -40.736  1.00  0.00     0.053 C 
BRANCH   4   5
ATOM      5  C   UNL     1     -12.329  -1.182 -40.198  1.00  0.00     0.041 C 
ATOM      6  O   UNL     1     -11.865  -2.166 -39.564  1.00  0.00    -0.550 OA
ATOM      7  O   UNL     1     -13.702  -1.060 -40.373  1.00  0.00    -0.550 OA
ENDBRANCH   4   5
ENDBRANCH   3   4
ENDBRANCH   2   3
ENDBRANCH   1   2
BRANCH   1   8
ATOM      8  C   UNL     1     -13.295   3.626 -40.776  1.00  0.00     0.000 C 
BRANCH   8   9
ATOM      9  C   UNL     1     -13.986   4.999 -40.745  1.00  0.00     0.000 C 
BRANCH   9  10
ATOM     10  C   UNL     1     -15.335   5.003 -41.486  1.00  0.00     0.006 C 
BRANCH  10  11
ATOM     11  C   UNL     1     -16.524   4.904 -40.523  1.00  0.00     0.053 C 
BRANCH  11  12
ATOM     12  C   UNL     1     -17.317   3.652 -40.747  1.00  0.00     0.041 C 
ATOM     13  O   UNL     1     -17.020   2.595 -40.132  1.00  0.00    -0.550 OA
ATOM     14  O   UNL     1     -18.362   3.646 -41.662  1.00  0.00    -0.550 OA
ENDBRANCH  11  12
ENDBRANCH  10  11
ENDBRANCH   9  10
ENDBRANCH   8   9
ENDBRANCH   1   8
TORSDOF 9
ENDMDL
MODEL 2
REMARK VINA RESULT:    -4.093      0.824      6.005
REMARK INTER + INTRA:          -6.648
REMARK INTER:                  -6.300
REMARK INTRA:                  -0.348
REMARK UNBOUND:                -0.402
REMARK SMILES O=C([O-])CCCCCCCCC(=O)[O-]
REMARK SMILES IDX 7 1 6 2 5 3 4 4 2 5 1 6 3 7 8 8 9 9 10 10 11 11 12 12 13 13
REMARK SMILES IDX 14 14
REMARK H PARENT
REMARK Flexibility Score: inf
ROOT
ATOM      1  C   UNL     1     -13.738   4.119 -40.706  1.00  0.00     0.000 C 
ENDROOT
BRANCH   1   2
ATOM      2  C   UNL     1     -14.480   5.452 -40.902  1.00  0.00     0.000 C 
BRANCH   2   3
ATOM      3  C   UNL     1     -15.913   5.261 -41.429  1.00  0.00     0.006 C 
BRANCH   3   4
ATOM      4  C   UNL     1     -16.860   4.722 -40.347  1.00  0.00     0.053 C 
BRANCH   4   5
ATOM      5  C   UNL     1     -17.574   3.485 -40.797  1.00  0.00     0.041 C 
ATOM      6  O   UNL     1     -18.315   3.516 -41.815  1.00  0.00    -0.550 OA
ATOM      7  O   UNL     1     -17.399   2.290 -40.110  1.00  0.00    -0.550 OA
ENDBRANCH   4   5
ENDBRANCH   3   4
ENDBRANCH   2   3
ENDBRANCH   1   2
BRANCH   1   8
ATOM      8  C   UNL     1     -12.213   4.299 -40.623  1.00  0.00     0.000 C 
BRANCH   8   9
ATOM      9  C   UNL     1     -11.484   2.992 -40.271  1.00  0.00     0.000 C 
BRANCH   9  10
ATOM     10  C   UNL     1     -12.009   1.785 -41.070  1.00  0.00     0.006 C 
BRANCH  10  11
ATOM     11  C   UNL     1     -10.977   0.654 -41.153  1.00  0.00     0.053 C 
BRANCH  11  12
ATOM     12  C   UNL     1     -11.567  -0.665 -40.754  1.00  0.00     0.041 C 
ATOM     13  O   UNL     1     -10.836  -1.685 -40.663  1.00  0.00    -0.550 OA
ATOM     14  O   UNL     1     -12.932  -0.772 -40.519  1.00  0.00    -0.550 OA
ENDBRANCH  11  12
ENDBRANCH  10  11
ENDBRANCH   9  10
ENDBRANCH   8   9
ENDBRANCH   1   8
TORSDOF 9
ENDMDL
MODEL 3
REMARK VINA RESULT:    -4.052      1.463      6.322
REMARK INTER + INTRA:          -6.587
REMARK INTER:                  -6.247
REMARK INTRA:                  -0.340
REMARK UNBOUND:                -0.402
REMARK SMILES O=C([O-])CCCCCCCCC(=O)[O-]
REMARK SMILES IDX 7 1 6 2 5 3 4 4 2 5 1 6 3 7 8 8 9 9 10 10 11 11 12 12 13 13
REMARK SMILES IDX 14 14
REMARK H PARENT
REMARK Flexibility Score: inf
ROOT
ATOM      1  C   UNL     1     -11.373   2.161 -40.714  1.00  0.00     0.000 C 
ENDROOT
BRANCH   1   2
ATOM      2  C   UNL     1     -12.186   3.265 -41.412  1.00  0.00     0.000 C 
BRANCH   2   3
ATOM      3  C   UNL     1     -13.396   3.725 -40.581  1.00  0.00     0.006 C 
BRANCH   3   4
ATOM      4  C   UNL     1     -13.813   5.165 -40.913  1.00  0.00     0.053 C 
BRANCH   4   5
ATOM      5  C   UNL     1     -15.295   5.291 -41.088  1.00  0.00     0.041 C 
ATOM      6  O   UNL     1     -15.772   6.211 -41.802  1.00  0.00    -0.550 OA
ATOM      7  O   UNL     1     -16.148   4.375 -40.485  1.00  0.00    -0.550 OA
ENDBRANCH   4   5
ENDBRANCH   3   4
ENDBRANCH   2   3
ENDBRANCH   1   2
BRANCH   1   8
ATOM      8  C   UNL     1     -11.895   0.750 -41.035  1.00  0.00     0.000 C 
BRANCH   8   9
ATOM      9  C   UNL     1     -10.762  -0.278 -41.182  1.00  0.00     0.000 C 
BRANCH   9  10
ATOM     10  C   UNL     1     -11.049  -1.590 -40.428  1.00  0.00     0.006 C 
BRANCH  10  11
ATOM     11  C   UNL     1     -12.098  -1.405 -39.325  1.00  0.00     0.053 C 
BRANCH  11  12
ATOM     12  C   UNL     1     -13.310  -2.254 -39.565  1.00  0.00     0.041 C 
ATOM     13  O   UNL     1     -14.325  -1.766 -40.126  1.00  0.00    -0.550 OA
ATOM     14  O   UNL     1     -13.329  -3.574 -39.135  1.00  0.00    -0.550 OA
ENDBRANCH  11  12
ENDBRANCH  10  11
ENDBRANCH   9  10
ENDBRANCH   8   9
ENDBRANCH   1   8
TORSDOF 9
ENDMDL
MODEL 4
REMARK VINA RESULT:    -4.044      1.393      2.178
REMARK INTER + INTRA:          -6.574
REMARK INTER:                  -6.180
REMARK INTRA:                  -0.394
REMARK UNBOUND:                -0.402
REMARK SMILES O=C([O-])CCCCCCCCC(=O)[O-]
REMARK SMILES IDX 7 1 6 2 5 3 4 4 2 5 1 6 3 7 8 8 9 9 10 10 11 11 12 12 13 13
REMARK SMILES IDX 14 14
REMARK H PARENT
REMARK Flexibility Score: inf
ROOT
ATOM      1  C   UNL     1     -10.787   2.322 -41.205  1.00  0.00     0.000 C 
ENDROOT
BRANCH   1   2
ATOM      2  C   UNL     1     -10.818   0.785 -41.176  1.00  0.00     0.000 C 
BRANCH   2   3
ATOM      3  C   UNL     1     -12.186   0.228 -40.749  1.00  0.00     0.006 C 
BRANCH   3   4
ATOM      4  C   UNL     1     -12.065  -1.135 -40.053  1.00  0.00     0.053 C 
BRANCH   4   5
ATOM      5  C   UNL     1     -13.402  -1.776 -39.843  1.00  0.00     0.041 C 
ATOM      6  O   UNL     1     -14.444  -1.225 -40.285  1.00  0.00    -0.550 OA
ATOM      7  O   UNL     1     -13.495  -2.996 -39.185  1.00  0.00    -0.550 OA
ENDBRANCH   4   5
ENDBRANCH   3   4
ENDBRANCH   2   3
ENDBRANCH   1   2
BRANCH   1   8
ATOM      8  C   UNL     1     -12.193   2.941 -41.280  1.00  0.00     0.000 C 
BRANCH   8   9
ATOM      9  C   UNL     1     -12.302   4.029 -42.359  1.00  0.00     0.000 C 
BRANCH   9  10
ATOM     10  C   UNL     1     -13.648   4.776 -42.316  1.00  0.00     0.006 C 
BRANCH  10  11
ATOM     11  C   UNL     1     -14.079   5.107 -40.882  1.00  0.00     0.053 C 
BRANCH  11  12
ATOM     12  C   UNL     1     -15.569   5.073 -40.729  1.00  0.00     0.041 C 
ATOM     13  O   UNL     1     -16.244   6.128 -40.853  1.00  0.00    -0.550 OA
ATOM     14  O   UNL     1     -16.208   3.880 -40.415  1.00  0.00    -0.550 OA
ENDBRANCH  11  12
ENDBRANCH  10  11
ENDBRANCH   9  10
ENDBRANCH   8   9
ENDBRANCH   1   8
TORSDOF 9
ENDMDL
MODEL 5
REMARK VINA RESULT:    -4.025      1.131      1.631
REMARK INTER + INTRA:          -6.545
REMARK INTER:                  -6.316
REMARK INTRA:                  -0.228
REMARK UNBOUND:                -0.402
REMARK SMILES O=C([O-])CCCCCCCCC(=O)[O-]
REMARK SMILES IDX 7 1 6 2 5 3 4 4 2 5 1 6 3 7 8 8 9 9 10 10 11 11 12 12 13 13
REMARK SMILES IDX 14 14
REMARK H PARENT
REMARK Flexibility Score: inf
ROOT
ATOM      1  C   UNL     1     -12.454   3.435 -40.729  1.00  0.00     0.000 C 
ENDROOT
BRANCH   1   2
ATOM      2  C   UNL     1     -11.620   2.452 -41.567  1.00  0.00     0.000 C 
BRANCH   2   3
ATOM      3  C   UNL     1     -11.727   1.002 -41.063  1.00  0.00     0.006 C 
BRANCH   3   4
ATOM      4  C   UNL     1     -10.413   0.229 -41.239  1.00  0.00     0.053 C 
BRANCH   4   5
ATOM      5  C   UNL     1     -10.607  -1.247 -41.074  1.00  0.00     0.041 C 
ATOM      6  O   UNL     1     -11.510  -1.685 -40.315  1.00  0.00    -0.550 OA
ATOM      7  O   UNL     1      -9.810  -2.138 -41.782  1.00  0.00    -0.550 OA
ENDBRANCH   4   5
ENDBRANCH   3   4
ENDBRANCH   2   3
ENDBRANCH   1   2
BRANCH   1   8
ATOM      8  C   UNL     1     -13.247   4.427 -41.597  1.00  0.00     0.000 C 
BRANCH   8   9
ATOM      9  C   UNL     1     -14.170   5.331 -40.765  1.00  0.00     0.000 C 
BRANCH   9  10
ATOM     10  C   UNL     1     -15.594   5.418 -41.342  1.00  0.00     0.006 C 
BRANCH  10  11
ATOM     11  C   UNL     1     -16.643   4.840 -40.384  1.00  0.00     0.053 C 
BRANCH  11  12
ATOM     12  C   UNL     1     -17.462   3.770 -41.039  1.00  0.00     0.041 C 
ATOM     13  O   UNL     1     -17.825   3.893 -42.238  1.00  0.00    -0.550 OA
ATOM     14  O   UNL     1     -17.855   2.653 -40.312  1.00  0.00    -0.550 OA
ENDBRANCH  11  12
ENDBRANCH  10  11
ENDBRANCH   9  10
ENDBRANCH   8   9
ENDBRANCH   1   8
TORSDOF 9
ENDMDL
MODEL 6
REMARK VINA RESULT:    -3.977      4.132      5.600
REMARK INTER + INTRA:          -6.472
REMARK INTER:                  -5.323
REMARK INTRA:                  -1.148
REMARK UNBOUND:                -0.402
REMARK SMILES O=C([O-])CCCCCCCCC(=O)[O-]
REMARK SMILES IDX 7 1 6 2 5 3 4 4 2 5 1 6 3 7 8 8 9 9 10 10 11 11 12 12 13 13
REMARK SMILES IDX 14 14
REMARK H PARENT
REMARK Flexibility Score: inf
ROOT
ATOM      1  C   UNL     1     -17.763   6.950 -43.641  1.00  0.00     0.000 C 
ENDROOT
BRANCH   1   2
ATOM      2  C   UNL     1     -16.650   6.390 -44.543  1.00  0.00     0.000 C 
BRANCH   2   3
ATOM      3  C   UNL     1     -15.991   5.129 -43.958  1.00  0.00     0.006 C 
BRANCH   3   4
ATOM      4  C   UNL     1     -14.476   5.298 -43.776  1.00  0.00     0.053 C 
BRANCH   4   5
ATOM      5  C   UNL     1     -14.111   5.552 -42.346  1.00  0.00     0.041 C 
ATOM      6  O   UNL     1     -14.135   6.723 -41.885  1.00  0.00    -0.550 OA
ATOM      7  O   UNL     1     -13.772   4.492 -41.514  1.00  0.00    -0.550 OA
ENDBRANCH   4   5
ENDBRANCH   3   4
ENDBRANCH   2   3
ENDBRANCH   1   2
BRANCH   1   8
ATOM      8  C   UNL     1     -17.267   8.082 -42.725  1.00  0.00     0.000 C 
BRANCH   8   9
ATOM      9  C   UNL     1     -17.482   7.770 -41.235  1.00  0.00     0.000 C 
BRANCH   9  10
ATOM     10  C   UNL     1     -18.105   6.381 -41.003  1.00  0.00     0.006 C 
BRANCH  10  11
ATOM     11  C   UNL     1     -17.114   5.404 -40.357  1.00  0.00     0.053 C 
BRANCH  11  12
ATOM     12  C   UNL     1     -17.377   3.990 -40.778  1.00  0.00     0.041 C 
ATOM     13  O   UNL     1     -16.686   3.049 -40.306  1.00  0.00    -0.550 OA
ATOM     14  O   UNL     1     -18.361   3.716 -41.719  1.00  0.00    -0.550 OA
ENDBRANCH  11  12
ENDBRANCH  10  11
ENDBRANCH   9  10
ENDBRANCH   8   9
ENDBRANCH   1   8
TORSDOF 9
ENDMDL
MODEL 7
REMARK VINA RESULT:    -3.940      3.276      7.368
REMARK INTER + INTRA:          -6.415
REMARK INTER:                  -5.601
REMARK INTRA:                  -0.814
REMARK UNBOUND:                -0.402
REMARK SMILES O=C([O-])CCCCCCCCC(=O)[O-]
REMARK SMILES IDX 7 1 6 2 5 3 4 4 2 5 1 6 3 7 8 8 9 9 10 10 11 11 12 12 13 13
REMARK SMILES IDX 14 14
REMARK H PARENT
REMARK Flexibility Score: inf
ROOT
ATOM      1  C   UNL     1     -12.033  -0.702 -40.722  1.00  0.00     0.000 C 
ENDROOT
BRANCH   1   2
ATOM      2  C   UNL     1     -11.307   0.577 -40.273  1.00  0.00     0.000 C 
BRANCH   2   3
ATOM      3  C   UNL     1     -10.911   1.479 -41.455  1.00  0.00     0.006 C 
BRANCH   3   4
ATOM      4  C   UNL     1     -11.003   2.970 -41.101  1.00  0.00     0.053 C 
BRANCH   4   5
ATOM      5  C   UNL     1     -12.294   3.574 -41.563  1.00  0.00     0.041 C 
ATOM      6  O   UNL     1     -12.469   3.838 -42.781  1.00  0.00    -0.550 OA
ATOM      7  O   UNL     1     -13.315   3.818 -40.652  1.00  0.00    -0.550 OA
ENDBRANCH   4   5
ENDBRANCH   3   4
ENDBRANCH   2   3
ENDBRANCH   1   2
BRANCH   1   8
ATOM      8  C   UNL     1     -12.047  -1.788 -39.632  1.00  0.00     0.000 C 
BRANCH   8   9
ATOM      9  C   UNL     1     -10.716  -1.871 -38.867  1.00  0.00     0.000 C 
BRANCH   9  10
ATOM     10  C   UNL     1      -9.687  -2.780 -39.563  1.00  0.00     0.006 C 
BRANCH  10  11
ATOM     11  C   UNL     1      -8.354  -2.062 -39.808  1.00  0.00     0.053 C 
BRANCH  11  12
ATOM     12  C   UNL     1      -8.316  -1.409 -41.157  1.00  0.00     0.041 C 
ATOM     13  O   UNL     1      -7.687  -0.331 -41.322  1.00  0.00    -0.550 OA
ATOM     14  O   UNL     1      -9.006  -1.974 -42.222  1.00  0.00    -0.550 OA
ENDBRANCH  11  12
ENDBRANCH  10  11
ENDBRANCH   9  10
ENDBRANCH   8   9
ENDBRANCH   1   8
TORSDOF 9
ENDMDL
MODEL 8
REMARK VINA RESULT:    -3.932      3.969      6.659
REMARK INTER + INTRA:          -6.403
REMARK INTER:                  -5.751
REMARK INTRA:                  -0.652
REMARK UNBOUND:                -0.402
REMARK SMILES O=C([O-])CCCCCCCCC(=O)[O-]
REMARK SMILES IDX 7 1 6 2 5 3 4 4 2 5 1 6 3 7 8 8 9 9 10 10 11 11 12 12 13 13
REMARK SMILES IDX 14 14
REMARK H PARENT
REMARK Flexibility Score: inf
ROOT
ATOM      1  C   UNL     1     -10.329   1.889 -40.682  1.00  0.00     0.000 C 
ENDROOT
BRANCH   1   2
ATOM      2  C   UNL     1     -11.022   0.753 -41.454  1.00  0.00     0.000 C 
BRANCH   2   3
ATOM      3  C   UNL     1     -12.293   0.247 -40.750  1.00  0.00     0.006 C 
BRANCH   3   4
ATOM      4  C   UNL     1     -12.111  -1.162 -40.170  1.00  0.00     0.053 C 
BRANCH   4   5
ATOM      5  C   UNL     1     -13.425  -1.839 -39.926  1.00  0.00     0.041 C 
ATOM      6  O   UNL     1     -14.491  -1.325 -40.356  1.00  0.00    -0.550 OA
ATOM      7  O   UNL     1     -13.469  -3.051 -39.249  1.00  0.00    -0.550 OA
ENDBRANCH   4   5
ENDBRANCH   3   4
ENDBRANCH   2   3
ENDBRANCH   1   2
BRANCH   1   8
ATOM      8  C   UNL     1      -9.514   1.377 -39.482  1.00  0.00     0.000 C 
BRANCH   8   9
ATOM      9  C   UNL     1      -7.998   1.480 -39.712  1.00  0.00     0.000 C 
BRANCH   9  10
ATOM     10  C   UNL     1      -7.522   0.650 -40.918  1.00  0.00     0.006 C 
BRANCH  10  11
ATOM     11  C   UNL     1      -7.175  -0.791 -40.526  1.00  0.00     0.053 C 
BRANCH  11  12
ATOM     12  C   UNL     1      -8.324  -1.723 -40.766  1.00  0.00     0.041 C 
ATOM     13  O   UNL     1      -8.820  -2.377 -39.811  1.00  0.00    -0.550 OA
ATOM     14  O   UNL     1      -8.823  -1.896 -42.051  1.00  0.00    -0.550 OA
ENDBRANCH  11  12
ENDBRANCH  10  11
ENDBRANCH   9  10
ENDBRANCH   8   9
ENDBRANCH   1   8
TORSDOF 9
ENDMDL
MODEL 9
REMARK VINA RESULT:    -3.932      4.465      6.691
REMARK INTER + INTRA:          -6.403
REMARK INTER:                  -5.904
REMARK INTRA:                  -0.499
REMARK UNBOUND:                -0.402
REMARK SMILES O=C([O-])CCCCCCCCC(=O)[O-]
REMARK SMILES IDX 7 1 6 2 5 3 4 4 2 5 1 6 3 7 8 8 9 9 10 10 11 11 12 12 13 13
REMARK SMILES IDX 14 14
REMARK H PARENT
REMARK Flexibility Score: inf
ROOT
ATOM      1  C   UNL     1     -10.558   0.703 -39.402  1.00  0.00     0.000 C 
ENDROOT
BRANCH   1   2
ATOM      2  C   UNL     1     -10.056  -0.636 -39.967  1.00  0.00     0.000 C 
BRANCH   2   3
ATOM      3  C   UNL     1     -11.204  -1.583 -40.358  1.00  0.00     0.006 C 
BRANCH   3   4
ATOM      4  C   UNL     1     -12.550  -0.852 -40.452  1.00  0.00     0.053 C 
BRANCH   4   5
ATOM      5  C   UNL     1     -13.685  -1.710 -39.984  1.00  0.00     0.041 C 
ATOM      6  O   UNL     1     -14.853  -1.499 -40.405  1.00  0.00    -0.550 OA
ATOM      7  O   UNL     1     -13.449  -2.760 -39.106  1.00  0.00    -0.550 OA
ENDBRANCH   4   5
ENDBRANCH   3   4
ENDBRANCH   2   3
ENDBRANCH   1   2
BRANCH   1   8
ATOM      8  C   UNL     1     -10.075   0.957 -37.964  1.00  0.00     0.000 C 
BRANCH   8   9
ATOM      9  C   UNL     1     -10.423  -0.198 -37.013  1.00  0.00     0.000 C 
BRANCH   9  10
ATOM     10  C   UNL     1     -10.914   0.292 -35.638  1.00  0.00     0.006 C 
BRANCH  10  11
ATOM     11  C   UNL     1     -10.737   1.806 -35.468  1.00  0.00     0.053 C 
BRANCH  11  12
ATOM     12  C   UNL     1      -9.517   2.135 -34.661  1.00  0.00     0.041 C 
ATOM     13  O   UNL     1      -9.395   3.269 -34.130  1.00  0.00    -0.550 OA
ATOM     14  O   UNL     1      -8.500   1.198 -34.527  1.00  0.00    -0.550 OA
ENDBRANCH  11  12
ENDBRANCH  10  11
ENDBRANCH   9  10
ENDBRANCH   8   9
ENDBRANCH   1   8
TORSDOF 9
ENDMDL
