MODEL 1
REMARK VINA RESULT:    -5.509      0.000      0.000
REMARK INTER + INTRA:         -13.350
REMARK INTER:                 -10.340
REMARK INTRA:                  -3.010
REMARK UNBOUND:                -3.010
REMARK SMILES CCCCCC=CCC=CCCCCCCCC(=O)OC
REMARK SMILES IDX 11 1 10 2 9 3 8 4 7 5 6 6 5 7 4 8 3 9 2 10 1 11 12 12 13 13
REMARK SMILES IDX 14 14 15 15 16 16 17 17 18 18 19 19 20 20 21 21
REMARK H PARENT
REMARK Flexibility Score: inf
ROOT
ATOM      1  C   UNL     1       0.123  32.765  67.515  1.00  0.00     0.027 C 
ENDROOT
BRANCH   1   2
ATOM      2  C   UNL     1       0.153  31.833  68.700  1.00  0.00    -0.031 C 
ATOM      3  C   UNL     1       0.456  30.522  68.642  1.00  0.00    -0.027 C 
BRANCH   3   4
ATOM      4  C   UNL     1       0.880  29.788  67.394  1.00  0.00     0.054 C 
BRANCH   4   5
ATOM      5  C   UNL     1       2.077  28.907  67.648  1.00  0.00    -0.027 C 
ATOM      6  C   UNL     1       3.361  29.309  67.576  1.00  0.00    -0.031 C 
BRANCH   6   7
ATOM      7  C   UNL     1       3.804  30.719  67.272  1.00  0.00     0.027 C 
BRANCH   7   8
ATOM      8  C   UNL     1       4.623  31.342  68.422  1.00  0.00     0.004 C 
BRANCH   8   9
ATOM      9  C   UNL     1       3.758  31.965  69.530  1.00  0.00     0.000 C 
BRANCH   9  10
ATOM     10  C   UNL     1       3.466  30.991  70.680  1.00  0.00    -0.003 C 
ATOM     11  C   UNL     1       4.659  30.079  70.943  1.00  0.00     0.004 C 
ENDBRANCH   9  10
ENDBRANCH   8   9
ENDBRANCH   7   8
ENDBRANCH   6   7
ENDBRANCH   4   5
ENDBRANCH   3   4
ENDBRANCH   1   2
BRANCH   1  12
ATOM     12  C   UNL     1       1.430  33.560  67.348  1.00  0.00     0.004 C 
BRANCH  12  13
ATOM     13  C   UNL     1       1.939  33.616  65.893  1.00  0.00     0.000 C 
BRANCH  13  14
ATOM     14  C   UNL     1       1.384  32.468  65.031  1.00  0.00     0.000 C 
BRANCH  14  15
ATOM     15  C   UNL     1       0.707  32.979  63.740  1.00  0.00     0.001 C 
BRANCH  15  16
ATOM     16  C   UNL     1      -0.820  32.766  63.720  1.00  0.00     0.012 C 
BRANCH  16  17
ATOM     17  C   UNL     1      -1.616  33.865  64.438  1.00  0.00     0.123 C 
BRANCH  17  18
ATOM     18  C   UNL     1      -1.330  35.221  63.870  1.00  0.00     0.305 C 
ATOM     19  O   UNL     1      -1.679  35.494  62.688  1.00  0.00    -0.252 OA
BRANCH  18  20
ATOM     20  O   UNL     1      -0.671  36.171  64.656  1.00  0.00    -0.469 OA
ATOM     21  C   UNL     1       0.586  36.725  64.292  1.00  0.00     0.282 C 
ENDBRANCH  18  20
ENDBRANCH  17  18
ENDBRANCH  16  17
ENDBRANCH  15  16
ENDBRANCH  14  15
ENDBRANCH  13  14
ENDBRANCH  12  13
ENDBRANCH   1  12
TORSDOF 15
ENDMDL
MODEL 2
REMARK VINA RESULT:    -5.196      1.780      3.548
REMARK INTER + INTRA:         -12.762
REMARK INTER:                 -10.574
REMARK INTRA:                  -2.188
REMARK UNBOUND:                -3.010
REMARK SMILES CCCCCC=CCC=CCCCCCCCC(=O)OC
REMARK SMILES IDX 11 1 10 2 9 3 8 4 7 5 6 6 5 7 4 8 3 9 2 10 1 11 12 12 13 13
REMARK SMILES IDX 14 14 15 15 16 16 17 17 18 18 19 19 20 20 21 21
REMARK H PARENT
REMARK Flexibility Score: inf
ROOT
ATOM      1  C   UNL     1       4.039  30.131  67.239  1.00  0.00     0.027 C 
ENDROOT
BRANCH   1   2
ATOM      2  C   UNL     1       2.595  29.696  67.263  1.00  0.00    -0.031 C 
ATOM      3  C   UNL     1       2.008  29.026  68.273  1.00  0.00    -0.027 C 
BRANCH   3   4
ATOM      4  C   UNL     1       2.681  28.659  69.572  1.00  0.00     0.054 C 
BRANCH   4   5
ATOM      5  C   UNL     1       2.664  29.808  70.550  1.00  0.00    -0.027 C 
ATOM      6  C   UNL     1       3.759  30.391  71.074  1.00  0.00    -0.031 C 
BRANCH   6   7
ATOM      7  C   UNL     1       5.181  30.017  70.731  1.00  0.00     0.027 C 
BRANCH   7   8
ATOM      8  C   UNL     1       6.129  30.125  71.942  1.00  0.00     0.004 C 
BRANCH   8   9
ATOM      9  C   UNL     1       5.650  29.342  73.176  1.00  0.00     0.000 C 
BRANCH   9  10
ATOM     10  C   UNL     1       5.912  27.834  73.065  1.00  0.00    -0.003 C 
ATOM     11  C   UNL     1       4.605  27.057  72.948  1.00  0.00     0.004 C 
ENDBRANCH   9  10
ENDBRANCH   8   9
ENDBRANCH   7   8
ENDBRANCH   6   7
ENDBRANCH   4   5
ENDBRANCH   3   4
ENDBRANCH   1   2
BRANCH   1  12
ATOM     12  C   UNL     1       4.204  31.639  66.986  1.00  0.00     0.004 C 
BRANCH  12  13
ATOM     13  C   UNL     1       3.789  32.517  68.186  1.00  0.00     0.000 C 
BRANCH  13  14
ATOM     14  C   UNL     1       3.114  33.829  67.749  1.00  0.00     0.000 C 
BRANCH  14  15
ATOM     15  C   UNL     1       1.650  33.614  67.305  1.00  0.00     0.001 C 
BRANCH  15  16
ATOM     16  C   UNL     1       1.460  33.654  65.775  1.00  0.00     0.012 C 
BRANCH  16  17
ATOM     17  C   UNL     1       0.440  32.636  65.244  1.00  0.00     0.123 C 
BRANCH  17  18
ATOM     18  C   UNL     1      -0.317  33.168  64.066  1.00  0.00     0.305 C 
ATOM     19  O   UNL     1      -0.065  32.736  62.908  1.00  0.00    -0.252 OA
BRANCH  18  20
ATOM     20  O   UNL     1      -1.295  34.148  64.264  1.00  0.00    -0.469 OA
ATOM     21  C   UNL     1      -2.612  33.837  64.698  1.00  0.00     0.282 C 
ENDBRANCH  18  20
ENDBRANCH  17  18
ENDBRANCH  16  17
ENDBRANCH  15  16
ENDBRANCH  14  15
ENDBRANCH  13  14
ENDBRANCH  12  13
ENDBRANCH   1  12
TORSDOF 15
ENDMDL
MODEL 3
REMARK VINA RESULT:    -5.179      1.532      2.543
REMARK INTER + INTRA:         -12.731
REMARK INTER:                 -10.390
REMARK INTRA:                  -2.341
REMARK UNBOUND:                -3.010
REMARK SMILES CCCCCC=CCC=CCCCCCCCC(=O)OC
REMARK SMILES IDX 11 1 10 2 9 3 8 4 7 5 6 6 5 7 4 8 3 9 2 10 1 11 12 12 13 13
REMARK SMILES IDX 14 14 15 15 16 16 17 17 18 18 19 19 20 20 21 21
REMARK H PARENT
REMARK Flexibility Score: inf
ROOT
ATOM      1  C   UNL     1       0.420  31.423  68.612  1.00  0.00     0.027 C 
ENDROOT
BRANCH   1   2
ATOM      2  C   UNL     1       0.480  30.462  67.451  1.00  0.00    -0.031 C 
ATOM      3  C   UNL     1       1.327  29.419  67.356  1.00  0.00    -0.027 C 
BRANCH   3   4
ATOM      4  C   UNL     1       2.308  29.004  68.425  1.00  0.00     0.054 C 
BRANCH   4   5
ATOM      5  C   UNL     1       3.656  29.649  68.222  1.00  0.00    -0.027 C 
ATOM      6  C   UNL     1       4.314  30.368  69.152  1.00  0.00    -0.031 C 
BRANCH   6   7
ATOM      7  C   UNL     1       3.826  30.606  70.560  1.00  0.00     0.027 C 
BRANCH   7   8
ATOM      8  C   UNL     1       4.830  30.118  71.624  1.00  0.00     0.004 C 
BRANCH   8   9
ATOM      9  C   UNL     1       4.165  29.576  72.900  1.00  0.00     0.000 C 
BRANCH   9  10
ATOM     10  C   UNL     1       3.407  28.262  72.667  1.00  0.00    -0.003 C 
ATOM     11  C   UNL     1       4.361  27.073  72.648  1.00  0.00     0.004 C 
ENDBRANCH   9  10
ENDBRANCH   8   9
ENDBRANCH   7   8
ENDBRANCH   6   7
ENDBRANCH   4   5
ENDBRANCH   3   4
ENDBRANCH   1   2
BRANCH   1  12
ATOM     12  C   UNL     1       0.697  32.878  68.197  1.00  0.00     0.004 C 
BRANCH  12  13
ATOM     13  C   UNL     1       2.199  33.215  68.084  1.00  0.00     0.000 C 
BRANCH  13  14
ATOM     14  C   UNL     1       2.713  33.133  66.636  1.00  0.00     0.000 C 
BRANCH  14  15
ATOM     15  C   UNL     1       1.729  33.765  65.628  1.00  0.00     0.001 C 
BRANCH  15  16
ATOM     16  C   UNL     1       1.201  32.769  64.576  1.00  0.00     0.012 C 
BRANCH  16  17
ATOM     17  C   UNL     1      -0.317  32.839  64.354  1.00  0.00     0.123 C 
BRANCH  17  18
ATOM     18  C   UNL     1      -0.657  33.305  62.972  1.00  0.00     0.305 C 
ATOM     19  O   UNL     1      -1.548  32.708  62.307  1.00  0.00    -0.252 OA
BRANCH  18  20
ATOM     20  O   UNL     1       0.025  34.398  62.429  1.00  0.00    -0.469 OA
ATOM     21  C   UNL     1      -0.421  35.738  62.597  1.00  0.00     0.282 C 
ENDBRANCH  18  20
ENDBRANCH  17  18
ENDBRANCH  16  17
ENDBRANCH  15  16
ENDBRANCH  14  15
ENDBRANCH  13  14
ENDBRANCH  12  13
ENDBRANCH   1  12
TORSDOF 15
ENDMDL
MODEL 4
REMARK VINA RESULT:    -5.143      3.089      7.638
REMARK INTER + INTRA:         -12.662
REMARK INTER:                  -9.670
REMARK INTRA:                  -2.992
REMARK UNBOUND:                -3.010
REMARK SMILES CCCCCC=CCC=CCCCCCCCC(=O)OC
REMARK SMILES IDX 11 1 10 2 9 3 8 4 7 5 6 6 5 7 4 8 3 9 2 10 1 11 12 12 13 13
REMARK SMILES IDX 14 14 15 15 16 16 17 17 18 18 19 19 20 20 21 21
REMARK H PARENT
REMARK Flexibility Score: inf
ROOT
ATOM      1  C   UNL     1       0.126  32.690  64.745  1.00  0.00     0.027 C 
ENDROOT
BRANCH   1   2
ATOM      2  C   UNL     1       0.922  33.488  63.742  1.00  0.00    -0.031 C 
ATOM      3  C   UNL     1       1.006  34.832  63.719  1.00  0.00    -0.027 C 
BRANCH   3   4
ATOM      4  C   UNL     1       0.373  35.754  64.730  1.00  0.00     0.054 C 
BRANCH   4   5
ATOM      5  C   UNL     1      -0.723  36.586  64.113  1.00  0.00    -0.027 C 
ATOM      6  C   UNL     1      -2.036  36.457  64.385  1.00  0.00    -0.031 C 
BRANCH   6   7
ATOM      7  C   UNL     1      -2.616  35.487  65.386  1.00  0.00     0.027 C 
BRANCH   7   8
ATOM      8  C   UNL     1      -3.084  34.171  64.731  1.00  0.00     0.004 C 
BRANCH   8   9
ATOM      9  C   UNL     1      -3.477  34.321  63.252  1.00  0.00     0.000 C 
BRANCH   9  10
ATOM     10  C   UNL     1      -2.646  33.430  62.319  1.00  0.00    -0.003 C 
ATOM     11  C   UNL     1      -1.843  34.268  61.330  1.00  0.00     0.004 C 
ENDBRANCH   9  10
ENDBRANCH   8   9
ENDBRANCH   7   8
ENDBRANCH   6   7
ENDBRANCH   4   5
ENDBRANCH   3   4
ENDBRANCH   1   2
BRANCH   1  12
ATOM     12  C   UNL     1       0.993  32.133  65.888  1.00  0.00     0.004 C 
BRANCH  12  13
ATOM     13  C   UNL     1       0.453  32.469  67.294  1.00  0.00     0.000 C 
BRANCH  13  14
ATOM     14  C   UNL     1       1.274  33.566  67.993  1.00  0.00     0.000 C 
BRANCH  14  15
ATOM     15  C   UNL     1       2.666  33.755  67.351  1.00  0.00     0.001 C 
BRANCH  15  16
ATOM     16  C   UNL     1       3.826  33.264  68.240  1.00  0.00     0.012 C 
BRANCH  16  17
ATOM     17  C   UNL     1       4.506  31.984  67.732  1.00  0.00     0.123 C 
BRANCH  17  18
ATOM     18  C   UNL     1       3.750  30.755  68.134  1.00  0.00     0.305 C 
ATOM     19  O   UNL     1       3.764  29.736  67.389  1.00  0.00    -0.252 OA
BRANCH  18  20
ATOM     20  O   UNL     1       3.029  30.753  69.332  1.00  0.00    -0.469 OA
ATOM     21  C   UNL     1       1.967  29.842  69.583  1.00  0.00     0.282 C 
ENDBRANCH  18  20
ENDBRANCH  17  18
ENDBRANCH  16  17
ENDBRANCH  15  16
ENDBRANCH  14  15
ENDBRANCH  13  14
ENDBRANCH  12  13
ENDBRANCH   1  12
TORSDOF 15
ENDMDL
MODEL 5
REMARK VINA RESULT:    -5.139      1.321      2.528
REMARK INTER + INTRA:         -12.656
REMARK INTER:                  -9.827
REMARK INTRA:                  -2.828
REMARK UNBOUND:                -3.010
REMARK SMILES CCCCCC=CCC=CCCCCCCCC(=O)OC
REMARK SMILES IDX 11 1 10 2 9 3 8 4 7 5 6 6 5 7 4 8 3 9 2 10 1 11 12 12 13 13
REMARK SMILES IDX 14 14 15 15 16 16 17 17 18 18 19 19 20 20 21 21
REMARK H PARENT
REMARK Flexibility Score: inf
ROOT
ATOM      1  C   UNL     1       1.104  32.672  65.806  1.00  0.00     0.027 C 
ENDROOT
BRANCH   1   2
ATOM      2  C   UNL     1       0.749  33.470  67.035  1.00  0.00    -0.031 C 
ATOM      3  C   UNL     1       0.223  32.955  68.164  1.00  0.00    -0.027 C 
BRANCH   3   4
ATOM      4  C   UNL     1      -0.033  31.489  68.405  1.00  0.00     0.054 C 
BRANCH   4   5
ATOM      5  C   UNL     1       0.851  30.944  69.500  1.00  0.00    -0.027 C 
ATOM      6  C   UNL     1       1.690  29.898  69.365  1.00  0.00    -0.031 C 
BRANCH   6   7
ATOM      7  C   UNL     1       1.913  29.134  68.083  1.00  0.00     0.027 C 
BRANCH   7   8
ATOM      8  C   UNL     1       3.041  29.739  67.222  1.00  0.00     0.004 C 
BRANCH   8   9
ATOM      9  C   UNL     1       4.103  30.496  68.037  1.00  0.00     0.000 C 
BRANCH   9  10
ATOM     10  C   UNL     1       4.341  31.924  67.528  1.00  0.00    -0.003 C 
ATOM     11  C   UNL     1       4.003  32.954  68.601  1.00  0.00     0.004 C 
ENDBRANCH   9  10
ENDBRANCH   8   9
ENDBRANCH   7   8
ENDBRANCH   6   7
ENDBRANCH   4   5
ENDBRANCH   3   4
ENDBRANCH   1   2
BRANCH   1  12
ATOM     12  C   UNL     1       1.328  33.554  64.566  1.00  0.00     0.004 C 
BRANCH  12  13
ATOM     13  C   UNL     1       0.624  33.029  63.297  1.00  0.00     0.000 C 
BRANCH  13  14
ATOM     14  C   UNL     1      -0.848  32.660  63.551  1.00  0.00     0.000 C 
BRANCH  14  15
ATOM     15  C   UNL     1      -1.765  33.903  63.589  1.00  0.00     0.001 C 
BRANCH  15  16
ATOM     16  C   UNL     1      -2.303  34.228  64.996  1.00  0.00     0.012 C 
BRANCH  16  17
ATOM     17  C   UNL     1      -1.866  35.599  65.534  1.00  0.00     0.123 C 
BRANCH  17  18
ATOM     18  C   UNL     1      -2.164  36.699  64.561  1.00  0.00     0.305 C 
ATOM     19  O   UNL     1      -3.360  37.036  64.341  1.00  0.00    -0.252 OA
BRANCH  18  20
ATOM     20  O   UNL     1      -1.110  37.337  63.902  1.00  0.00    -0.469 OA
ATOM     21  C   UNL     1       0.253  37.093  64.223  1.00  0.00     0.282 C 
ENDBRANCH  18  20
ENDBRANCH  17  18
ENDBRANCH  16  17
ENDBRANCH  15  16
ENDBRANCH  14  15
ENDBRANCH  13  14
ENDBRANCH  12  13
ENDBRANCH   1  12
TORSDOF 15
ENDMDL
MODEL 6
REMARK VINA RESULT:    -5.079      1.356      2.893
REMARK INTER + INTRA:         -12.544
REMARK INTER:                  -9.804
REMARK INTRA:                  -2.740
REMARK UNBOUND:                -3.010
REMARK SMILES CCCCCC=CCC=CCCCCCCCC(=O)OC
REMARK SMILES IDX 11 1 10 2 9 3 8 4 7 5 6 6 5 7 4 8 3 9 2 10 1 11 12 12 13 13
REMARK SMILES IDX 14 14 15 15 16 16 17 17 18 18 19 19 20 20 21 21
REMARK H PARENT
REMARK Flexibility Score: inf
ROOT
ATOM      1  C   UNL     1       1.172  32.390  65.479  1.00  0.00     0.027 C 
ENDROOT
BRANCH   1   2
ATOM      2  C   UNL     1       0.657  32.930  66.789  1.00  0.00    -0.031 C 
ATOM      3  C   UNL     1       1.417  33.518  67.733  1.00  0.00    -0.027 C 
BRANCH   3   4
ATOM      4  C   UNL     1       2.895  33.792  67.604  1.00  0.00     0.054 C 
BRANCH   4   5
ATOM      5  C   UNL     1       3.692  33.037  68.637  1.00  0.00    -0.027 C 
ATOM      6  C   UNL     1       4.257  31.829  68.445  1.00  0.00    -0.031 C 
BRANCH   6   7
ATOM      7  C   UNL     1       4.220  31.060  67.147  1.00  0.00     0.027 C 
BRANCH   7   8
ATOM      8  C   UNL     1       3.779  29.594  67.341  1.00  0.00     0.004 C 
BRANCH   8   9
ATOM      9  C   UNL     1       2.821  29.388  68.526  1.00  0.00     0.000 C 
BRANCH   9  10
ATOM     10  C   UNL     1       1.344  29.527  68.131  1.00  0.00    -0.003 C 
ATOM     11  C   UNL     1       0.543  30.210  69.234  1.00  0.00     0.004 C 
ENDBRANCH   9  10
ENDBRANCH   8   9
ENDBRANCH   7   8
ENDBRANCH   6   7
ENDBRANCH   4   5
ENDBRANCH   3   4
ENDBRANCH   1   2
BRANCH   1  12
ATOM     12  C   UNL     1       1.224  33.457  64.372  1.00  0.00     0.004 C 
BRANCH  12  13
ATOM     13  C   UNL     1       0.434  33.073  63.104  1.00  0.00     0.000 C 
BRANCH  13  14
ATOM     14  C   UNL     1      -1.013  32.655  63.417  1.00  0.00     0.000 C 
BRANCH  14  15
ATOM     15  C   UNL     1      -1.958  33.870  63.549  1.00  0.00     0.001 C 
BRANCH  15  16
ATOM     16  C   UNL     1      -2.399  34.151  65.000  1.00  0.00     0.012 C 
BRANCH  16  17
ATOM     17  C   UNL     1      -1.869  35.475  65.570  1.00  0.00     0.123 C 
BRANCH  17  18
ATOM     18  C   UNL     1      -2.161  36.629  64.661  1.00  0.00     0.305 C 
ATOM     19  O   UNL     1      -3.356  36.976  64.449  1.00  0.00    -0.252 OA
BRANCH  18  20
ATOM     20  O   UNL     1      -1.102  37.307  64.050  1.00  0.00    -0.469 OA
ATOM     21  C   UNL     1       0.259  36.997  64.316  1.00  0.00     0.282 C 
ENDBRANCH  18  20
ENDBRANCH  17  18
ENDBRANCH  16  17
ENDBRANCH  15  16
ENDBRANCH  14  15
ENDBRANCH  13  14
ENDBRANCH  12  13
ENDBRANCH   1  12
TORSDOF 15
ENDMDL
MODEL 7
REMARK VINA RESULT:    -5.076      4.140      8.156
REMARK INTER + INTRA:         -12.536
REMARK INTER:                 -10.241
REMARK INTRA:                  -2.296
REMARK UNBOUND:                -3.010
REMARK SMILES CCCCCC=CCC=CCCCCCCCC(=O)OC
REMARK SMILES IDX 11 1 10 2 9 3 8 4 7 5 6 6 5 7 4 8 3 9 2 10 1 11 12 12 13 13
REMARK SMILES IDX 14 14 15 15 16 16 17 17 18 18 19 19 20 20 21 21
REMARK H PARENT
REMARK Flexibility Score: inf
ROOT
ATOM      1  C   UNL     1       4.268  31.409  66.922  1.00  0.00     0.027 C 
ENDROOT
BRANCH   1   2
ATOM      2  C   UNL     1       4.337  32.266  68.161  1.00  0.00    -0.031 C 
ATOM      3  C   UNL     1       3.572  33.350  68.392  1.00  0.00    -0.027 C 
BRANCH   3   4
ATOM      4  C   UNL     1       2.477  33.844  67.480  1.00  0.00     0.054 C 
BRANCH   4   5
ATOM      5  C   UNL     1       1.130  33.298  67.882  1.00  0.00    -0.027 C 
ATOM      6  C   UNL     1       0.272  32.672  67.053  1.00  0.00    -0.031 C 
BRANCH   6   7
ATOM      7  C   UNL     1       0.542  32.379  65.598  1.00  0.00     0.027 C 
BRANCH   7   8
ATOM      8  C   UNL     1      -0.075  33.434  64.657  1.00  0.00     0.004 C 
BRANCH   8   9
ATOM      9  C   UNL     1      -1.312  34.137  65.242  1.00  0.00     0.000 C 
BRANCH   9  10
ATOM     10  C   UNL     1      -2.588  33.874  64.431  1.00  0.00    -0.003 C 
ATOM     11  C   UNL     1      -3.392  35.156  64.242  1.00  0.00     0.004 C 
ENDBRANCH   9  10
ENDBRANCH   8   9
ENDBRANCH   7   8
ENDBRANCH   6   7
ENDBRANCH   4   5
ENDBRANCH   3   4
ENDBRANCH   1   2
BRANCH   1  12
ATOM     12  C   UNL     1       3.879  29.952  67.225  1.00  0.00     0.004 C 
BRANCH  12  13
ATOM     13  C   UNL     1       2.356  29.703  67.218  1.00  0.00     0.000 C 
BRANCH  13  14
ATOM     14  C   UNL     1       1.874  28.969  68.482  1.00  0.00     0.000 C 
BRANCH  14  15
ATOM     15  C   UNL     1       2.070  29.814  69.761  1.00  0.00     0.001 C 
BRANCH  15  16
ATOM     16  C   UNL     1       2.958  29.130  70.819  1.00  0.00     0.012 C 
BRANCH  16  17
ATOM     17  C   UNL     1       4.391  29.678  70.884  1.00  0.00     0.123 C 
BRANCH  17  18
ATOM     18  C   UNL     1       4.981  29.535  72.253  1.00  0.00     0.305 C 
ATOM     19  O   UNL     1       4.299  29.847  73.268  1.00  0.00    -0.252 OA
BRANCH  18  20
ATOM     20  O   UNL     1       6.289  29.060  72.391  1.00  0.00    -0.469 OA
ATOM     21  C   UNL     1       6.719  28.324  73.528  1.00  0.00     0.282 C 
ENDBRANCH  18  20
ENDBRANCH  17  18
ENDBRANCH  16  17
ENDBRANCH  15  16
ENDBRANCH  14  15
ENDBRANCH  13  14
ENDBRANCH  12  13
ENDBRANCH   1  12
TORSDOF 15
ENDMDL
MODEL 8
REMARK VINA RESULT:    -5.069      1.915      3.872
REMARK INTER + INTRA:         -12.523
REMARK INTER:                 -10.330
REMARK INTRA:                  -2.193
REMARK UNBOUND:                -3.010
REMARK SMILES CCCCCC=CCC=CCCCCCCCC(=O)OC
REMARK SMILES IDX 11 1 10 2 9 3 8 4 7 5 6 6 5 7 4 8 3 9 2 10 1 11 12 12 13 13
REMARK SMILES IDX 14 14 15 15 16 16 17 17 18 18 19 19 20 20 21 21
REMARK H PARENT
REMARK Flexibility Score: inf
ROOT
ATOM      1  C   UNL     1       1.647  29.345  67.886  1.00  0.00     0.027 C 
ENDROOT
BRANCH   1   2
ATOM      2  C   UNL     1       2.951  29.662  67.198  1.00  0.00    -0.031 C 
ATOM      3  C   UNL     1       3.936  30.416  67.721  1.00  0.00    -0.027 C 
BRANCH   3   4
ATOM      4  C   UNL     1       3.923  31.011  69.107  1.00  0.00     0.054 C 
BRANCH   4   5
ATOM      5  C   UNL     1       4.997  30.410  69.979  1.00  0.00    -0.027 C 
ATOM      6  C   UNL     1       4.833  29.334  70.773  1.00  0.00    -0.031 C 
BRANCH   6   7
ATOM      7  C   UNL     1       3.560  28.530  70.881  1.00  0.00     0.027 C 
BRANCH   7   8
ATOM      8  C   UNL     1       3.767  27.190  71.616  1.00  0.00     0.004 C 
BRANCH   8   9
ATOM      9  C   UNL     1       4.248  27.349  73.069  1.00  0.00     0.000 C 
BRANCH   9  10
ATOM     10  C   UNL     1       5.636  26.741  73.308  1.00  0.00    -0.003 C 
ATOM     11  C   UNL     1       6.668  27.825  73.600  1.00  0.00     0.004 C 
ENDBRANCH   9  10
ENDBRANCH   8   9
ENDBRANCH   7   8
ENDBRANCH   6   7
ENDBRANCH   4   5
ENDBRANCH   3   4
ENDBRANCH   1   2
BRANCH   1  12
ATOM     12  C   UNL     1       0.516  30.313  67.497  1.00  0.00     0.004 C 
BRANCH  12  13
ATOM     13  C   UNL     1       0.387  31.526  68.442  1.00  0.00     0.000 C 
BRANCH  13  14
ATOM     14  C   UNL     1       0.225  32.852  67.678  1.00  0.00     0.000 C 
BRANCH  14  15
ATOM     15  C   UNL     1       1.582  33.525  67.377  1.00  0.00     0.001 C 
BRANCH  15  16
ATOM     16  C   UNL     1       2.199  33.092  66.032  1.00  0.00     0.012 C 
BRANCH  16  17
ATOM     17  C   UNL     1       1.180  32.958  64.890  1.00  0.00     0.123 C 
BRANCH  17  18
ATOM     18  C   UNL     1       0.848  34.286  64.281  1.00  0.00     0.305 C 
ATOM     19  O   UNL     1       1.754  34.968  63.727  1.00  0.00    -0.252 OA
BRANCH  18  20
ATOM     20  O   UNL     1      -0.466  34.759  64.339  1.00  0.00    -0.469 OA
ATOM     21  C   UNL     1      -1.567  33.919  64.658  1.00  0.00     0.282 C 
ENDBRANCH  18  20
ENDBRANCH  17  18
ENDBRANCH  16  17
ENDBRANCH  15  16
ENDBRANCH  14  15
ENDBRANCH  13  14
ENDBRANCH  12  13
ENDBRANCH   1  12
TORSDOF 15
ENDMDL
MODEL 9
REMARK VINA RESULT:    -5.040      3.261      7.671
REMARK INTER + INTRA:         -12.469
REMARK INTER:                  -9.979
REMARK INTRA:                  -2.490
REMARK UNBOUND:                -3.010
REMARK SMILES CCCCCC=CCC=CCCCCCCCC(=O)OC
REMARK SMILES IDX 11 1 10 2 9 3 8 4 7 5 6 6 5 7 4 8 3 9 2 10 1 11 12 12 13 13
REMARK SMILES IDX 14 14 15 15 16 16 17 17 18 18 19 19 20 20 21 21
REMARK H PARENT
REMARK Flexibility Score: inf
ROOT
ATOM      1  C   UNL     1      -0.096  34.270  66.009  1.00  0.00     0.027 C 
ENDROOT
BRANCH   1   2
ATOM      2  C   UNL     1       0.740  34.538  64.784  1.00  0.00    -0.031 C 
ATOM      3  C   UNL     1       0.652  33.856  63.626  1.00  0.00    -0.027 C 
BRANCH   3   4
ATOM      4  C   UNL     1      -0.344  32.758  63.345  1.00  0.00     0.054 C 
BRANCH   4   5
ATOM      5  C   UNL     1      -1.346  33.173  62.296  1.00  0.00    -0.027 C 
ATOM      6  C   UNL     1      -2.601  33.590  62.551  1.00  0.00    -0.031 C 
BRANCH   6   7
ATOM      7  C   UNL     1      -3.190  33.752  63.931  1.00  0.00     0.027 C 
BRANCH   7   8
ATOM      8  C   UNL     1      -4.374  34.742  63.956  1.00  0.00     0.004 C 
BRANCH   8   9
ATOM      9  C   UNL     1      -3.949  36.217  63.869  1.00  0.00     0.000 C 
BRANCH   9  10
ATOM     10  C   UNL     1      -2.865  36.588  64.890  1.00  0.00    -0.003 C 
ATOM     11  C   UNL     1      -1.676  37.259  64.209  1.00  0.00     0.004 C 
ENDBRANCH   9  10
ENDBRANCH   8   9
ENDBRANCH   7   8
ENDBRANCH   6   7
ENDBRANCH   4   5
ENDBRANCH   3   4
ENDBRANCH   1   2
BRANCH   1  12
ATOM     12  C   UNL     1       0.663  33.479  67.089  1.00  0.00     0.004 C 
BRANCH  12  13
ATOM     13  C   UNL     1       0.590  31.949  66.900  1.00  0.00     0.000 C 
BRANCH  13  14
ATOM     14  C   UNL     1       1.943  31.343  66.488  1.00  0.00     0.000 C 
BRANCH  14  15
ATOM     15  C   UNL     1       3.093  32.371  66.563  1.00  0.00     0.001 C 
BRANCH  15  16
ATOM     16  C   UNL     1       4.193  31.991  67.574  1.00  0.00     0.012 C 
BRANCH  16  17
ATOM     17  C   UNL     1       3.872  32.381  69.025  1.00  0.00     0.123 C 
BRANCH  17  18
ATOM     18  C   UNL     1       3.702  31.178  69.900  1.00  0.00     0.305 C 
ATOM     19  O   UNL     1       4.711  30.644  70.438  1.00  0.00    -0.252 OA
BRANCH  18  20
ATOM     20  O   UNL     1       2.423  30.654  70.108  1.00  0.00    -0.469 OA
ATOM     21  C   UNL     1       2.021  29.391  69.594  1.00  0.00     0.282 C 
ENDBRANCH  18  20
ENDBRANCH  17  18
ENDBRANCH  16  17
ENDBRANCH  15  16
ENDBRANCH  14  15
ENDBRANCH  13  14
ENDBRANCH  12  13
ENDBRANCH   1  12
TORSDOF 15
ENDMDL
