MODEL 1
REMARK VINA RESULT:    -4.934      0.000      0.000
REMARK INTER + INTRA:          -8.809
REMARK INTER:                  -7.818
REMARK INTRA:                  -0.991
REMARK UNBOUND:                -0.991
REMARK SMILES C=CCCCCCCCCCCC
REMARK SMILES IDX 7 1 8 2 9 3 10 4 11 5 12 6 13 7 6 8 5 9 4 10 3 11 2 12 1 13
REMARK H PARENT
REMARK Flexibility Score: inf
ROOT
ATOM      1  C   UNL     1       2.363  12.295   4.304  1.00  0.00     0.000 C 
ENDROOT
BRANCH   1   2
ATOM      2  C   UNL     1       2.564  12.932   2.922  1.00  0.00     0.000 C 
BRANCH   2   3
ATOM      3  C   UNL     1       1.303  13.646   2.408  1.00  0.00    -0.000 C 
BRANCH   3   4
ATOM      4  C   UNL     1       1.579  15.091   1.965  1.00  0.00    -0.000 C 
BRANCH   4   5
ATOM      5  C   UNL     1       3.080  15.400   2.010  1.00  0.00    -0.000 C 
BRANCH   5   6
ATOM      6  C   UNL     1       3.412  16.639   1.168  1.00  0.00    -0.003 C 
ATOM      7  C   UNL     1       4.469  17.501   1.851  1.00  0.00     0.004 C 
ENDBRANCH   5   6
ENDBRANCH   4   5
ENDBRANCH   3   4
ENDBRANCH   2   3
ENDBRANCH   1   2
BRANCH   1   8
ATOM      8  C   UNL     1       2.568  13.328   5.419  1.00  0.00     0.000 C 
BRANCH   8   9
ATOM      9  C   UNL     1       1.525  13.155   6.530  1.00  0.00     0.000 C 
BRANCH   9  10
ATOM     10  C   UNL     1       0.278  14.007   6.251  1.00  0.00     0.004 C 
BRANCH  10  11
ATOM     11  C   UNL     1      -0.795  13.227   5.477  1.00  0.00     0.027 C 
BRANCH  11  12
ATOM     12  C   UNL     1      -0.913  11.799   5.940  1.00  0.00    -0.035 C 
ATOM     13  C   UNL     1      -1.735  11.446   6.934  1.00  0.00     0.004 C 
ENDBRANCH  11  12
ENDBRANCH  10  11
ENDBRANCH   9  10
ENDBRANCH   8   9
ENDBRANCH   1   8
TORSDOF 10
ENDMDL
MODEL 2
REMARK VINA RESULT:    -4.696      1.585      5.115
REMARK INTER + INTRA:          -8.432
REMARK INTER:                  -7.096
REMARK INTRA:                  -1.336
REMARK UNBOUND:                -0.991
REMARK SMILES C=CCCCCCCCCCCC
REMARK SMILES IDX 7 1 8 2 9 3 10 4 11 5 12 6 13 7 6 8 5 9 4 10 3 11 2 12 1 13
REMARK H PARENT
REMARK Flexibility Score: inf
ROOT
ATOM      1  C   UNL     1       2.799  13.490   5.967  1.00  0.00     0.000 C 
ENDROOT
BRANCH   1   2
ATOM      2  C   UNL     1       1.338  13.507   6.437  1.00  0.00     0.000 C 
BRANCH   2   3
ATOM      3  C   UNL     1       0.439  12.566   5.617  1.00  0.00    -0.000 C 
BRANCH   3   4
ATOM      4  C   UNL     1      -1.050  12.926   5.724  1.00  0.00    -0.000 C 
BRANCH   4   5
ATOM      5  C   UNL     1      -1.232  14.413   6.053  1.00  0.00    -0.000 C 
BRANCH   5   6
ATOM      6  C   UNL     1      -2.719  14.780   6.134  1.00  0.00    -0.003 C 
ATOM      7  C   UNL     1      -3.227  15.316   4.799  1.00  0.00     0.004 C 
ENDBRANCH   5   6
ENDBRANCH   4   5
ENDBRANCH   3   4
ENDBRANCH   2   3
ENDBRANCH   1   2
BRANCH   1   8
ATOM      8  C   UNL     1       2.930  12.801   4.603  1.00  0.00     0.000 C 
BRANCH   8   9
ATOM      9  C   UNL     1       3.805  13.625   3.650  1.00  0.00     0.000 C 
BRANCH   9  10
ATOM     10  C   UNL     1       2.942  14.437   2.674  1.00  0.00     0.004 C 
BRANCH  10  11
ATOM     11  C   UNL     1       1.670  13.682   2.260  1.00  0.00     0.027 C 
BRANCH  11  12
ATOM     12  C   UNL     1       0.549  14.613   1.877  1.00  0.00    -0.035 C 
ATOM     13  C   UNL     1      -0.700  14.429   2.317  1.00  0.00     0.004 C 
ENDBRANCH  11  12
ENDBRANCH  10  11
ENDBRANCH   9  10
ENDBRANCH   8   9
ENDBRANCH   1   8
TORSDOF 10
ENDMDL
MODEL 3
REMARK VINA RESULT:    -4.674      1.623      3.057
REMARK INTER + INTRA:          -8.398
REMARK INTER:                  -7.277
REMARK INTRA:                  -1.121
REMARK UNBOUND:                -0.991
REMARK SMILES C=CCCCCCCCCCCC
REMARK SMILES IDX 7 1 8 2 9 3 10 4 11 5 12 6 13 7 6 8 5 9 4 10 3 11 2 12 1 13
REMARK H PARENT
REMARK Flexibility Score: inf
ROOT
ATOM      1  C   UNL     1       2.271  13.351   6.507  1.00  0.00     0.000 C 
ENDROOT
BRANCH   1   2
ATOM      2  C   UNL     1       3.273  13.652   5.384  1.00  0.00     0.000 C 
BRANCH   2   3
ATOM      3  C   UNL     1       3.334  12.536   4.328  1.00  0.00    -0.000 C 
BRANCH   3   4
ATOM      4  C   UNL     1       2.549  12.882   3.054  1.00  0.00    -0.000 C 
BRANCH   4   5
ATOM      5  C   UNL     1       2.732  14.358   2.681  1.00  0.00    -0.000 C 
BRANCH   5   6
ATOM      6  C   UNL     1       1.542  14.870   1.861  1.00  0.00    -0.003 C 
ATOM      7  C   UNL     1       0.219  14.407   2.463  1.00  0.00     0.004 C 
ENDBRANCH   5   6
ENDBRANCH   4   5
ENDBRANCH   3   4
ENDBRANCH   2   3
ENDBRANCH   1   2
BRANCH   1   8
ATOM      8  C   UNL     1       0.850  13.756   6.099  1.00  0.00     0.000 C 
BRANCH   8   9
ATOM      9  C   UNL     1      -0.072  12.532   6.021  1.00  0.00     0.000 C 
BRANCH   9  10
ATOM     10  C   UNL     1      -1.546  12.945   6.139  1.00  0.00     0.004 C 
BRANCH  10  11
ATOM     11  C   UNL     1      -1.826  14.293   5.458  1.00  0.00     0.027 C 
BRANCH  11  12
ATOM     12  C   UNL     1      -2.661  15.207   6.315  1.00  0.00    -0.035 C 
ATOM     13  C   UNL     1      -3.159  16.355   5.844  1.00  0.00     0.004 C 
ENDBRANCH  11  12
ENDBRANCH  10  11
ENDBRANCH   9  10
ENDBRANCH   8   9
ENDBRANCH   1   8
TORSDOF 10
ENDMDL
MODEL 4
REMARK VINA RESULT:    -4.636      0.606      5.959
REMARK INTER + INTRA:          -8.338
REMARK INTER:                  -7.371
REMARK INTRA:                  -0.968
REMARK UNBOUND:                -0.991
REMARK SMILES C=CCCCCCCCCCCC
REMARK SMILES IDX 7 1 8 2 9 3 10 4 11 5 12 6 13 7 6 8 5 9 4 10 3 11 2 12 1 13
REMARK H PARENT
REMARK Flexibility Score: inf
ROOT
ATOM      1  C   UNL     1       2.719  12.479   4.575  1.00  0.00     0.000 C 
ENDROOT
BRANCH   1   2
ATOM      2  C   UNL     1       2.646  13.351   5.836  1.00  0.00     0.000 C 
BRANCH   2   3
ATOM      3  C   UNL     1       1.327  13.172   6.606  1.00  0.00    -0.000 C 
BRANCH   3   4
ATOM      4  C   UNL     1       0.204  14.076   6.076  1.00  0.00    -0.000 C 
BRANCH   4   5
ATOM      5  C   UNL     1      -0.930  13.242   5.468  1.00  0.00    -0.000 C 
BRANCH   5   6
ATOM      6  C   UNL     1      -0.797  11.765   5.858  1.00  0.00    -0.003 C 
ATOM      7  C   UNL     1      -1.750  11.407   6.994  1.00  0.00     0.004 C 
ENDBRANCH   5   6
ENDBRANCH   4   5
ENDBRANCH   3   4
ENDBRANCH   2   3
ENDBRANCH   1   2
BRANCH   1   8
ATOM      8  C   UNL     1       3.384  13.238   3.420  1.00  0.00     0.000 C 
BRANCH   8   9
ATOM      9  C   UNL     1       2.393  13.478   2.274  1.00  0.00     0.000 C 
BRANCH   9  10
ATOM     10  C   UNL     1       1.529  14.717   2.544  1.00  0.00     0.004 C 
BRANCH  10  11
ATOM     11  C   UNL     1       1.806  15.847   1.541  1.00  0.00     0.027 C 
BRANCH  11  12
ATOM     12  C   UNL     1       3.278  16.059   1.307  1.00  0.00    -0.035 C 
ATOM     13  C   UNL     1       3.917  17.136   1.776  1.00  0.00     0.004 C 
ENDBRANCH  11  12
ENDBRANCH  10  11
ENDBRANCH   9  10
ENDBRANCH   8   9
ENDBRANCH   1   8
TORSDOF 10
ENDMDL
MODEL 5
REMARK VINA RESULT:    -4.633      1.445      5.121
REMARK INTER + INTRA:          -8.332
REMARK INTER:                  -7.053
REMARK INTRA:                  -1.279
REMARK UNBOUND:                -0.991
REMARK SMILES C=CCCCCCCCCCCC
REMARK SMILES IDX 7 1 8 2 9 3 10 4 11 5 12 6 13 7 6 8 5 9 4 10 3 11 2 12 1 13
REMARK H PARENT
REMARK Flexibility Score: inf
ROOT
ATOM      1  C   UNL     1       3.134  12.663   3.241  1.00  0.00     0.000 C 
ENDROOT
BRANCH   1   2
ATOM      2  C   UNL     1       2.127  12.345   4.355  1.00  0.00     0.000 C 
BRANCH   2   3
ATOM      3  C   UNL     1       2.392  13.146   5.641  1.00  0.00    -0.000 C 
BRANCH   3   4
ATOM      4  C   UNL     1       1.133  13.311   6.505  1.00  0.00    -0.000 C 
BRANCH   4   5
ATOM      5  C   UNL     1      -0.038  13.844   5.672  1.00  0.00    -0.000 C 
BRANCH   5   6
ATOM      6  C   UNL     1      -1.343  13.124   6.034  1.00  0.00    -0.003 C 
ATOM      7  C   UNL     1      -1.087  11.661   6.383  1.00  0.00     0.004 C 
ENDBRANCH   5   6
ENDBRANCH   4   5
ENDBRANCH   3   4
ENDBRANCH   2   3
ENDBRANCH   1   2
BRANCH   1   8
ATOM      8  C   UNL     1       3.300  14.177   3.066  1.00  0.00     0.000 C 
BRANCH   8   9
ATOM      9  C   UNL     1       2.042  14.802   2.450  1.00  0.00     0.000 C 
BRANCH   9  10
ATOM     10  C   UNL     1       1.580  14.010   1.219  1.00  0.00     0.004 C 
BRANCH  10  11
ATOM     11  C   UNL     1       0.062  14.101   1.007  1.00  0.00     0.027 C 
BRANCH  11  12
ATOM     12  C   UNL     1      -0.670  14.498   2.262  1.00  0.00    -0.035 C 
ATOM     13  C   UNL     1      -1.893  15.038   2.223  1.00  0.00     0.004 C 
ENDBRANCH  11  12
ENDBRANCH  10  11
ENDBRANCH   9  10
ENDBRANCH   8   9
ENDBRANCH   1   8
TORSDOF 10
ENDMDL
MODEL 6
REMARK VINA RESULT:    -4.632      1.246      5.283
REMARK INTER + INTRA:          -8.331
REMARK INTER:                  -7.246
REMARK INTRA:                  -1.086
REMARK UNBOUND:                -0.991
REMARK SMILES C=CCCCCCCCCCCC
REMARK SMILES IDX 7 1 8 2 9 3 10 4 11 5 12 6 13 7 6 8 5 9 4 10 3 11 2 12 1 13
REMARK H PARENT
REMARK Flexibility Score: inf
ROOT
ATOM      1  C   UNL     1       2.939  13.385   5.520  1.00  0.00     0.000 C 
ENDROOT
BRANCH   1   2
ATOM      2  C   UNL     1       1.858  13.342   6.609  1.00  0.00     0.000 C 
BRANCH   2   3
ATOM      3  C   UNL     1       0.491  12.887   6.071  1.00  0.00    -0.000 C 
BRANCH   3   4
ATOM      4  C   UNL     1      -0.593  13.965   6.222  1.00  0.00    -0.000 C 
BRANCH   4   5
ATOM      5  C   UNL     1      -1.354  14.165   4.906  1.00  0.00    -0.000 C 
BRANCH   5   6
ATOM      6  C   UNL     1      -0.425  13.982   3.700  1.00  0.00    -0.003 C 
ATOM      7  C   UNL     1      -1.011  14.631   2.450  1.00  0.00     0.004 C 
ENDBRANCH   5   6
ENDBRANCH   4   5
ENDBRANCH   3   4
ENDBRANCH   2   3
ENDBRANCH   1   2
BRANCH   1   8
ATOM      8  C   UNL     1       2.643  12.369   4.411  1.00  0.00     0.000 C 
BRANCH   8   9
ATOM      9  C   UNL     1       3.362  12.748   3.110  1.00  0.00     0.000 C 
BRANCH   9  10
ATOM     10  C   UNL     1       3.691  14.247   3.079  1.00  0.00     0.004 C 
BRANCH  10  11
ATOM     11  C   UNL     1       2.678  15.045   2.244  1.00  0.00     0.027 C 
BRANCH  11  12
ATOM     12  C   UNL     1       3.315  16.202   1.521  1.00  0.00    -0.035 C 
ATOM     13  C   UNL     1       4.128  17.060   2.145  1.00  0.00     0.004 C 
ENDBRANCH  11  12
ENDBRANCH  10  11
ENDBRANCH   9  10
ENDBRANCH   8   9
ENDBRANCH   1   8
TORSDOF 10
ENDMDL
MODEL 7
REMARK VINA RESULT:    -4.627      1.346      2.182
REMARK INTER + INTRA:          -8.323
REMARK INTER:                  -7.114
REMARK INTRA:                  -1.209
REMARK UNBOUND:                -0.991
REMARK SMILES C=CCCCCCCCCCCC
REMARK SMILES IDX 7 1 8 2 9 3 10 4 11 5 12 6 13 7 6 8 5 9 4 10 3 11 2 12 1 13
REMARK H PARENT
REMARK Flexibility Score: inf
ROOT
ATOM      1  C   UNL     1       3.052  12.342   4.265  1.00  0.00     0.000 C 
ENDROOT
BRANCH   1   2
ATOM      2  C   UNL     1       2.540  12.877   2.920  1.00  0.00     0.000 C 
BRANCH   2   3
ATOM      3  C   UNL     1       2.799  14.381   2.741  1.00  0.00    -0.000 C 
BRANCH   3   4
ATOM      4  C   UNL     1       1.717  15.073   1.898  1.00  0.00    -0.000 C 
BRANCH   4   5
ATOM      5  C   UNL     1       0.325  14.530   2.241  1.00  0.00    -0.000 C 
BRANCH   5   6
ATOM      6  C   UNL     1      -0.621  14.642   1.038  1.00  0.00    -0.003 C 
ATOM      7  C   UNL     1      -0.537  16.024   0.398  1.00  0.00     0.004 C 
ENDBRANCH   5   6
ENDBRANCH   4   5
ENDBRANCH   3   4
ENDBRANCH   2   3
ENDBRANCH   1   2
BRANCH   1   8
ATOM      8  C   UNL     1       2.898  13.395   5.368  1.00  0.00     0.000 C 
BRANCH   8   9
ATOM      9  C   UNL     1       1.756  13.029   6.325  1.00  0.00     0.000 C 
BRANCH   9  10
ATOM     10  C   UNL     1       0.538  13.935   6.100  1.00  0.00     0.004 C 
BRANCH  10  11
ATOM     11  C   UNL     1      -0.589  13.214   5.346  1.00  0.00     0.027 C 
BRANCH  11  12
ATOM     12  C   UNL     1      -0.774  11.794   5.811  1.00  0.00    -0.035 C 
ATOM     13  C   UNL     1      -1.582  11.485   6.830  1.00  0.00     0.004 C 
ENDBRANCH  11  12
ENDBRANCH  10  11
ENDBRANCH   9  10
ENDBRANCH   8   9
ENDBRANCH   1   8
TORSDOF 10
ENDMDL
MODEL 8
REMARK VINA RESULT:    -4.492      2.330      4.125
REMARK INTER + INTRA:          -8.109
REMARK INTER:                  -6.860
REMARK INTRA:                  -1.250
REMARK UNBOUND:                -0.991
REMARK SMILES C=CCCCCCCCCCCC
REMARK SMILES IDX 7 1 8 2 9 3 10 4 11 5 12 6 13 7 6 8 5 9 4 10 3 11 2 12 1 13
REMARK H PARENT
REMARK Flexibility Score: inf
ROOT
ATOM      1  C   UNL     1       0.109  12.513   6.112  1.00  0.00     0.000 C 
ENDROOT
BRANCH   1   2
ATOM      2  C   UNL     1       1.064  13.679   6.404  1.00  0.00     0.000 C 
BRANCH   2   3
ATOM      3  C   UNL     1       2.513  13.378   5.990  1.00  0.00    -0.000 C 
BRANCH   3   4
ATOM      4  C   UNL     1       2.610  12.722   4.604  1.00  0.00    -0.000 C 
BRANCH   4   5
ATOM      5  C   UNL     1       2.562  13.778   3.494  1.00  0.00    -0.000 C 
BRANCH   5   6
ATOM      6  C   UNL     1       1.440  13.475   2.493  1.00  0.00    -0.003 C 
ATOM      7  C   UNL     1       0.262  14.426   2.683  1.00  0.00     0.004 C 
ENDBRANCH   5   6
ENDBRANCH   4   5
ENDBRANCH   3   4
ENDBRANCH   2   3
ENDBRANCH   1   2
BRANCH   1   8
ATOM      8  C   UNL     1      -1.297  13.025   5.779  1.00  0.00     0.000 C 
BRANCH   8   9
ATOM      9  C   UNL     1      -1.460  14.495   6.186  1.00  0.00     0.000 C 
BRANCH   9  10
ATOM     10  C   UNL     1      -2.943  14.885   6.258  1.00  0.00     0.004 C 
BRANCH  10  11
ATOM     11  C   UNL     1      -3.196  16.302   5.723  1.00  0.00     0.027 C 
BRANCH  11  12
ATOM     12  C   UNL     1      -3.827  16.297   4.356  1.00  0.00    -0.035 C 
ATOM     13  C   UNL     1      -3.097  16.157   3.245  1.00  0.00     0.004 C 
ENDBRANCH  11  12
ENDBRANCH  10  11
ENDBRANCH   9  10
ENDBRANCH   8   9
ENDBRANCH   1   8
TORSDOF 10
ENDMDL
MODEL 9
REMARK VINA RESULT:    -4.485      1.398      3.321
REMARK INTER + INTRA:          -8.099
REMARK INTER:                  -7.077
REMARK INTRA:                  -1.021
REMARK UNBOUND:                -0.991
REMARK SMILES C=CCCCCCCCCCCC
REMARK SMILES IDX 7 1 8 2 9 3 10 4 11 5 12 6 13 7 6 8 5 9 4 10 3 11 2 12 1 13
REMARK H PARENT
REMARK Flexibility Score: inf
ROOT
ATOM      1  C   UNL     1      -0.411  13.738   4.399  1.00  0.00     0.000 C 
ENDROOT
BRANCH   1   2
ATOM      2  C   UNL     1       0.367  14.132   3.136  1.00  0.00     0.000 C 
BRANCH   2   3
ATOM      3  C   UNL     1      -0.541  14.692   2.029  1.00  0.00    -0.000 C 
BRANCH   3   4
ATOM      4  C   UNL     1       0.252  15.313   0.870  1.00  0.00    -0.000 C 
BRANCH   4   5
ATOM      5  C   UNL     1       1.758  15.269   1.151  1.00  0.00    -0.000 C 
BRANCH   5   6
ATOM      6  C   UNL     1       2.461  16.504   0.574  1.00  0.00    -0.003 C 
ATOM      7  C   UNL     1       3.657  16.908   1.431  1.00  0.00     0.004 C 
ENDBRANCH   5   6
ENDBRANCH   4   5
ENDBRANCH   3   4
ENDBRANCH   2   3
ENDBRANCH   1   2
BRANCH   1   8
ATOM      8  C   UNL     1       0.437  12.845   5.312  1.00  0.00     0.000 C 
BRANCH   8   9
ATOM      9  C   UNL     1       1.397  13.682   6.166  1.00  0.00     0.000 C 
BRANCH   9  10
ATOM     10  C   UNL     1       2.860  13.357   5.830  1.00  0.00     0.004 C 
BRANCH  10  11
ATOM     11  C   UNL     1       2.981  12.420   4.620  1.00  0.00     0.027 C 
BRANCH  11  12
ATOM     12  C   UNL     1       3.961  12.929   3.595  1.00  0.00    -0.035 C 
ATOM     13  C   UNL     1       4.364  14.204   3.579  1.00  0.00     0.004 C 
ENDBRANCH  11  12
ENDBRANCH  10  11
ENDBRANCH   9  10
ENDBRANCH   8   9
ENDBRANCH   1   8
TORSDOF 10
ENDMDL
