MODEL 1
REMARK VINA RESULT:    -7.367      0.000      0.000
REMARK INTER + INTRA:         -11.762
REMARK INTER:                 -10.813
REMARK INTRA:                  -0.950
REMARK UNBOUND:                -0.950
REMARK SMILES O=c1c(O[C@@H]2O[C@@H](CO)[C@H](O)[C@H](O)[C@H]2O)c(-c2ccc(O)c(O)c2)oc2cc(O)cc(O)c12
REMARK SMILES IDX 4 1 3 2 16 3 25 4 2 5 26 6 1 7 33 8 27 9 31 10 28 11 30 12
REMARK SMILES IDX 17 13 18 14 19 15 20 16 24 17 22 18 21 19 23 21 32 23 29 25
REMARK SMILES IDX 5 27 14 28 6 29 12 30 7 31 10 32 15 33 13 35 8 37 9 38 11 40
REMARK H PARENT 21 20 23 22 32 24 29 26 15 34 13 36 9 39 11 41
REMARK Flexibility Score: inf
ROOT
ATOM      1  O   UNL     1     -24.164  82.956 -23.944  1.00  0.00    -0.454 OA
ENDROOT
BRANCH   1   2
ATOM      2  C   UNL     1     -23.702  84.262 -24.142  1.00  0.00     0.214 A 
ATOM      3  C   UNL     1     -22.927  84.908 -23.165  1.00  0.00     0.180 A 
ATOM      4  O   UNL     1     -22.596  86.183 -23.324  1.00  0.00    -0.452 OA
ATOM      5  C   UNL     1     -24.049  84.956 -25.306  1.00  0.00     0.239 A 
ATOM      6  C   UNL     1     -22.917  86.891 -24.401  1.00  0.00     0.146 A 
ATOM      7  O   UNL     1     -24.765  84.373 -26.161  1.00  0.00    -0.285 OA
ATOM      8  C   UNL     1     -23.628  86.298 -25.478  1.00  0.00     0.111 A 
ATOM      9  C   UNL     1     -22.542  88.235 -24.453  1.00  0.00     0.094 A 
ATOM     10  C   UNL     1     -23.905  87.094 -26.631  1.00  0.00     0.134 A 
ATOM     11  C   UNL     1     -22.865  89.017 -25.558  1.00  0.00     0.123 A 
ATOM     12  C   UNL     1     -23.545  88.447 -26.637  1.00  0.00     0.093 A 
BRANCH   3  13
ATOM     13  C   UNL     1     -22.475  84.211 -21.944  1.00  0.00     0.025 A 
ATOM     14  C   UNL     1     -22.378  84.917 -20.735  1.00  0.00     0.016 A 
ATOM     15  C   UNL     1     -21.930  84.275 -19.578  1.00  0.00     0.051 A 
ATOM     16  C   UNL     1     -21.556  82.925 -19.618  1.00  0.00     0.157 A 
ATOM     17  C   UNL     1     -22.081  82.863 -21.986  1.00  0.00     0.062 A 
ATOM     18  C   UNL     1     -21.626  82.218 -20.831  1.00  0.00     0.158 A 
BRANCH  16  19
ATOM     19  O   UNL     1     -21.110  82.285 -18.462  1.00  0.00    -0.504 OA
ATOM     20  H   UNL     1     -20.456  82.731 -17.829  1.00  0.00     0.293 HD
ENDBRANCH  16  19
BRANCH  18  21
ATOM     21  O   UNL     1     -21.249  80.878 -20.908  1.00  0.00    -0.504 OA
ATOM     22  H   UNL     1     -20.514  80.561 -21.529  1.00  0.00     0.293 HD
ENDBRANCH  18  21
ENDBRANCH   3  13
BRANCH  10  23
ATOM     23  O   UNL     1     -24.504  86.603 -27.795  1.00  0.00    -0.507 OA
ATOM     24  H   UNL     1     -24.877  85.674 -27.906  1.00  0.00     0.293 HD
ENDBRANCH  10  23
BRANCH  11  25
ATOM     25  O   UNL     1     -22.498  90.362 -25.581  1.00  0.00    -0.508 OA
ATOM     26  H   UNL     1     -21.747  90.697 -26.173  1.00  0.00     0.293 HD
ENDBRANCH  11  25
ENDBRANCH   1   2
BRANCH   1  27
ATOM     27  C   UNL     1     -25.181  82.653 -22.983  1.00  0.00     0.339 C 
ATOM     28  C   UNL     1     -26.581  82.717 -23.623  1.00  0.00     0.214 C 
ATOM     29  O   UNL     1     -24.944  81.395 -22.370  1.00  0.00    -0.332 OA
ATOM     30  C   UNL     1     -26.779  81.563 -24.621  1.00  0.00     0.180 C 
ATOM     31  C   UNL     1     -24.981  80.330 -23.308  1.00  0.00     0.179 C 
ATOM     32  C   UNL     1     -26.387  80.226 -23.959  1.00  0.00     0.177 C 
BRANCH  28  33
ATOM     33  O   UNL     1     -27.552  82.647 -22.608  1.00  0.00    -0.384 OA
ATOM     34  H   UNL     1     -28.308  82.118 -22.971  1.00  0.00     0.211 HD
ENDBRANCH  28  33
BRANCH  30  35
ATOM     35  O   UNL     1     -25.996  81.801 -25.766  1.00  0.00    -0.387 OA
ATOM     36  H   UNL     1     -25.961  80.951 -26.278  1.00  0.00     0.211 HD
ENDBRANCH  30  35
BRANCH  31  37
ATOM     37  C   UNL     1     -24.620  79.036 -22.562  1.00  0.00     0.191 C 
BRANCH  37  38
ATOM     38  O   UNL     1     -23.489  79.233 -21.760  1.00  0.00    -0.394 OA
ATOM     39  H   UNL     1     -23.812  79.679 -20.935  1.00  0.00     0.210 HD
ENDBRANCH  37  38
ENDBRANCH  31  37
BRANCH  32  40
ATOM     40  O   UNL     1     -26.466  79.169 -24.884  1.00  0.00    -0.387 OA
ATOM     41  H   UNL     1     -27.413  78.874 -24.933  1.00  0.00     0.211 HD
ENDBRANCH  32  40
ENDBRANCH   1  27
TORSDOF 12
ENDMDL
MODEL 2
REMARK VINA RESULT:    -6.654      1.604      4.875
REMARK INTER + INTRA:         -10.716
REMARK INTER:                  -9.029
REMARK INTRA:                  -1.687
REMARK UNBOUND:                -0.950
REMARK SMILES O=c1c(O[C@@H]2O[C@@H](CO)[C@H](O)[C@H](O)[C@H]2O)c(-c2ccc(O)c(O)c2)oc2cc(O)cc(O)c12
REMARK SMILES IDX 4 1 3 2 16 3 25 4 2 5 26 6 1 7 33 8 27 9 31 10 28 11 30 12
REMARK SMILES IDX 17 13 18 14 19 15 20 16 24 17 22 18 21 19 23 21 32 23 29 25
REMARK SMILES IDX 5 27 14 28 6 29 12 30 7 31 10 32 15 33 13 35 8 37 9 38 11 40
REMARK H PARENT 21 20 23 22 32 24 29 26 15 34 13 36 9 39 11 41
REMARK Flexibility Score: inf
ROOT
ATOM      1  O   UNL     1     -23.581  84.775 -23.279  1.00  0.00    -0.454 OA
ENDROOT
BRANCH   1   2
ATOM      2  C   UNL     1     -24.096  85.384 -24.429  1.00  0.00     0.214 A 
ATOM      3  C   UNL     1     -25.110  84.765 -25.178  1.00  0.00     0.180 A 
ATOM      4  O   UNL     1     -25.502  85.305 -26.325  1.00  0.00    -0.452 OA
ATOM      5  C   UNL     1     -23.567  86.602 -24.870  1.00  0.00     0.239 A 
ATOM      6  C   UNL     1     -25.020  86.449 -26.796  1.00  0.00     0.146 A 
ATOM      7  O   UNL     1     -22.642  87.131 -24.202  1.00  0.00    -0.285 OA
ATOM      8  C   UNL     1     -24.051  87.187 -26.066  1.00  0.00     0.111 A 
ATOM      9  C   UNL     1     -25.484  86.912 -28.029  1.00  0.00     0.094 A 
ATOM     10  C   UNL     1     -23.602  88.434 -26.599  1.00  0.00     0.134 A 
ATOM     11  C   UNL     1     -24.999  88.102 -28.566  1.00  0.00     0.123 A 
ATOM     12  C   UNL     1     -24.063  88.854 -27.853  1.00  0.00     0.093 A 
BRANCH   3  13
ATOM     13  C   UNL     1     -25.752  83.511 -24.735  1.00  0.00     0.025 A 
ATOM     14  C   UNL     1     -25.550  82.330 -25.463  1.00  0.00     0.016 A 
ATOM     15  C   UNL     1     -26.169  81.142 -25.067  1.00  0.00     0.051 A 
ATOM     16  C   UNL     1     -27.013  81.124 -23.948  1.00  0.00     0.157 A 
ATOM     17  C   UNL     1     -26.612  83.495 -23.624  1.00  0.00     0.062 A 
ATOM     18  C   UNL     1     -27.240  82.310 -23.227  1.00  0.00     0.158 A 
BRANCH  16  19
ATOM     19  O   UNL     1     -27.629  79.938 -23.552  1.00  0.00    -0.504 OA
ATOM     20  H   UNL     1     -28.609  79.912 -23.290  1.00  0.00     0.293 HD
ENDBRANCH  16  19
BRANCH  18  21
ATOM     21  O   UNL     1     -28.083  82.329 -22.118  1.00  0.00    -0.504 OA
ATOM     22  H   UNL     1     -28.952  82.850 -22.111  1.00  0.00     0.293 HD
ENDBRANCH  18  21
ENDBRANCH   3  13
BRANCH  10  23
ATOM     23  O   UNL     1     -22.733  89.302 -25.932  1.00  0.00    -0.507 OA
ATOM     24  H   UNL     1     -22.589  89.322 -24.935  1.00  0.00     0.293 HD
ENDBRANCH  10  23
BRANCH  11  25
ATOM     25  O   UNL     1     -25.462  88.535 -29.807  1.00  0.00    -0.508 OA
ATOM     26  H   UNL     1     -24.936  88.367 -30.658  1.00  0.00     0.293 HD
ENDBRANCH  11  25
ENDBRANCH   1   2
BRANCH   1  27
ATOM     27  C   UNL     1     -22.413  83.947 -23.320  1.00  0.00     0.339 C 
ATOM     28  C   UNL     1     -21.423  84.334 -22.205  1.00  0.00     0.214 C 
ATOM     29  O   UNL     1     -22.760  82.573 -23.258  1.00  0.00    -0.332 OA
ATOM     30  C   UNL     1     -21.987  83.962 -20.822  1.00  0.00     0.180 C 
ATOM     31  C   UNL     1     -23.413  82.244 -22.041  1.00  0.00     0.179 C 
ATOM     32  C   UNL     1     -22.474  82.498 -20.832  1.00  0.00     0.177 C 
BRANCH  28  33
ATOM     33  O   UNL     1     -20.205  83.667 -22.422  1.00  0.00    -0.384 OA
ATOM     34  H   UNL     1     -20.307  82.753 -22.050  1.00  0.00     0.211 HD
ENDBRANCH  28  33
BRANCH  30  35
ATOM     35  O   UNL     1     -23.041  84.837 -20.501  1.00  0.00    -0.387 OA
ATOM     36  H   UNL     1     -22.720  85.760 -20.678  1.00  0.00     0.211 HD
ENDBRANCH  30  35
BRANCH  31  37
ATOM     37  C   UNL     1     -23.828  80.766 -22.117  1.00  0.00     0.191 C 
BRANCH  37  38
ATOM     38  O   UNL     1     -22.994  79.982 -21.310  1.00  0.00    -0.394 OA
ATOM     39  H   UNL     1     -22.092  80.028 -21.722  1.00  0.00     0.210 HD
ENDBRANCH  37  38
ENDBRANCH  31  37
BRANCH  32  40
ATOM     40  O   UNL     1     -23.083  82.166 -19.608  1.00  0.00    -0.387 OA
ATOM     41  H   UNL     1     -23.016  82.955 -19.008  1.00  0.00     0.211 HD
ENDBRANCH  32  40
ENDBRANCH   1  27
TORSDOF 12
ENDMDL
MODEL 3
REMARK VINA RESULT:    -6.610      1.882      4.688
REMARK INTER + INTRA:         -10.651
REMARK INTER:                  -8.841
REMARK INTRA:                  -1.811
REMARK UNBOUND:                -0.950
REMARK SMILES O=c1c(O[C@@H]2O[C@@H](CO)[C@H](O)[C@H](O)[C@H]2O)c(-c2ccc(O)c(O)c2)oc2cc(O)cc(O)c12
REMARK SMILES IDX 4 1 3 2 16 3 25 4 2 5 26 6 1 7 33 8 27 9 31 10 28 11 30 12
REMARK SMILES IDX 17 13 18 14 19 15 20 16 24 17 22 18 21 19 23 21 32 23 29 25
REMARK SMILES IDX 5 27 14 28 6 29 12 30 7 31 10 32 15 33 13 35 8 37 9 38 11 40
REMARK H PARENT 21 20 23 22 32 24 29 26 15 34 13 36 9 39 11 41
REMARK Flexibility Score: inf
ROOT
ATOM      1  O   UNL     1     -23.337  83.579 -23.321  1.00  0.00    -0.454 OA
ENDROOT
BRANCH   1   2
ATOM      2  C   UNL     1     -23.767  84.772 -23.912  1.00  0.00     0.214 A 
ATOM      3  C   UNL     1     -25.029  84.859 -24.523  1.00  0.00     0.180 A 
ATOM      4  O   UNL     1     -25.370  85.962 -25.175  1.00  0.00    -0.452 OA
ATOM      5  C   UNL     1     -22.918  85.884 -23.940  1.00  0.00     0.239 A 
ATOM      6  C   UNL     1     -24.594  87.037 -25.246  1.00  0.00     0.146 A 
ATOM      7  O   UNL     1     -21.781  85.783 -23.411  1.00  0.00    -0.285 OA
ATOM      8  C   UNL     1     -23.335  87.072 -24.589  1.00  0.00     0.111 A 
ATOM      9  C   UNL     1     -25.040  88.136 -25.984  1.00  0.00     0.094 A 
ATOM     10  C   UNL     1     -22.563  88.271 -24.661  1.00  0.00     0.134 A 
ATOM     11  C   UNL     1     -24.255  89.281 -26.093  1.00  0.00     0.123 A 
ATOM     12  C   UNL     1     -23.024  89.343 -25.436  1.00  0.00     0.093 A 
BRANCH   3  13
ATOM     13  C   UNL     1     -25.995  83.743 -24.475  1.00  0.00     0.025 A 
ATOM     14  C   UNL     1     -26.288  83.024 -25.644  1.00  0.00     0.016 A 
ATOM     15  C   UNL     1     -27.217  81.981 -25.616  1.00  0.00     0.051 A 
ATOM     16  C   UNL     1     -27.879  81.655 -24.425  1.00  0.00     0.157 A 
ATOM     17  C   UNL     1     -26.674  83.426 -23.286  1.00  0.00     0.062 A 
ATOM     18  C   UNL     1     -27.609  82.387 -23.255  1.00  0.00     0.158 A 
BRANCH  16  19
ATOM     19  O   UNL     1     -28.804  80.613 -24.399  1.00  0.00    -0.504 OA
ATOM     20  H   UNL     1     -29.010  80.108 -23.543  1.00  0.00     0.293 HD
ENDBRANCH  16  19
BRANCH  18  21
ATOM     21  O   UNL     1     -28.260  82.097 -22.057  1.00  0.00    -0.504 OA
ATOM     22  H   UNL     1     -27.845  82.302 -21.156  1.00  0.00     0.293 HD
ENDBRANCH  18  21
ENDBRANCH   3  13
BRANCH  10  23
ATOM     23  O   UNL     1     -21.361  88.470 -23.976  1.00  0.00    -0.507 OA
ATOM     24  H   UNL     1     -21.083  89.331 -23.532  1.00  0.00     0.293 HD
ENDBRANCH  10  23
BRANCH  11  25
ATOM     25  O   UNL     1     -24.711  90.358 -26.850  1.00  0.00    -0.508 OA
ATOM     26  H   UNL     1     -24.601  90.382 -27.858  1.00  0.00     0.293 HD
ENDBRANCH  11  25
ENDBRANCH   1   2
BRANCH   1  27
ATOM     27  C   UNL     1     -22.522  82.637 -24.028  1.00  0.00     0.339 C 
ATOM     28  C   UNL     1     -21.319  82.197 -23.171  1.00  0.00     0.214 C 
ATOM     29  O   UNL     1     -23.289  81.526 -24.463  1.00  0.00    -0.332 OA
ATOM     30  C   UNL     1     -21.782  81.337 -21.982  1.00  0.00     0.180 C 
ATOM     31  C   UNL     1     -23.843  80.803 -23.375  1.00  0.00     0.179 C 
ATOM     32  C   UNL     1     -22.719  80.217 -22.479  1.00  0.00     0.177 C 
BRANCH  28  33
ATOM     33  O   UNL     1     -20.428  81.464 -23.975  1.00  0.00    -0.384 OA
ATOM     34  H   UNL     1     -20.960  80.756 -24.422  1.00  0.00     0.211 HD
ENDBRANCH  28  33
BRANCH  30  35
ATOM     35  O   UNL     1     -22.438  82.157 -21.045  1.00  0.00    -0.387 OA
ATOM     36  H   UNL     1     -22.727  81.572 -20.296  1.00  0.00     0.211 HD
ENDBRANCH  30  35
BRANCH  31  37
ATOM     37  C   UNL     1     -24.726  79.687 -23.954  1.00  0.00     0.191 C 
BRANCH  37  38
ATOM     38  O   UNL     1     -25.681  79.280 -23.013  1.00  0.00    -0.394 OA
ATOM     39  H   UNL     1     -25.583  78.296 -22.931  1.00  0.00     0.210 HD
ENDBRANCH  37  38
ENDBRANCH  31  37
BRANCH  32  40
ATOM     40  O   UNL     1     -23.232  79.478 -21.397  1.00  0.00    -0.387 OA
ATOM     41  H   UNL     1     -23.620  78.638 -21.757  1.00  0.00     0.211 HD
ENDBRANCH  32  40
ENDBRANCH   1  27
TORSDOF 12
ENDMDL
MODEL 4
REMARK VINA RESULT:    -6.505      5.673     11.675
REMARK INTER + INTRA:         -10.498
REMARK INTER:                  -9.406
REMARK INTRA:                  -1.091
REMARK UNBOUND:                -0.950
REMARK SMILES O=c1c(O[C@@H]2O[C@@H](CO)[C@H](O)[C@H](O)[C@H]2O)c(-c2ccc(O)c(O)c2)oc2cc(O)cc(O)c12
REMARK SMILES IDX 4 1 3 2 16 3 25 4 2 5 26 6 1 7 33 8 27 9 31 10 28 11 30 12
REMARK SMILES IDX 17 13 18 14 19 15 20 16 24 17 22 18 21 19 23 21 32 23 29 25
REMARK SMILES IDX 5 27 14 28 6 29 12 30 7 31 10 32 15 33 13 35 8 37 9 38 11 40
REMARK H PARENT 21 20 23 22 32 24 29 26 15 34 13 36 9 39 11 41
REMARK Flexibility Score: inf
ROOT
ATOM      1  O   UNL     1     -26.296  91.100 -29.975  1.00  0.00    -0.454 OA
ENDROOT
BRANCH   1   2
ATOM      2  C   UNL     1     -25.529  90.616 -28.910  1.00  0.00     0.214 A 
ATOM      3  C   UNL     1     -24.838  91.496 -28.061  1.00  0.00     0.180 A 
ATOM      4  O   UNL     1     -24.028  91.012 -27.129  1.00  0.00    -0.452 OA
ATOM      5  C   UNL     1     -25.407  89.237 -28.707  1.00  0.00     0.239 A 
ATOM      6  C   UNL     1     -23.864  89.713 -26.908  1.00  0.00     0.146 A 
ATOM      7  O   UNL     1     -26.012  88.460 -29.491  1.00  0.00    -0.285 OA
ATOM      8  C   UNL     1     -24.585  88.748 -27.662  1.00  0.00     0.111 A 
ATOM      9  C   UNL     1     -22.964  89.311 -25.919  1.00  0.00     0.094 A 
ATOM     10  C   UNL     1     -24.403  87.367 -27.350  1.00  0.00     0.134 A 
ATOM     11  C   UNL     1     -22.753  87.960 -25.660  1.00  0.00     0.123 A 
ATOM     12  C   UNL     1     -23.469  86.997 -26.375  1.00  0.00     0.093 A 
BRANCH   3  13
ATOM     13  C   UNL     1     -24.974  92.962 -28.183  1.00  0.00     0.025 A 
ATOM     14  C   UNL     1     -25.794  93.662 -27.286  1.00  0.00     0.016 A 
ATOM     15  C   UNL     1     -25.948  95.046 -27.404  1.00  0.00     0.051 A 
ATOM     16  C   UNL     1     -25.299  95.744 -28.431  1.00  0.00     0.157 A 
ATOM     17  C   UNL     1     -24.338  93.662 -29.222  1.00  0.00     0.062 A 
ATOM     18  C   UNL     1     -24.494  95.045 -29.348  1.00  0.00     0.158 A 
BRANCH  16  19
ATOM     19  O   UNL     1     -25.452  97.125 -28.547  1.00  0.00    -0.504 OA
ATOM     20  H   UNL     1     -24.958  97.766 -27.936  1.00  0.00     0.293 HD
ENDBRANCH  16  19
BRANCH  18  21
ATOM     21  O   UNL     1     -23.845  95.708 -30.389  1.00  0.00    -0.504 OA
ATOM     22  H   UNL     1     -23.662  96.704 -30.361  1.00  0.00     0.293 HD
ENDBRANCH  18  21
ENDBRANCH   3  13
BRANCH  10  23
ATOM     23  O   UNL     1     -25.127  86.329 -27.945  1.00  0.00    -0.507 OA
ATOM     24  H   UNL     1     -24.848  85.831 -28.776  1.00  0.00     0.293 HD
ENDBRANCH  10  23
BRANCH  11  25
ATOM     25  O   UNL     1     -21.836  87.581 -24.681  1.00  0.00    -0.508 OA
ATOM     26  H   UNL     1     -21.755  86.619 -24.374  1.00  0.00     0.293 HD
ENDBRANCH  11  25
ENDBRANCH   1   2
BRANCH   1  27
ATOM     27  C   UNL     1     -26.134  90.604 -31.309  1.00  0.00     0.339 C 
ATOM     28  C   UNL     1     -27.160  91.244 -32.264  1.00  0.00     0.214 C 
ATOM     29  O   UNL     1     -24.804  90.794 -31.766  1.00  0.00    -0.332 OA
ATOM     30  C   UNL     1     -26.850  92.736 -32.476  1.00  0.00     0.180 C 
ATOM     31  C   UNL     1     -24.455  92.168 -31.830  1.00  0.00     0.179 C 
ATOM     32  C   UNL     1     -25.362  92.915 -32.844  1.00  0.00     0.177 C 
BRANCH  28  33
ATOM     33  O   UNL     1     -27.124  90.566 -33.495  1.00  0.00    -0.384 OA
ATOM     34  H   UNL     1     -26.193  90.250 -33.622  1.00  0.00     0.211 HD
ENDBRANCH  28  33
BRANCH  30  35
ATOM     35  O   UNL     1     -27.161  93.446 -31.302  1.00  0.00    -0.387 OA
ATOM     36  H   UNL     1     -27.645  92.820 -30.701  1.00  0.00     0.211 HD
ENDBRANCH  30  35
BRANCH  31  37
ATOM     37  C   UNL     1     -22.977  92.258 -32.240  1.00  0.00     0.191 C 
BRANCH  37  38
ATOM     38  O   UNL     1     -22.535  93.585 -32.186  1.00  0.00    -0.394 OA
ATOM     39  H   UNL     1     -22.824  94.006 -33.037  1.00  0.00     0.210 HD
ENDBRANCH  37  38
ENDBRANCH  31  37
BRANCH  32  40
ATOM     40  O   UNL     1     -25.033  94.278 -32.947  1.00  0.00    -0.387 OA
ATOM     41  H   UNL     1     -25.226  94.571 -33.876  1.00  0.00     0.211 HD
ENDBRANCH  32  40
ENDBRANCH   1  27
TORSDOF 12
ENDMDL
MODEL 5
REMARK VINA RESULT:    -6.453      5.174     11.001
REMARK INTER + INTRA:         -10.420
REMARK INTER:                  -8.786
REMARK INTRA:                  -1.635
REMARK UNBOUND:                -0.950
REMARK SMILES O=c1c(O[C@@H]2O[C@@H](CO)[C@H](O)[C@H](O)[C@H]2O)c(-c2ccc(O)c(O)c2)oc2cc(O)cc(O)c12
REMARK SMILES IDX 4 1 3 2 16 3 25 4 2 5 26 6 1 7 33 8 27 9 31 10 28 11 30 12
REMARK SMILES IDX 17 13 18 14 19 15 20 16 24 17 22 18 21 19 23 21 32 23 29 25
REMARK SMILES IDX 5 27 14 28 6 29 12 30 7 31 10 32 15 33 13 35 8 37 9 38 11 40
REMARK H PARENT 21 20 23 22 32 24 29 26 15 34 13 36 9 39 11 41
REMARK Flexibility Score: inf
ROOT
ATOM      1  O   UNL     1     -26.171  90.186 -29.456  1.00  0.00    -0.454 OA
ENDROOT
BRANCH   1   2
ATOM      2  C   UNL     1     -25.410  89.844 -28.333  1.00  0.00     0.214 A 
ATOM      3  C   UNL     1     -24.813  90.836 -27.538  1.00  0.00     0.180 A 
ATOM      4  O   UNL     1     -24.004  90.487 -26.546  1.00  0.00    -0.452 OA
ATOM      5  C   UNL     1     -25.198  88.498 -28.016  1.00  0.00     0.239 A 
ATOM      6  C   UNL     1     -23.757  89.224 -26.217  1.00  0.00     0.146 A 
ATOM      7  O   UNL     1     -25.719  87.620 -28.752  1.00  0.00    -0.285 OA
ATOM      8  C   UNL     1     -24.381  88.154 -26.912  1.00  0.00     0.111 A 
ATOM      9  C   UNL     1     -22.866  88.969 -25.172  1.00  0.00     0.094 A 
ATOM     10  C   UNL     1     -24.113  86.818 -26.484  1.00  0.00     0.134 A 
ATOM     11  C   UNL     1     -22.569  87.661 -24.799  1.00  0.00     0.123 A 
ATOM     12  C   UNL     1     -23.190  86.595 -25.455  1.00  0.00     0.093 A 
BRANCH   3  13
ATOM     13  C   UNL     1     -25.047  92.274 -27.781  1.00  0.00     0.025 A 
ATOM     14  C   UNL     1     -24.126  93.011 -28.541  1.00  0.00     0.016 A 
ATOM     15  C   UNL     1     -24.325  94.376 -28.760  1.00  0.00     0.051 A 
ATOM     16  C   UNL     1     -25.436  95.027 -28.206  1.00  0.00     0.157 A 
ATOM     17  C   UNL     1     -26.150  92.932 -27.212  1.00  0.00     0.062 A 
ATOM     18  C   UNL     1     -26.350  94.300 -27.423  1.00  0.00     0.158 A 
BRANCH  16  19
ATOM     19  O   UNL     1     -25.633  96.389 -28.427  1.00  0.00    -0.504 OA
ATOM     20  H   UNL     1     -25.996  96.736 -29.308  1.00  0.00     0.293 HD
ENDBRANCH  16  19
BRANCH  18  21
ATOM     21  O   UNL     1     -27.458  94.920 -26.848  1.00  0.00    -0.504 OA
ATOM     22  H   UNL     1     -27.471  95.910 -26.634  1.00  0.00     0.293 HD
ENDBRANCH  18  21
ENDBRANCH   3  13
BRANCH  10  23
ATOM     23  O   UNL     1     -24.740  85.687 -27.014  1.00  0.00    -0.507 OA
ATOM     24  H   UNL     1     -25.312  85.678 -27.844  1.00  0.00     0.293 HD
ENDBRANCH  10  23
BRANCH  11  25
ATOM     25  O   UNL     1     -21.663  87.428 -23.767  1.00  0.00    -0.508 OA
ATOM     26  H   UNL     1     -20.661  87.450 -23.925  1.00  0.00     0.293 HD
ENDBRANCH  11  25
ENDBRANCH   1   2
BRANCH   1  27
ATOM     27  C   UNL     1     -25.666  90.029 -30.787  1.00  0.00     0.339 C 
ATOM     28  C   UNL     1     -26.701  89.334 -31.691  1.00  0.00     0.214 C 
ATOM     29  O   UNL     1     -25.254  91.276 -31.326  1.00  0.00    -0.332 OA
ATOM     30  C   UNL     1     -27.905  90.256 -31.951  1.00  0.00     0.180 C 
ATOM     31  C   UNL     1     -26.334  92.190 -31.437  1.00  0.00     0.179 C 
ATOM     32  C   UNL     1     -27.413  91.643 -32.410  1.00  0.00     0.177 C 
BRANCH  28  33
ATOM     33  O   UNL     1     -26.087  88.991 -32.909  1.00  0.00    -0.384 OA
ATOM     34  H   UNL     1     -25.544  88.179 -32.739  1.00  0.00     0.211 HD
ENDBRANCH  28  33
BRANCH  30  35
ATOM     35  O   UNL     1     -28.669  90.362 -30.774  1.00  0.00    -0.387 OA
ATOM     36  H   UNL     1     -28.050  90.225 -30.010  1.00  0.00     0.211 HD
ENDBRANCH  30  35
BRANCH  31  37
ATOM     37  C   UNL     1     -25.766  93.528 -31.936  1.00  0.00     0.191 C 
BRANCH  37  38
ATOM     38  O   UNL     1     -26.585  94.588 -31.530  1.00  0.00    -0.394 OA
ATOM     39  H   UNL     1     -27.514  94.238 -31.540  1.00  0.00     0.210 HD
ENDBRANCH  37  38
ENDBRANCH  31  37
BRANCH  32  40
ATOM     40  O   UNL     1     -28.493  92.533 -32.559  1.00  0.00    -0.387 OA
ATOM     41  H   UNL     1     -28.132  93.404 -32.871  1.00  0.00     0.211 HD
ENDBRANCH  32  40
ENDBRANCH   1  27
TORSDOF 12
ENDMDL
MODEL 6
REMARK VINA RESULT:    -6.446      3.745      6.100
REMARK INTER + INTRA:         -10.411
REMARK INTER:                  -9.071
REMARK INTRA:                  -1.340
REMARK UNBOUND:                -0.950
REMARK SMILES O=c1c(O[C@@H]2O[C@@H](CO)[C@H](O)[C@H](O)[C@H]2O)c(-c2ccc(O)c(O)c2)oc2cc(O)cc(O)c12
REMARK SMILES IDX 4 1 3 2 16 3 25 4 2 5 26 6 1 7 33 8 27 9 31 10 28 11 30 12
REMARK SMILES IDX 17 13 18 14 19 15 20 16 24 17 22 18 21 19 23 21 32 23 29 25
REMARK SMILES IDX 5 27 14 28 6 29 12 30 7 31 10 32 15 33 13 35 8 37 9 38 11 40
REMARK H PARENT 21 20 23 22 32 24 29 26 15 34 13 36 9 39 11 41
REMARK Flexibility Score: inf
ROOT
ATOM      1  O   UNL     1     -26.740  87.859 -25.381  1.00  0.00    -0.454 OA
ENDROOT
BRANCH   1   2
ATOM      2  C   UNL     1     -25.841  88.268 -26.372  1.00  0.00     0.214 A 
ATOM      3  C   UNL     1     -24.577  87.667 -26.491  1.00  0.00     0.180 A 
ATOM      4  O   UNL     1     -23.699  88.147 -27.363  1.00  0.00    -0.452 OA
ATOM      5  C   UNL     1     -26.179  89.320 -27.231  1.00  0.00     0.239 A 
ATOM      6  C   UNL     1     -23.965  89.153 -28.187  1.00  0.00     0.146 A 
ATOM      7  O   UNL     1     -27.305  89.865 -27.096  1.00  0.00    -0.285 OA
ATOM      8  C   UNL     1     -25.245  89.770 -28.196  1.00  0.00     0.111 A 
ATOM      9  C   UNL     1     -22.957  89.598 -29.046  1.00  0.00     0.094 A 
ATOM     10  C   UNL     1     -25.489  90.817 -29.135  1.00  0.00     0.134 A 
ATOM     11  C   UNL     1     -23.189  90.656 -29.920  1.00  0.00     0.123 A 
ATOM     12  C   UNL     1     -24.447  91.261 -29.960  1.00  0.00     0.093 A 
BRANCH   3  13
ATOM     13  C   UNL     1     -24.182  86.513 -25.658  1.00  0.00     0.025 A 
ATOM     14  C   UNL     1     -24.684  85.237 -25.953  1.00  0.00     0.016 A 
ATOM     15  C   UNL     1     -24.336  84.142 -25.158  1.00  0.00     0.051 A 
ATOM     16  C   UNL     1     -23.497  84.311 -24.048  1.00  0.00     0.157 A 
ATOM     17  C   UNL     1     -23.356  86.684 -24.534  1.00  0.00     0.062 A 
ATOM     18  C   UNL     1     -23.010  85.591 -23.732  1.00  0.00     0.158 A 
BRANCH  16  19
ATOM     19  O   UNL     1     -23.149  83.217 -23.258  1.00  0.00    -0.504 OA
ATOM     20  H   UNL     1     -22.873  83.330 -22.289  1.00  0.00     0.293 HD
ENDBRANCH  16  19
BRANCH  18  21
ATOM     21  O   UNL     1     -22.184  85.796 -22.628  1.00  0.00    -0.504 OA
ATOM     22  H   UNL     1     -21.188  85.954 -22.723  1.00  0.00     0.293 HD
ENDBRANCH  18  21
ENDBRANCH   3  13
BRANCH  10  23
ATOM     23  O   UNL     1     -26.731  91.432 -29.316  1.00  0.00    -0.507 OA
ATOM     24  H   UNL     1     -27.307  91.342 -30.138  1.00  0.00     0.293 HD
ENDBRANCH  10  23
BRANCH  11  25
ATOM     25  O   UNL     1     -22.163  91.096 -30.754  1.00  0.00    -0.508 OA
ATOM     26  H   UNL     1     -21.963  92.082 -30.875  1.00  0.00     0.293 HD
ENDBRANCH  11  25
ENDBRANCH   1   2
BRANCH   1  27
ATOM     27  C   UNL     1     -27.942  87.150 -25.699  1.00  0.00     0.339 C 
ATOM     28  C   UNL     1     -27.898  85.712 -25.145  1.00  0.00     0.214 C 
ATOM     29  O   UNL     1     -29.086  87.852 -25.237  1.00  0.00    -0.332 OA
ATOM     30  C   UNL     1     -27.967  85.717 -23.608  1.00  0.00     0.180 C 
ATOM     31  C   UNL     1     -29.090  87.990 -23.824  1.00  0.00     0.179 C 
ATOM     32  C   UNL     1     -29.144  86.598 -23.140  1.00  0.00     0.177 C 
BRANCH  28  33
ATOM     33  O   UNL     1     -28.979  84.985 -25.673  1.00  0.00    -0.384 OA
ATOM     34  H   UNL     1     -28.748  84.767 -26.612  1.00  0.00     0.211 HD
ENDBRANCH  28  33
BRANCH  30  35
ATOM     35  O   UNL     1     -26.750  86.196 -23.091  1.00  0.00    -0.387 OA
ATOM     36  H   UNL     1     -26.541  85.655 -22.284  1.00  0.00     0.211 HD
ENDBRANCH  30  35
BRANCH  31  37
ATOM     37  C   UNL     1     -30.310  88.842 -23.440  1.00  0.00     0.191 C 
BRANCH  37  38
ATOM     38  O   UNL     1     -30.062  89.545 -22.255  1.00  0.00    -0.394 OA
ATOM     39  H   UNL     1     -30.685  89.172 -21.578  1.00  0.00     0.210 HD
ENDBRANCH  37  38
ENDBRANCH  31  37
BRANCH  32  40
ATOM     40  O   UNL     1     -29.168  86.696 -21.737  1.00  0.00    -0.387 OA
ATOM     41  H   UNL     1     -28.267  86.984 -21.434  1.00  0.00     0.211 HD
ENDBRANCH  32  40
ENDBRANCH   1  27
TORSDOF 12
ENDMDL
MODEL 7
REMARK VINA RESULT:    -6.418      2.452      7.853
REMARK INTER + INTRA:         -10.369
REMARK INTER:                  -8.923
REMARK INTRA:                  -1.446
REMARK UNBOUND:                -0.950
REMARK SMILES O=c1c(O[C@@H]2O[C@@H](CO)[C@H](O)[C@H](O)[C@H]2O)c(-c2ccc(O)c(O)c2)oc2cc(O)cc(O)c12
REMARK SMILES IDX 4 1 3 2 16 3 25 4 2 5 26 6 1 7 33 8 27 9 31 10 28 11 30 12
REMARK SMILES IDX 17 13 18 14 19 15 20 16 24 17 22 18 21 19 23 21 32 23 29 25
REMARK SMILES IDX 5 27 14 28 6 29 12 30 7 31 10 32 15 33 13 35 8 37 9 38 11 40
REMARK H PARENT 21 20 23 22 32 24 29 26 15 34 13 36 9 39 11 41
REMARK Flexibility Score: inf
ROOT
ATOM      1  O   UNL     1     -24.525  86.293 -24.605  1.00  0.00    -0.454 OA
ENDROOT
BRANCH   1   2
ATOM      2  C   UNL     1     -24.437  85.002 -24.074  1.00  0.00     0.214 A 
ATOM      3  C   UNL     1     -25.588  84.217 -23.895  1.00  0.00     0.180 A 
ATOM      4  O   UNL     1     -25.495  83.042 -23.285  1.00  0.00    -0.452 OA
ATOM      5  C   UNL     1     -23.197  84.495 -23.671  1.00  0.00     0.239 A 
ATOM      6  C   UNL     1     -24.345  82.525 -22.869  1.00  0.00     0.146 A 
ATOM      7  O   UNL     1     -22.178  85.220 -23.814  1.00  0.00    -0.285 OA
ATOM      8  C   UNL     1     -23.119  83.210 -23.080  1.00  0.00     0.111 A 
ATOM      9  C   UNL     1     -24.366  81.292 -22.213  1.00  0.00     0.094 A 
ATOM     10  C   UNL     1     -21.908  82.585 -22.652  1.00  0.00     0.134 A 
ATOM     11  C   UNL     1     -23.185  80.717 -21.750  1.00  0.00     0.123 A 
ATOM     12  C   UNL     1     -21.966  81.364 -21.969  1.00  0.00     0.093 A 
BRANCH   3  13
ATOM     13  C   UNL     1     -26.917  84.667 -24.355  1.00  0.00     0.025 A 
ATOM     14  C   UNL     1     -27.301  84.455 -25.688  1.00  0.00     0.016 A 
ATOM     15  C   UNL     1     -28.547  84.897 -26.141  1.00  0.00     0.051 A 
ATOM     16  C   UNL     1     -29.417  85.572 -25.274  1.00  0.00     0.157 A 
ATOM     17  C   UNL     1     -27.782  85.361 -23.493  1.00  0.00     0.062 A 
ATOM     18  C   UNL     1     -29.028  85.810 -23.944  1.00  0.00     0.158 A 
BRANCH  16  19
ATOM     19  O   UNL     1     -30.659  86.011 -25.727  1.00  0.00    -0.504 OA
ATOM     20  H   UNL     1     -31.521  85.700 -25.293  1.00  0.00     0.293 HD
ENDBRANCH  16  19
BRANCH  18  21
ATOM     21  O   UNL     1     -29.863  86.490 -23.059  1.00  0.00    -0.504 OA
ATOM     22  H   UNL     1     -29.509  86.949 -22.229  1.00  0.00     0.293 HD
ENDBRANCH  18  21
ENDBRANCH   3  13
BRANCH  10  23
ATOM     23  O   UNL     1     -20.633  83.104 -22.893  1.00  0.00    -0.507 OA
ATOM     24  H   UNL     1     -19.797  82.837 -22.398  1.00  0.00     0.293 HD
ENDBRANCH  10  23
BRANCH  11  25
ATOM     25  O   UNL     1     -23.231  79.496 -21.081  1.00  0.00    -0.508 OA
ATOM     26  H   UNL     1     -23.684  78.685 -21.488  1.00  0.00     0.293 HD
ENDBRANCH  11  25
ENDBRANCH   1   2
BRANCH   1  27
ATOM     27  C   UNL     1     -23.954  86.627 -25.876  1.00  0.00     0.339 C 
ATOM     28  C   UNL     1     -25.054  86.931 -26.911  1.00  0.00     0.214 C 
ATOM     29  O   UNL     1     -23.038  87.704 -25.756  1.00  0.00    -0.332 OA
ATOM     30  C   UNL     1     -25.778  88.246 -26.569  1.00  0.00     0.180 C 
ATOM     31  C   UNL     1     -23.668  88.891 -25.301  1.00  0.00     0.179 C 
ATOM     32  C   UNL     1     -24.743  89.362 -26.317  1.00  0.00     0.177 C 
BRANCH  28  33
ATOM     33  O   UNL     1     -24.469  87.023 -28.186  1.00  0.00    -0.384 OA
ATOM     34  H   UNL     1     -23.788  87.742 -28.139  1.00  0.00     0.211 HD
ENDBRANCH  28  33
BRANCH  30  35
ATOM     35  O   UNL     1     -26.585  88.048 -25.434  1.00  0.00    -0.387 OA
ATOM     36  H   UNL     1     -26.508  87.090 -25.183  1.00  0.00     0.211 HD
ENDBRANCH  30  35
BRANCH  31  37
ATOM     37  C   UNL     1     -22.579  89.959 -25.114  1.00  0.00     0.191 C 
BRANCH  37  38
ATOM     38  O   UNL     1     -22.448  90.731 -26.275  1.00  0.00    -0.394 OA
ATOM     39  H   UNL     1     -21.846  91.484 -26.038  1.00  0.00     0.210 HD
ENDBRANCH  37  38
ENDBRANCH  31  37
BRANCH  32  40
ATOM     40  O   UNL     1     -25.378  90.548 -25.907  1.00  0.00    -0.387 OA
ATOM     41  H   UNL     1     -26.011  90.821 -26.622  1.00  0.00     0.211 HD
ENDBRANCH  32  40
ENDBRANCH   1  27
TORSDOF 12
ENDMDL
MODEL 8
REMARK VINA RESULT:    -6.390      1.687      2.293
REMARK INTER + INTRA:         -10.328
REMARK INTER:                  -8.665
REMARK INTRA:                  -1.663
REMARK UNBOUND:                -0.950
REMARK SMILES O=c1c(O[C@@H]2O[C@@H](CO)[C@H](O)[C@H](O)[C@H]2O)c(-c2ccc(O)c(O)c2)oc2cc(O)cc(O)c12
REMARK SMILES IDX 4 1 3 2 16 3 25 4 2 5 26 6 1 7 33 8 27 9 31 10 28 11 30 12
REMARK SMILES IDX 17 13 18 14 19 15 20 16 24 17 22 18 21 19 23 21 32 23 29 25
REMARK SMILES IDX 5 27 14 28 6 29 12 30 7 31 10 32 15 33 13 35 8 37 9 38 11 40
REMARK H PARENT 21 20 23 22 32 24 29 26 15 34 13 36 9 39 11 41
REMARK Flexibility Score: inf
ROOT
ATOM      1  O   UNL     1     -25.323  82.823 -24.337  1.00  0.00    -0.454 OA
ENDROOT
BRANCH   1   2
ATOM      2  C   UNL     1     -24.648  84.042 -24.459  1.00  0.00     0.214 A 
ATOM      3  C   UNL     1     -23.266  84.127 -24.221  1.00  0.00     0.180 A 
ATOM      4  O   UNL     1     -22.669  85.311 -24.232  1.00  0.00    -0.452 OA
ATOM      5  C   UNL     1     -25.358  85.205 -24.778  1.00  0.00     0.239 A 
ATOM      6  C   UNL     1     -23.301  86.445 -24.511  1.00  0.00     0.146 A 
ATOM      7  O   UNL     1     -26.600  85.117 -24.963  1.00  0.00    -0.285 OA
ATOM      8  C   UNL     1     -24.682  86.447 -24.845  1.00  0.00     0.111 A 
ATOM      9  C   UNL     1     -22.580  87.640 -24.466  1.00  0.00     0.094 A 
ATOM     10  C   UNL     1     -25.298  87.690 -25.180  1.00  0.00     0.134 A 
ATOM     11  C   UNL     1     -23.204  88.854 -24.742  1.00  0.00     0.123 A 
ATOM     12  C   UNL     1     -24.556  88.874 -25.094  1.00  0.00     0.093 A 
BRANCH   3  13
ATOM     13  C   UNL     1     -22.449  82.929 -23.942  1.00  0.00     0.025 A 
ATOM     14  C   UNL     1     -21.935  82.173 -25.006  1.00  0.00     0.016 A 
ATOM     15  C   UNL     1     -21.179  81.025 -24.755  1.00  0.00     0.051 A 
ATOM     16  C   UNL     1     -20.943  80.607 -23.438  1.00  0.00     0.157 A 
ATOM     17  C   UNL     1     -22.227  82.498 -22.623  1.00  0.00     0.062 A 
ATOM     18  C   UNL     1     -21.477  81.346 -22.368  1.00  0.00     0.158 A 
BRANCH  16  19
ATOM     19  O   UNL     1     -20.188  79.463 -23.190  1.00  0.00    -0.504 OA
ATOM     20  H   UNL     1     -20.546  78.706 -22.618  1.00  0.00     0.293 HD
ENDBRANCH  16  19
BRANCH  18  21
ATOM     21  O   UNL     1     -21.272  80.951 -21.046  1.00  0.00    -0.504 OA
ATOM     22  H   UNL     1     -21.523  81.541 -20.263  1.00  0.00     0.293 HD
ENDBRANCH  18  21
ENDBRANCH   3  13
BRANCH  10  23
ATOM     23  O   UNL     1     -26.618  87.814 -25.625  1.00  0.00    -0.507 OA
ATOM     24  H   UNL     1     -26.900  88.272 -26.477  1.00  0.00     0.293 HD
ENDBRANCH  10  23
BRANCH  11  25
ATOM     25  O   UNL     1     -22.470  90.037 -24.672  1.00  0.00    -0.508 OA
ATOM     26  H   UNL     1     -22.117  90.390 -23.791  1.00  0.00     0.293 HD
ENDBRANCH  11  25
ENDBRANCH   1   2
BRANCH   1  27
ATOM     27  C   UNL     1     -25.918  82.409 -23.101  1.00  0.00     0.339 C 
ATOM     28  C   UNL     1     -27.406  82.059 -23.295  1.00  0.00     0.214 C 
ATOM     29  O   UNL     1     -25.198  81.331 -22.525  1.00  0.00    -0.332 OA
ATOM     30  C   UNL     1     -27.560  80.775 -24.129  1.00  0.00     0.180 C 
ATOM     31  C   UNL     1     -25.211  80.179 -23.354  1.00  0.00     0.179 C 
ATOM     32  C   UNL     1     -26.662  79.663 -23.548  1.00  0.00     0.177 C 
BRANCH  28  33
ATOM     33  O   UNL     1     -28.004  81.888 -22.034  1.00  0.00    -0.384 OA
ATOM     34  H   UNL     1     -27.925  80.926 -21.807  1.00  0.00     0.211 HD
ENDBRANCH  28  33
BRANCH  30  35
ATOM     35  O   UNL     1     -27.216  81.047 -25.466  1.00  0.00    -0.387 OA
ATOM     36  H   UNL     1     -27.705  81.870 -25.732  1.00  0.00     0.211 HD
ENDBRANCH  30  35
BRANCH  31  37
ATOM     37  C   UNL     1     -24.330  79.111 -22.687  1.00  0.00     0.191 C 
BRANCH  37  38
ATOM     38  O   UNL     1     -23.716  78.309 -23.657  1.00  0.00    -0.394 OA
ATOM     39  H   UNL     1     -22.985  77.826 -23.191  1.00  0.00     0.210 HD
ENDBRANCH  37  38
ENDBRANCH  31  37
BRANCH  32  40
ATOM     40  O   UNL     1     -26.712  78.510 -24.352  1.00  0.00    -0.387 OA
ATOM     41  H   UNL     1     -26.268  78.718 -25.216  1.00  0.00     0.211 HD
ENDBRANCH  32  40
ENDBRANCH   1  27
TORSDOF 12
ENDMDL
MODEL 9
REMARK VINA RESULT:    -6.275      6.720     12.582
REMARK INTER + INTRA:         -10.159
REMARK INTER:                  -8.642
REMARK INTRA:                  -1.517
REMARK UNBOUND:                -0.950
REMARK SMILES O=c1c(O[C@@H]2O[C@@H](CO)[C@H](O)[C@H](O)[C@H]2O)c(-c2ccc(O)c(O)c2)oc2cc(O)cc(O)c12
REMARK SMILES IDX 4 1 3 2 16 3 25 4 2 5 26 6 1 7 33 8 27 9 31 10 28 11 30 12
REMARK SMILES IDX 17 13 18 14 19 15 20 16 24 17 22 18 21 19 23 21 32 23 29 25
REMARK SMILES IDX 5 27 14 28 6 29 12 30 7 31 10 32 15 33 13 35 8 37 9 38 11 40
REMARK H PARENT 21 20 23 22 32 24 29 26 15 34 13 36 9 39 11 41
REMARK Flexibility Score: inf
ROOT
ATOM      1  O   UNL     1     -26.887  92.035 -30.196  1.00  0.00    -0.454 OA
ENDROOT
BRANCH   1   2
ATOM      2  C   UNL     1     -25.963  91.638 -29.225  1.00  0.00     0.214 A 
ATOM      3  C   UNL     1     -24.714  92.273 -29.116  1.00  0.00     0.180 A 
ATOM      4  O   UNL     1     -23.810  91.806 -28.265  1.00  0.00    -0.452 OA
ATOM      5  C   UNL     1     -26.259  90.566 -28.375  1.00  0.00     0.239 A 
ATOM      6  C   UNL     1     -24.036  90.781 -27.450  1.00  0.00     0.146 A 
ATOM      7  O   UNL     1     -27.371  89.991 -28.501  1.00  0.00    -0.285 OA
ATOM      8  C   UNL     1     -25.298  90.129 -27.431  1.00  0.00     0.111 A 
ATOM      9  C   UNL     1     -23.003  90.354 -26.613  1.00  0.00     0.094 A 
ATOM     10  C   UNL     1     -25.498  89.063 -26.502  1.00  0.00     0.134 A 
ATOM     11  C   UNL     1     -23.192  89.278 -25.750  1.00  0.00     0.123 A 
ATOM     12  C   UNL     1     -24.433  88.638 -25.700  1.00  0.00     0.093 A 
BRANCH   3  13
ATOM     13  C   UNL     1     -24.364  93.448 -29.939  1.00  0.00     0.025 A 
ATOM     14  C   UNL     1     -23.600  93.280 -31.104  1.00  0.00     0.016 A 
ATOM     15  C   UNL     1     -23.243  94.386 -31.879  1.00  0.00     0.051 A 
ATOM     16  C   UNL     1     -23.630  95.676 -31.491  1.00  0.00     0.157 A 
ATOM     17  C   UNL     1     -24.735  94.744 -29.542  1.00  0.00     0.062 A 
ATOM     18  C   UNL     1     -24.375  95.854 -30.312  1.00  0.00     0.158 A 
BRANCH  16  19
ATOM     19  O   UNL     1     -23.275  96.779 -32.266  1.00  0.00    -0.504 OA
ATOM     20  H   UNL     1     -22.957  96.673 -33.223  1.00  0.00     0.293 HD
ENDBRANCH  16  19
BRANCH  18  21
ATOM     21  O   UNL     1     -24.764  97.125 -29.890  1.00  0.00    -0.504 OA
ATOM     22  H   UNL     1     -25.679  97.304 -29.494  1.00  0.00     0.293 HD
ENDBRANCH  18  21
ENDBRANCH   3  13
BRANCH  10  23
ATOM     23  O   UNL     1     -26.720  88.412 -26.312  1.00  0.00    -0.507 OA
ATOM     24  H   UNL     1     -27.514  88.479 -26.929  1.00  0.00     0.293 HD
ENDBRANCH  10  23
BRANCH  11  25
ATOM     25  O   UNL     1     -22.141  88.855 -24.937  1.00  0.00    -0.508 OA
ATOM     26  H   UNL     1     -22.086  87.903 -24.594  1.00  0.00     0.293 HD
ENDBRANCH  11  25
ENDBRANCH   1   2
BRANCH   1  27
ATOM     27  C   UNL     1     -26.841  91.529 -31.535  1.00  0.00     0.339 C 
ATOM     28  C   UNL     1     -28.038  90.599 -31.814  1.00  0.00     0.214 C 
ATOM     29  O   UNL     1     -26.770  92.587 -32.478  1.00  0.00    -0.332 OA
ATOM     30  C   UNL     1     -29.352  91.398 -31.858  1.00  0.00     0.180 C 
ATOM     31  C   UNL     1     -27.917  93.421 -32.430  1.00  0.00     0.179 C 
ATOM     32  C   UNL     1     -29.194  92.615 -32.793  1.00  0.00     0.177 C 
BRANCH  28  33
ATOM     33  O   UNL     1     -27.833  89.945 -33.042  1.00  0.00    -0.384 OA
ATOM     34  H   UNL     1     -27.608  89.003 -32.832  1.00  0.00     0.211 HD
ENDBRANCH  28  33
BRANCH  30  35
ATOM     35  O   UNL     1     -29.686  91.811 -30.555  1.00  0.00    -0.387 OA
ATOM     36  H   UNL     1     -30.667  91.691 -30.452  1.00  0.00     0.211 HD
ENDBRANCH  30  35
BRANCH  31  37
ATOM     37  C   UNL     1     -27.697  94.579 -33.414  1.00  0.00     0.191 C 
BRANCH  37  38
ATOM     38  O   UNL     1     -28.455  95.694 -33.035  1.00  0.00    -0.394 OA
ATOM     39  H   UNL     1     -27.986  96.094 -32.257  1.00  0.00     0.210 HD
ENDBRANCH  37  38
ENDBRANCH  31  37
BRANCH  32  40
ATOM     40  O   UNL     1     -30.351  93.415 -32.772  1.00  0.00    -0.387 OA
ATOM     41  H   UNL     1     -30.228  94.113 -32.076  1.00  0.00     0.211 HD
ENDBRANCH  32  40
ENDBRANCH   1  27
TORSDOF 12
ENDMDL
