MODEL 1
REMARK VINA RESULT:    -6.082      0.000      0.000
REMARK INTER + INTRA:         -11.727
REMARK INTER:                  -9.282
REMARK INTRA:                  -2.445
REMARK UNBOUND:                -2.445
REMARK SMILES CC(=O)CCC=C(C)CCC=C(C)CCC=C(C)C
REMARK SMILES IDX 10 1 11 2 12 3 13 4 14 5 15 6 16 7 18 8 17 9 19 10 9 11 7 12
REMARK SMILES IDX 6 13 8 14 5 15 4 16 2 17 3 18 1 19
REMARK H PARENT
REMARK Flexibility Score: inf
ROOT
ATOM      1  C   UNL     1      10.158 -16.264 -30.482  1.00  0.00     0.032 C 
ENDROOT
BRANCH   1   2
ATOM      2  C   UNL     1       9.987 -17.278 -31.585  1.00  0.00    -0.028 C 
ATOM      3  C   UNL     1      10.916 -17.563 -32.525  1.00  0.00    -0.077 C 
ATOM      4  C   UNL     1      10.561 -18.560 -33.598  1.00  0.00     0.039 C 
BRANCH   3   5
ATOM      5  C   UNL     1      12.306 -16.951 -32.527  1.00  0.00     0.034 C 
BRANCH   5   6
ATOM      6  C   UNL     1      13.404 -18.025 -32.491  1.00  0.00     0.032 C 
BRANCH   6   7
ATOM      7  C   UNL     1      13.716 -18.464 -31.080  1.00  0.00    -0.028 C 
ATOM      8  C   UNL     1      12.531 -20.659 -31.318  1.00  0.00     0.039 C 
ATOM      9  C   UNL     1      13.305 -19.629 -30.530  1.00  0.00    -0.080 C 
ATOM     10  C   UNL     1      13.651 -19.902 -29.089  1.00  0.00     0.039 C 
ENDBRANCH   6   7
ENDBRANCH   5   6
ENDBRANCH   3   5
ENDBRANCH   1   2
BRANCH   1  11
ATOM     11  C   UNL     1      10.024 -16.930 -29.107  1.00  0.00     0.034 C 
BRANCH  11  12
ATOM     12  C   UNL     1      11.347 -16.919 -28.375  1.00  0.00    -0.077 C 
ATOM     13  C   UNL     1      12.361 -16.170 -28.864  1.00  0.00    -0.028 C 
ATOM     14  C   UNL     1      11.485 -17.719 -27.101  1.00  0.00     0.039 C 
BRANCH  13  15
ATOM     15  C   UNL     1      13.744 -16.095 -28.259  1.00  0.00     0.035 C 
BRANCH  15  16
ATOM     16  C   UNL     1      14.146 -14.649 -27.936  1.00  0.00     0.079 C 
BRANCH  16  17
ATOM     17  C   UNL     1      14.963 -14.038 -29.047  1.00  0.00     0.130 C 
ATOM     18  O   UNL     1      15.073 -14.631 -30.109  1.00  0.00    -0.300 OA
ATOM     19  C   UNL     1      15.642 -12.712 -28.876  1.00  0.00     0.087 C 
ENDBRANCH  16  17
ENDBRANCH  15  16
ENDBRANCH  13  15
ENDBRANCH  11  12
ENDBRANCH   1  11
TORSDOF 9
ENDMDL
MODEL 2
REMARK VINA RESULT:    -5.976      1.808      3.474
REMARK INTER + INTRA:         -11.566
REMARK INTER:                  -9.088
REMARK INTRA:                  -2.478
REMARK UNBOUND:                -2.445
REMARK SMILES CC(=O)CCC=C(C)CCC=C(C)CCC=C(C)C
REMARK SMILES IDX 10 1 11 2 12 3 13 4 14 5 15 6 16 7 18 8 17 9 19 10 9 11 7 12
REMARK SMILES IDX 6 13 8 14 5 15 4 16 2 17 3 18 1 19
REMARK H PARENT
REMARK Flexibility Score: inf
ROOT
ATOM      1  C   UNL     1      12.448 -16.509 -33.684  1.00  0.00     0.032 C 
ENDROOT
BRANCH   1   2
ATOM      2  C   UNL     1      11.379 -17.491 -34.096  1.00  0.00    -0.028 C 
ATOM      3  C   UNL     1      10.454 -18.020 -33.264  1.00  0.00    -0.077 C 
ATOM      4  C   UNL     1       9.493 -19.039 -33.823  1.00  0.00     0.039 C 
BRANCH   3   5
ATOM      5  C   UNL     1      10.318 -17.610 -31.808  1.00  0.00     0.034 C 
BRANCH   5   6
ATOM      6  C   UNL     1      10.045 -18.816 -30.896  1.00  0.00     0.032 C 
BRANCH   6   7
ATOM      7  C   UNL     1      11.167 -19.043 -29.912  1.00  0.00    -0.028 C 
ATOM      8  C   UNL     1      12.479 -20.491 -31.479  1.00  0.00     0.039 C 
ATOM      9  C   UNL     1      12.250 -19.817 -30.148  1.00  0.00    -0.080 C 
ATOM     10  C   UNL     1      13.262 -19.990 -29.044  1.00  0.00     0.039 C 
ENDBRANCH   6   7
ENDBRANCH   5   6
ENDBRANCH   3   5
ENDBRANCH   1   2
BRANCH   1  11
ATOM     11  C   UNL     1      13.605 -17.229 -32.982  1.00  0.00     0.034 C 
BRANCH  11  12
ATOM     12  C   UNL     1      14.129 -16.403 -31.829  1.00  0.00    -0.077 C 
ATOM     13  C   UNL     1      13.590 -16.575 -30.601  1.00  0.00    -0.028 C 
ATOM     14  C   UNL     1      15.263 -15.436 -32.077  1.00  0.00     0.039 C 
BRANCH  13  15
ATOM     15  C   UNL     1      13.989 -15.794 -29.370  1.00  0.00     0.035 C 
BRANCH  15  16
ATOM     16  C   UNL     1      12.845 -15.717 -28.349  1.00  0.00     0.079 C 
BRANCH  16  17
ATOM     17  C   UNL     1      12.995 -16.755 -27.267  1.00  0.00     0.130 C 
ATOM     18  O   UNL     1      14.108 -17.167 -26.977  1.00  0.00    -0.300 OA
ATOM     19  C   UNL     1      11.803 -17.294 -26.533  1.00  0.00     0.087 C 
ENDBRANCH  16  17
ENDBRANCH  15  16
ENDBRANCH  13  15
ENDBRANCH  11  12
ENDBRANCH   1  11
TORSDOF 9
ENDMDL
MODEL 3
REMARK VINA RESULT:    -5.776      1.398      2.308
REMARK INTER + INTRA:         -11.259
REMARK INTER:                  -8.697
REMARK INTRA:                  -2.562
REMARK UNBOUND:                -2.445
REMARK SMILES CC(=O)CCC=C(C)CCC=C(C)CCC=C(C)C
REMARK SMILES IDX 10 1 11 2 12 3 13 4 14 5 15 6 16 7 18 8 17 9 19 10 9 11 7 12
REMARK SMILES IDX 6 13 8 14 5 15 4 16 2 17 3 18 1 19
REMARK H PARENT
REMARK Flexibility Score: inf
ROOT
ATOM      1  C   UNL     1       9.851 -18.307 -31.887  1.00  0.00     0.032 C 
ENDROOT
BRANCH   1   2
ATOM      2  C   UNL     1      10.237 -17.880 -33.281  1.00  0.00    -0.028 C 
ATOM      3  C   UNL     1      11.360 -17.197 -33.598  1.00  0.00    -0.077 C 
ATOM      4  C   UNL     1      11.566 -16.790 -35.035  1.00  0.00     0.039 C 
BRANCH   3   5
ATOM      5  C   UNL     1      12.434 -16.853 -32.581  1.00  0.00     0.034 C 
BRANCH   5   6
ATOM      6  C   UNL     1      13.499 -17.957 -32.477  1.00  0.00     0.032 C 
BRANCH   6   7
ATOM      7  C   UNL     1      13.729 -18.384 -31.047  1.00  0.00    -0.028 C 
ATOM      8  C   UNL     1      12.559 -20.580 -31.333  1.00  0.00     0.039 C 
ATOM      9  C   UNL     1      13.287 -19.543 -30.511  1.00  0.00    -0.080 C 
ATOM     10  C   UNL     1      13.550 -19.804 -29.050  1.00  0.00     0.039 C 
ENDBRANCH   6   7
ENDBRANCH   5   6
ENDBRANCH   3   5
ENDBRANCH   1   2
BRANCH   1  11
ATOM     11  C   UNL     1       8.927 -17.270 -31.238  1.00  0.00     0.034 C 
BRANCH  11  12
ATOM     12  C   UNL     1       9.649 -16.520 -30.142  1.00  0.00    -0.077 C 
ATOM     13  C   UNL     1      10.664 -17.131 -29.489  1.00  0.00    -0.028 C 
ATOM     14  C   UNL     1       9.239 -15.100 -29.833  1.00  0.00     0.039 C 
BRANCH  13  15
ATOM     15  C   UNL     1      11.446 -16.518 -28.350  1.00  0.00     0.035 C 
BRANCH  15  16
ATOM     16  C   UNL     1      12.788 -15.944 -28.825  1.00  0.00     0.079 C 
BRANCH  16  17
ATOM     17  C   UNL     1      13.771 -15.816 -27.690  1.00  0.00     0.130 C 
ATOM     18  O   UNL     1      14.461 -14.811 -27.601  1.00  0.00    -0.300 OA
ATOM     19  C   UNL     1      13.921 -16.898 -26.662  1.00  0.00     0.087 C 
ENDBRANCH  16  17
ENDBRANCH  15  16
ENDBRANCH  13  15
ENDBRANCH  11  12
ENDBRANCH   1  11
TORSDOF 9
ENDMDL
MODEL 4
REMARK VINA RESULT:    -5.560      2.240      5.744
REMARK INTER + INTRA:         -10.931
REMARK INTER:                  -8.691
REMARK INTRA:                  -2.240
REMARK UNBOUND:                -2.445
REMARK SMILES CC(=O)CCC=C(C)CCC=C(C)CCC=C(C)C
REMARK SMILES IDX 10 1 11 2 12 3 13 4 14 5 15 6 16 7 18 8 17 9 19 10 9 11 7 12
REMARK SMILES IDX 6 13 8 14 5 15 4 16 2 17 3 18 1 19
REMARK H PARENT
REMARK Flexibility Score: inf
ROOT
ATOM      1  C   UNL     1      10.361 -16.712 -29.351  1.00  0.00     0.032 C 
ENDROOT
BRANCH   1   2
ATOM      2  C   UNL     1      11.579 -15.848 -29.136  1.00  0.00    -0.028 C 
ATOM      3  C   UNL     1      12.657 -16.201 -28.400  1.00  0.00    -0.077 C 
ATOM      4  C   UNL     1      13.766 -15.194 -28.233  1.00  0.00     0.039 C 
BRANCH   3   5
ATOM      5  C   UNL     1      12.813 -17.572 -27.765  1.00  0.00     0.034 C 
BRANCH   5   6
ATOM      6  C   UNL     1      13.937 -18.384 -28.427  1.00  0.00     0.032 C 
BRANCH   6   7
ATOM      7  C   UNL     1      13.393 -19.494 -29.295  1.00  0.00    -0.028 C 
ATOM      8  C   UNL     1      13.539 -18.150 -31.404  1.00  0.00     0.039 C 
ATOM      9  C   UNL     1      13.180 -19.394 -30.626  1.00  0.00    -0.080 C 
ATOM     10  C   UNL     1      12.580 -20.573 -31.347  1.00  0.00     0.039 C 
ENDBRANCH   6   7
ENDBRANCH   5   6
ENDBRANCH   3   5
ENDBRANCH   1   2
BRANCH   1  11
ATOM     11  C   UNL     1       9.772 -16.483 -30.748  1.00  0.00     0.034 C 
BRANCH  11  12
ATOM     12  C   UNL     1       9.810 -17.757 -31.561  1.00  0.00    -0.077 C 
ATOM     13  C   UNL     1      10.317 -17.719 -32.814  1.00  0.00    -0.028 C 
ATOM     14  C   UNL     1       9.312 -19.039 -30.937  1.00  0.00     0.039 C 
BRANCH  13  15
ATOM     15  C   UNL     1      10.382 -18.904 -33.751  1.00  0.00     0.035 C 
BRANCH  15  16
ATOM     16  C   UNL     1       9.587 -18.655 -35.039  1.00  0.00     0.079 C 
BRANCH  16  17
ATOM     17  C   UNL     1      10.492 -18.293 -36.190  1.00  0.00     0.130 C 
ATOM     18  O   UNL     1      11.250 -17.340 -36.083  1.00  0.00    -0.300 OA
ATOM     19  C   UNL     1      10.485 -19.081 -37.466  1.00  0.00     0.087 C 
ENDBRANCH  16  17
ENDBRANCH  15  16
ENDBRANCH  13  15
ENDBRANCH  11  12
ENDBRANCH   1  11
TORSDOF 9
ENDMDL
MODEL 5
REMARK VINA RESULT:    -5.549      2.513      5.331
REMARK INTER + INTRA:         -10.913
REMARK INTER:                  -8.330
REMARK INTRA:                  -2.583
REMARK UNBOUND:                -2.445
REMARK SMILES CC(=O)CCC=C(C)CCC=C(C)CCC=C(C)C
REMARK SMILES IDX 10 1 11 2 12 3 13 4 14 5 15 6 16 7 18 8 17 9 19 10 9 11 7 12
REMARK SMILES IDX 6 13 8 14 5 15 4 16 2 17 3 18 1 19
REMARK H PARENT
REMARK Flexibility Score: inf
ROOT
ATOM      1  C   UNL     1      10.021 -16.415 -30.561  1.00  0.00     0.032 C 
ENDROOT
BRANCH   1   2
ATOM      2  C   UNL     1      10.242 -16.817 -29.124  1.00  0.00    -0.028 C 
ATOM      3  C   UNL     1      11.433 -16.780 -28.485  1.00  0.00    -0.077 C 
ATOM      4  C   UNL     1      11.495 -17.277 -27.064  1.00  0.00     0.039 C 
BRANCH   3   5
ATOM      5  C   UNL     1      12.697 -16.230 -29.123  1.00  0.00     0.034 C 
BRANCH   5   6
ATOM      6  C   UNL     1      13.733 -17.334 -29.386  1.00  0.00     0.032 C 
BRANCH   6   7
ATOM      7  C   UNL     1      13.320 -18.233 -30.526  1.00  0.00    -0.028 C 
ATOM      8  C   UNL     1      12.928 -20.217 -29.047  1.00  0.00     0.039 C 
ATOM      9  C   UNL     1      12.985 -19.536 -30.394  1.00  0.00    -0.080 C 
ATOM     10  C   UNL     1      12.646 -20.318 -31.637  1.00  0.00     0.039 C 
ENDBRANCH   6   7
ENDBRANCH   5   6
ENDBRANCH   3   5
ENDBRANCH   1   2
BRANCH   1  11
ATOM     11  C   UNL     1       9.665 -17.636 -31.417  1.00  0.00     0.034 C 
BRANCH  11  12
ATOM     12  C   UNL     1      10.405 -17.601 -32.736  1.00  0.00    -0.077 C 
ATOM     13  C   UNL     1      11.344 -16.648 -32.935  1.00  0.00    -0.028 C 
ATOM     14  C   UNL     1      10.097 -18.651 -33.777  1.00  0.00     0.039 C 
BRANCH  13  15
ATOM     15  C   UNL     1      12.131 -16.471 -34.213  1.00  0.00     0.035 C 
BRANCH  15  16
ATOM     16  C   UNL     1      11.548 -15.354 -35.090  1.00  0.00     0.079 C 
BRANCH  16  17
ATOM     17  C   UNL     1      11.116 -15.874 -36.438  1.00  0.00     0.130 C 
ATOM     18  O   UNL     1      10.474 -15.150 -37.184  1.00  0.00    -0.300 OA
ATOM     19  C   UNL     1      11.460 -17.264 -36.885  1.00  0.00     0.087 C 
ENDBRANCH  16  17
ENDBRANCH  15  16
ENDBRANCH  13  15
ENDBRANCH  11  12
ENDBRANCH   1  11
TORSDOF 9
ENDMDL
MODEL 6
REMARK VINA RESULT:    -5.521      2.005      4.364
REMARK INTER + INTRA:         -10.871
REMARK INTER:                  -8.827
REMARK INTRA:                  -2.044
REMARK UNBOUND:                -2.445
REMARK SMILES CC(=O)CCC=C(C)CCC=C(C)CCC=C(C)C
REMARK SMILES IDX 10 1 11 2 12 3 13 4 14 5 15 6 16 7 18 8 17 9 19 10 9 11 7 12
REMARK SMILES IDX 6 13 8 14 5 15 4 16 2 17 3 18 1 19
REMARK H PARENT
REMARK Flexibility Score: inf
ROOT
ATOM      1  C   UNL     1      12.303 -19.831 -31.863  1.00  0.00     0.032 C 
ENDROOT
BRANCH   1   2
ATOM      2  C   UNL     1      13.315 -18.738 -32.101  1.00  0.00    -0.028 C 
ATOM      3  C   UNL     1      13.032 -17.417 -32.144  1.00  0.00    -0.077 C 
ATOM      4  C   UNL     1      14.152 -16.458 -32.456  1.00  0.00     0.039 C 
BRANCH   3   5
ATOM      5  C   UNL     1      11.649 -16.858 -31.858  1.00  0.00     0.034 C 
BRANCH   5   6
ATOM      6  C   UNL     1      10.736 -16.930 -33.092  1.00  0.00     0.032 C 
BRANCH   6   7
ATOM      7  C   UNL     1      10.810 -15.670 -33.920  1.00  0.00    -0.028 C 
ATOM      8  C   UNL     1      11.617 -16.860 -35.971  1.00  0.00     0.039 C 
ATOM      9  C   UNL     1      11.232 -15.618 -35.203  1.00  0.00    -0.080 C 
ATOM     10  C   UNL     1      11.301 -14.274 -35.882  1.00  0.00     0.039 C 
ENDBRANCH   6   7
ENDBRANCH   5   6
ENDBRANCH   3   5
ENDBRANCH   1   2
BRANCH   1  11
ATOM     11  C   UNL     1      12.681 -20.661 -30.631  1.00  0.00     0.034 C 
BRANCH  11  12
ATOM     12  C   UNL     1      12.833 -19.776 -29.414  1.00  0.00    -0.077 C 
ATOM     13  C   UNL     1      11.749 -19.122 -28.940  1.00  0.00    -0.028 C 
ATOM     14  C   UNL     1      14.184 -19.676 -28.745  1.00  0.00     0.039 C 
BRANCH  13  15
ATOM     15  C   UNL     1      11.762 -18.178 -27.759  1.00  0.00     0.035 C 
BRANCH  15  16
ATOM     16  C   UNL     1      11.925 -16.717 -28.200  1.00  0.00     0.079 C 
BRANCH  16  17
ATOM     17  C   UNL     1      13.272 -16.165 -27.810  1.00  0.00     0.130 C 
ATOM     18  O   UNL     1      13.815 -16.566 -26.791  1.00  0.00    -0.300 OA
ATOM     19  C   UNL     1      13.964 -15.131 -28.648  1.00  0.00     0.087 C 
ENDBRANCH  16  17
ENDBRANCH  15  16
ENDBRANCH  13  15
ENDBRANCH  11  12
ENDBRANCH   1  11
TORSDOF 9
ENDMDL
MODEL 7
REMARK VINA RESULT:    -5.506      2.748      6.324
REMARK INTER + INTRA:         -10.848
REMARK INTER:                  -9.276
REMARK INTRA:                  -1.573
REMARK UNBOUND:                -2.445
REMARK SMILES CC(=O)CCC=C(C)CCC=C(C)CCC=C(C)C
REMARK SMILES IDX 10 1 11 2 12 3 13 4 14 5 15 6 16 7 18 8 17 9 19 10 9 11 7 12
REMARK SMILES IDX 6 13 8 14 5 15 4 16 2 17 3 18 1 19
REMARK H PARENT
REMARK Flexibility Score: inf
ROOT
ATOM      1  C   UNL     1      12.587 -19.088 -32.119  1.00  0.00     0.032 C 
ENDROOT
BRANCH   1   2
ATOM      2  C   UNL     1      13.417 -19.705 -31.021  1.00  0.00    -0.028 C 
ATOM      3  C   UNL     1      13.083 -19.712 -29.711  1.00  0.00    -0.077 C 
ATOM      4  C   UNL     1      14.055 -20.316 -28.730  1.00  0.00     0.039 C 
BRANCH   3   5
ATOM      5  C   UNL     1      11.762 -19.172 -29.191  1.00  0.00     0.034 C 
BRANCH   5   6
ATOM      6  C   UNL     1      11.964 -18.163 -28.049  1.00  0.00     0.032 C 
BRANCH   6   7
ATOM      7  C   UNL     1      12.585 -16.877 -28.538  1.00  0.00    -0.028 C 
ATOM      8  C   UNL     1      14.067 -16.627 -26.534  1.00  0.00     0.039 C 
ATOM      9  C   UNL     1      13.506 -16.160 -27.856  1.00  0.00    -0.080 C 
ATOM     10  C   UNL     1      13.992 -14.864 -28.452  1.00  0.00     0.039 C 
ENDBRANCH   6   7
ENDBRANCH   5   6
ENDBRANCH   3   5
ENDBRANCH   1   2
BRANCH   1  11
ATOM     11  C   UNL     1      13.097 -17.683 -32.460  1.00  0.00     0.034 C 
BRANCH  11  12
ATOM     12  C   UNL     1      12.020 -16.875 -33.150  1.00  0.00    -0.077 C 
ATOM     13  C   UNL     1      12.232 -16.448 -34.416  1.00  0.00    -0.028 C 
ATOM     14  C   UNL     1      10.728 -16.600 -32.418  1.00  0.00     0.039 C 
BRANCH  13  15
ATOM     15  C   UNL     1      11.263 -15.603 -35.211  1.00  0.00     0.035 C 
BRANCH  15  16
ATOM     16  C   UNL     1      11.120 -16.107 -36.653  1.00  0.00     0.079 C 
BRANCH  16  17
ATOM     17  C   UNL     1      10.648 -17.538 -36.699  1.00  0.00     0.130 C 
ATOM     18  O   UNL     1      11.266 -18.355 -37.365  1.00  0.00    -0.300 OA
ATOM     19  C   UNL     1       9.434 -17.983 -35.939  1.00  0.00     0.087 C 
ENDBRANCH  16  17
ENDBRANCH  15  16
ENDBRANCH  13  15
ENDBRANCH  11  12
ENDBRANCH   1  11
TORSDOF 9
ENDMDL
MODEL 8
REMARK VINA RESULT:    -5.487      1.995      2.847
REMARK INTER + INTRA:         -10.819
REMARK INTER:                  -8.427
REMARK INTRA:                  -2.392
REMARK UNBOUND:                -2.445
REMARK SMILES CC(=O)CCC=C(C)CCC=C(C)CCC=C(C)C
REMARK SMILES IDX 10 1 11 2 12 3 13 4 14 5 15 6 16 7 18 8 17 9 19 10 9 11 7 12
REMARK SMILES IDX 6 13 8 14 5 15 4 16 2 17 3 18 1 19
REMARK H PARENT
REMARK Flexibility Score: inf
ROOT
ATOM      1  C   UNL     1       8.875 -16.067 -31.486  1.00  0.00     0.032 C 
ENDROOT
BRANCH   1   2
ATOM      2  C   UNL     1       8.950 -14.990 -32.539  1.00  0.00    -0.028 C 
ATOM      3  C   UNL     1       9.628 -15.093 -33.705  1.00  0.00    -0.077 C 
ATOM      4  C   UNL     1       9.655 -13.898 -34.622  1.00  0.00     0.039 C 
BRANCH   3   5
ATOM      5  C   UNL     1      10.331 -16.366 -34.143  1.00  0.00     0.034 C 
BRANCH   5   6
ATOM      6  C   UNL     1      11.778 -16.429 -33.627  1.00  0.00     0.032 C 
BRANCH   6   7
ATOM      7  C   UNL     1      12.045 -17.696 -32.852  1.00  0.00    -0.028 C 
ATOM      8  C   UNL     1      13.900 -16.687 -31.505  1.00  0.00     0.039 C 
ATOM      9  C   UNL     1      13.013 -17.837 -31.919  1.00  0.00    -0.080 C 
ATOM     10  C   UNL     1      13.192 -19.184 -31.268  1.00  0.00     0.039 C 
ENDBRANCH   6   7
ENDBRANCH   5   6
ENDBRANCH   3   5
ENDBRANCH   1   2
BRANCH   1  11
ATOM     11  C   UNL     1       9.584 -15.621 -30.202  1.00  0.00     0.034 C 
BRANCH  11  12
ATOM     12  C   UNL     1      10.305 -16.783 -29.556  1.00  0.00    -0.077 C 
ATOM     13  C   UNL     1      11.281 -16.529 -28.655  1.00  0.00    -0.028 C 
ATOM     14  C   UNL     1       9.890 -18.191 -29.912  1.00  0.00     0.039 C 
BRANCH  13  15
ATOM     15  C   UNL     1      12.108 -17.588 -27.963  1.00  0.00     0.035 C 
BRANCH  15  16
ATOM     16  C   UNL     1      13.611 -17.305 -28.082  1.00  0.00     0.079 C 
BRANCH  16  17
ATOM     17  C   UNL     1      13.997 -16.038 -27.360  1.00  0.00     0.130 C 
ATOM     18  O   UNL     1      14.063 -16.037 -26.140  1.00  0.00    -0.300 OA
ATOM     19  C   UNL     1      14.307 -14.777 -28.110  1.00  0.00     0.087 C 
ENDBRANCH  16  17
ENDBRANCH  15  16
ENDBRANCH  13  15
ENDBRANCH  11  12
ENDBRANCH   1  11
TORSDOF 9
ENDMDL
MODEL 9
REMARK VINA RESULT:    -5.445      3.043      5.847
REMARK INTER + INTRA:         -10.755
REMARK INTER:                  -9.284
REMARK INTRA:                  -1.472
REMARK UNBOUND:                -2.445
REMARK SMILES CC(=O)CCC=C(C)CCC=C(C)CCC=C(C)C
REMARK SMILES IDX 10 1 11 2 12 3 13 4 14 5 15 6 16 7 18 8 17 9 19 10 9 11 7 12
REMARK SMILES IDX 6 13 8 14 5 15 4 16 2 17 3 18 1 19
REMARK H PARENT
REMARK Flexibility Score: inf
ROOT
ATOM      1  C   UNL     1      12.576 -19.014 -32.152  1.00  0.00     0.032 C 
ENDROOT
BRANCH   1   2
ATOM      2  C   UNL     1      13.402 -19.628 -31.049  1.00  0.00    -0.028 C 
ATOM      3  C   UNL     1      13.068 -19.622 -29.738  1.00  0.00    -0.077 C 
ATOM      4  C   UNL     1      14.037 -20.225 -28.754  1.00  0.00     0.039 C 
BRANCH   3   5
ATOM      5  C   UNL     1      11.752 -19.067 -29.222  1.00  0.00     0.034 C 
BRANCH   5   6
ATOM      6  C   UNL     1      11.963 -18.056 -28.084  1.00  0.00     0.032 C 
BRANCH   6   7
ATOM      7  C   UNL     1      12.591 -16.775 -28.578  1.00  0.00    -0.028 C 
ATOM      8  C   UNL     1      14.111 -16.554 -26.599  1.00  0.00     0.039 C 
ATOM      9  C   UNL     1      13.533 -16.074 -27.909  1.00  0.00    -0.080 C 
ATOM     10  C   UNL     1      14.025 -14.781 -28.508  1.00  0.00     0.039 C 
ENDBRANCH   6   7
ENDBRANCH   5   6
ENDBRANCH   3   5
ENDBRANCH   1   2
BRANCH   1  11
ATOM     11  C   UNL     1      13.082 -17.606 -32.489  1.00  0.00     0.034 C 
BRANCH  11  12
ATOM     12  C   UNL     1      11.976 -16.769 -33.091  1.00  0.00    -0.077 C 
ATOM     13  C   UNL     1      12.145 -16.253 -34.329  1.00  0.00    -0.028 C 
ATOM     14  C   UNL     1      10.703 -16.564 -32.305  1.00  0.00     0.039 C 
BRANCH  13  15
ATOM     15  C   UNL     1      11.143 -15.370 -35.037  1.00  0.00     0.035 C 
BRANCH  15  16
ATOM     16  C   UNL     1      11.828 -14.226 -35.796  1.00  0.00     0.079 C 
BRANCH  16  17
ATOM     17  C   UNL     1      10.913 -13.038 -35.956  1.00  0.00     0.130 C 
ATOM     18  O   UNL     1      10.860 -12.461 -37.031  1.00  0.00    -0.300 OA
ATOM     19  C   UNL     1      10.063 -12.551 -34.821  1.00  0.00     0.087 C 
ENDBRANCH  16  17
ENDBRANCH  15  16
ENDBRANCH  13  15
ENDBRANCH  11  12
ENDBRANCH   1  11
TORSDOF 9
ENDMDL
