MODEL 1
REMARK VINA RESULT:    -5.464      0.000      0.000
REMARK INTER + INTRA:          -8.070
REMARK INTER:                  -6.742
REMARK INTRA:                  -1.328
REMARK UNBOUND:                -1.328
REMARK SMILES CC(C)=CCC[C@H](C)c1ccc(C)cc1
REMARK SMILES IDX 6 1 7 2 8 3 9 4 13 5 12 6 11 7 14 8 10 9 15 10 5 11 4 12
REMARK SMILES IDX 2 13 1 14 3 15
REMARK H PARENT
REMARK Flexibility Score: inf
ROOT
ATOM      1  C   UNL     1      91.907 100.522 100.772  1.00  0.00     0.012 C 
ENDROOT
BRANCH   1   2
ATOM      2  C   UNL     1      92.944 101.280 101.636  1.00  0.00     0.016 C 
ATOM      3  C   UNL     1      92.293 102.206 102.675  1.00  0.00     0.013 C 
BRANCH   2   4
ATOM      4  C   UNL     1      93.891 102.069 100.750  1.00  0.00    -0.045 A 
ATOM      5  C   UNL     1      96.614 104.300  98.245  1.00  0.00     0.044 C 
ATOM      6  C   UNL     1      95.660 103.509  99.089  1.00  0.00    -0.051 A 
ATOM      7  C   UNL     1      94.341 103.951  99.270  1.00  0.00     0.004 A 
ATOM      8  C   UNL     1      96.097 102.358  99.760  1.00  0.00     0.004 A 
ATOM      9  C   UNL     1      93.462 103.235 100.088  1.00  0.00     0.004 A 
ATOM     10  C   UNL     1      95.219 101.640 100.577  1.00  0.00     0.004 A 
ENDBRANCH   2   4
ENDBRANCH   1   2
BRANCH   1  11
ATOM     11  C   UNL     1      92.503  99.889  99.500  1.00  0.00     0.028 C 
BRANCH  11  12
ATOM     12  C   UNL     1      91.880 100.431  98.234  1.00  0.00    -0.028 C 
ATOM     13  C   UNL     1      92.606 100.861  97.180  1.00  0.00    -0.080 C 
ATOM     14  C   UNL     1      94.116 100.826  97.194  1.00  0.00     0.039 C 
ATOM     15  C   UNL     1      91.881 101.386  95.968  1.00  0.00     0.039 C 
ENDBRANCH  11  12
ENDBRANCH   1  11
TORSDOF 4
ENDMDL
MODEL 2
REMARK VINA RESULT:    -5.345      1.027      3.961
REMARK INTER + INTRA:          -7.923
REMARK INTER:                  -6.725
REMARK INTRA:                  -1.197
REMARK UNBOUND:                -1.328
REMARK SMILES CC(C)=CCC[C@H](C)c1ccc(C)cc1
REMARK SMILES IDX 6 1 7 2 8 3 9 4 13 5 12 6 11 7 14 8 10 9 15 10 5 11 4 12
REMARK SMILES IDX 2 13 1 14 3 15
REMARK H PARENT
REMARK Flexibility Score: inf
ROOT
ATOM      1  C   UNL     1      95.924 102.302  97.399  1.00  0.00     0.012 C 
ENDROOT
BRANCH   1   2
ATOM      2  C   UNL     1      95.518 103.490  98.306  1.00  0.00     0.016 C 
ATOM      3  C   UNL     1      96.728 104.255  98.864  1.00  0.00     0.013 C 
BRANCH   2   4
ATOM      4  C   UNL     1      94.634 103.006  99.440  1.00  0.00    -0.045 A 
ATOM      5  C   UNL     1      92.097 101.659 102.668  1.00  0.00     0.044 C 
ATOM      6  C   UNL     1      92.967 102.103 101.530  1.00  0.00    -0.051 A 
ATOM      7  C   UNL     1      94.275 101.612 101.406  1.00  0.00     0.004 A 
ATOM      8  C   UNL     1      92.504 103.065 100.620  1.00  0.00     0.004 A 
ATOM      9  C   UNL     1      95.099 102.053 100.367  1.00  0.00     0.004 A 
ATOM     10  C   UNL     1      93.327 103.507  99.580  1.00  0.00     0.004 A 
ENDBRANCH   2   4
ENDBRANCH   1   2
BRANCH   1  11
ATOM     11  C   UNL     1      94.726 101.545  96.794  1.00  0.00     0.028 C 
BRANCH  11  12
ATOM     12  C   UNL     1      94.264 100.398  97.665  1.00  0.00    -0.028 C 
ATOM     13  C   UNL     1      92.971 100.196  97.992  1.00  0.00    -0.080 C 
ATOM     14  C   UNL     1      91.878 101.116  97.501  1.00  0.00     0.039 C 
ATOM     15  C   UNL     1      92.622  99.021  98.870  1.00  0.00     0.039 C 
ENDBRANCH  11  12
ENDBRANCH   1  11
TORSDOF 4
ENDMDL
MODEL 3
REMARK VINA RESULT:    -5.324      2.112      5.552
REMARK INTER + INTRA:          -7.896
REMARK INTER:                  -7.083
REMARK INTRA:                  -0.813
REMARK UNBOUND:                -1.328
REMARK SMILES CC(C)=CCC[C@H](C)c1ccc(C)cc1
REMARK SMILES IDX 6 1 7 2 8 3 9 4 13 5 12 6 11 7 14 8 10 9 15 10 5 11 4 12
REMARK SMILES IDX 2 13 1 14 3 15
REMARK H PARENT
REMARK Flexibility Score: inf
ROOT
ATOM      1  C   UNL     1      96.409 104.239  99.461  1.00  0.00     0.012 C 
ENDROOT
BRANCH   1   2
ATOM      2  C   UNL     1      96.642 103.095  98.444  1.00  0.00     0.016 C 
ATOM      3  C   UNL     1      96.709 103.592  96.992  1.00  0.00     0.013 C 
BRANCH   2   4
ATOM      4  C   UNL     1      95.562 102.037  98.587  1.00  0.00    -0.045 A 
ATOM      5  C   UNL     1      92.471  99.043  98.971  1.00  0.00     0.044 C 
ATOM      6  C   UNL     1      93.563 100.060  98.827  1.00  0.00    -0.051 A 
ATOM      7  C   UNL     1      94.444 100.309  99.890  1.00  0.00     0.004 A 
ATOM      8  C   UNL     1      93.671 100.820  97.653  1.00  0.00     0.004 A 
ATOM      9  C   UNL     1      95.438 101.283  99.770  1.00  0.00     0.004 A 
ATOM     10  C   UNL     1      94.666 101.794  97.531  1.00  0.00     0.004 A 
ENDBRANCH   2   4
ENDBRANCH   1   2
BRANCH   1  11
ATOM     11  C   UNL     1      94.987 104.830  99.415  1.00  0.00     0.028 C 
BRANCH  11  12
ATOM     12  C   UNL     1      94.971 106.323  99.656  1.00  0.00    -0.028 C 
ATOM     13  C   UNL     1      94.884 107.230  98.660  1.00  0.00    -0.080 C 
ATOM     14  C   UNL     1      94.792 106.807  97.212  1.00  0.00     0.039 C 
ATOM     15  C   UNL     1      94.878 108.695  99.013  1.00  0.00     0.039 C 
ENDBRANCH  11  12
ENDBRANCH   1  11
TORSDOF 4
ENDMDL
MODEL 4
REMARK VINA RESULT:    -5.206      1.367      4.748
REMARK INTER + INTRA:          -7.751
REMARK INTER:                  -7.201
REMARK INTRA:                  -0.550
REMARK UNBOUND:                -1.328
REMARK SMILES CC(C)=CCC[C@H](C)c1ccc(C)cc1
REMARK SMILES IDX 6 1 7 2 8 3 9 4 13 5 12 6 11 7 14 8 10 9 15 10 5 11 4 12
REMARK SMILES IDX 2 13 1 14 3 15
REMARK H PARENT
REMARK Flexibility Score: inf
ROOT
ATOM      1  C   UNL     1      96.105 104.202  99.170  1.00  0.00     0.012 C 
ENDROOT
BRANCH   1   2
ATOM      2  C   UNL     1      96.545 103.014  98.279  1.00  0.00     0.016 C 
ATOM      3  C   UNL     1      96.739 103.413  96.808  1.00  0.00     0.013 C 
BRANCH   2   4
ATOM      4  C   UNL     1      95.546 101.877  98.388  1.00  0.00    -0.045 A 
ATOM      5  C   UNL     1      92.725  98.621  98.719  1.00  0.00     0.044 C 
ATOM      6  C   UNL     1      93.684  99.769  98.620  1.00  0.00    -0.051 A 
ATOM      7  C   UNL     1      93.629 100.645  97.525  1.00  0.00     0.004 A 
ATOM      8  C   UNL     1      94.687  99.937  99.584  1.00  0.00     0.004 A 
ATOM      9  C   UNL     1      94.547 101.693  97.413  1.00  0.00     0.004 A 
ATOM     10  C   UNL     1      95.605 100.986  99.474  1.00  0.00     0.004 A 
ENDBRANCH   2   4
ENDBRANCH   1   2
BRANCH   1  11
ATOM     11  C   UNL     1      94.582 104.278  99.395  1.00  0.00     0.028 C 
BRANCH  11  12
ATOM     12  C   UNL     1      94.141 103.537 100.637  1.00  0.00    -0.028 C 
ATOM     13  C   UNL     1      92.968 102.875 100.722  1.00  0.00    -0.080 C 
ATOM     14  C   UNL     1      92.002 102.825  99.562  1.00  0.00     0.039 C 
ATOM     15  C   UNL     1      92.626 102.172 102.011  1.00  0.00     0.039 C 
ENDBRANCH  11  12
ENDBRANCH   1  11
TORSDOF 4
ENDMDL
MODEL 5
REMARK VINA RESULT:    -5.027      1.597      4.891
REMARK INTER + INTRA:          -7.531
REMARK INTER:                  -6.516
REMARK INTRA:                  -1.015
REMARK UNBOUND:                -1.328
REMARK SMILES CC(C)=CCC[C@H](C)c1ccc(C)cc1
REMARK SMILES IDX 6 1 7 2 8 3 9 4 13 5 12 6 11 7 14 8 10 9 15 10 5 11 4 12
REMARK SMILES IDX 2 13 1 14 3 15
REMARK H PARENT
REMARK Flexibility Score: inf
ROOT
ATOM      1  C   UNL     1      95.707 102.808  97.190  1.00  0.00     0.012 C 
ENDROOT
BRANCH   1   2
ATOM      2  C   UNL     1      95.024 101.487  97.621  1.00  0.00     0.016 C 
ATOM      3  C   UNL     1      94.067 100.934  96.555  1.00  0.00     0.013 C 
BRANCH   2   4
ATOM      4  C   UNL     1      94.290 101.680  98.936  1.00  0.00    -0.045 A 
ATOM      5  C   UNL     1      92.222 102.204 102.693  1.00  0.00     0.044 C 
ATOM      6  C   UNL     1      92.951 102.052 101.392  1.00  0.00    -0.051 A 
ATOM      7  C   UNL     1      92.324 102.395 100.185  1.00  0.00     0.004 A 
ATOM      8  C   UNL     1      94.240 101.500 101.364  1.00  0.00     0.004 A 
ATOM      9  C   UNL     1      92.989 102.217  98.968  1.00  0.00     0.004 A 
ATOM     10  C   UNL     1      94.907 101.323 100.149  1.00  0.00     0.004 A 
ENDBRANCH   2   4
ENDBRANCH   1   2
BRANCH   1  11
ATOM     11  C   UNL     1      96.113 103.711  98.370  1.00  0.00     0.028 C 
BRANCH  11  12
ATOM     12  C   UNL     1      95.814 105.172  98.114  1.00  0.00    -0.028 C 
ATOM     13  C   UNL     1      95.118 105.944  98.975  1.00  0.00    -0.080 C 
ATOM     14  C   UNL     1      94.584 105.394 100.276  1.00  0.00     0.039 C 
ATOM     15  C   UNL     1      94.876 107.388  98.617  1.00  0.00     0.039 C 
ENDBRANCH  11  12
ENDBRANCH   1  11
TORSDOF 4
ENDMDL
MODEL 6
REMARK VINA RESULT:    -4.831      1.384      2.575
REMARK INTER + INTRA:          -7.289
REMARK INTER:                  -6.382
REMARK INTRA:                  -0.907
REMARK UNBOUND:                -1.328
REMARK SMILES CC(C)=CCC[C@H](C)c1ccc(C)cc1
REMARK SMILES IDX 6 1 7 2 8 3 9 4 13 5 12 6 11 7 14 8 10 9 15 10 5 11 4 12
REMARK SMILES IDX 2 13 1 14 3 15
REMARK H PARENT
REMARK Flexibility Score: inf
ROOT
ATOM      1  C   UNL     1      95.770 100.607  99.602  1.00  0.00     0.012 C 
ENDROOT
BRANCH   1   2
ATOM      2  C   UNL     1      95.465 101.793 100.550  1.00  0.00     0.016 C 
ATOM      3  C   UNL     1      94.187 101.583 101.375  1.00  0.00     0.013 C 
BRANCH   2   4
ATOM      4  C   UNL     1      95.374 103.087  99.761  1.00  0.00    -0.045 A 
ATOM      5  C   UNL     1      95.085 106.776  97.531  1.00  0.00     0.044 C 
ATOM      6  C   UNL     1      95.211 105.507  98.320  1.00  0.00    -0.051 A 
ATOM      7  C   UNL     1      95.985 104.444  97.832  1.00  0.00     0.004 A 
ATOM      8  C   UNL     1      94.500 105.346  99.518  1.00  0.00     0.004 A 
ATOM      9  C   UNL     1      96.072 103.247  98.548  1.00  0.00     0.004 A 
ATOM     10  C   UNL     1      94.587 104.150 100.236  1.00  0.00     0.004 A 
ENDBRANCH   2   4
ENDBRANCH   1   2
BRANCH   1  11
ATOM     11  C   UNL     1      94.536  99.747  99.268  1.00  0.00     0.028 C 
BRANCH  11  12
ATOM     12  C   UNL     1      93.820 100.216  98.022  1.00  0.00    -0.028 C 
ATOM     13  C   UNL     1      92.609 100.811  98.047  1.00  0.00    -0.080 C 
ATOM     14  C   UNL     1      91.875 101.055  99.345  1.00  0.00     0.039 C 
ATOM     15  C   UNL     1      91.984 101.237  96.743  1.00  0.00     0.039 C 
ENDBRANCH  11  12
ENDBRANCH   1  11
TORSDOF 4
ENDMDL
MODEL 7
REMARK VINA RESULT:    -4.622     19.146     21.579
REMARK INTER + INTRA:          -7.030
REMARK INTER:                  -6.012
REMARK INTRA:                  -1.018
REMARK UNBOUND:                -1.328
REMARK SMILES CC(C)=CCC[C@H](C)c1ccc(C)cc1
REMARK SMILES IDX 6 1 7 2 8 3 9 4 13 5 12 6 11 7 14 8 10 9 15 10 5 11 4 12
REMARK SMILES IDX 2 13 1 14 3 15
REMARK H PARENT
REMARK Flexibility Score: inf
ROOT
ATOM      1  C   UNL     1     112.108 109.425 110.514  1.00  0.00     0.012 C 
ENDROOT
BRANCH   1   2
ATOM      2  C   UNL     1     111.017 110.015 111.442  1.00  0.00     0.016 C 
ATOM      3  C   UNL     1     111.586 110.978 112.495  1.00  0.00     0.013 C 
BRANCH   2   4
ATOM      4  C   UNL     1     110.240 108.898 112.116  1.00  0.00    -0.045 A 
ATOM      5  C   UNL     1     108.009 105.719 114.008  1.00  0.00     0.044 C 
ATOM      6  C   UNL     1     108.809 106.803 113.349  1.00  0.00    -0.051 A 
ATOM      7  C   UNL     1     109.556 107.702 114.125  1.00  0.00     0.004 A 
ATOM      8  C   UNL     1     108.761 106.971 111.958  1.00  0.00     0.004 A 
ATOM      9  C   UNL     1     110.271 108.736 113.514  1.00  0.00     0.004 A 
ATOM     10  C   UNL     1     109.476 108.004 111.346  1.00  0.00     0.004 A 
ENDBRANCH   2   4
ENDBRANCH   1   2
BRANCH   1  11
ATOM     11  C   UNL     1     111.942 109.819 109.034  1.00  0.00     0.028 C 
BRANCH  11  12
ATOM     12  C   UNL     1     111.500 108.660 108.170  1.00  0.00    -0.028 C 
ATOM     13  C   UNL     1     110.228 108.494 107.753  1.00  0.00    -0.080 C 
ATOM     14  C   UNL     1     109.140 109.474 108.125  1.00  0.00     0.039 C 
ATOM     15  C   UNL     1     109.896 107.299 106.896  1.00  0.00     0.039 C 
ENDBRANCH  11  12
ENDBRANCH   1  11
TORSDOF 4
ENDMDL
MODEL 8
REMARK VINA RESULT:    -4.487      2.155      4.645
REMARK INTER + INTRA:          -6.863
REMARK INTER:                  -5.818
REMARK INTRA:                  -1.045
REMARK UNBOUND:                -1.328
REMARK SMILES CC(C)=CCC[C@H](C)c1ccc(C)cc1
REMARK SMILES IDX 6 1 7 2 8 3 9 4 13 5 12 6 11 7 14 8 10 9 15 10 5 11 4 12
REMARK SMILES IDX 2 13 1 14 3 15
REMARK H PARENT
REMARK Flexibility Score: inf
ROOT
ATOM      1  C   UNL     1      96.307 102.455  99.210  1.00  0.00     0.012 C 
ENDROOT
BRANCH   1   2
ATOM      2  C   UNL     1      95.864 103.224  97.942  1.00  0.00     0.016 C 
ATOM      3  C   UNL     1      96.909 103.172  96.817  1.00  0.00     0.013 C 
BRANCH   2   4
ATOM      4  C   UNL     1      95.538 104.666  98.289  1.00  0.00    -0.045 A 
ATOM      5  C   UNL     1      94.622 108.779  99.245  1.00  0.00     0.044 C 
ATOM      6  C   UNL     1      94.909 107.345  98.913  1.00  0.00    -0.051 A 
ATOM      7  C   UNL     1      95.093 106.404  99.937  1.00  0.00     0.004 A 
ATOM      8  C   UNL     1      95.065 106.946  97.578  1.00  0.00     0.004 A 
ATOM      9  C   UNL     1      95.398 105.075  99.629  1.00  0.00     0.004 A 
ATOM     10  C   UNL     1      95.369 105.618  97.267  1.00  0.00     0.004 A 
ENDBRANCH   2   4
ENDBRANCH   1   2
BRANCH   1  11
ATOM     11  C   UNL     1      95.427 101.232  99.532  1.00  0.00     0.028 C 
BRANCH  11  12
ATOM     12  C   UNL     1      94.662 101.391 100.827  1.00  0.00    -0.028 C 
ATOM     13  C   UNL     1      93.404 101.875 100.885  1.00  0.00    -0.080 C 
ATOM     14  C   UNL     1      92.660 102.296  99.639  1.00  0.00     0.039 C 
ATOM     15  C   UNL     1      92.735 101.995 102.231  1.00  0.00     0.039 C 
ENDBRANCH  11  12
ENDBRANCH   1  11
TORSDOF 4
ENDMDL
