MODEL 1
REMARK VINA RESULT:    -2.051      0.000      0.000
REMARK INTER + INTRA:          -7.031
REMARK INTER:                  -4.690
REMARK INTRA:                  -2.341
REMARK UNBOUND:                -2.341
REMARK SMILES CCCCCCCCCCCCCCCCCCCCCCCC(=O)[O-]
REMARK SMILES IDX 13 1 14 2 15 3 16 4 17 5 18 6 19 7 20 8 21 9 22 10 23 11
REMARK SMILES IDX 24 12 25 13 26 14 12 15 11 16 10 17 9 18 8 19 7 20 6 21 5 22
REMARK SMILES IDX 4 23 3 24 2 25 1 26
REMARK H PARENT
REMARK Flexibility Score: inf
ROOT
ATOM      1  C   UNL     1       2.063  21.710   6.951  1.00  0.00     0.000 C 
ENDROOT
BRANCH   1   2
ATOM      2  C   UNL     1       1.180  21.515   5.705  1.00  0.00     0.000 C 
BRANCH   2   3
ATOM      3  C   UNL     1      -0.181  22.220   5.814  1.00  0.00     0.000 C 
BRANCH   3   4
ATOM      4  C   UNL     1      -1.168  21.657   4.782  1.00  0.00     0.000 C 
BRANCH   4   5
ATOM      5  C   UNL     1      -1.743  22.739   3.854  1.00  0.00     0.000 C 
BRANCH   5   6
ATOM      6  C   UNL     1      -1.806  22.284   2.387  1.00  0.00     0.000 C 
BRANCH   6   7
ATOM      7  C   UNL     1      -2.418  20.875   2.236  1.00  0.00     0.000 C 
BRANCH   7   8
ATOM      8  C   UNL     1      -3.916  20.889   1.875  1.00  0.00     0.000 C 
BRANCH   8   9
ATOM      9  C   UNL     1      -4.822  21.609   2.890  1.00  0.00     0.000 C 
BRANCH   9  10
ATOM     10  C   UNL     1      -6.314  21.227   2.826  1.00  0.00     0.006 C 
BRANCH  10  11
ATOM     11  C   UNL     1      -7.248  22.396   2.463  1.00  0.00     0.053 C 
BRANCH  11  12
ATOM     12  C   UNL     1      -8.695  22.065   2.669  1.00  0.00     0.041 C 
ATOM     13  O   UNL     1      -9.034  21.206   3.526  1.00  0.00    -0.550 OA
ATOM     14  O   UNL     1      -9.673  22.718   1.931  1.00  0.00    -0.550 OA
ENDBRANCH  11  12
ENDBRANCH  10  11
ENDBRANCH   9  10
ENDBRANCH   8   9
ENDBRANCH   7   8
ENDBRANCH   6   7
ENDBRANCH   5   6
ENDBRANCH   4   5
ENDBRANCH   3   4
ENDBRANCH   2   3
ENDBRANCH   1   2
BRANCH   1  15
ATOM     15  C   UNL     1       3.577  21.756   6.674  1.00  0.00     0.000 C 
BRANCH  15  16
ATOM     16  C   UNL     1       4.142  23.188   6.670  1.00  0.00     0.000 C 
BRANCH  16  17
ATOM     17  C   UNL     1       5.679  23.209   6.587  1.00  0.00     0.000 C 
BRANCH  17  18
ATOM     18  C   UNL     1       6.261  24.635   6.507  1.00  0.00    -0.000 C 
BRANCH  18  19
ATOM     19  C   UNL     1       6.840  24.983   5.122  1.00  0.00    -0.000 C 
BRANCH  19  20
ATOM     20  C   UNL     1       7.122  23.727   4.279  1.00  0.00    -0.000 C 
BRANCH  20  21
ATOM     21  C   UNL     1       6.381  23.746   2.928  1.00  0.00    -0.000 C 
BRANCH  21  22
ATOM     22  C   UNL     1       5.377  24.905   2.755  1.00  0.00    -0.000 C 
BRANCH  22  23
ATOM     23  C   UNL     1       3.951  24.621   3.269  1.00  0.00    -0.000 C 
BRANCH  23  24
ATOM     24  C   UNL     1       3.324  23.301   2.773  1.00  0.00    -0.000 C 
BRANCH  24  25
ATOM     25  C   UNL     1       1.805  23.360   2.537  1.00  0.00    -0.003 C 
ATOM     26  C   UNL     1       1.305  24.772   2.230  1.00  0.00     0.004 C 
ENDBRANCH  24  25
ENDBRANCH  23  24
ENDBRANCH  22  23
ENDBRANCH  21  22
ENDBRANCH  20  21
ENDBRANCH  19  20
ENDBRANCH  18  19
ENDBRANCH  17  18
ENDBRANCH  16  17
ENDBRANCH  15  16
ENDBRANCH   1  15
TORSDOF 22
ENDMDL
MODEL 2
REMARK VINA RESULT:    -1.967      1.550      4.041
REMARK INTER + INTRA:          -6.839
REMARK INTER:                  -4.978
REMARK INTRA:                  -1.860
REMARK UNBOUND:                -2.341
REMARK SMILES CCCCCCCCCCCCCCCCCCCCCCCC(=O)[O-]
REMARK SMILES IDX 13 1 14 2 15 3 16 4 17 5 18 6 19 7 20 8 21 9 22 10 23 11
REMARK SMILES IDX 24 12 25 13 26 14 12 15 11 16 10 17 9 18 8 19 7 20 6 21 5 22
REMARK SMILES IDX 4 23 3 24 2 25 1 26
REMARK H PARENT
REMARK Flexibility Score: inf
ROOT
ATOM      1  C   UNL     1       0.032  23.367   3.794  1.00  0.00     0.000 C 
ENDROOT
BRANCH   1   2
ATOM      2  C   UNL     1      -1.179  22.454   4.052  1.00  0.00     0.000 C 
BRANCH   2   3
ATOM      3  C   UNL     1      -1.570  21.610   2.829  1.00  0.00     0.000 C 
BRANCH   3   4
ATOM      4  C   UNL     1      -3.097  21.532   2.688  1.00  0.00     0.000 C 
BRANCH   4   5
ATOM      5  C   UNL     1      -3.781  20.947   3.933  1.00  0.00     0.000 C 
BRANCH   5   6
ATOM      6  C   UNL     1      -5.310  20.877   3.788  1.00  0.00     0.000 C 
BRANCH   6   7
ATOM      7  C   UNL     1      -5.868  22.013   2.904  1.00  0.00     0.000 C 
BRANCH   7   8
ATOM      8  C   UNL     1      -7.179  21.647   2.184  1.00  0.00     0.000 C 
BRANCH   8   9
ATOM      9  C   UNL     1      -8.371  21.356   3.113  1.00  0.00     0.000 C 
BRANCH   9  10
ATOM     10  C   UNL     1      -9.762  21.541   2.476  1.00  0.00     0.006 C 
BRANCH  10  11
ATOM     11  C   UNL     1     -10.692  22.487   3.259  1.00  0.00     0.053 C 
BRANCH  11  12
ATOM     12  C   UNL     1     -10.902  22.048   4.677  1.00  0.00     0.041 C 
ATOM     13  O   UNL     1     -10.158  22.486   5.594  1.00  0.00    -0.550 OA
ATOM     14  O   UNL     1     -11.931  21.171   4.991  1.00  0.00    -0.550 OA
ENDBRANCH  11  12
ENDBRANCH  10  11
ENDBRANCH   9  10
ENDBRANCH   8   9
ENDBRANCH   7   8
ENDBRANCH   6   7
ENDBRANCH   5   6
ENDBRANCH   4   5
ENDBRANCH   3   4
ENDBRANCH   2   3
ENDBRANCH   1   2
BRANCH   1  15
ATOM     15  C   UNL     1       0.010  24.113   2.448  1.00  0.00     0.000 C 
BRANCH  15  16
ATOM     16  C   UNL     1       1.418  24.360   1.876  1.00  0.00     0.000 C 
BRANCH  16  17
ATOM     17  C   UNL     1       2.177  25.457   2.645  1.00  0.00     0.000 C 
BRANCH  17  18
ATOM     18  C   UNL     1       3.702  25.229   2.675  1.00  0.00    -0.000 C 
BRANCH  18  19
ATOM     19  C   UNL     1       4.103  23.749   2.517  1.00  0.00    -0.000 C 
BRANCH  19  20
ATOM     20  C   UNL     1       4.209  23.029   3.873  1.00  0.00    -0.000 C 
BRANCH  20  21
ATOM     21  C   UNL     1       4.881  23.900   4.951  1.00  0.00    -0.000 C 
BRANCH  21  22
ATOM     22  C   UNL     1       4.554  23.498   6.405  1.00  0.00    -0.000 C 
BRANCH  22  23
ATOM     23  C   UNL     1       3.072  23.168   6.677  1.00  0.00    -0.000 C 
BRANCH  23  24
ATOM     24  C   UNL     1       2.771  21.683   6.966  1.00  0.00    -0.000 C 
BRANCH  24  25
ATOM     25  C   UNL     1       1.365  21.219   6.548  1.00  0.00    -0.003 C 
ATOM     26  C   UNL     1       0.251  21.943   7.305  1.00  0.00     0.004 C 
ENDBRANCH  24  25
ENDBRANCH  23  24
ENDBRANCH  22  23
ENDBRANCH  21  22
ENDBRANCH  20  21
ENDBRANCH  19  20
ENDBRANCH  18  19
ENDBRANCH  17  18
ENDBRANCH  16  17
ENDBRANCH  15  16
ENDBRANCH   1  15
TORSDOF 22
ENDMDL
MODEL 3
REMARK VINA RESULT:    -1.590      1.975      4.412
REMARK INTER + INTRA:          -5.976
REMARK INTER:                  -4.690
REMARK INTRA:                  -1.286
REMARK UNBOUND:                -2.341
REMARK SMILES CCCCCCCCCCCCCCCCCCCCCCCC(=O)[O-]
REMARK SMILES IDX 13 1 14 2 15 3 16 4 17 5 18 6 19 7 20 8 21 9 22 10 23 11
REMARK SMILES IDX 24 12 25 13 26 14 12 15 11 16 10 17 9 18 8 19 7 20 6 21 5 22
REMARK SMILES IDX 4 23 3 24 2 25 1 26
REMARK H PARENT
REMARK Flexibility Score: inf
ROOT
ATOM      1  C   UNL     1      -0.794  23.941   3.538  1.00  0.00     0.000 C 
ENDROOT
BRANCH   1   2
ATOM      2  C   UNL     1      -1.827  23.335   2.571  1.00  0.00     0.000 C 
BRANCH   2   3
ATOM      3  C   UNL     1      -1.328  22.057   1.879  1.00  0.00     0.000 C 
BRANCH   3   4
ATOM      4  C   UNL     1      -2.263  20.877   2.179  1.00  0.00     0.000 C 
BRANCH   4   5
ATOM      5  C   UNL     1      -3.745  21.220   1.960  1.00  0.00     0.000 C 
BRANCH   5   6
ATOM      6  C   UNL     1      -4.569  21.123   3.255  1.00  0.00     0.000 C 
BRANCH   6   7
ATOM      7  C   UNL     1      -5.959  21.779   3.115  1.00  0.00     0.000 C 
BRANCH   7   8
ATOM      8  C   UNL     1      -7.117  20.875   3.578  1.00  0.00     0.000 C 
BRANCH   8   9
ATOM      9  C   UNL     1      -8.521  21.359   3.172  1.00  0.00     0.000 C 
BRANCH   9  10
ATOM     10  C   UNL     1      -9.336  22.029   4.296  1.00  0.00     0.006 C 
BRANCH  10  11
ATOM     11  C   UNL     1     -10.706  21.374   4.555  1.00  0.00     0.053 C 
BRANCH  11  12
ATOM     12  C   UNL     1     -11.822  22.373   4.610  1.00  0.00     0.041 C 
ATOM     13  O   UNL     1     -12.926  22.063   5.132  1.00  0.00    -0.550 OA
ATOM     14  O   UNL     1     -11.640  23.653   4.105  1.00  0.00    -0.550 OA
ENDBRANCH  11  12
ENDBRANCH  10  11
ENDBRANCH   9  10
ENDBRANCH   8   9
ENDBRANCH   7   8
ENDBRANCH   6   7
ENDBRANCH   5   6
ENDBRANCH   4   5
ENDBRANCH   3   4
ENDBRANCH   2   3
ENDBRANCH   1   2
BRANCH   1  15
ATOM     15  C   UNL     1       0.162  24.970   2.907  1.00  0.00     0.000 C 
BRANCH  15  16
ATOM     16  C   UNL     1       1.186  24.330   1.952  1.00  0.00     0.000 C 
BRANCH  16  17
ATOM     17  C   UNL     1       1.972  23.185   2.618  1.00  0.00     0.000 C 
BRANCH  17  18
ATOM     18  C   UNL     1       3.492  23.439   2.661  1.00  0.00    -0.000 C 
BRANCH  18  19
ATOM     19  C   UNL     1       4.324  22.150   2.798  1.00  0.00    -0.000 C 
BRANCH  19  20
ATOM     20  C   UNL     1       5.156  22.132   4.093  1.00  0.00    -0.000 C 
BRANCH  20  21
ATOM     21  C   UNL     1       6.638  22.472   3.847  1.00  0.00    -0.000 C 
BRANCH  21  22
ATOM     22  C   UNL     1       6.965  23.980   3.841  1.00  0.00    -0.000 C 
BRANCH  22  23
ATOM     23  C   UNL     1       6.295  24.801   4.963  1.00  0.00    -0.000 C 
BRANCH  23  24
ATOM     24  C   UNL     1       6.994  24.730   6.336  1.00  0.00    -0.000 C 
BRANCH  24  25
ATOM     25  C   UNL     1       6.261  23.879   7.387  1.00  0.00    -0.003 C 
ATOM     26  C   UNL     1       6.967  22.556   7.679  1.00  0.00     0.004 C 
ENDBRANCH  24  25
ENDBRANCH  23  24
ENDBRANCH  22  23
ENDBRANCH  21  22
ENDBRANCH  20  21
ENDBRANCH  19  20
ENDBRANCH  18  19
ENDBRANCH  17  18
ENDBRANCH  16  17
ENDBRANCH  15  16
ENDBRANCH   1  15
TORSDOF 22
ENDMDL
MODEL 4
REMARK VINA RESULT:    -1.295      3.872      9.160
REMARK INTER + INTRA:          -5.302
REMARK INTER:                  -3.602
REMARK INTRA:                  -1.700
REMARK UNBOUND:                -2.341
REMARK SMILES CCCCCCCCCCCCCCCCCCCCCCCC(=O)[O-]
REMARK SMILES IDX 13 1 14 2 15 3 16 4 17 5 18 6 19 7 20 8 21 9 22 10 23 11
REMARK SMILES IDX 24 12 25 13 26 14 12 15 11 16 10 17 9 18 8 19 7 20 6 21 5 22
REMARK SMILES IDX 4 23 3 24 2 25 1 26
REMARK H PARENT
REMARK Flexibility Score: inf
ROOT
ATOM      1  C   UNL     1       1.000  21.882   6.997  1.00  0.00     0.000 C 
ENDROOT
BRANCH   1   2
ATOM      2  C   UNL     1       2.317  21.263   7.498  1.00  0.00     0.000 C 
BRANCH   2   3
ATOM      3  C   UNL     1       3.547  22.128   7.183  1.00  0.00     0.000 C 
BRANCH   3   4
ATOM      4  C   UNL     1       4.802  21.553   7.858  1.00  0.00     0.000 C 
BRANCH   4   5
ATOM      5  C   UNL     1       5.921  21.228   6.858  1.00  0.00     0.000 C 
BRANCH   5   6
ATOM      6  C   UNL     1       5.891  22.141   5.621  1.00  0.00     0.000 C 
BRANCH   6   7
ATOM      7  C   UNL     1       6.097  21.357   4.308  1.00  0.00     0.000 C 
BRANCH   7   8
ATOM      8  C   UNL     1       7.015  22.073   3.300  1.00  0.00     0.000 C 
BRANCH   8   9
ATOM      9  C   UNL     1       7.114  23.598   3.480  1.00  0.00     0.000 C 
BRANCH   9  10
ATOM     10  C   UNL     1       6.326  24.434   2.452  1.00  0.00     0.006 C 
BRANCH  10  11
ATOM     11  C   UNL     1       4.937  23.864   2.110  1.00  0.00     0.053 C 
BRANCH  11  12
ATOM     12  C   UNL     1       3.820  24.768   2.541  1.00  0.00     0.041 C 
ATOM     13  O   UNL     1       2.917  24.339   3.306  1.00  0.00    -0.550 OA
ATOM     14  O   UNL     1       3.787  26.088   2.114  1.00  0.00    -0.550 OA
ENDBRANCH  11  12
ENDBRANCH  10  11
ENDBRANCH   9  10
ENDBRANCH   8   9
ENDBRANCH   7   8
ENDBRANCH   6   7
ENDBRANCH   5   6
ENDBRANCH   4   5
ENDBRANCH   3   4
ENDBRANCH   2   3
ENDBRANCH   1   2
BRANCH   1  15
ATOM     15  C   UNL     1       0.134  20.952   6.128  1.00  0.00     0.000 C 
BRANCH  15  16
ATOM     16  C   UNL     1       0.608  20.886   4.664  1.00  0.00     0.000 C 
BRANCH  16  17
ATOM     17  C   UNL     1       0.555  22.259   3.970  1.00  0.00     0.000 C 
BRANCH  17  18
ATOM     18  C   UNL     1      -0.770  23.009   4.211  1.00  0.00    -0.000 C 
BRANCH  18  19
ATOM     19  C   UNL     1      -1.642  23.133   2.947  1.00  0.00    -0.000 C 
BRANCH  19  20
ATOM     20  C   UNL     1      -1.260  22.097   1.875  1.00  0.00    -0.000 C 
BRANCH  20  21
ATOM     21  C   UNL     1      -2.199  20.876   1.875  1.00  0.00    -0.000 C 
BRANCH  21  22
ATOM     22  C   UNL     1      -3.434  21.007   2.792  1.00  0.00    -0.000 C 
BRANCH  22  23
ATOM     23  C   UNL     1      -4.797  20.946   2.072  1.00  0.00    -0.000 C 
BRANCH  23  24
ATOM     24  C   UNL     1      -6.022  21.258   2.956  1.00  0.00    -0.000 C 
BRANCH  24  25
ATOM     25  C   UNL     1      -5.708  21.427   4.453  1.00  0.00    -0.003 C 
ATOM     26  C   UNL     1      -6.836  20.927   5.356  1.00  0.00     0.004 C 
ENDBRANCH  24  25
ENDBRANCH  23  24
ENDBRANCH  22  23
ENDBRANCH  21  22
ENDBRANCH  20  21
ENDBRANCH  19  20
ENDBRANCH  18  19
ENDBRANCH  17  18
ENDBRANCH  16  17
ENDBRANCH  15  16
ENDBRANCH   1  15
TORSDOF 22
ENDMDL
MODEL 5
REMARK VINA RESULT:    -1.189      4.667      9.197
REMARK INTER + INTRA:          -5.060
REMARK INTER:                  -4.410
REMARK INTRA:                  -0.649
REMARK UNBOUND:                -2.341
REMARK SMILES CCCCCCCCCCCCCCCCCCCCCCCC(=O)[O-]
REMARK SMILES IDX 13 1 14 2 15 3 16 4 17 5 18 6 19 7 20 8 21 9 22 10 23 11
REMARK SMILES IDX 24 12 25 13 26 14 12 15 11 16 10 17 9 18 8 19 7 20 6 21 5 22
REMARK SMILES IDX 4 23 3 24 2 25 1 26
REMARK H PARENT
REMARK Flexibility Score: inf
ROOT
ATOM      1  C   UNL     1       0.779  21.630   7.811  1.00  0.00     0.000 C 
ENDROOT
BRANCH   1   2
ATOM      2  C   UNL     1       1.734  20.886   6.862  1.00  0.00     0.000 C 
BRANCH   2   3
ATOM      3  C   UNL     1       2.731  21.818   6.157  1.00  0.00     0.000 C 
BRANCH   3   4
ATOM      4  C   UNL     1       3.499  21.063   5.061  1.00  0.00     0.000 C 
BRANCH   4   5
ATOM      5  C   UNL     1       3.371  21.725   3.681  1.00  0.00     0.000 C 
BRANCH   5   6
ATOM      6  C   UNL     1       2.952  23.202   3.771  1.00  0.00     0.000 C 
BRANCH   6   7
ATOM      7  C   UNL     1       2.949  23.896   2.393  1.00  0.00     0.000 C 
BRANCH   7   8
ATOM      8  C   UNL     1       4.314  24.493   2.000  1.00  0.00     0.000 C 
BRANCH   8   9
ATOM      9  C   UNL     1       5.060  25.212   3.138  1.00  0.00     0.000 C 
BRANCH   9  10
ATOM     10  C   UNL     1       6.157  24.382   3.832  1.00  0.00     0.006 C 
BRANCH  10  11
ATOM     11  C   UNL     1       6.446  24.809   5.284  1.00  0.00     0.053 C 
BRANCH  11  12
ATOM     12  C   UNL     1       6.606  23.640   6.209  1.00  0.00     0.041 C 
ATOM     13  O   UNL     1       6.581  22.465   5.757  1.00  0.00    -0.550 OA
ATOM     14  O   UNL     1       6.802  23.848   7.568  1.00  0.00    -0.550 OA
ENDBRANCH  11  12
ENDBRANCH  10  11
ENDBRANCH   9  10
ENDBRANCH   8   9
ENDBRANCH   7   8
ENDBRANCH   6   7
ENDBRANCH   5   6
ENDBRANCH   4   5
ENDBRANCH   3   4
ENDBRANCH   2   3
ENDBRANCH   1   2
BRANCH   1  15
ATOM     15  C   UNL     1      -0.524  20.879   8.144  1.00  0.00     0.000 C 
BRANCH  15  16
ATOM     16  C   UNL     1      -1.695  21.275   7.227  1.00  0.00     0.000 C 
BRANCH  16  17
ATOM     17  C   UNL     1      -1.232  21.594   5.793  1.00  0.00     0.000 C 
BRANCH  17  18
ATOM     18  C   UNL     1      -0.445  22.916   5.691  1.00  0.00    -0.000 C 
BRANCH  18  19
ATOM     19  C   UNL     1      -0.528  23.573   4.300  1.00  0.00    -0.000 C 
BRANCH  19  20
ATOM     20  C   UNL     1      -0.461  22.537   3.164  1.00  0.00    -0.000 C 
BRANCH  20  21
ATOM     21  C   UNL     1      -1.834  22.289   2.511  1.00  0.00    -0.000 C 
BRANCH  21  22
ATOM     22  C   UNL     1      -2.436  20.893   2.777  1.00  0.00    -0.000 C 
BRANCH  22  23
ATOM     23  C   UNL     1      -3.668  20.875   3.705  1.00  0.00    -0.000 C 
BRANCH  23  24
ATOM     24  C   UNL     1      -4.921  21.584   3.148  1.00  0.00    -0.000 C 
BRANCH  24  25
ATOM     25  C   UNL     1      -5.531  20.923   1.900  1.00  0.00    -0.003 C 
ATOM     26  C   UNL     1      -7.060  20.902   1.926  1.00  0.00     0.004 C 
ENDBRANCH  24  25
ENDBRANCH  23  24
ENDBRANCH  22  23
ENDBRANCH  21  22
ENDBRANCH  20  21
ENDBRANCH  19  20
ENDBRANCH  18  19
ENDBRANCH  17  18
ENDBRANCH  16  17
ENDBRANCH  15  16
ENDBRANCH   1  15
TORSDOF 22
ENDMDL
MODEL 6
REMARK VINA RESULT:    -1.113      4.027      5.712
REMARK INTER + INTRA:          -4.886
REMARK INTER:                  -3.194
REMARK INTRA:                  -1.692
REMARK UNBOUND:                -2.341
REMARK SMILES CCCCCCCCCCCCCCCCCCCCCCCC(=O)[O-]
REMARK SMILES IDX 13 1 14 2 15 3 16 4 17 5 18 6 19 7 20 8 21 9 22 10 23 11
REMARK SMILES IDX 24 12 25 13 26 14 12 15 11 16 10 17 9 18 8 19 7 20 6 21 5 22
REMARK SMILES IDX 4 23 3 24 2 25 1 26
REMARK H PARENT
REMARK Flexibility Score: inf
ROOT
ATOM      1  C   UNL     1       4.470  24.156   5.301  1.00  0.00     0.000 C 
ENDROOT
BRANCH   1   2
ATOM      2  C   UNL     1       3.382  23.751   4.290  1.00  0.00     0.000 C 
BRANCH   2   3
ATOM      3  C   UNL     1       3.484  22.283   3.849  1.00  0.00     0.000 C 
BRANCH   3   4
ATOM      4  C   UNL     1       2.088  21.696   3.592  1.00  0.00     0.000 C 
BRANCH   4   5
ATOM      5  C   UNL     1       1.649  21.824   2.125  1.00  0.00     0.000 C 
BRANCH   5   6
ATOM      6  C   UNL     1       0.195  21.377   1.904  1.00  0.00     0.000 C 
BRANCH   6   7
ATOM      7  C   UNL     1      -0.806  22.543   2.052  1.00  0.00     0.000 C 
BRANCH   7   8
ATOM      8  C   UNL     1      -1.820  22.343   3.195  1.00  0.00     0.000 C 
BRANCH   8   9
ATOM      9  C   UNL     1      -1.636  21.050   4.009  1.00  0.00     0.000 C 
BRANCH   9  10
ATOM     10  C   UNL     1      -1.190  21.252   5.470  1.00  0.00     0.006 C 
BRANCH  10  11
ATOM     11  C   UNL     1      -0.416  22.560   5.717  1.00  0.00     0.053 C 
BRANCH  11  12
ATOM     12  C   UNL     1       0.681  22.401   6.726  1.00  0.00     0.041 C 
ATOM     13  O   UNL     1       1.218  23.415   7.245  1.00  0.00    -0.550 OA
ATOM     14  O   UNL     1       1.099  21.134   7.109  1.00  0.00    -0.550 OA
ENDBRANCH  11  12
ENDBRANCH  10  11
ENDBRANCH   9  10
ENDBRANCH   8   9
ENDBRANCH   7   8
ENDBRANCH   6   7
ENDBRANCH   5   6
ENDBRANCH   4   5
ENDBRANCH   3   4
ENDBRANCH   2   3
ENDBRANCH   1   2
BRANCH   1  15
ATOM     15  C   UNL     1       5.895  24.241   4.724  1.00  0.00     0.000 C 
BRANCH  15  16
ATOM     16  C   UNL     1       6.149  25.544   3.945  1.00  0.00     0.000 C 
BRANCH  16  17
ATOM     17  C   UNL     1       5.803  25.408   2.450  1.00  0.00     0.000 C 
BRANCH  17  18
ATOM     18  C   UNL     1       5.532  23.952   2.022  1.00  0.00    -0.000 C 
BRANCH  18  19
ATOM     19  C   UNL     1       6.812  23.104   1.888  1.00  0.00    -0.000 C 
BRANCH  19  20
ATOM     20  C   UNL     1       6.511  21.595   1.893  1.00  0.00    -0.000 C 
BRANCH  20  21
ATOM     21  C   UNL     1       7.125  20.876   3.108  1.00  0.00    -0.000 C 
BRANCH  21  22
ATOM     22  C   UNL     1       7.021  21.649   4.440  1.00  0.00    -0.000 C 
BRANCH  22  23
ATOM     23  C   UNL     1       6.230  20.934   5.555  1.00  0.00    -0.000 C 
BRANCH  23  24
ATOM     24  C   UNL     1       6.760  21.160   6.986  1.00  0.00    -0.000 C 
BRANCH  24  25
ATOM     25  C   UNL     1       5.709  21.669   7.988  1.00  0.00    -0.003 C 
ATOM     26  C   UNL     1       4.301  21.157   7.682  1.00  0.00     0.004 C 
ENDBRANCH  24  25
ENDBRANCH  23  24
ENDBRANCH  22  23
ENDBRANCH  21  22
ENDBRANCH  20  21
ENDBRANCH  19  20
ENDBRANCH  18  19
ENDBRANCH  17  18
ENDBRANCH  16  17
ENDBRANCH  15  16
ENDBRANCH   1  15
TORSDOF 22
ENDMDL
MODEL 7
REMARK VINA RESULT:    -0.889      1.184      2.132
REMARK INTER + INTRA:          -4.373
REMARK INTER:                  -4.221
REMARK INTRA:                  -0.153
REMARK UNBOUND:                -2.341
REMARK SMILES CCCCCCCCCCCCCCCCCCCCCCCC(=O)[O-]
REMARK SMILES IDX 13 1 14 2 15 3 16 4 17 5 18 6 19 7 20 8 21 9 22 10 23 11
REMARK SMILES IDX 24 12 25 13 26 14 12 15 11 16 10 17 9 18 8 19 7 20 6 21 5 22
REMARK SMILES IDX 4 23 3 24 2 25 1 26
REMARK H PARENT
REMARK Flexibility Score: inf
ROOT
ATOM      1  C   UNL     1       1.003  21.099   5.584  1.00  0.00     0.000 C 
ENDROOT
BRANCH   1   2
ATOM      2  C   UNL     1      -0.111  22.099   5.230  1.00  0.00     0.000 C 
BRANCH   2   3
ATOM      3  C   UNL     1      -1.515  21.590   5.588  1.00  0.00     0.000 C 
BRANCH   3   4
ATOM      4  C   UNL     1      -2.213  21.005   4.351  1.00  0.00     0.000 C 
BRANCH   4   5
ATOM      5  C   UNL     1      -2.406  22.039   3.231  1.00  0.00     0.000 C 
BRANCH   5   6
ATOM      6  C   UNL     1      -2.890  21.402   1.918  1.00  0.00     0.000 C 
BRANCH   6   7
ATOM      7  C   UNL     1      -4.351  20.914   2.006  1.00  0.00     0.000 C 
BRANCH   7   8
ATOM      8  C   UNL     1      -5.227  21.759   2.951  1.00  0.00     0.000 C 
BRANCH   8   9
ATOM      9  C   UNL     1      -6.481  21.045   3.486  1.00  0.00     0.000 C 
BRANCH   9  10
ATOM     10  C   UNL     1      -7.728  21.142   2.585  1.00  0.00     0.006 C 
BRANCH  10  11
ATOM     11  C   UNL     1      -8.821  22.084   3.123  1.00  0.00     0.053 C 
BRANCH  11  12
ATOM     12  C   UNL     1      -9.756  21.399   4.075  1.00  0.00     0.041 C 
ATOM     13  O   UNL     1      -9.413  21.207   5.272  1.00  0.00    -0.550 OA
ATOM     14  O   UNL     1     -11.012  20.991   3.648  1.00  0.00    -0.550 OA
ENDBRANCH  11  12
ENDBRANCH  10  11
ENDBRANCH   9  10
ENDBRANCH   8   9
ENDBRANCH   7   8
ENDBRANCH   6   7
ENDBRANCH   5   6
ENDBRANCH   4   5
ENDBRANCH   3   4
ENDBRANCH   2   3
ENDBRANCH   1   2
BRANCH   1  15
ATOM     15  C   UNL     1       2.302  21.257   4.771  1.00  0.00     0.000 C 
BRANCH  15  16
ATOM     16  C   UNL     1       3.551  21.396   5.659  1.00  0.00     0.000 C 
BRANCH  16  17
ATOM     17  C   UNL     1       4.840  20.984   4.924  1.00  0.00     0.000 C 
BRANCH  17  18
ATOM     18  C   UNL     1       6.069  21.814   5.347  1.00  0.00    -0.000 C 
BRANCH  18  19
ATOM     19  C   UNL     1       5.838  22.645   6.624  1.00  0.00    -0.000 C 
BRANCH  19  20
ATOM     20  C   UNL     1       5.522  24.117   6.308  1.00  0.00    -0.000 C 
BRANCH  20  21
ATOM     21  C   UNL     1       6.473  24.710   5.251  1.00  0.00    -0.000 C 
BRANCH  21  22
ATOM     22  C   UNL     1       6.605  23.877   3.958  1.00  0.00    -0.000 C 
BRANCH  22  23
ATOM     23  C   UNL     1       6.039  24.543   2.687  1.00  0.00    -0.000 C 
BRANCH  23  24
ATOM     24  C   UNL     1       4.827  25.469   2.913  1.00  0.00    -0.000 C 
BRANCH  24  25
ATOM     25  C   UNL     1       3.514  24.975   2.281  1.00  0.00    -0.003 C 
ATOM     26  C   UNL     1       2.784  23.951   3.150  1.00  0.00     0.004 C 
ENDBRANCH  24  25
ENDBRANCH  23  24
ENDBRANCH  22  23
ENDBRANCH  21  22
ENDBRANCH  20  21
ENDBRANCH  19  20
ENDBRANCH  18  19
ENDBRANCH  17  18
ENDBRANCH  16  17
ENDBRANCH  15  16
ENDBRANCH   1  15
TORSDOF 22
ENDMDL
