MODEL 1
REMARK VINA RESULT:    -7.868      0.000      0.000
REMARK INTER + INTRA:          -9.763
REMARK INTER:                  -9.478
REMARK INTRA:                  -0.286
REMARK UNBOUND:                -0.286
REMARK SMILES O=c1c(O)c(-c2ccc(O)cc2O)oc2cc(O)cc(O)c12
REMARK SMILES IDX 5 1 3 2 2 3 1 4 22 5 20 6 19 7 17 8 16 9 15 10 14 11 6 12
REMARK SMILES IDX 8 13 7 14 9 15 11 16 12 17 10 18 13 20 4 22 21 24 18 26
REMARK H PARENT 10 19 13 21 4 23 21 25 18 27
REMARK Flexibility Score: inf
ROOT
ATOM      1  C   UNL     1      17.827   3.175  78.444  1.00  0.00     0.184 A 
ATOM      2  C   UNL     1      18.459   3.443  77.220  1.00  0.00     0.208 A 
ATOM      3  C   UNL     1      18.910   2.370  76.437  1.00  0.00     0.238 A 
ATOM      4  O   UNL     1      19.420   2.615  75.313  1.00  0.00    -0.285 OA
ATOM      5  C   UNL     1      18.750   1.043  76.904  1.00  0.00     0.111 A 
ATOM      6  C   UNL     1      19.205  -0.121  76.212  1.00  0.00     0.134 A 
ATOM      7  C   UNL     1      18.883  -1.390  76.709  1.00  0.00     0.093 A 
ATOM      8  C   UNL     1      18.179  -1.537  77.907  1.00  0.00     0.123 A 
ATOM      9  C   UNL     1      17.781  -0.409  78.619  1.00  0.00     0.094 A 
ATOM     10  C   UNL     1      18.055   0.870  78.130  1.00  0.00     0.146 A 
ATOM     11  O   UNL     1      17.645   1.920  78.833  1.00  0.00    -0.451 OA
ENDROOT
BRANCH   1  12
ATOM     12  C   UNL     1      17.352   4.267  79.322  1.00  0.00     0.063 A 
ATOM     13  C   UNL     1      15.974   6.250  79.620  1.00  0.00     0.047 A 
ATOM     14  C   UNL     1      16.400   5.178  78.833  1.00  0.00     0.020 A 
ATOM     15  C   UNL     1      16.497   6.431  80.902  1.00  0.00     0.119 A 
ATOM     16  C   UNL     1      17.447   5.530  81.399  1.00  0.00     0.093 A 
ATOM     17  C   UNL     1      17.874   4.445  80.623  1.00  0.00     0.130 A 
BRANCH  15  18
ATOM     18  O   UNL     1      16.067   7.508  81.674  1.00  0.00    -0.508 OA
ATOM     19  H   UNL     1      15.351   7.398  82.384  1.00  0.00     0.293 HD
ENDBRANCH  15  18
BRANCH  17  20
ATOM     20  O   UNL     1      18.796   3.557  81.183  1.00  0.00    -0.507 OA
ATOM     21  H   UNL     1      18.730   3.220  82.134  1.00  0.00     0.293 HD
ENDBRANCH  17  20
ENDBRANCH   1  12
BRANCH   2  22
ATOM     22  O   UNL     1      18.606   4.764  76.786  1.00  0.00    -0.502 OA
ATOM     23  H   UNL     1      19.511   5.172  76.587  1.00  0.00     0.293 HD
ENDBRANCH   2  22
BRANCH   6  24
ATOM     24  O   UNL     1      19.993  -0.085  75.057  1.00  0.00    -0.507 OA
ATOM     25  H   UNL     1      19.638  -0.148  74.115  1.00  0.00     0.293 HD
ENDBRANCH   6  24
BRANCH   8  26
ATOM     26  O   UNL     1      17.878  -2.804  78.402  1.00  0.00    -0.508 OA
ATOM     27  H   UNL     1      18.515  -3.584  78.287  1.00  0.00     0.293 HD
ENDBRANCH   8  26
TORSDOF 6
ENDMDL
MODEL 2
REMARK VINA RESULT:    -7.797      2.830      3.816
REMARK INTER + INTRA:          -9.677
REMARK INTER:                  -9.284
REMARK INTRA:                  -0.393
REMARK UNBOUND:                -0.286
REMARK SMILES O=c1c(O)c(-c2ccc(O)cc2O)oc2cc(O)cc(O)c12
REMARK SMILES IDX 5 1 3 2 2 3 1 4 22 5 20 6 19 7 17 8 16 9 15 10 14 11 6 12
REMARK SMILES IDX 8 13 7 14 9 15 11 16 12 17 10 18 13 20 4 22 21 24 18 26
REMARK H PARENT 10 19 13 21 4 23 21 25 18 27
REMARK Flexibility Score: inf
ROOT
ATOM      1  C   UNL     1      16.000   3.966  78.393  1.00  0.00     0.184 A 
ATOM      2  C   UNL     1      14.899   3.117  78.204  1.00  0.00     0.208 A 
ATOM      3  C   UNL     1      14.825   2.350  77.030  1.00  0.00     0.238 A 
ATOM      4  O   UNL     1      13.867   1.546  76.894  1.00  0.00    -0.285 OA
ATOM      5  C   UNL     1      15.838   2.468  76.048  1.00  0.00     0.111 A 
ATOM      6  C   UNL     1      15.845   1.769  74.803  1.00  0.00     0.134 A 
ATOM      7  C   UNL     1      16.960   1.869  73.961  1.00  0.00     0.093 A 
ATOM      8  C   UNL     1      18.039   2.692  74.290  1.00  0.00     0.123 A 
ATOM      9  C   UNL     1      18.017   3.422  75.475  1.00  0.00     0.094 A 
ATOM     10  C   UNL     1      16.936   3.316  76.353  1.00  0.00     0.146 A 
ATOM     11  O   UNL     1      16.961   4.018  77.480  1.00  0.00    -0.451 OA
ENDROOT
BRANCH   1  12
ATOM     12  C   UNL     1      16.121   4.814  79.599  1.00  0.00     0.063 A 
ATOM     13  C   UNL     1      15.378   6.756  80.863  1.00  0.00     0.047 A 
ATOM     14  C   UNL     1      15.252   5.907  79.762  1.00  0.00     0.020 A 
ATOM     15  C   UNL     1      16.378   6.532  81.812  1.00  0.00     0.119 A 
ATOM     16  C   UNL     1      17.250   5.448  81.658  1.00  0.00     0.093 A 
ATOM     17  C   UNL     1      17.126   4.583  80.565  1.00  0.00     0.130 A 
BRANCH  15  18
ATOM     18  O   UNL     1      16.495   7.392  82.902  1.00  0.00    -0.508 OA
ATOM     19  H   UNL     1      17.394   7.580  83.333  1.00  0.00     0.293 HD
ENDBRANCH  15  18
BRANCH  17  20
ATOM     20  O   UNL     1      18.001   3.496  80.482  1.00  0.00    -0.507 OA
ATOM     21  H   UNL     1      18.869   3.524  79.964  1.00  0.00     0.293 HD
ENDBRANCH  17  20
ENDBRANCH   1  12
BRANCH   2  22
ATOM     22  O   UNL     1      13.913   3.024  79.189  1.00  0.00    -0.502 OA
ATOM     23  H   UNL     1      13.782   2.190  79.749  1.00  0.00     0.293 HD
ENDBRANCH   2  22
BRANCH   6  24
ATOM     24  O   UNL     1      14.779   0.993  74.336  1.00  0.00    -0.507 OA
ATOM     25  H   UNL     1      14.681   0.000  74.485  1.00  0.00     0.293 HD
ENDBRANCH   6  24
BRANCH   8  26
ATOM     26  O   UNL     1      19.137   2.797  73.439  1.00  0.00    -0.508 OA
ATOM     27  H   UNL     1      19.732   3.617  73.439  1.00  0.00     0.293 HD
ENDBRANCH   8  26
TORSDOF 6
ENDMDL
MODEL 3
REMARK VINA RESULT:    -7.777      3.029      6.954
REMARK INTER + INTRA:          -9.654
REMARK INTER:                  -9.359
REMARK INTRA:                  -0.295
REMARK UNBOUND:                -0.286
REMARK SMILES O=c1c(O)c(-c2ccc(O)cc2O)oc2cc(O)cc(O)c12
REMARK SMILES IDX 5 1 3 2 2 3 1 4 22 5 20 6 19 7 17 8 16 9 15 10 14 11 6 12
REMARK SMILES IDX 8 13 7 14 9 15 11 16 12 17 10 18 13 20 4 22 21 24 18 26
REMARK H PARENT 10 19 13 21 4 23 21 25 18 27
REMARK Flexibility Score: inf
ROOT
ATOM      1  C   UNL     1      16.448   4.444  79.801  1.00  0.00     0.184 A 
ATOM      2  C   UNL     1      16.613   5.116  81.022  1.00  0.00     0.208 A 
ATOM      3  C   UNL     1      15.478   5.422  81.789  1.00  0.00     0.238 A 
ATOM      4  O   UNL     1      15.637   5.970  82.910  1.00  0.00    -0.285 OA
ATOM      5  C   UNL     1      14.191   5.078  81.309  1.00  0.00     0.111 A 
ATOM      6  C   UNL     1      12.968   5.375  81.983  1.00  0.00     0.134 A 
ATOM      7  C   UNL     1      11.760   4.878  81.476  1.00  0.00     0.093 A 
ATOM      8  C   UNL     1      11.726   4.152  80.283  1.00  0.00     0.123 A 
ATOM      9  C   UNL     1      12.906   3.906  79.588  1.00  0.00     0.094 A 
ATOM     10  C   UNL     1      14.130   4.356  80.088  1.00  0.00     0.146 A 
ATOM     11  O   UNL     1      15.234   4.088  79.400  1.00  0.00    -0.451 OA
ENDROOT
BRANCH   1  12
ATOM     12  C   UNL     1      17.605   4.115  78.940  1.00  0.00     0.063 A 
ATOM     13  C   UNL     1      19.749   2.999  78.668  1.00  0.00     0.047 A 
ATOM     14  C   UNL     1      18.620   3.281  79.439  1.00  0.00     0.020 A 
ATOM     15  C   UNL     1      19.885   3.550  77.392  1.00  0.00     0.119 A 
ATOM     16  C   UNL     1      18.880   4.384  76.886  1.00  0.00     0.093 A 
ATOM     17  C   UNL     1      17.738   4.666  77.644  1.00  0.00     0.130 A 
BRANCH  15  18
ATOM     18  O   UNL     1      21.020   3.264  76.637  1.00  0.00    -0.508 OA
ATOM     19  H   UNL     1      20.962   3.086  75.640  1.00  0.00     0.293 HD
ENDBRANCH  15  18
BRANCH  17  20
ATOM     20  O   UNL     1      16.751   5.474  77.074  1.00  0.00    -0.507 OA
ATOM     21  H   UNL     1      16.143   5.160  76.329  1.00  0.00     0.293 HD
ENDBRANCH  17  20
ENDBRANCH   1  12
BRANCH   2  22
ATOM     22  O   UNL     1      17.895   5.446  81.468  1.00  0.00    -0.502 OA
ATOM     23  H   UNL     1      18.057   5.946  82.334  1.00  0.00     0.293 HD
ENDBRANCH   2  22
BRANCH   6  24
ATOM     24  O   UNL     1      12.881   6.169  83.131  1.00  0.00    -0.507 OA
ATOM     25  H   UNL     1      13.615   6.276  83.815  1.00  0.00     0.293 HD
ENDBRANCH   6  24
BRANCH   8  26
ATOM     26  O   UNL     1      10.518   3.675  79.778  1.00  0.00    -0.508 OA
ATOM     27  H   UNL     1       9.746   4.299  79.572  1.00  0.00     0.293 HD
ENDBRANCH   8  26
TORSDOF 6
ENDMDL
MODEL 4
REMARK VINA RESULT:    -7.759      4.161      6.543
REMARK INTER + INTRA:          -9.632
REMARK INTER:                  -9.445
REMARK INTRA:                  -0.187
REMARK UNBOUND:                -0.286
REMARK SMILES O=c1c(O)c(-c2ccc(O)cc2O)oc2cc(O)cc(O)c12
REMARK SMILES IDX 5 1 3 2 2 3 1 4 22 5 20 6 19 7 17 8 16 9 15 10 14 11 6 12
REMARK SMILES IDX 8 13 7 14 9 15 11 16 12 17 10 18 13 20 4 22 21 24 18 26
REMARK H PARENT 10 19 13 21 4 23 21 25 18 27
REMARK Flexibility Score: inf
ROOT
ATOM      1  C   UNL     1      13.670   4.642  81.156  1.00  0.00     0.184 A 
ATOM      2  C   UNL     1      14.464   4.082  82.168  1.00  0.00     0.208 A 
ATOM      3  C   UNL     1      15.803   3.767  81.887  1.00  0.00     0.238 A 
ATOM      4  O   UNL     1      16.527   3.323  82.815  1.00  0.00    -0.285 OA
ATOM      5  C   UNL     1      16.320   3.990  80.587  1.00  0.00     0.111 A 
ATOM      6  C   UNL     1      17.650   3.672  80.178  1.00  0.00     0.134 A 
ATOM      7  C   UNL     1      18.090   4.049  78.903  1.00  0.00     0.093 A 
ATOM      8  C   UNL     1      17.226   4.674  77.999  1.00  0.00     0.123 A 
ATOM      9  C   UNL     1      15.910   4.936  78.368  1.00  0.00     0.094 A 
ATOM     10  C   UNL     1      15.453   4.606  79.646  1.00  0.00     0.146 A 
ATOM     11  O   UNL     1      14.194   4.887  79.962  1.00  0.00    -0.451 OA
ENDROOT
BRANCH   1  12
ATOM     12  C   UNL     1      12.247   4.972  81.388  1.00  0.00     0.063 A 
ATOM     13  C   UNL     1      10.554   6.043  82.770  1.00  0.00     0.047 A 
ATOM     14  C   UNL     1      11.895   5.761  82.496  1.00  0.00     0.020 A 
ATOM     15  C   UNL     1       9.548   5.535  81.946  1.00  0.00     0.119 A 
ATOM     16  C   UNL     1       9.887   4.747  80.839  1.00  0.00     0.093 A 
ATOM     17  C   UNL     1      11.227   4.467  80.548  1.00  0.00     0.130 A 
BRANCH  15  18
ATOM     18  O   UNL     1       8.215   5.820  82.235  1.00  0.00    -0.508 OA
ATOM     19  H   UNL     1       7.457   5.313  81.792  1.00  0.00     0.293 HD
ENDBRANCH  15  18
BRANCH  17  20
ATOM     20  O   UNL     1      11.510   3.706  79.411  1.00  0.00    -0.507 OA
ATOM     21  H   UNL     1      10.800   3.206  78.892  1.00  0.00     0.293 HD
ENDBRANCH  17  20
ENDBRANCH   1  12
BRANCH   2  22
ATOM     22  O   UNL     1      13.926   3.871  83.440  1.00  0.00    -0.502 OA
ATOM     23  H   UNL     1      14.413   3.343  84.155  1.00  0.00     0.293 HD
ENDBRANCH   2  22
BRANCH   6  24
ATOM     24  O   UNL     1      18.564   2.969  80.969  1.00  0.00    -0.507 OA
ATOM     25  H   UNL     1      19.499   3.279  81.184  1.00  0.00     0.293 HD
ENDBRANCH   6  24
BRANCH   8  26
ATOM     26  O   UNL     1      17.668   5.031  76.727  1.00  0.00    -0.508 OA
ATOM     27  H   UNL     1      17.072   5.534  76.080  1.00  0.00     0.293 HD
ENDBRANCH   8  26
TORSDOF 6
ENDMDL
MODEL 5
REMARK VINA RESULT:    -7.661      2.687      6.456
REMARK INTER + INTRA:          -9.514
REMARK INTER:                  -9.141
REMARK INTRA:                  -0.372
REMARK UNBOUND:                -0.286
REMARK SMILES O=c1c(O)c(-c2ccc(O)cc2O)oc2cc(O)cc(O)c12
REMARK SMILES IDX 5 1 3 2 2 3 1 4 22 5 20 6 19 7 17 8 16 9 15 10 14 11 6 12
REMARK SMILES IDX 8 13 7 14 9 15 11 16 12 17 10 18 13 20 4 22 21 24 18 26
REMARK H PARENT 10 19 13 21 4 23 21 25 18 27
REMARK Flexibility Score: inf
ROOT
ATOM      1  C   UNL     1      17.526   2.678  79.675  1.00  0.00     0.184 A 
ATOM      2  C   UNL     1      16.877   1.445  79.846  1.00  0.00     0.208 A 
ATOM      3  C   UNL     1      16.115   1.231  81.005  1.00  0.00     0.238 A 
ATOM      4  O   UNL     1      15.487   0.148  81.123  1.00  0.00    -0.285 OA
ATOM      5  C   UNL     1      16.038   2.243  81.993  1.00  0.00     0.111 A 
ATOM      6  C   UNL     1      15.328   2.121  83.225  1.00  0.00     0.134 A 
ATOM      7  C   UNL     1      15.218   3.231  84.073  1.00  0.00     0.093 A 
ATOM      8  C   UNL     1      15.847   4.439  83.762  1.00  0.00     0.123 A 
ATOM      9  C   UNL     1      16.590   4.551  82.590  1.00  0.00     0.094 A 
ATOM     10  C   UNL     1      16.688   3.474  81.707  1.00  0.00     0.146 A 
ATOM     11  O   UNL     1      17.395   3.627  80.593  1.00  0.00    -0.451 OA
ENDROOT
BRANCH   1  12
ATOM     12  C   UNL     1      18.361   2.952  78.486  1.00  0.00     0.063 A 
ATOM     13  C   UNL     1      20.384   2.501  77.212  1.00  0.00     0.047 A 
ATOM     14  C   UNL     1      19.550   2.226  78.298  1.00  0.00     0.020 A 
ATOM     15  C   UNL     1      20.049   3.508  76.305  1.00  0.00     0.119 A 
ATOM     16  C   UNL     1      18.867   4.239  76.484  1.00  0.00     0.093 A 
ATOM     17  C   UNL     1      18.017   3.965  77.561  1.00  0.00     0.130 A 
BRANCH  15  18
ATOM     18  O   UNL     1      20.895   3.775  75.231  1.00  0.00    -0.508 OA
ATOM     19  H   UNL     1      21.793   3.314  75.138  1.00  0.00     0.293 HD
ENDBRANCH  15  18
BRANCH  17  20
ATOM     20  O   UNL     1      16.833   4.699  77.670  1.00  0.00    -0.507 OA
ATOM     21  H   UNL     1      16.122   4.501  78.361  1.00  0.00     0.293 HD
ENDBRANCH  17  20
ENDBRANCH   1  12
BRANCH   2  22
ATOM     22  O   UNL     1      16.974   0.464  78.856  1.00  0.00    -0.502 OA
ATOM     23  H   UNL     1      17.655   0.513  78.107  1.00  0.00     0.293 HD
ENDBRANCH   2  22
BRANCH   6  24
ATOM     24  O   UNL     1      14.741   0.934  83.674  1.00  0.00    -0.507 OA
ATOM     25  H   UNL     1      13.916   0.882  84.252  1.00  0.00     0.293 HD
ENDBRANCH   6  24
BRANCH   8  26
ATOM     26  O   UNL     1      15.745   5.533  84.619  1.00  0.00    -0.508 OA
ATOM     27  H   UNL     1      15.715   5.418  85.625  1.00  0.00     0.293 HD
ENDBRANCH   8  26
TORSDOF 6
ENDMDL
MODEL 6
REMARK VINA RESULT:    -7.591      1.857      6.390
REMARK INTER + INTRA:          -9.429
REMARK INTER:                  -9.017
REMARK INTRA:                  -0.413
REMARK UNBOUND:                -0.286
REMARK SMILES O=c1c(O)c(-c2ccc(O)cc2O)oc2cc(O)cc(O)c12
REMARK SMILES IDX 5 1 3 2 2 3 1 4 22 5 20 6 19 7 17 8 16 9 15 10 14 11 6 12
REMARK SMILES IDX 8 13 7 14 9 15 11 16 12 17 10 18 13 20 4 22 21 24 18 26
REMARK H PARENT 10 19 13 21 4 23 21 25 18 27
REMARK Flexibility Score: inf
ROOT
ATOM      1  C   UNL     1      18.176   3.133  77.734  1.00  0.00     0.184 A 
ATOM      2  C   UNL     1      17.644   4.317  77.200  1.00  0.00     0.208 A 
ATOM      3  C   UNL     1      16.994   5.219  78.058  1.00  0.00     0.238 A 
ATOM      4  O   UNL     1      16.574   6.306  77.584  1.00  0.00    -0.285 OA
ATOM      5  C   UNL     1      16.860   4.909  79.433  1.00  0.00     0.111 A 
ATOM      6  C   UNL     1      16.186   5.730  80.387  1.00  0.00     0.134 A 
ATOM      7  C   UNL     1      16.221   5.384  81.744  1.00  0.00     0.093 A 
ATOM      8  C   UNL     1      16.850   4.213  82.172  1.00  0.00     0.123 A 
ATOM      9  C   UNL     1      17.461   3.375  81.243  1.00  0.00     0.094 A 
ATOM     10  C   UNL     1      17.475   3.712  79.887  1.00  0.00     0.146 A 
ATOM     11  O   UNL     1      18.080   2.893  79.035  1.00  0.00    -0.451 OA
ENDROOT
BRANCH   1  12
ATOM     12  C   UNL     1      18.850   2.136  76.875  1.00  0.00     0.063 A 
ATOM     13  C   UNL     1      18.738   0.060  75.611  1.00  0.00     0.047 A 
ATOM     14  C   UNL     1      18.114   1.046  76.379  1.00  0.00     0.020 A 
ATOM     15  C   UNL     1      20.104   0.144  75.334  1.00  0.00     0.119 A 
ATOM     16  C   UNL     1      20.847   1.224  75.825  1.00  0.00     0.093 A 
ATOM     17  C   UNL     1      20.231   2.225  76.587  1.00  0.00     0.130 A 
BRANCH  15  18
ATOM     18  O   UNL     1      20.713  -0.851  74.572  1.00  0.00    -0.508 OA
ATOM     19  H   UNL     1      21.132  -0.645  73.671  1.00  0.00     0.293 HD
ENDBRANCH  15  18
BRANCH  17  20
ATOM     20  O   UNL     1      21.013   3.299  77.020  1.00  0.00    -0.507 OA
ATOM     21  H   UNL     1      20.655   4.240  77.114  1.00  0.00     0.293 HD
ENDBRANCH  17  20
ENDBRANCH   1  12
BRANCH   2  22
ATOM     22  O   UNL     1      17.789   4.594  75.838  1.00  0.00    -0.502 OA
ATOM     23  H   UNL     1      18.509   4.165  75.271  1.00  0.00     0.293 HD
ENDBRANCH   2  22
BRANCH   6  24
ATOM     24  O   UNL     1      15.451   6.872  80.054  1.00  0.00    -0.507 OA
ATOM     25  H   UNL     1      14.643   7.205  80.558  1.00  0.00     0.293 HD
ENDBRANCH   6  24
BRANCH   8  26
ATOM     26  O   UNL     1      16.867   3.869  83.522  1.00  0.00    -0.508 OA
ATOM     27  H   UNL     1      17.732   3.663  84.007  1.00  0.00     0.293 HD
ENDBRANCH   8  26
TORSDOF 6
ENDMDL
MODEL 7
REMARK VINA RESULT:    -7.567      2.960      4.282
REMARK INTER + INTRA:          -9.401
REMARK INTER:                  -9.105
REMARK INTRA:                  -0.296
REMARK UNBOUND:                -0.286
REMARK SMILES O=c1c(O)c(-c2ccc(O)cc2O)oc2cc(O)cc(O)c12
REMARK SMILES IDX 5 1 3 2 2 3 1 4 22 5 20 6 19 7 17 8 16 9 15 10 14 11 6 12
REMARK SMILES IDX 8 13 7 14 9 15 11 16 12 17 10 18 13 20 4 22 21 24 18 26
REMARK H PARENT 10 19 13 21 4 23 21 25 18 27
REMARK Flexibility Score: inf
ROOT
ATOM      1  C   UNL     1      17.599   1.457  79.974  1.00  0.00     0.184 A 
ATOM      2  C   UNL     1      18.490   2.531  80.123  1.00  0.00     0.208 A 
ATOM      3  C   UNL     1      19.383   2.824  79.081  1.00  0.00     0.238 A 
ATOM      4  O   UNL     1      20.136   3.826  79.196  1.00  0.00    -0.285 OA
ATOM      5  C   UNL     1      19.394   2.019  77.916  1.00  0.00     0.111 A 
ATOM      6  C   UNL     1      20.284   2.200  76.814  1.00  0.00     0.134 A 
ATOM      7  C   UNL     1      20.123   1.420  75.661  1.00  0.00     0.093 A 
ATOM      8  C   UNL     1      19.146   0.424  75.597  1.00  0.00     0.123 A 
ATOM      9  C   UNL     1      18.311   0.201  76.688  1.00  0.00     0.094 A 
ATOM     10  C   UNL     1      18.422   0.987  77.837  1.00  0.00     0.146 A 
ATOM     11  O   UNL     1      17.596   0.751  78.850  1.00  0.00    -0.451 OA
ENDROOT
BRANCH   1  12
ATOM     12  C   UNL     1      16.651   1.087  81.047  1.00  0.00     0.063 A 
ATOM     13  C   UNL     1      15.863  -0.562  82.653  1.00  0.00     0.047 A 
ATOM     14  C   UNL     1      16.776  -0.164  81.675  1.00  0.00     0.020 A 
ATOM     15  C   UNL     1      14.808   0.279  83.012  1.00  0.00     0.119 A 
ATOM     16  C   UNL     1      14.672   1.527  82.392  1.00  0.00     0.093 A 
ATOM     17  C   UNL     1      15.588   1.942  81.418  1.00  0.00     0.130 A 
BRANCH  15  18
ATOM     18  O   UNL     1      13.900  -0.134  83.986  1.00  0.00    -0.508 OA
ATOM     19  H   UNL     1      13.453   0.530  84.608  1.00  0.00     0.293 HD
ENDBRANCH  15  18
BRANCH  17  20
ATOM     20  O   UNL     1      15.426   3.212  80.859  1.00  0.00    -0.507 OA
ATOM     21  H   UNL     1      14.603   3.485  80.339  1.00  0.00     0.293 HD
ENDBRANCH  17  20
ENDBRANCH   1  12
BRANCH   2  22
ATOM     22  O   UNL     1      18.458   3.306  81.285  1.00  0.00    -0.502 OA
ATOM     23  H   UNL     1      19.226   3.908  81.557  1.00  0.00     0.293 HD
ENDBRANCH   2  22
BRANCH   6  24
ATOM     24  O   UNL     1      21.351   3.104  76.811  1.00  0.00    -0.507 OA
ATOM     25  H   UNL     1      22.163   3.038  77.406  1.00  0.00     0.293 HD
ENDBRANCH   6  24
BRANCH   8  26
ATOM     26  O   UNL     1      19.003  -0.357  74.452  1.00  0.00    -0.508 OA
ATOM     27  H   UNL     1      19.550  -1.198  74.312  1.00  0.00     0.293 HD
ENDBRANCH   8  26
TORSDOF 6
ENDMDL
MODEL 8
REMARK VINA RESULT:    -7.552      2.814      4.299
REMARK INTER + INTRA:          -9.383
REMARK INTER:                  -8.970
REMARK INTRA:                  -0.413
REMARK UNBOUND:                -0.286
REMARK SMILES O=c1c(O)c(-c2ccc(O)cc2O)oc2cc(O)cc(O)c12
REMARK SMILES IDX 5 1 3 2 2 3 1 4 22 5 20 6 19 7 17 8 16 9 15 10 14 11 6 12
REMARK SMILES IDX 8 13 7 14 9 15 11 16 12 17 10 18 13 20 4 22 21 24 18 26
REMARK H PARENT 10 19 13 21 4 23 21 25 18 27
REMARK Flexibility Score: inf
ROOT
ATOM      1  C   UNL     1      16.454   4.705  80.289  1.00  0.00     0.184 A 
ATOM      2  C   UNL     1      17.701   4.342  80.821  1.00  0.00     0.208 A 
ATOM      3  C   UNL     1      18.692   3.848  79.959  1.00  0.00     0.238 A 
ATOM      4  O   UNL     1      19.827   3.584  80.433  1.00  0.00    -0.285 OA
ATOM      5  C   UNL     1      18.411   3.695  78.580  1.00  0.00     0.111 A 
ATOM      6  C   UNL     1      19.326   3.166  77.620  1.00  0.00     0.134 A 
ATOM      7  C   UNL     1      18.984   3.174  76.261  1.00  0.00     0.093 A 
ATOM      8  C   UNL     1      17.734   3.632  75.836  1.00  0.00     0.123 A 
ATOM      9  C   UNL     1      16.813   4.096  76.770  1.00  0.00     0.094 A 
ATOM     10  C   UNL     1      17.138   4.135  78.128  1.00  0.00     0.146 A 
ATOM     11  O   UNL     1      16.235   4.598  78.985  1.00  0.00    -0.451 OA
ENDROOT
BRANCH   1  12
ATOM     12  C   UNL     1      15.364   5.209  81.153  1.00  0.00     0.063 A 
ATOM     13  C   UNL     1      13.321   4.771  82.399  1.00  0.00     0.047 A 
ATOM     14  C   UNL     1      14.391   4.313  81.628  1.00  0.00     0.020 A 
ATOM     15  C   UNL     1      13.203   6.129  82.701  1.00  0.00     0.119 A 
ATOM     16  C   UNL     1      14.166   7.031  82.232  1.00  0.00     0.093 A 
ATOM     17  C   UNL     1      15.249   6.583  81.467  1.00  0.00     0.130 A 
BRANCH  15  18
ATOM     18  O   UNL     1      12.127   6.572  83.467  1.00  0.00    -0.508 OA
ATOM     19  H   UNL     1      12.229   7.328  84.136  1.00  0.00     0.293 HD
ENDBRANCH  15  18
BRANCH  17  20
ATOM     20  O   UNL     1      16.199   7.521  81.056  1.00  0.00    -0.507 OA
ATOM     21  H   UNL     1      16.443   8.336  81.604  1.00  0.00     0.293 HD
ENDBRANCH  17  20
ENDBRANCH   1  12
BRANCH   2  22
ATOM     22  O   UNL     1      17.948   4.502  82.187  1.00  0.00    -0.502 OA
ATOM     23  H   UNL     1      17.304   4.175  82.898  1.00  0.00     0.293 HD
ENDBRANCH   2  22
BRANCH   6  24
ATOM     24  O   UNL     1      20.562   2.601  77.948  1.00  0.00    -0.507 OA
ATOM     25  H   UNL     1      21.458   3.028  77.766  1.00  0.00     0.293 HD
ENDBRANCH   6  24
BRANCH   8  26
ATOM     26  O   UNL     1      17.397   3.622  74.485  1.00  0.00    -0.508 OA
ATOM     27  H   UNL     1      17.963   4.101  73.793  1.00  0.00     0.293 HD
ENDBRANCH   8  26
TORSDOF 6
ENDMDL
MODEL 9
REMARK VINA RESULT:    -7.438      2.305      6.685
REMARK INTER + INTRA:          -9.245
REMARK INTER:                  -8.851
REMARK INTRA:                  -0.394
REMARK UNBOUND:                -0.286
REMARK SMILES O=c1c(O)c(-c2ccc(O)cc2O)oc2cc(O)cc(O)c12
REMARK SMILES IDX 5 1 3 2 2 3 1 4 22 5 20 6 19 7 17 8 16 9 15 10 14 11 6 12
REMARK SMILES IDX 8 13 7 14 9 15 11 16 12 17 10 18 13 20 4 22 21 24 18 26
REMARK H PARENT 10 19 13 21 4 23 21 25 18 27
REMARK Flexibility Score: inf
ROOT
ATOM      1  C   UNL     1      17.779   3.328  78.680  1.00  0.00     0.184 A 
ATOM      2  C   UNL     1      17.705   2.267  79.596  1.00  0.00     0.208 A 
ATOM      3  C   UNL     1      17.279   2.529  80.908  1.00  0.00     0.238 A 
ATOM      4  O   UNL     1      17.156   1.565  81.706  1.00  0.00    -0.285 OA
ATOM      5  C   UNL     1      16.962   3.854  81.293  1.00  0.00     0.111 A 
ATOM      6  C   UNL     1      16.557   4.242  82.606  1.00  0.00     0.134 A 
ATOM      7  C   UNL     1      16.150   5.562  82.842  1.00  0.00     0.093 A 
ATOM      8  C   UNL     1      16.195   6.521  81.828  1.00  0.00     0.123 A 
ATOM      9  C   UNL     1      16.643   6.167  80.559  1.00  0.00     0.094 A 
ATOM     10  C   UNL     1      17.020   4.851  80.282  1.00  0.00     0.146 A 
ATOM     11  O   UNL     1      17.427   4.551  79.054  1.00  0.00    -0.451 OA
ENDROOT
BRANCH   1  12
ATOM     12  C   UNL     1      18.244   3.116  77.292  1.00  0.00     0.063 A 
ATOM     13  C   UNL     1      17.710   2.638  74.967  1.00  0.00     0.047 A 
ATOM     14  C   UNL     1      17.298   2.895  76.276  1.00  0.00     0.020 A 
ATOM     15  C   UNL     1      19.070   2.591  74.655  1.00  0.00     0.119 A 
ATOM     16  C   UNL     1      20.021   2.808  75.659  1.00  0.00     0.093 A 
ATOM     17  C   UNL     1      19.621   3.078  76.973  1.00  0.00     0.130 A 
BRANCH  15  18
ATOM     18  O   UNL     1      19.466   2.328  73.345  1.00  0.00    -0.508 OA
ATOM     19  H   UNL     1      20.301   2.747  72.950  1.00  0.00     0.293 HD
ENDBRANCH  15  18
BRANCH  17  20
ATOM     20  O   UNL     1      20.612   3.323  77.927  1.00  0.00    -0.507 OA
ATOM     21  H   UNL     1      20.406   3.614  78.874  1.00  0.00     0.293 HD
ENDBRANCH  17  20
ENDBRANCH   1  12
BRANCH   2  22
ATOM     22  O   UNL     1      18.027   0.970  79.188  1.00  0.00    -0.502 OA
ATOM     23  H   UNL     1      17.324   0.254  79.050  1.00  0.00     0.293 HD
ENDBRANCH   2  22
BRANCH   6  24
ATOM     24  O   UNL     1      16.564   3.385  83.711  1.00  0.00    -0.507 OA
ATOM     25  H   UNL     1      17.074   2.516  83.763  1.00  0.00     0.293 HD
ENDBRANCH   6  24
BRANCH   8  26
ATOM     26  O   UNL     1      15.803   7.835  82.076  1.00  0.00    -0.508 OA
ATOM     27  H   UNL     1      15.627   8.167  83.017  1.00  0.00     0.293 HD
ENDBRANCH   8  26
TORSDOF 6
ENDMDL
