MODEL 1
REMARK VINA RESULT:    -3.865      0.000      0.000
REMARK INTER + INTRA:          -4.255
REMARK INTER:                  -4.204
REMARK INTRA:                  -0.051
REMARK UNBOUND:                -0.051
REMARK SMILES CCc1cccc(O)c1
REMARK SMILES IDX 3 1 9 2 7 3 6 4 5 5 4 6 2 7 1 8 8 9
REMARK H PARENT 8 10
REMARK Flexibility Score: inf
ROOT
ATOM      1  C   UNL     1     127.155 145.334 107.314  1.00  0.00    -0.045 A 
ATOM      2  C   UNL     1     127.487 143.970 107.384  1.00  0.00     0.049 A 
ATOM      3  C   UNL     1     127.717 143.236 106.211  1.00  0.00     0.115 A 
ATOM      4  C   UNL     1     127.607 143.864 104.966  1.00  0.00     0.046 A 
ATOM      5  C   UNL     1     127.263 145.217 104.889  1.00  0.00     0.004 A 
ATOM      6  C   UNL     1     127.034 145.949 106.058  1.00  0.00     0.004 A 
ENDROOT
BRANCH   1   7
ATOM      7  C   UNL     1     126.875 146.113 108.571  1.00  0.00     0.032 C 
ATOM      8  C   UNL     1     127.281 145.312 109.804  1.00  0.00     0.009 C 
ENDBRANCH   1   7
BRANCH   3   9
ATOM      9  O   UNL     1     128.052 141.885 106.272  1.00  0.00    -0.508 OA
ATOM     10  H   UNL     1     128.022 141.371 107.145  1.00  0.00     0.293 HD
ENDBRANCH   3   9
TORSDOF 2
ENDMDL
MODEL 2
REMARK VINA RESULT:    -3.865      1.860      3.390
REMARK INTER + INTRA:          -4.255
REMARK INTER:                  -4.208
REMARK INTRA:                  -0.046
REMARK UNBOUND:                -0.051
REMARK SMILES CCc1cccc(O)c1
REMARK SMILES IDX 3 1 9 2 7 3 6 4 5 5 4 6 2 7 1 8 8 9
REMARK H PARENT 8 10
REMARK Flexibility Score: inf
ROOT
ATOM      1  C   UNL     1     127.848 143.260 106.160  1.00  0.00    -0.045 A 
ATOM      2  C   UNL     1     127.587 143.895 107.386  1.00  0.00     0.049 A 
ATOM      3  C   UNL     1     127.142 145.225 107.413  1.00  0.00     0.115 A 
ATOM      4  C   UNL     1     126.965 145.924 106.214  1.00  0.00     0.046 A 
ATOM      5  C   UNL     1     127.237 145.301 104.992  1.00  0.00     0.004 A 
ATOM      6  C   UNL     1     127.680 143.976 104.964  1.00  0.00     0.004 A 
ENDROOT
BRANCH   1   7
ATOM      7  C   UNL     1     128.358 141.844 106.132  1.00  0.00     0.032 C 
ATOM      8  C   UNL     1     127.249 140.863 106.499  1.00  0.00     0.009 C 
ENDBRANCH   1   7
BRANCH   3   9
ATOM      9  O   UNL     1     126.875 145.860 108.624  1.00  0.00    -0.508 OA
ATOM     10  H   UNL     1     127.608 146.313 109.158  1.00  0.00     0.293 HD
ENDBRANCH   3   9
TORSDOF 2
ENDMDL
MODEL 3
REMARK VINA RESULT:    -3.798      1.908      3.671
REMARK INTER + INTRA:          -4.182
REMARK INTER:                  -4.125
REMARK INTRA:                  -0.056
REMARK UNBOUND:                -0.051
REMARK SMILES CCc1cccc(O)c1
REMARK SMILES IDX 3 1 9 2 7 3 6 4 5 5 4 6 2 7 1 8 8 9
REMARK H PARENT 8 10
REMARK Flexibility Score: inf
ROOT
ATOM      1  C   UNL     1     128.062 142.986 106.323  1.00  0.00    -0.045 A 
ATOM      2  C   UNL     1     127.744 143.672 105.139  1.00  0.00     0.049 A 
ATOM      3  C   UNL     1     127.188 144.960 105.194  1.00  0.00     0.115 A 
ATOM      4  C   UNL     1     126.943 145.558 106.434  1.00  0.00     0.046 A 
ATOM      5  C   UNL     1     127.246 144.875 107.615  1.00  0.00     0.004 A 
ATOM      6  C   UNL     1     127.799 143.593 107.561  1.00  0.00     0.004 A 
ENDROOT
BRANCH   1   7
ATOM      7  C   UNL     1     128.626 141.593 106.265  1.00  0.00     0.032 C 
ATOM      8  C   UNL     1     127.531 140.556 106.490  1.00  0.00     0.009 C 
ENDBRANCH   1   7
BRANCH   3   9
ATOM      9  O   UNL     1     126.875 145.648 104.024  1.00  0.00    -0.508 OA
ATOM     10  H   UNL     1     125.987 145.517 103.553  1.00  0.00     0.293 HD
ENDBRANCH   3   9
TORSDOF 2
ENDMDL
MODEL 4
REMARK VINA RESULT:    -3.746      2.809      3.545
REMARK INTER + INTRA:          -4.125
REMARK INTER:                  -4.077
REMARK INTRA:                  -0.048
REMARK UNBOUND:                -0.051
REMARK SMILES CCc1cccc(O)c1
REMARK SMILES IDX 3 1 9 2 7 3 6 4 5 5 4 6 2 7 1 8 8 9
REMARK H PARENT 8 10
REMARK Flexibility Score: inf
ROOT
ATOM      1  C   UNL     1     129.646 145.624 107.047  1.00  0.00    -0.045 A 
ATOM      2  C   UNL     1     129.135 145.465 105.748  1.00  0.00     0.049 A 
ATOM      3  C   UNL     1     127.750 145.396 105.536  1.00  0.00     0.115 A 
ATOM      4  C   UNL     1     126.875 145.479 106.624  1.00  0.00     0.046 A 
ATOM      5  C   UNL     1     127.379 145.624 107.920  1.00  0.00     0.004 A 
ATOM      6  C   UNL     1     128.758 145.692 108.133  1.00  0.00     0.004 A 
ENDROOT
BRANCH   1   7
ATOM      7  C   UNL     1     131.132 145.663 107.279  1.00  0.00     0.032 C 
ATOM      8  C   UNL     1     131.839 146.385 106.136  1.00  0.00     0.009 C 
ENDBRANCH   1   7
BRANCH   3   9
ATOM      9  O   UNL     1     127.235 145.244 104.250  1.00  0.00    -0.508 OA
ATOM     10  H   UNL     1     126.445 144.637 104.064  1.00  0.00     0.293 HD
ENDBRANCH   3   9
TORSDOF 2
ENDMDL
MODEL 5
REMARK VINA RESULT:    -3.715      2.256      3.867
REMARK INTER + INTRA:          -4.092
REMARK INTER:                  -4.045
REMARK INTRA:                  -0.046
REMARK UNBOUND:                -0.051
REMARK SMILES CCc1cccc(O)c1
REMARK SMILES IDX 3 1 9 2 7 3 6 4 5 5 4 6 2 7 1 8 8 9
REMARK H PARENT 8 10
REMARK Flexibility Score: inf
ROOT
ATOM      1  C   UNL     1     127.839 145.460 106.470  1.00  0.00    -0.045 A 
ATOM      2  C   UNL     1     129.200 145.601 106.791  1.00  0.00     0.049 A 
ATOM      3  C   UNL     1     129.592 145.868 108.111  1.00  0.00     0.115 A 
ATOM      4  C   UNL     1     128.623 146.002 109.110  1.00  0.00     0.046 A 
ATOM      5  C   UNL     1     127.267 145.876 108.794  1.00  0.00     0.004 A 
ATOM      6  C   UNL     1     126.875 145.610 107.479  1.00  0.00     0.004 A 
ENDROOT
BRANCH   1   7
ATOM      7  C   UNL     1     127.417 145.207 105.048  1.00  0.00     0.032 C 
ATOM      8  C   UNL     1     127.725 143.770 104.640  1.00  0.00     0.009 C 
ENDBRANCH   1   7
BRANCH   3   9
ATOM      9  O   UNL     1     130.940 146.004 108.438  1.00  0.00    -0.508 OA
ATOM     10  H   UNL     1     131.577 146.530 107.851  1.00  0.00     0.293 HD
ENDBRANCH   3   9
TORSDOF 2
ENDMDL
MODEL 6
REMARK VINA RESULT:    -3.708      1.895      3.192
REMARK INTER + INTRA:          -4.084
REMARK INTER:                  -4.037
REMARK INTRA:                  -0.047
REMARK UNBOUND:                -0.051
REMARK SMILES CCc1cccc(O)c1
REMARK SMILES IDX 3 1 9 2 7 3 6 4 5 5 4 6 2 7 1 8 8 9
REMARK H PARENT 8 10
REMARK Flexibility Score: inf
ROOT
ATOM      1  C   UNL     1     127.852 143.752 105.833  1.00  0.00    -0.045 A 
ATOM      2  C   UNL     1     127.249 143.442 107.063  1.00  0.00     0.049 A 
ATOM      3  C   UNL     1     127.761 142.408 107.863  1.00  0.00     0.115 A 
ATOM      4  C   UNL     1     128.873 141.679 107.428  1.00  0.00     0.046 A 
ATOM      5  C   UNL     1     129.468 141.975 106.198  1.00  0.00     0.004 A 
ATOM      6  C   UNL     1     128.959 143.004 105.401  1.00  0.00     0.004 A 
ENDROOT
BRANCH   1   7
ATOM      7  C   UNL     1     127.282 144.837 104.960  1.00  0.00     0.032 C 
ATOM      8  C   UNL     1     126.909 146.060 105.792  1.00  0.00     0.009 C 
ENDBRANCH   1   7
BRANCH   3   9
ATOM      9  O   UNL     1     127.172 142.099 109.087  1.00  0.00    -0.508 OA
ATOM     10  H   UNL     1     127.686 141.618 109.816  1.00  0.00     0.293 HD
ENDBRANCH   3   9
TORSDOF 2
ENDMDL
MODEL 7
REMARK VINA RESULT:    -3.700      2.947      3.479
REMARK INTER + INTRA:          -4.075
REMARK INTER:                  -4.002
REMARK INTRA:                  -0.073
REMARK UNBOUND:                -0.051
REMARK SMILES CCc1cccc(O)c1
REMARK SMILES IDX 3 1 9 2 7 3 6 4 5 5 4 6 2 7 1 8 8 9
REMARK H PARENT 8 10
REMARK Flexibility Score: inf
ROOT
ATOM      1  C   UNL     1     129.812 145.582 107.003  1.00  0.00    -0.045 A 
ATOM      2  C   UNL     1     129.038 145.409 108.163  1.00  0.00     0.049 A 
ATOM      3  C   UNL     1     127.656 145.188 108.065  1.00  0.00     0.115 A 
ATOM      4  C   UNL     1     127.045 145.148 106.807  1.00  0.00     0.046 A 
ATOM      5  C   UNL     1     127.809 145.333 105.651  1.00  0.00     0.004 A 
ATOM      6  C   UNL     1     129.185 145.553 105.747  1.00  0.00     0.004 A 
ENDROOT
BRANCH   1   7
ATOM      7  C   UNL     1     131.288 145.854 107.109  1.00  0.00     0.032 C 
ATOM      8  C   UNL     1     131.757 146.747 105.966  1.00  0.00     0.009 C 
ENDBRANCH   1   7
BRANCH   3   9
ATOM      9  O   UNL     1     126.882 145.010 109.210  1.00  0.00    -0.508 OA
ATOM     10  H   UNL     1     126.815 145.729 109.921  1.00  0.00     0.293 HD
ENDBRANCH   3   9
TORSDOF 2
ENDMDL
MODEL 8
REMARK VINA RESULT:    -3.664      3.381      4.293
REMARK INTER + INTRA:          -4.035
REMARK INTER:                  -3.987
REMARK INTRA:                  -0.049
REMARK UNBOUND:                -0.051
REMARK SMILES CCc1cccc(O)c1
REMARK SMILES IDX 3 1 9 2 7 3 6 4 5 5 4 6 2 7 1 8 8 9
REMARK H PARENT 8 10
REMARK Flexibility Score: inf
ROOT
ATOM      1  C   UNL     1     129.098 144.386 105.674  1.00  0.00    -0.045 A 
ATOM      2  C   UNL     1     129.674 145.617 106.031  1.00  0.00     0.049 A 
ATOM      3  C   UNL     1     131.059 145.719 106.232  1.00  0.00     0.115 A 
ATOM      4  C   UNL     1     131.867 144.587 106.086  1.00  0.00     0.046 A 
ATOM      5  C   UNL     1     131.298 143.357 105.744  1.00  0.00     0.004 A 
ATOM      6  C   UNL     1     129.919 143.254 105.543  1.00  0.00     0.004 A 
ENDROOT
BRANCH   1   7
ATOM      7  C   UNL     1     127.609 144.269 105.491  1.00  0.00     0.032 C 
ATOM      8  C   UNL     1     127.028 145.569 104.945  1.00  0.00     0.009 C 
ENDBRANCH   1   7
BRANCH   3   9
ATOM      9  O   UNL     1     131.638 146.937 106.581  1.00  0.00    -0.508 OA
ATOM     10  H   UNL     1     132.642 147.071 106.563  1.00  0.00     0.293 HD
ENDBRANCH   3   9
TORSDOF 2
ENDMDL
