MODEL 1
REMARK VINA RESULT:    -4.352      0.000      0.000
REMARK INTER + INTRA:          -5.637
REMARK INTER:                  -5.369
REMARK INTRA:                  -0.267
REMARK UNBOUND:                -0.267
REMARK SMILES COC(=O)c1ccccc1C(=O)OC
REMARK SMILES IDX 5 1 6 2 7 3 8 4 9 5 10 6 3 7 4 8 2 9 1 10 11 11 12 12 13 13
REMARK SMILES IDX 14 14
REMARK H PARENT
REMARK Flexibility Score: inf
ROOT
ATOM      1  C   UNL     1      86.202  31.028  65.064  1.00  0.00     0.074 A 
ATOM      2  C   UNL     1      86.720  29.735  65.265  1.00  0.00     0.016 A 
ATOM      3  C   UNL     1      88.001  29.402  64.824  1.00  0.00     0.001 A 
ATOM      4  C   UNL     1      88.785  30.352  64.174  1.00  0.00     0.001 A 
ATOM      5  C   UNL     1      88.301  31.646  63.984  1.00  0.00     0.016 A 
ATOM      6  C   UNL     1      87.022  32.011  64.441  1.00  0.00     0.074 A 
ENDROOT
BRANCH   1   7
ATOM      7  C   UNL     1      84.797  31.279  65.456  1.00  0.00     0.338 C 
ATOM      8  O   UNL     1      83.850  30.803  64.770  1.00  0.00    -0.246 OA
BRANCH   7   9
ATOM      9  O   UNL     1      84.525  31.998  66.624  1.00  0.00    -0.465 OA
ATOM     10  C   UNL     1      85.458  32.110  67.691  1.00  0.00     0.282 C 
ENDBRANCH   7   9
ENDBRANCH   1   7
BRANCH   6  11
ATOM     11  C   UNL     1      86.618  33.431  64.307  1.00  0.00     0.338 C 
ATOM     12  O   UNL     1      85.743  33.766  63.462  1.00  0.00    -0.246 OA
BRANCH  11  13
ATOM     13  O   UNL     1      87.169  34.388  65.164  1.00  0.00    -0.465 OA
ATOM     14  C   UNL     1      88.054  35.405  64.710  1.00  0.00     0.282 C 
ENDBRANCH  11  13
ENDBRANCH   6  11
TORSDOF 4
ENDMDL
MODEL 2
REMARK VINA RESULT:    -4.349      0.049      3.298
REMARK INTER + INTRA:          -5.633
REMARK INTER:                  -5.362
REMARK INTRA:                  -0.271
REMARK UNBOUND:                -0.267
REMARK SMILES COC(=O)c1ccccc1C(=O)OC
REMARK SMILES IDX 5 1 6 2 7 3 8 4 9 5 10 6 3 7 4 8 2 9 1 10 11 11 12 12 13 13
REMARK SMILES IDX 14 14
REMARK H PARENT
REMARK Flexibility Score: inf
ROOT
ATOM      1  C   UNL     1      87.034  31.998  64.444  1.00  0.00     0.074 A 
ATOM      2  C   UNL     1      88.324  31.649  64.003  1.00  0.00     0.016 A 
ATOM      3  C   UNL     1      88.825  30.363  64.206  1.00  0.00     0.001 A 
ATOM      4  C   UNL     1      88.048  29.405  64.853  1.00  0.00     0.001 A 
ATOM      5  C   UNL     1      86.758  29.722  65.278  1.00  0.00     0.016 A 
ATOM      6  C   UNL     1      86.224  31.005  65.063  1.00  0.00     0.074 A 
ENDROOT
BRANCH   1   7
ATOM      7  C   UNL     1      86.611  33.409  64.297  1.00  0.00     0.338 C 
ATOM      8  O   UNL     1      85.751  33.729  63.430  1.00  0.00    -0.246 OA
BRANCH   7   9
ATOM      9  O   UNL     1      87.128  34.377  65.163  1.00  0.00    -0.465 OA
ATOM     10  C   UNL     1      88.056  35.368  64.739  1.00  0.00     0.282 C 
ENDBRANCH   7   9
ENDBRANCH   1   7
BRANCH   6  11
ATOM     11  C   UNL     1      84.809  31.237  65.438  1.00  0.00     0.338 C 
ATOM     12  O   UNL     1      83.878  30.712  64.767  1.00  0.00    -0.246 OA
BRANCH  11  13
ATOM     13  O   UNL     1      84.513  31.993  66.577  1.00  0.00    -0.465 OA
ATOM     14  C   UNL     1      85.423  32.134  67.661  1.00  0.00     0.282 C 
ENDBRANCH  11  13
ENDBRANCH   6  11
TORSDOF 4
ENDMDL
MODEL 3
REMARK VINA RESULT:    -4.214      0.662      3.666
REMARK INTER + INTRA:          -5.467
REMARK INTER:                  -5.156
REMARK INTRA:                  -0.311
REMARK UNBOUND:                -0.267
REMARK SMILES COC(=O)c1ccccc1C(=O)OC
REMARK SMILES IDX 5 1 6 2 7 3 8 4 9 5 10 6 3 7 4 8 2 9 1 10 11 11 12 12 13 13
REMARK SMILES IDX 14 14
REMARK H PARENT
REMARK Flexibility Score: inf
ROOT
ATOM      1  C   UNL     1      87.144  32.201  64.557  1.00  0.00     0.074 A 
ATOM      2  C   UNL     1      88.356  31.742  64.007  1.00  0.00     0.016 A 
ATOM      3  C   UNL     1      88.776  30.426  64.204  1.00  0.00     0.001 A 
ATOM      4  C   UNL     1      87.996  29.549  64.954  1.00  0.00     0.001 A 
ATOM      5  C   UNL     1      86.782  29.976  65.489  1.00  0.00     0.016 A 
ATOM      6  C   UNL     1      86.326  31.290  65.284  1.00  0.00     0.074 A 
ENDROOT
BRANCH   1   7
ATOM      7  C   UNL     1      86.816  33.636  64.404  1.00  0.00     0.338 C 
ATOM      8  O   UNL     1      85.968  34.007  63.545  1.00  0.00    -0.246 OA
BRANCH   7   9
ATOM      9  O   UNL     1      87.409  34.574  65.255  1.00  0.00    -0.465 OA
ATOM     10  C   UNL     1      88.514  35.377  64.861  1.00  0.00     0.282 C 
ENDBRANCH   7   9
ENDBRANCH   1   7
BRANCH   6  11
ATOM     11  C   UNL     1      84.977  31.641  65.784  1.00  0.00     0.338 C 
ATOM     12  O   UNL     1      84.823  32.051  66.967  1.00  0.00    -0.246 OA
BRANCH  11  13
ATOM     13  O   UNL     1      83.882  31.573  64.917  1.00  0.00    -0.465 OA
ATOM     14  C   UNL     1      83.110  30.390  64.747  1.00  0.00     0.282 C 
ENDBRANCH  11  13
ENDBRANCH   6  11
TORSDOF 4
ENDMDL
MODEL 4
REMARK VINA RESULT:    -4.179      0.657      1.438
REMARK INTER + INTRA:          -5.424
REMARK INTER:                  -5.111
REMARK INTRA:                  -0.313
REMARK UNBOUND:                -0.267
REMARK SMILES COC(=O)c1ccccc1C(=O)OC
REMARK SMILES IDX 5 1 6 2 7 3 8 4 9 5 10 6 3 7 4 8 2 9 1 10 11 11 12 12 13 13
REMARK SMILES IDX 14 14
REMARK H PARENT
REMARK Flexibility Score: inf
ROOT
ATOM      1  C   UNL     1      86.376  31.289  65.329  1.00  0.00     0.074 A 
ATOM      2  C   UNL     1      86.869  29.988  65.540  1.00  0.00     0.016 A 
ATOM      3  C   UNL     1      88.079  29.582  64.976  1.00  0.00     0.001 A 
ATOM      4  C   UNL     1      88.814  30.467  64.190  1.00  0.00     0.001 A 
ATOM      5  C   UNL     1      88.355  31.768  63.986  1.00  0.00     0.016 A 
ATOM      6  C   UNL     1      87.151  32.206  64.565  1.00  0.00     0.074 A 
ENDROOT
BRANCH   1   7
ATOM      7  C   UNL     1      85.034  31.615  65.863  1.00  0.00     0.338 C 
ATOM      8  O   UNL     1      84.902  32.012  67.054  1.00  0.00    -0.246 OA
BRANCH   7   9
ATOM      9  O   UNL     1      83.919  31.535  65.023  1.00  0.00    -0.465 OA
ATOM     10  C   UNL     1      83.242  30.312  64.761  1.00  0.00     0.282 C 
ENDBRANCH   7   9
ENDBRANCH   1   7
BRANCH   6  11
ATOM     11  C   UNL     1      86.782  33.632  64.400  1.00  0.00     0.338 C 
ATOM     12  O   UNL     1      85.924  33.972  63.539  1.00  0.00    -0.246 OA
BRANCH  11  13
ATOM     13  O   UNL     1      87.347  34.592  65.245  1.00  0.00    -0.465 OA
ATOM     14  C   UNL     1      88.484  35.364  64.877  1.00  0.00     0.282 C 
ENDBRANCH  11  13
ENDBRANCH   6  11
TORSDOF 4
ENDMDL
MODEL 5
REMARK VINA RESULT:    -4.099     14.754     16.024
REMARK INTER + INTRA:          -5.325
REMARK INTER:                  -5.100
REMARK INTRA:                  -0.225
REMARK UNBOUND:                -0.267
REMARK SMILES COC(=O)c1ccccc1C(=O)OC
REMARK SMILES IDX 5 1 6 2 7 3 8 4 9 5 10 6 3 7 4 8 2 9 1 10 11 11 12 12 13 13
REMARK SMILES IDX 14 14
REMARK H PARENT
REMARK Flexibility Score: inf
ROOT
ATOM      1  C   UNL     1      79.506  34.340  51.964  1.00  0.00     0.074 A 
ATOM      2  C   UNL     1      80.180  33.122  52.171  1.00  0.00     0.016 A 
ATOM      3  C   UNL     1      79.472  31.950  52.435  1.00  0.00     0.001 A 
ATOM      4  C   UNL     1      78.081  31.974  52.500  1.00  0.00     0.001 A 
ATOM      5  C   UNL     1      77.391  33.165  52.275  1.00  0.00     0.016 A 
ATOM      6  C   UNL     1      78.083  34.354  51.984  1.00  0.00     0.074 A 
ENDROOT
BRANCH   1   7
ATOM      7  C   UNL     1      80.324  35.563  51.800  1.00  0.00     0.338 C 
ATOM      8  O   UNL     1      80.893  36.087  52.798  1.00  0.00    -0.246 OA
BRANCH   7   9
ATOM      9  O   UNL     1      80.510  36.103  50.523  1.00  0.00    -0.465 OA
ATOM     10  C   UNL     1      80.587  35.297  49.354  1.00  0.00     0.282 C 
ENDBRANCH   7   9
ENDBRANCH   1   7
BRANCH   6  11
ATOM     11  C   UNL     1      77.284  35.555  51.645  1.00  0.00     0.338 C 
ATOM     12  O   UNL     1      77.310  36.029  50.476  1.00  0.00    -0.246 OA
BRANCH  11  13
ATOM     13  O   UNL     1      76.453  36.125  52.614  1.00  0.00    -0.465 OA
ATOM     14  C   UNL     1      75.035  36.012  52.572  1.00  0.00     0.282 C 
ENDBRANCH  11  13
ENDBRANCH   6  11
TORSDOF 4
ENDMDL
MODEL 6
REMARK VINA RESULT:    -4.056      2.159      3.702
REMARK INTER + INTRA:          -5.272
REMARK INTER:                  -4.871
REMARK INTRA:                  -0.401
REMARK UNBOUND:                -0.267
REMARK SMILES COC(=O)c1ccccc1C(=O)OC
REMARK SMILES IDX 5 1 6 2 7 3 8 4 9 5 10 6 3 7 4 8 2 9 1 10 11 11 12 12 13 13
REMARK SMILES IDX 14 14
REMARK H PARENT
REMARK Flexibility Score: inf
ROOT
ATOM      1  C   UNL     1      86.624  29.809  65.038  1.00  0.00     0.074 A 
ATOM      2  C   UNL     1      86.230  28.484  64.772  1.00  0.00     0.016 A 
ATOM      3  C   UNL     1      84.895  28.174  64.511  1.00  0.00     0.001 A 
ATOM      4  C   UNL     1      83.931  29.181  64.513  1.00  0.00     0.001 A 
ATOM      5  C   UNL     1      84.303  30.503  64.752  1.00  0.00     0.016 A 
ATOM      6  C   UNL     1      85.646  30.842  64.994  1.00  0.00     0.074 A 
ENDROOT
BRANCH   1   7
ATOM      7  C   UNL     1      88.034  30.047  65.417  1.00  0.00     0.338 C 
ATOM      8  O   UNL     1      88.347  30.228  66.627  1.00  0.00    -0.246 OA
BRANCH   7   9
ATOM      9  O   UNL     1      89.028  30.013  64.433  1.00  0.00    -0.465 OA
ATOM     10  C   UNL     1      89.085  30.953  63.368  1.00  0.00     0.282 C 
ENDBRANCH   7   9
ENDBRANCH   1   7
BRANCH   6  11
ATOM     11  C   UNL     1      85.984  32.279  65.126  1.00  0.00     0.338 C 
ATOM     12  O   UNL     1      86.007  33.024  64.109  1.00  0.00    -0.246 OA
BRANCH  11  13
ATOM     13  O   UNL     1      86.220  32.816  66.395  1.00  0.00    -0.465 OA
ATOM     14  C   UNL     1      85.671  32.254  67.581  1.00  0.00     0.282 C 
ENDBRANCH  11  13
ENDBRANCH   6  11
TORSDOF 4
ENDMDL
MODEL 7
REMARK VINA RESULT:    -4.056      2.026      4.012
REMARK INTER + INTRA:          -5.272
REMARK INTER:                  -5.000
REMARK INTRA:                  -0.272
REMARK UNBOUND:                -0.267
REMARK SMILES COC(=O)c1ccccc1C(=O)OC
REMARK SMILES IDX 5 1 6 2 7 3 8 4 9 5 10 6 3 7 4 8 2 9 1 10 11 11 12 12 13 13
REMARK SMILES IDX 14 14
REMARK H PARENT
REMARK Flexibility Score: inf
ROOT
ATOM      1  C   UNL     1      85.678  31.922  65.689  1.00  0.00     0.074 A 
ATOM      2  C   UNL     1      84.278  31.933  65.538  1.00  0.00     0.016 A 
ATOM      3  C   UNL     1      83.441  32.001  66.652  1.00  0.00     0.001 A 
ATOM      4  C   UNL     1      83.985  32.057  67.933  1.00  0.00     0.001 A 
ATOM      5  C   UNL     1      85.369  32.070  68.104  1.00  0.00     0.016 A 
ATOM      6  C   UNL     1      86.233  32.026  66.995  1.00  0.00     0.074 A 
ENDROOT
BRANCH   1   7
ATOM      7  C   UNL     1      86.502  31.735  64.473  1.00  0.00     0.338 C 
ATOM      8  O   UNL     1      86.422  32.555  63.517  1.00  0.00    -0.246 OA
BRANCH   7   9
ATOM      9  O   UNL     1      87.413  30.676  64.415  1.00  0.00    -0.465 OA
ATOM     10  C   UNL     1      88.727  30.823  63.891  1.00  0.00     0.282 C 
ENDBRANCH   7   9
ENDBRANCH   1   7
BRANCH   6  11
ATOM     11  C   UNL     1      87.687  32.158  67.245  1.00  0.00     0.338 C 
ATOM     12  O   UNL     1      88.406  31.129  67.379  1.00  0.00    -0.246 OA
BRANCH  11  13
ATOM     13  O   UNL     1      88.269  33.429  67.271  1.00  0.00    -0.465 OA
ATOM     14  C   UNL     1      88.897  34.009  66.134  1.00  0.00     0.282 C 
ENDBRANCH  11  13
ENDBRANCH   6  11
TORSDOF 4
ENDMDL
MODEL 8
REMARK VINA RESULT:    -4.052      2.316      4.184
REMARK INTER + INTRA:          -5.267
REMARK INTER:                  -5.088
REMARK INTRA:                  -0.179
REMARK UNBOUND:                -0.267
REMARK SMILES COC(=O)c1ccccc1C(=O)OC
REMARK SMILES IDX 5 1 6 2 7 3 8 4 9 5 10 6 3 7 4 8 2 9 1 10 11 11 12 12 13 13
REMARK SMILES IDX 14 14
REMARK H PARENT
REMARK Flexibility Score: inf
ROOT
ATOM      1  C   UNL     1      86.274  31.707  66.696  1.00  0.00     0.074 A 
ATOM      2  C   UNL     1      85.133  32.078  67.431  1.00  0.00     0.016 A 
ATOM      3  C   UNL     1      83.868  32.068  66.842  1.00  0.00     0.001 A 
ATOM      4  C   UNL     1      83.722  31.689  65.509  1.00  0.00     0.001 A 
ATOM      5  C   UNL     1      84.836  31.296  64.768  1.00  0.00     0.016 A 
ATOM      6  C   UNL     1      86.117  31.276  65.349  1.00  0.00     0.074 A 
ENDROOT
BRANCH   1   7
ATOM      7  C   UNL     1      87.594  31.849  67.350  1.00  0.00     0.338 C 
ATOM      8  O   UNL     1      88.334  30.840  67.517  1.00  0.00    -0.246 OA
BRANCH   7   9
ATOM      9  O   UNL     1      88.041  33.118  67.731  1.00  0.00    -0.465 OA
ATOM     10  C   UNL     1      89.111  33.785  67.071  1.00  0.00     0.282 C 
ENDBRANCH   7   9
ENDBRANCH   1   7
BRANCH   6  11
ATOM     11  C   UNL     1      87.236  30.739  64.538  1.00  0.00     0.338 C 
ATOM     12  O   UNL     1      87.930  31.511  63.822  1.00  0.00    -0.246 OA
BRANCH  11  13
ATOM     13  O   UNL     1      87.555  29.381  64.620  1.00  0.00    -0.465 OA
ATOM     14  C   UNL     1      88.894  28.913  64.735  1.00  0.00     0.282 C 
ENDBRANCH  11  13
ENDBRANCH   6  11
TORSDOF 4
ENDMDL
MODEL 9
REMARK VINA RESULT:    -3.911      2.444      3.836
REMARK INTER + INTRA:          -5.093
REMARK INTER:                  -4.930
REMARK INTRA:                  -0.163
REMARK UNBOUND:                -0.267
REMARK SMILES COC(=O)c1ccccc1C(=O)OC
REMARK SMILES IDX 5 1 6 2 7 3 8 4 9 5 10 6 3 7 4 8 2 9 1 10 11 11 12 12 13 13
REMARK SMILES IDX 14 14
REMARK H PARENT
REMARK Flexibility Score: inf
ROOT
ATOM      1  C   UNL     1      86.386  31.024  65.885  1.00  0.00     0.074 A 
ATOM      2  C   UNL     1      85.763  31.787  66.890  1.00  0.00     0.016 A 
ATOM      3  C   UNL     1      86.519  32.556  67.775  1.00  0.00     0.001 A 
ATOM      4  C   UNL     1      87.908  32.574  67.673  1.00  0.00     0.001 A 
ATOM      5  C   UNL     1      88.545  31.843  66.671  1.00  0.00     0.016 A 
ATOM      6  C   UNL     1      87.802  31.079  65.753  1.00  0.00     0.074 A 
ENDROOT
BRANCH   1   7
ATOM      7  C   UNL     1      85.531  30.145  65.055  1.00  0.00     0.338 C 
ATOM      8  O   UNL     1      85.786  28.912  64.962  1.00  0.00    -0.246 OA
BRANCH   7   9
ATOM      9  O   UNL     1      84.405  30.678  64.421  1.00  0.00    -0.465 OA
ATOM     10  C   UNL     1      83.079  30.296  64.763  1.00  0.00     0.282 C 
ENDBRANCH   7   9
ENDBRANCH   1   7
BRANCH   6  11
ATOM     11  C   UNL     1      88.535  30.420  64.647  1.00  0.00     0.338 C 
ATOM     12  O   UNL     1      88.682  31.008  63.541  1.00  0.00    -0.246 OA
BRANCH  11  13
ATOM     13  O   UNL     1      89.117  29.166  64.858  1.00  0.00    -0.465 OA
ATOM     14  C   UNL     1      89.124  28.148  63.864  1.00  0.00     0.282 C 
ENDBRANCH  11  13
ENDBRANCH   6  11
TORSDOF 4
ENDMDL
