MODEL 1
REMARK VINA RESULT:    -4.450      0.000      0.000
REMARK INTER + INTRA:          -5.992
REMARK INTER:                  -5.750
REMARK INTRA:                  -0.242
REMARK UNBOUND:                -0.242
REMARK SMILES C=CC(=O)CCCCC
REMARK SMILES IDX 6 1 7 2 8 3 9 4 5 5 3 6 4 7 2 8 1 9
REMARK H PARENT
REMARK Flexibility Score: inf
ROOT
ATOM      1  C   UNL     1     -26.319  20.460 -33.703  1.00  0.00     0.008 C 
ENDROOT
BRANCH   1   2
ATOM      2  C   UNL     1     -27.550  21.105 -34.349  1.00  0.00     0.000 C 
BRANCH   2   3
ATOM      3  C   UNL     1     -28.839  20.418 -33.883  1.00  0.00    -0.003 C 
ATOM      4  C   UNL     1     -28.533  19.142 -33.105  1.00  0.00     0.004 C 
ENDBRANCH   2   3
ENDBRANCH   1   2
BRANCH   1   5
ATOM      5  C   UNL     1     -25.119  20.491 -34.656  1.00  0.00     0.080 C 
BRANCH   5   6
ATOM      6  C   UNL     1     -23.942  19.789 -34.045  1.00  0.00     0.155 C 
ATOM      7  O   UNL     1     -23.049  19.312 -34.796  1.00  0.00    -0.295 OA
BRANCH   6   8
ATOM      8  C   UNL     1     -23.860  19.623 -32.580  1.00  0.00     0.039 C 
ATOM      9  C   UNL     1     -23.027  20.336 -31.825  1.00  0.00     0.012 C 
ENDBRANCH   6   8
ENDBRANCH   5   6
ENDBRANCH   1   5
TORSDOF 5
ENDMDL
MODEL 2
REMARK VINA RESULT:    -4.131      2.087      4.900
REMARK INTER + INTRA:          -5.581
REMARK INTER:                  -5.417
REMARK INTRA:                  -0.164
REMARK UNBOUND:                -0.242
REMARK SMILES C=CC(=O)CCCCC
REMARK SMILES IDX 6 1 7 2 8 3 9 4 5 5 3 6 4 7 2 8 1 9
REMARK H PARENT
REMARK Flexibility Score: inf
ROOT
ATOM      1  C   UNL     1     -26.479  20.663 -33.524  1.00  0.00     0.008 C 
ENDROOT
BRANCH   1   2
ATOM      2  C   UNL     1     -25.562  20.608 -34.751  1.00  0.00     0.000 C 
BRANCH   2   3
ATOM      3  C   UNL     1     -24.145  20.175 -34.360  1.00  0.00    -0.003 C 
ATOM      4  C   UNL     1     -23.994  20.086 -32.844  1.00  0.00     0.004 C 
ENDBRANCH   2   3
ENDBRANCH   1   2
BRANCH   1   5
ATOM      5  C   UNL     1     -27.954  20.613 -33.936  1.00  0.00     0.080 C 
BRANCH   5   6
ATOM      6  C   UNL     1     -28.645  19.455 -33.280  1.00  0.00     0.155 C 
ATOM      7  O   UNL     1     -28.008  18.384 -33.087  1.00  0.00    -0.295 OA
BRANCH   6   8
ATOM      8  C   UNL     1     -30.070  19.559 -32.910  1.00  0.00     0.039 C 
ATOM      9  C   UNL     1     -31.049  19.122 -33.700  1.00  0.00     0.012 C 
ENDBRANCH   6   8
ENDBRANCH   5   6
ENDBRANCH   1   5
TORSDOF 5
ENDMDL
MODEL 3
REMARK VINA RESULT:    -4.081      7.594      8.692
REMARK INTER + INTRA:          -5.516
REMARK INTER:                  -4.965
REMARK INTRA:                  -0.552
REMARK UNBOUND:                -0.242
REMARK SMILES C=CC(=O)CCCCC
REMARK SMILES IDX 6 1 7 2 8 3 9 4 5 5 3 6 4 7 2 8 1 9
REMARK H PARENT
REMARK Flexibility Score: inf
ROOT
ATOM      1  C   UNL     1     -27.750  10.934 -30.464  1.00  0.00     0.008 C 
ENDROOT
BRANCH   1   2
ATOM      2  C   UNL     1     -29.270  10.989 -30.276  1.00  0.00     0.000 C 
BRANCH   2   3
ATOM      3  C   UNL     1     -29.707  12.351 -29.725  1.00  0.00    -0.003 C 
ATOM      4  C   UNL     1     -29.071  12.626 -28.366  1.00  0.00     0.004 C 
ENDBRANCH   2   3
ENDBRANCH   1   2
BRANCH   1   5
ATOM      5  C   UNL     1     -27.351  11.409 -31.865  1.00  0.00     0.080 C 
BRANCH   5   6
ATOM      6  C   UNL     1     -26.558  12.679 -31.786  1.00  0.00     0.155 C 
ATOM      7  O   UNL     1     -26.253  13.285 -32.850  1.00  0.00    -0.295 OA
BRANCH   6   8
ATOM      8  C   UNL     1     -26.103  13.185 -30.476  1.00  0.00     0.039 C 
ATOM      9  C   UNL     1     -26.213  14.465 -30.127  1.00  0.00     0.012 C 
ENDBRANCH   6   8
ENDBRANCH   5   6
ENDBRANCH   1   5
TORSDOF 5
ENDMDL
MODEL 4
REMARK VINA RESULT:    -4.077      2.324      4.594
REMARK INTER + INTRA:          -5.510
REMARK INTER:                  -5.237
REMARK INTRA:                  -0.274
REMARK UNBOUND:                -0.242
REMARK SMILES C=CC(=O)CCCCC
REMARK SMILES IDX 6 1 7 2 8 3 9 4 5 5 3 6 4 7 2 8 1 9
REMARK H PARENT
REMARK Flexibility Score: inf
ROOT
ATOM      1  C   UNL     1     -25.980  20.222 -33.954  1.00  0.00     0.008 C 
ENDROOT
BRANCH   1   2
ATOM      2  C   UNL     1     -24.700  20.932 -33.501  1.00  0.00     0.000 C 
BRANCH   2   3
ATOM      3  C   UNL     1     -23.784  19.976 -32.729  1.00  0.00    -0.003 C 
ATOM      4  C   UNL     1     -24.595  18.951 -31.941  1.00  0.00     0.004 C 
ENDBRANCH   2   3
ENDBRANCH   1   2
BRANCH   1   5
ATOM      5  C   UNL     1     -27.034  21.231 -34.422  1.00  0.00     0.080 C 
BRANCH   5   6
ATOM      6  C   UNL     1     -28.004  21.530 -33.318  1.00  0.00     0.155 C 
ATOM      7  O   UNL     1     -28.069  22.700 -32.852  1.00  0.00    -0.295 OA
BRANCH   6   8
ATOM      8  C   UNL     1     -28.839  20.451 -32.757  1.00  0.00     0.039 C 
ATOM      9  C   UNL     1     -29.603  19.667 -33.517  1.00  0.00     0.012 C 
ENDBRANCH   6   8
ENDBRANCH   5   6
ENDBRANCH   1   5
TORSDOF 5
ENDMDL
MODEL 5
REMARK VINA RESULT:    -4.015     11.220     13.031
REMARK INTER + INTRA:          -5.430
REMARK INTER:                  -4.822
REMARK INTRA:                  -0.609
REMARK UNBOUND:                -0.242
REMARK SMILES C=CC(=O)CCCCC
REMARK SMILES IDX 6 1 7 2 8 3 9 4 5 5 3 6 4 7 2 8 1 9
REMARK H PARENT
REMARK Flexibility Score: inf
ROOT
ATOM      1  C   UNL     1     -14.233  16.496 -31.197  1.00  0.00     0.008 C 
ENDROOT
BRANCH   1   2
ATOM      2  C   UNL     1     -13.036  15.991 -30.384  1.00  0.00     0.000 C 
BRANCH   2   3
ATOM      3  C   UNL     1     -12.079  15.177 -31.264  1.00  0.00    -0.003 C 
ATOM      4  C   UNL     1     -12.156  15.621 -32.721  1.00  0.00     0.004 C 
ENDBRANCH   2   3
ENDBRANCH   1   2
BRANCH   1   5
ATOM      5  C   UNL     1     -15.517  15.762 -30.797  1.00  0.00     0.080 C 
BRANCH   5   6
ATOM      6  C   UNL     1     -15.985  14.873 -31.911  1.00  0.00     0.155 C 
ATOM      7  O   UNL     1     -16.918  15.265 -32.664  1.00  0.00    -0.295 OA
BRANCH   6   8
ATOM      8  C   UNL     1     -15.387  13.536 -32.090  1.00  0.00     0.039 C 
ATOM      9  C   UNL     1     -14.939  12.810 -31.068  1.00  0.00     0.012 C 
ENDBRANCH   6   8
ENDBRANCH   5   6
ENDBRANCH   1   5
TORSDOF 5
ENDMDL
MODEL 6
REMARK VINA RESULT:    -3.981     11.180     12.511
REMARK INTER + INTRA:          -5.387
REMARK INTER:                  -4.781
REMARK INTRA:                  -0.606
REMARK UNBOUND:                -0.242
REMARK SMILES C=CC(=O)CCCCC
REMARK SMILES IDX 6 1 7 2 8 3 9 4 5 5 3 6 4 7 2 8 1 9
REMARK H PARENT
REMARK Flexibility Score: inf
ROOT
ATOM      1  C   UNL     1     -13.936  15.005 -32.658  1.00  0.00     0.008 C 
ENDROOT
BRANCH   1   2
ATOM      2  C   UNL     1     -12.922  14.857 -31.518  1.00  0.00     0.000 C 
BRANCH   2   3
ATOM      3  C   UNL     1     -13.214  15.856 -30.392  1.00  0.00    -0.003 C 
ATOM      4  C   UNL     1     -13.995  17.059 -30.910  1.00  0.00     0.004 C 
ENDBRANCH   2   3
ENDBRANCH   1   2
BRANCH   1   5
ATOM      5  C   UNL     1     -14.971  13.876 -32.623  1.00  0.00     0.080 C 
BRANCH   5   6
ATOM      6  C   UNL     1     -16.270  14.369 -32.057  1.00  0.00     0.155 C 
ATOM      7  O   UNL     1     -16.956  15.199 -32.715  1.00  0.00    -0.295 OA
BRANCH   6   8
ATOM      8  C   UNL     1     -16.712  13.919 -30.723  1.00  0.00     0.039 C 
ATOM      9  C   UNL     1     -16.634  14.696 -29.644  1.00  0.00     0.012 C 
ENDBRANCH   6   8
ENDBRANCH   5   6
ENDBRANCH   1   5
TORSDOF 5
ENDMDL
MODEL 7
REMARK VINA RESULT:    -3.937      8.282      9.701
REMARK INTER + INTRA:          -5.330
REMARK INTER:                  -4.866
REMARK INTRA:                  -0.465
REMARK UNBOUND:                -0.242
REMARK SMILES C=CC(=O)CCCCC
REMARK SMILES IDX 6 1 7 2 8 3 9 4 5 5 3 6 4 7 2 8 1 9
REMARK H PARENT
REMARK Flexibility Score: inf
ROOT
ATOM      1  C   UNL     1     -25.938  12.105 -30.279  1.00  0.00     0.008 C 
ENDROOT
BRANCH   1   2
ATOM      2  C   UNL     1     -24.777  12.790 -29.549  1.00  0.00     0.000 C 
BRANCH   2   3
ATOM      3  C   UNL     1     -24.599  14.234 -30.033  1.00  0.00    -0.003 C 
ATOM      4  C   UNL     1     -25.942  14.946 -30.153  1.00  0.00     0.004 C 
ENDBRANCH   2   3
ENDBRANCH   1   2
BRANCH   1   5
ATOM      5  C   UNL     1     -26.619  11.069 -29.379  1.00  0.00     0.080 C 
BRANCH   5   6
ATOM      6  C   UNL     1     -27.169  11.722 -28.146  1.00  0.00     0.155 C 
ATOM      7  O   UNL     1     -26.752  11.356 -27.013  1.00  0.00    -0.295 OA
BRANCH   6   8
ATOM      8  C   UNL     1     -28.222  12.750 -28.262  1.00  0.00     0.039 C 
ATOM      9  C   UNL     1     -29.368  12.531 -28.905  1.00  0.00     0.012 C 
ENDBRANCH   6   8
ENDBRANCH   5   6
ENDBRANCH   1   5
TORSDOF 5
ENDMDL
MODEL 8
REMARK VINA RESULT:    -3.936      2.256      4.604
REMARK INTER + INTRA:          -5.329
REMARK INTER:                  -5.129
REMARK INTRA:                  -0.200
REMARK UNBOUND:                -0.242
REMARK SMILES C=CC(=O)CCCCC
REMARK SMILES IDX 6 1 7 2 8 3 9 4 5 5 3 6 4 7 2 8 1 9
REMARK H PARENT
REMARK Flexibility Score: inf
ROOT
ATOM      1  C   UNL     1     -25.656  20.369 -34.155  1.00  0.00     0.008 C 
ENDROOT
BRANCH   1   2
ATOM      2  C   UNL     1     -24.155  20.293 -33.854  1.00  0.00     0.000 C 
BRANCH   2   3
ATOM      3  C   UNL     1     -23.899  19.621 -32.500  1.00  0.00    -0.003 C 
ATOM      4  C   UNL     1     -22.978  20.469 -31.629  1.00  0.00     0.004 C 
ENDBRANCH   2   3
ENDBRANCH   1   2
BRANCH   1   5
ATOM      5  C   UNL     1     -26.467  19.611 -33.098  1.00  0.00     0.080 C 
BRANCH   5   6
ATOM      6  C   UNL     1     -27.901  20.051 -33.119  1.00  0.00     0.155 C 
ATOM      7  O   UNL     1     -28.787  19.292 -32.640  1.00  0.00    -0.295 OA
BRANCH   6   8
ATOM      8  C   UNL     1     -28.269  21.341 -33.734  1.00  0.00     0.039 C 
ATOM      9  C   UNL     1     -28.210  22.494 -33.070  1.00  0.00     0.012 C 
ENDBRANCH   6   8
ENDBRANCH   5   6
ENDBRANCH   1   5
TORSDOF 5
ENDMDL
MODEL 9
REMARK VINA RESULT:    -3.816      8.290      9.843
REMARK INTER + INTRA:          -5.173
REMARK INTER:                  -4.614
REMARK INTRA:                  -0.559
REMARK UNBOUND:                -0.242
REMARK SMILES C=CC(=O)CCCCC
REMARK SMILES IDX 6 1 7 2 8 3 9 4 5 5 3 6 4 7 2 8 1 9
REMARK H PARENT
REMARK Flexibility Score: inf
ROOT
ATOM      1  C   UNL     1     -27.355  11.986 -31.364  1.00  0.00     0.008 C 
ENDROOT
BRANCH   1   2
ATOM      2  C   UNL     1     -26.008  11.784 -30.661  1.00  0.00     0.000 C 
BRANCH   2   3
ATOM      3  C   UNL     1     -25.643  13.006 -29.810  1.00  0.00    -0.003 C 
ATOM      4  C   UNL     1     -26.271  14.277 -30.373  1.00  0.00     0.004 C 
ENDBRANCH   2   3
ENDBRANCH   1   2
BRANCH   1   5
ATOM      5  C   UNL     1     -28.360  10.906 -30.948  1.00  0.00     0.080 C 
BRANCH   5   6
ATOM      6  C   UNL     1     -29.609  11.531 -30.400  1.00  0.00     0.155 C 
ATOM      7  O   UNL     1     -30.732  11.102 -30.781  1.00  0.00    -0.295 OA
BRANCH   6   8
ATOM      8  C   UNL     1     -29.517  12.665 -29.461  1.00  0.00     0.039 C 
ATOM      9  C   UNL     1     -29.062  12.529 -28.217  1.00  0.00     0.012 C 
ENDBRANCH   6   8
ENDBRANCH   5   6
ENDBRANCH   1   5
TORSDOF 5
ENDMDL
