MODEL 1
REMARK VINA RESULT:    -4.085      0.000      0.000
REMARK INTER + INTRA:          -5.638
REMARK INTER:                  -5.757
REMARK INTRA:                   0.119
REMARK UNBOUND:                 0.119
REMARK SMILES CC1=CCC(=C(C)C)C(=O)CC(C)=CCC1
REMARK SMILES IDX 12 1 14 2 13 3 15 4 16 5 2 6 1 7 3 8 11 10 9 11 10 12 5 13
REMARK SMILES IDX 6 14 7 15 8 16 4 17
REMARK H PARENT
REMARK Flexibility Score: 60.00
ROOT
ATOM      1  C   UNL     1     -10.969  18.631   4.721  1.00  0.00    -0.070 C 
ATOM      2  C   UNL     1     -11.096  17.468   5.423  1.00  0.00    -0.027 C 
ATOM      3  C   UNL     1     -12.218  19.467   4.565  1.00  0.00     0.039 C 
ENDROOT
BRANCH   2   4
ATOM      4  C   UNL     1     -10.094  16.362   5.733  1.00  0.00     0.032 C 
BRANCH   4   5
ATOM      5  C   UNL     1      -9.648  16.207   7.192  1.00  0.00     0.034 C 
BRANCH   5   6
ATOM      6  C   UNL     1      -9.025  17.421   7.895  1.00  0.00    -0.077 C 
ATOM      7  C   UNL     1      -9.624  17.771   9.239  1.00  0.00     0.039 C 
ATOM      8  C   UNL     1      -8.064  18.279   7.439  1.00  0.00    -0.023 CG0
ATOM      9  G   UNL     1      -7.285  18.298   6.138  1.00  0.00     0.000 G0
ENDBRANCH   5   6
ENDBRANCH   4   5
ENDBRANCH   2   4
BRANCH   1  10
ATOM     10  C   UNL     1      -9.701  19.179   4.086  1.00  0.00     0.111 C 
BRANCH  10  11
ATOM     11  C   UNL     1      -8.886  19.971   5.061  1.00  0.00     0.163 C 
ATOM     12  O   UNL     1      -9.394  20.994   5.595  1.00  0.00    -0.294 OA
BRANCH  11  13
ATOM     13  C   UNL     1      -7.482  19.590   5.365  1.00  0.00    -0.002 C 
ATOM     14  C   UNL     1      -6.430  20.359   4.960  1.00  0.00    -0.069 C 
ATOM     15  C   UNL     1      -6.653  21.696   4.289  1.00  0.00     0.039 C 
ATOM     16  C   UNL     1      -4.999  19.921   5.173  1.00  0.00     0.039 C 
BRANCH  13  17
ATOM     17  C   UNL     1      -7.295  18.297   6.131  1.00  0.00     0.066 CG0
ATOM     18  G   UNL     1      -8.057  18.298   7.442  1.00  0.00     0.000 G0
ENDBRANCH  13  17
ENDBRANCH  11  13
ENDBRANCH  10  11
ENDBRANCH   1  10
TORSDOF 0
ENDMDL
MODEL 2
REMARK VINA RESULT:    -3.904      3.528      6.105
REMARK INTER + INTRA:          -5.382
REMARK INTER:                  -5.829
REMARK INTRA:                   0.447
REMARK UNBOUND:                 0.119
REMARK SMILES CC1=CCC(=C(C)C)C(=O)CC(C)=CCC1
REMARK SMILES IDX 12 1 14 2 13 3 15 4 16 5 2 6 1 7 3 8 11 10 9 11 10 12 5 13
REMARK SMILES IDX 6 14 7 15 8 16 4 17
REMARK H PARENT
REMARK Flexibility Score: 60.00
ROOT
ATOM      1  C   UNL     1      -9.914  18.436  12.196  1.00  0.00    -0.070 C 
ATOM      2  C   UNL     1     -10.658  17.648  13.025  1.00  0.00    -0.027 C 
ATOM      3  C   UNL     1      -8.859  19.298  12.848  1.00  0.00     0.039 C 
ENDROOT
BRANCH   2   4
ATOM      4  C   UNL     1     -11.825  16.707  12.746  1.00  0.00     0.032 C 
BRANCH   4   5
ATOM      5  C   UNL     1     -11.494  15.232  12.491  1.00  0.00     0.034 C 
BRANCH   5   6
ATOM      6  C   UNL     1     -10.064  14.872  12.061  1.00  0.00    -0.077 C 
ATOM      7  C   UNL     1      -9.125  14.495  13.185  1.00  0.00     0.039 C 
ATOM      8  C   UNL     1      -9.501  14.925  10.817  1.00  0.00    -0.023 CG0
ATOM      9  G   UNL     1     -10.092  15.312   9.475  1.00  0.00     0.000 G0
ENDBRANCH   5   6
ENDBRANCH   4   5
ENDBRANCH   2   4
BRANCH   1  10
ATOM     10  C   UNL     1     -10.030  18.531  10.683  1.00  0.00     0.111 C 
BRANCH  10  11
ATOM     11  C   UNL     1      -9.096  17.587   9.991  1.00  0.00     0.163 C 
ATOM     12  O   UNL     1      -7.867  17.632  10.266  1.00  0.00    -0.294 OA
BRANCH  11  13
ATOM     13  C   UNL     1      -9.598  16.639   8.962  1.00  0.00    -0.002 C 
ATOM     14  C   UNL     1      -9.623  16.972   7.639  1.00  0.00    -0.069 C 
ATOM     15  C   UNL     1      -9.028  18.274   7.149  1.00  0.00     0.039 C 
ATOM     16  C   UNL     1     -10.232  16.055   6.602  1.00  0.00     0.039 C 
BRANCH  13  17
ATOM     17  C   UNL     1     -10.090  15.302   9.473  1.00  0.00     0.066 CG0
ATOM     18  G   UNL     1      -9.497  14.957  10.825  1.00  0.00     0.000 G0
ENDBRANCH  13  17
ENDBRANCH  11  13
ENDBRANCH  10  11
ENDBRANCH   1  10
TORSDOF 0
ENDMDL
MODEL 3
REMARK VINA RESULT:    -3.872      2.609      3.772
REMARK INTER + INTRA:          -5.337
REMARK INTER:                  -5.580
REMARK INTRA:                   0.243
REMARK UNBOUND:                 0.119
REMARK SMILES CC1=CCC(=C(C)C)C(=O)CC(C)=CCC1
REMARK SMILES IDX 12 1 14 2 13 3 15 4 16 5 2 6 1 7 3 8 11 10 9 11 10 12 5 13
REMARK SMILES IDX 6 14 7 15 8 16 4 17
REMARK H PARENT
REMARK Flexibility Score: 60.00
ROOT
ATOM      1  C   UNL     1     -10.936  18.883   5.427  1.00  0.00    -0.070 C 
ATOM      2  C   UNL     1     -10.695  19.714   6.482  1.00  0.00    -0.027 C 
ATOM      3  C   UNL     1     -12.250  19.069   4.705  1.00  0.00     0.039 C 
ENDROOT
BRANCH   2   4
ATOM      4  C   UNL     1      -9.532  19.787   7.464  1.00  0.00     0.032 C 
BRANCH   4   5
ATOM      5  C   UNL     1      -9.821  19.422   8.925  1.00  0.00     0.034 C 
BRANCH   5   6
ATOM      6  C   UNL     1      -9.533  17.986   9.387  1.00  0.00    -0.077 C 
ATOM      7  C   UNL     1     -10.021  17.642  10.777  1.00  0.00     0.039 C 
ATOM      8  C   UNL     1      -8.827  17.004   8.752  1.00  0.00    -0.023 CG0
ATOM      9  G   UNL     1      -8.139  16.991   7.401  1.00  0.00     0.000 G0
ENDBRANCH   5   6
ENDBRANCH   4   5
ENDBRANCH   2   4
BRANCH   1  10
ATOM     10  C   UNL     1     -10.019  17.792   4.898  1.00  0.00     0.111 C 
BRANCH  10  11
ATOM     11  C   UNL     1     -10.041  16.573   5.767  1.00  0.00     0.163 C 
ATOM     12  O   UNL     1     -11.142  15.999   5.987  1.00  0.00    -0.294 OA
BRANCH  11  13
ATOM     13  C   UNL     1      -8.795  16.068   6.401  1.00  0.00    -0.002 C 
ATOM     14  C   UNL     1      -8.298  14.831   6.109  1.00  0.00    -0.069 C 
ATOM     15  C   UNL     1      -8.926  13.970   5.036  1.00  0.00     0.039 C 
ATOM     16  C   UNL     1      -7.092  14.271   6.830  1.00  0.00     0.039 C 
BRANCH  13  17
ATOM     17  C   UNL     1      -8.131  16.997   7.394  1.00  0.00     0.066 CG0
ATOM     18  G   UNL     1      -8.831  16.987   8.739  1.00  0.00     0.000 G0
ENDBRANCH  13  17
ENDBRANCH  11  13
ENDBRANCH  10  11
ENDBRANCH   1  10
TORSDOF 0
ENDMDL
MODEL 4
REMARK VINA RESULT:    -3.749      1.889      3.772
REMARK INTER + INTRA:          -5.165
REMARK INTER:                  -5.192
REMARK INTRA:                   0.027
REMARK UNBOUND:                 0.119
REMARK SMILES CC1=CCC(=C(C)C)C(=O)CC(C)=CCC1
REMARK SMILES IDX 12 1 14 2 13 3 15 4 16 5 2 6 1 7 3 8 11 10 9 11 10 12 5 13
REMARK SMILES IDX 6 14 7 15 8 16 4 17
REMARK H PARENT
REMARK Flexibility Score: 60.00
ROOT
ATOM      1  C   UNL     1      -9.209  17.251   9.512  1.00  0.00    -0.070 C 
ATOM      2  C   UNL     1      -9.663  15.968   9.410  1.00  0.00    -0.027 C 
ATOM      3  C   UNL     1      -9.494  17.967  10.812  1.00  0.00     0.039 C 
ENDROOT
BRANCH   2   4
ATOM      4  C   UNL     1      -9.616  14.970   8.259  1.00  0.00     0.032 C 
BRANCH   4   5
ATOM      5  C   UNL     1     -10.562  15.213   7.077  1.00  0.00     0.034 C 
BRANCH   5   6
ATOM      6  C   UNL     1      -9.951  15.595   5.722  1.00  0.00    -0.077 C 
ATOM      7  C   UNL     1      -9.226  14.481   4.999  1.00  0.00     0.039 C 
ATOM      8  C   UNL     1      -9.897  16.820   5.118  1.00  0.00    -0.023 CG0
ATOM      9  G   UNL     1     -10.441  18.167   5.554  1.00  0.00     0.000 G0
ENDBRANCH   5   6
ENDBRANCH   4   5
ENDBRANCH   2   4
BRANCH   1  10
ATOM     10  C   UNL     1      -8.441  18.033   8.459  1.00  0.00     0.111 C 
BRANCH  10  11
ATOM     11  C   UNL     1      -9.325  18.992   7.721  1.00  0.00     0.163 C 
ATOM     12  O   UNL     1     -10.082  19.755   8.379  1.00  0.00    -0.294 OA
BRANCH  11  13
ATOM     13  C   UNL     1      -9.346  19.016   6.235  1.00  0.00    -0.002 C 
ATOM     14  C   UNL     1      -8.450  19.759   5.522  1.00  0.00    -0.069 C 
ATOM     15  C   UNL     1      -7.320  20.493   6.210  1.00  0.00     0.039 C 
ATOM     16  C   UNL     1      -8.535  19.872   4.016  1.00  0.00     0.039 C 
BRANCH  13  17
ATOM     17  C   UNL     1     -10.424  18.186   5.572  1.00  0.00     0.066 CG0
ATOM     18  G   UNL     1      -9.910  16.828   5.137  1.00  0.00     0.000 G0
ENDBRANCH  13  17
ENDBRANCH  11  13
ENDBRANCH  10  11
ENDBRANCH   1  10
TORSDOF 0
ENDMDL
MODEL 5
REMARK VINA RESULT:    -3.735      5.874      8.550
REMARK INTER + INTRA:          -5.144
REMARK INTER:                  -5.178
REMARK INTRA:                   0.033
REMARK UNBOUND:                 0.119
REMARK SMILES CC1=CCC(=C(C)C)C(=O)CC(C)=CCC1
REMARK SMILES IDX 12 1 14 2 13 3 15 4 16 5 2 6 1 7 3 8 11 10 9 11 10 12 5 13
REMARK SMILES IDX 6 14 7 15 8 16 4 17
REMARK H PARENT
REMARK Flexibility Score: 60.00
ROOT
ATOM      1  C   UNL     1      -7.388  18.167  13.341  1.00  0.00    -0.070 C 
ATOM      2  C   UNL     1      -7.057  17.640  14.555  1.00  0.00    -0.027 C 
ATOM      3  C   UNL     1      -6.622  17.648  12.147  1.00  0.00     0.039 C 
ENDROOT
BRANCH   2   4
ATOM      4  C   UNL     1      -7.560  17.949  15.961  1.00  0.00     0.032 C 
BRANCH   4   5
ATOM      5  C   UNL     1      -9.006  17.563  16.292  1.00  0.00     0.034 C 
BRANCH   5   6
ATOM      6  C   UNL     1      -9.592  16.307  15.630  1.00  0.00    -0.077 C 
ATOM      7  C   UNL     1      -9.180  14.992  16.254  1.00  0.00     0.039 C 
ATOM      8  C   UNL     1     -10.366  16.208  14.508  1.00  0.00    -0.023 CG0
ATOM      9  G   UNL     1     -10.919  17.277  13.586  1.00  0.00     0.000 G0
ENDBRANCH   5   6
ENDBRANCH   4   5
ENDBRANCH   2   4
BRANCH   1  10
ATOM     10  C   UNL     1      -8.450  19.218  13.063  1.00  0.00     0.111 C 
BRANCH  10  11
ATOM     11  C   UNL     1      -9.481  18.726  12.093  1.00  0.00     0.163 C 
ATOM     12  O   UNL     1      -9.799  19.456  11.116  1.00  0.00    -0.294 OA
BRANCH  11  13
ATOM     13  C   UNL     1     -10.154  17.416  12.298  1.00  0.00    -0.002 C 
ATOM     14  C   UNL     1     -10.068  16.418  11.371  1.00  0.00    -0.069 C 
ATOM     15  C   UNL     1      -9.184  16.558  10.152  1.00  0.00     0.039 C 
ATOM     16  C   UNL     1     -10.838  15.126  11.525  1.00  0.00     0.039 C 
BRANCH  13  17
ATOM     17  C   UNL     1     -10.946  17.270  13.579  1.00  0.00     0.066 CG0
ATOM     18  G   UNL     1     -10.358  16.212  14.493  1.00  0.00     0.000 G0
ENDBRANCH  13  17
ENDBRANCH  11  13
ENDBRANCH  10  11
ENDBRANCH   1  10
TORSDOF 0
ENDMDL
MODEL 6
REMARK VINA RESULT:    -3.659      2.528      4.917
REMARK INTER + INTRA:          -5.037
REMARK INTER:                  -4.975
REMARK INTRA:                  -0.062
REMARK UNBOUND:                 0.119
REMARK SMILES CC1=CCC(=C(C)C)C(=O)CC(C)=CCC1
REMARK SMILES IDX 12 1 14 2 13 3 15 4 16 5 2 6 1 7 3 8 11 10 9 11 10 12 5 13
REMARK SMILES IDX 6 14 7 15 8 16 4 17
REMARK H PARENT
REMARK Flexibility Score: 60.00
ROOT
ATOM      1  C   UNL     1      -9.296  18.651   8.426  1.00  0.00    -0.070 C 
ATOM      2  C   UNL     1     -10.185  19.649   8.151  1.00  0.00    -0.027 C 
ATOM      3  C   UNL     1      -9.624  17.756   9.597  1.00  0.00     0.039 C 
ENDROOT
BRANCH   2   4
ATOM      4  C   UNL     1     -10.165  20.759   7.106  1.00  0.00     0.032 C 
BRANCH   4   5
ATOM      5  C   UNL     1     -10.066  20.339   5.635  1.00  0.00     0.034 C 
BRANCH   5   6
ATOM      6  C   UNL     1     -10.929  19.163   5.154  1.00  0.00    -0.077 C 
ATOM      7  C   UNL     1     -12.408  19.455   5.022  1.00  0.00     0.039 C 
ATOM      8  C   UNL     1     -10.561  17.869   4.911  1.00  0.00    -0.023 CG0
ATOM      9  G   UNL     1      -9.209  17.189   4.996  1.00  0.00     0.000 G0
ENDBRANCH   5   6
ENDBRANCH   4   5
ENDBRANCH   2   4
BRANCH   1  10
ATOM     10  C   UNL     1      -8.012  18.341   7.672  1.00  0.00     0.111 C 
BRANCH  10  11
ATOM     11  C   UNL     1      -7.972  16.920   7.200  1.00  0.00     0.163 C 
ATOM     12  O   UNL     1      -7.020  16.180   7.568  1.00  0.00    -0.294 OA
BRANCH  11  13
ATOM     13  C   UNL     1      -9.011  16.396   6.276  1.00  0.00    -0.002 C 
ATOM     14  C   UNL     1      -9.734  15.278   6.576  1.00  0.00    -0.069 C 
ATOM     15  C   UNL     1      -9.594  14.594   7.918  1.00  0.00     0.039 C 
ATOM     16  C   UNL     1     -10.715  14.681   5.592  1.00  0.00     0.039 C 
BRANCH  13  17
ATOM     17  C   UNL     1      -9.202  17.165   4.986  1.00  0.00     0.066 CG0
ATOM     18  G   UNL     1     -10.557  17.842   4.923  1.00  0.00     0.000 G0
ENDBRANCH  13  17
ENDBRANCH  11  13
ENDBRANCH  10  11
ENDBRANCH   1  10
TORSDOF 0
ENDMDL
MODEL 7
REMARK VINA RESULT:    -3.636      1.964      3.940
REMARK INTER + INTRA:          -5.005
REMARK INTER:                  -5.062
REMARK INTRA:                   0.056
REMARK UNBOUND:                 0.119
REMARK SMILES CC1=CCC(=C(C)C)C(=O)CC(C)=CCC1
REMARK SMILES IDX 12 1 14 2 13 3 15 4 16 5 2 6 1 7 3 8 11 10 9 11 10 12 5 13
REMARK SMILES IDX 6 14 7 15 8 16 4 17
REMARK H PARENT
REMARK Flexibility Score: 60.00
ROOT
ATOM      1  C   UNL     1      -7.630  21.124   5.782  1.00  0.00    -0.070 C 
ATOM      2  C   UNL     1      -8.939  21.363   6.086  1.00  0.00    -0.027 C 
ATOM      3  C   UNL     1      -7.063  21.873   4.599  1.00  0.00     0.039 C 
ENDROOT
BRANCH   2   4
ATOM      4  C   UNL     1      -9.854  20.767   7.150  1.00  0.00     0.032 C 
BRANCH   4   5
ATOM      5  C   UNL     1     -10.903  19.750   6.686  1.00  0.00     0.034 C 
BRANCH   5   6
ATOM      6  C   UNL     1     -10.438  18.566   5.826  1.00  0.00    -0.077 C 
ATOM      7  C   UNL     1     -11.224  18.341   4.553  1.00  0.00     0.039 C 
ATOM      8  C   UNL     1      -9.469  17.639   6.090  1.00  0.00    -0.023 CG0
ATOM      9  G   UNL     1      -8.529  17.494   7.271  1.00  0.00     0.000 G0
ENDBRANCH   5   6
ENDBRANCH   4   5
ENDBRANCH   2   4
BRANCH   1  10
ATOM     10  C   UNL     1      -6.681  20.189   6.513  1.00  0.00     0.111 C 
BRANCH  10  11
ATOM     11  C   UNL     1      -6.752  18.792   5.978  1.00  0.00     0.163 C 
ATOM     12  O   UNL     1      -6.574  18.600   4.745  1.00  0.00    -0.294 OA
BRANCH  11  13
ATOM     13  C   UNL     1      -7.070  17.649   6.874  1.00  0.00    -0.002 C 
ATOM     14  C   UNL     1      -6.102  16.785   7.297  1.00  0.00    -0.069 C 
ATOM     15  C   UNL     1      -4.645  17.023   6.972  1.00  0.00     0.039 C 
ATOM     16  C   UNL     1      -6.438  15.561   8.120  1.00  0.00     0.039 C 
BRANCH  13  17
ATOM     17  C   UNL     1      -8.524  17.499   7.268  1.00  0.00     0.066 CG0
ATOM     18  G   UNL     1      -9.453  17.644   6.079  1.00  0.00     0.000 G0
ENDBRANCH  13  17
ENDBRANCH  11  13
ENDBRANCH  10  11
ENDBRANCH   1  10
TORSDOF 0
ENDMDL
MODEL 8
REMARK VINA RESULT:    -3.618      2.223      3.231
REMARK INTER + INTRA:          -4.979
REMARK INTER:                  -4.971
REMARK INTRA:                  -0.009
REMARK UNBOUND:                 0.119
REMARK SMILES CC1=CCC(=C(C)C)C(=O)CC(C)=CCC1
REMARK SMILES IDX 12 1 14 2 13 3 15 4 16 5 2 6 1 7 3 8 11 10 9 11 10 12 5 13
REMARK SMILES IDX 6 14 7 15 8 16 4 17
REMARK H PARENT
REMARK Flexibility Score: 60.00
ROOT
ATOM      1  C   UNL     1      -9.840  18.773   8.216  1.00  0.00    -0.070 C 
ATOM      2  C   UNL     1      -9.918  18.780   9.579  1.00  0.00    -0.027 C 
ATOM      3  C   UNL     1     -10.072  20.093   7.518  1.00  0.00     0.039 C 
ENDROOT
BRANCH   2   4
ATOM      4  C   UNL     1      -9.801  17.657  10.602  1.00  0.00     0.032 C 
BRANCH   4   5
ATOM      5  C   UNL     1      -8.672  16.639  10.404  1.00  0.00     0.034 C 
BRANCH   5   6
ATOM      6  C   UNL     1      -7.223  17.147  10.419  1.00  0.00    -0.077 C 
ATOM      7  C   UNL     1      -6.738  17.683  11.748  1.00  0.00     0.039 C 
ATOM      8  C   UNL     1      -6.340  17.261   9.382  1.00  0.00    -0.023 CG0
ATOM      9  G   UNL     1      -6.478  16.898   7.916  1.00  0.00     0.000 G0
ENDBRANCH   5   6
ENDBRANCH   4   5
ENDBRANCH   2   4
BRANCH   1  10
ATOM     10  C   UNL     1      -9.538  17.578   7.327  1.00  0.00     0.111 C 
BRANCH  10  11
ATOM     11  C   UNL     1      -8.340  17.815   6.461  1.00  0.00     0.163 C 
ATOM     12  O   UNL     1      -8.476  17.792   5.208  1.00  0.00    -0.294 OA
BRANCH  11  13
ATOM     13  C   UNL     1      -6.998  18.031   7.062  1.00  0.00    -0.002 C 
ATOM     14  C   UNL     1      -6.298  19.184   6.849  1.00  0.00    -0.069 C 
ATOM     15  C   UNL     1      -6.911  20.341   6.092  1.00  0.00     0.039 C 
ATOM     16  C   UNL     1      -4.890  19.364   7.370  1.00  0.00     0.039 C 
BRANCH  13  17
ATOM     17  C   UNL     1      -6.456  16.895   7.903  1.00  0.00     0.066 CG0
ATOM     18  G   UNL     1      -6.349  17.273   9.368  1.00  0.00     0.000 G0
ENDBRANCH  13  17
ENDBRANCH  11  13
ENDBRANCH  10  11
ENDBRANCH   1  10
TORSDOF 0
ENDMDL
MODEL 9
REMARK VINA RESULT:    -3.540      2.026      4.962
REMARK INTER + INTRA:          -4.870
REMARK INTER:                  -5.167
REMARK INTRA:                   0.297
REMARK UNBOUND:                 0.119
REMARK SMILES CC1=CCC(=C(C)C)C(=O)CC(C)=CCC1
REMARK SMILES IDX 12 1 14 2 13 3 15 4 16 5 2 6 1 7 3 8 11 10 9 11 10 12 5 13
REMARK SMILES IDX 6 14 7 15 8 16 4 17
REMARK H PARENT
REMARK Flexibility Score: 60.00
ROOT
ATOM      1  C   UNL     1      -6.935  18.282   6.710  1.00  0.00    -0.070 C 
ATOM      2  C   UNL     1      -7.327  19.158   5.740  1.00  0.00    -0.027 C 
ATOM      3  C   UNL     1      -5.804  18.728   7.607  1.00  0.00     0.039 C 
ENDROOT
BRANCH   2   4
ATOM      4  C   UNL     1      -8.371  19.040   4.636  1.00  0.00     0.032 C 
BRANCH   4   5
ATOM      5  C   UNL     1      -9.594  19.961   4.722  1.00  0.00     0.034 C 
BRANCH   5   6
ATOM      6  C   UNL     1     -10.802  19.492   5.546  1.00  0.00    -0.077 C 
ATOM      7  C   UNL     1     -12.103  19.380   4.783  1.00  0.00     0.039 C 
ATOM      8  C   UNL     1     -10.883  19.242   6.887  1.00  0.00    -0.023 CG0
ATOM      9  G   UNL     1      -9.830  19.309   7.975  1.00  0.00     0.000 G0
ENDBRANCH   5   6
ENDBRANCH   4   5
ENDBRANCH   2   4
BRANCH   1  10
ATOM     10  C   UNL     1      -7.521  16.907   6.988  1.00  0.00     0.111 C 
BRANCH  10  11
ATOM     11  C   UNL     1      -8.958  16.986   7.402  1.00  0.00     0.163 C 
ATOM     12  O   UNL     1      -9.806  16.266   6.810  1.00  0.00    -0.294 OA
BRANCH  11  13
ATOM     13  C   UNL     1      -9.392  17.931   8.464  1.00  0.00    -0.002 C 
ATOM     14  C   UNL     1      -9.409  17.566   9.779  1.00  0.00    -0.069 C 
ATOM     15  C   UNL     1      -8.871  16.224  10.225  1.00  0.00     0.039 C 
ATOM     16  C   UNL     1      -9.951  18.486  10.850  1.00  0.00     0.039 C 
BRANCH  13  17
ATOM     17  C   UNL     1      -9.825  19.304   7.996  1.00  0.00     0.066 CG0
ATOM     18  G   UNL     1     -10.874  19.228   6.903  1.00  0.00     0.000 G0
ENDBRANCH  13  17
ENDBRANCH  11  13
ENDBRANCH  10  11
ENDBRANCH   1  10
TORSDOF 0
ENDMDL
