MODEL 1
REMARK VINA RESULT:    -4.711      0.000      0.000
REMARK INTER + INTRA:         -11.508
REMARK INTER:                  -8.843
REMARK INTRA:                  -2.665
REMARK UNBOUND:                -2.665
REMARK SMILES O=C([O-])CCCCCCCCCCCCCCC(=O)[O-]
REMARK SMILES IDX 10 1 9 2 8 3 7 4 6 5 5 6 4 7 2 8 1 9 3 10 11 11 12 12 13 13
REMARK SMILES IDX 14 14 15 15 16 16 17 17 18 18 19 19 20 20
REMARK H PARENT
REMARK Flexibility Score: inf
ROOT
ATOM      1  C   UNL     1      20.354  53.172  17.430  1.00  0.00     0.000 C 
ENDROOT
BRANCH   1   2
ATOM      2  C   UNL     1      19.013  53.887  17.675  1.00  0.00     0.000 C 
BRANCH   2   3
ATOM      3  C   UNL     1      19.200  55.337  18.156  1.00  0.00     0.000 C 
BRANCH   3   4
ATOM      4  C   UNL     1      19.350  56.332  16.992  1.00  0.00     0.000 C 
BRANCH   4   5
ATOM      5  C   UNL     1      20.697  57.073  17.020  1.00  0.00     0.000 C 
BRANCH   5   6
ATOM      6  C   UNL     1      21.713  56.499  16.022  1.00  0.00     0.006 C 
BRANCH   6   7
ATOM      7  C   UNL     1      22.893  55.854  16.753  1.00  0.00     0.053 C 
BRANCH   7   8
ATOM      8  C   UNL     1      24.196  56.382  16.241  1.00  0.00     0.041 C 
ATOM      9  O   UNL     1      25.283  55.949  16.705  1.00  0.00    -0.550 OA
ATOM     10  O   UNL     1      24.213  57.350  15.248  1.00  0.00    -0.550 OA
ENDBRANCH   7   8
ENDBRANCH   6   7
ENDBRANCH   5   6
ENDBRANCH   4   5
ENDBRANCH   3   4
ENDBRANCH   2   3
ENDBRANCH   1   2
BRANCH   1  11
ATOM     11  C   UNL     1      20.655  52.970  15.936  1.00  0.00     0.000 C 
BRANCH  11  12
ATOM     12  C   UNL     1      19.399  53.069  15.056  1.00  0.00     0.000 C 
BRANCH  12  13
ATOM     13  C   UNL     1      19.591  54.097  13.932  1.00  0.00     0.000 C 
BRANCH  13  14
ATOM     14  C   UNL     1      18.372  55.029  13.774  1.00  0.00     0.000 C 
BRANCH  14  15
ATOM     15  C   UNL     1      17.094  54.507  14.463  1.00  0.00     0.000 C 
BRANCH  15  16
ATOM     16  C   UNL     1      16.254  55.582  15.177  1.00  0.00     0.006 C 
BRANCH  16  17
ATOM     17  C   UNL     1      15.811  55.194  16.596  1.00  0.00     0.053 C 
BRANCH  17  18
ATOM     18  C   UNL     1      15.558  56.400  17.448  1.00  0.00     0.041 C 
ATOM     19  O   UNL     1      15.817  56.378  18.680  1.00  0.00    -0.550 OA
ATOM     20  O   UNL     1      15.007  57.544  16.881  1.00  0.00    -0.550 OA
ENDBRANCH  17  18
ENDBRANCH  16  17
ENDBRANCH  15  16
ENDBRANCH  14  15
ENDBRANCH  13  14
ENDBRANCH  12  13
ENDBRANCH  11  12
ENDBRANCH   1  11
TORSDOF 15
ENDMDL
MODEL 2
REMARK VINA RESULT:    -4.706      1.028      6.313
REMARK INTER + INTRA:         -11.498
REMARK INTER:                  -9.236
REMARK INTRA:                  -2.261
REMARK UNBOUND:                -2.665
REMARK SMILES O=C([O-])CCCCCCCCCCCCCCC(=O)[O-]
REMARK SMILES IDX 10 1 9 2 8 3 7 4 6 5 5 6 4 7 2 8 1 9 3 10 11 11 12 12 13 13
REMARK SMILES IDX 14 14 15 15 16 16 17 17 18 18 19 19 20 20
REMARK H PARENT
REMARK Flexibility Score: inf
ROOT
ATOM      1  C   UNL     1      19.840  54.250  14.039  1.00  0.00     0.000 C 
ENDROOT
BRANCH   1   2
ATOM      2  C   UNL     1      18.707  55.291  14.032  1.00  0.00     0.000 C 
BRANCH   2   3
ATOM      3  C   UNL     1      17.596  54.942  13.025  1.00  0.00     0.000 C 
BRANCH   3   4
ATOM      4  C   UNL     1      16.200  54.911  13.671  1.00  0.00     0.000 C 
BRANCH   4   5
ATOM      5  C   UNL     1      16.262  54.886  15.207  1.00  0.00     0.000 C 
BRANCH   5   6
ATOM      6  C   UNL     1      15.273  55.863  15.858  1.00  0.00     0.006 C 
BRANCH   6   7
ATOM      7  C   UNL     1      15.948  56.657  16.980  1.00  0.00     0.053 C 
BRANCH   7   8
ATOM      8  C   UNL     1      15.524  56.154  18.324  1.00  0.00     0.041 C 
ATOM      9  O   UNL     1      16.365  55.630  19.100  1.00  0.00    -0.550 OA
ATOM     10  O   UNL     1      14.201  56.266  18.724  1.00  0.00    -0.550 OA
ENDBRANCH   7   8
ENDBRANCH   6   7
ENDBRANCH   5   6
ENDBRANCH   4   5
ENDBRANCH   3   4
ENDBRANCH   2   3
ENDBRANCH   1   2
BRANCH   1  11
ATOM     11  C   UNL     1      19.473  52.978  14.820  1.00  0.00     0.000 C 
BRANCH  11  12
ATOM     12  C   UNL     1      20.057  52.961  16.241  1.00  0.00     0.000 C 
BRANCH  12  13
ATOM     13  C   UNL     1      19.039  53.492  17.262  1.00  0.00     0.000 C 
BRANCH  13  14
ATOM     14  C   UNL     1      19.609  54.646  18.114  1.00  0.00     0.000 C 
BRANCH  14  15
ATOM     15  C   UNL     1      19.514  56.027  17.435  1.00  0.00     0.000 C 
BRANCH  15  16
ATOM     16  C   UNL     1      20.845  56.795  17.333  1.00  0.00     0.006 C 
BRANCH  16  17
ATOM     17  C   UNL     1      21.666  56.467  16.077  1.00  0.00     0.053 C 
BRANCH  17  18
ATOM     18  C   UNL     1      22.977  55.828  16.420  1.00  0.00     0.041 C 
ATOM     19  O   UNL     1      24.016  56.528  16.547  1.00  0.00    -0.550 OA
ATOM     20  O   UNL     1      23.055  54.449  16.574  1.00  0.00    -0.550 OA
ENDBRANCH  17  18
ENDBRANCH  16  17
ENDBRANCH  15  16
ENDBRANCH  14  15
ENDBRANCH  13  14
ENDBRANCH  12  13
ENDBRANCH  11  12
ENDBRANCH   1  11
TORSDOF 15
ENDMDL
MODEL 3
REMARK VINA RESULT:    -4.649      2.485      3.325
REMARK INTER + INTRA:         -11.391
REMARK INTER:                  -9.490
REMARK INTRA:                  -1.900
REMARK UNBOUND:                -2.665
REMARK SMILES O=C([O-])CCCCCCCCCCCCCCC(=O)[O-]
REMARK SMILES IDX 10 1 9 2 8 3 7 4 6 5 5 6 4 7 2 8 1 9 3 10 11 11 12 12 13 13
REMARK SMILES IDX 14 14 15 15 16 16 17 17 18 18 19 19 20 20
REMARK H PARENT
REMARK Flexibility Score: inf
ROOT
ATOM      1  C   UNL     1      19.235  53.129  15.325  1.00  0.00     0.000 C 
ENDROOT
BRANCH   1   2
ATOM      2  C   UNL     1      20.552  52.626  15.943  1.00  0.00     0.000 C 
BRANCH   2   3
ATOM      3  C   UNL     1      21.148  53.627  16.949  1.00  0.00     0.000 C 
BRANCH   3   4
ATOM      4  C   UNL     1      22.125  54.617  16.291  1.00  0.00     0.000 C 
BRANCH   4   5
ATOM      5  C   UNL     1      22.044  56.023  16.906  1.00  0.00     0.000 C 
BRANCH   5   6
ATOM      6  C   UNL     1      20.828  56.819  16.411  1.00  0.00     0.006 C 
BRANCH   6   7
ATOM      7  C   UNL     1      19.878  57.142  17.567  1.00  0.00     0.053 C 
BRANCH   7   8
ATOM      8  C   UNL     1      18.498  56.639  17.284  1.00  0.00     0.041 C 
ATOM      9  O   UNL     1      17.709  57.316  16.573  1.00  0.00    -0.550 OA
ATOM     10  O   UNL     1      18.080  55.422  17.801  1.00  0.00    -0.550 OA
ENDBRANCH   7   8
ENDBRANCH   6   7
ENDBRANCH   5   6
ENDBRANCH   4   5
ENDBRANCH   3   4
ENDBRANCH   2   3
ENDBRANCH   1   2
BRANCH   1  11
ATOM     11  C   UNL     1      19.448  53.873  13.996  1.00  0.00     0.000 C 
BRANCH  11  12
ATOM     12  C   UNL     1      18.631  55.170  13.902  1.00  0.00     0.000 C 
BRANCH  12  13
ATOM     13  C   UNL     1      17.594  55.089  12.771  1.00  0.00     0.000 C 
BRANCH  13  14
ATOM     14  C   UNL     1      16.187  54.727  13.291  1.00  0.00     0.000 C 
BRANCH  14  15
ATOM     15  C   UNL     1      16.058  54.772  14.827  1.00  0.00     0.000 C 
BRANCH  15  16
ATOM     16  C   UNL     1      14.834  55.542  15.355  1.00  0.00     0.006 C 
BRANCH  16  17
ATOM     17  C   UNL     1      14.592  55.382  16.864  1.00  0.00     0.053 C 
BRANCH  17  18
ATOM     18  C   UNL     1      14.423  56.706  17.544  1.00  0.00     0.041 C 
ATOM     19  O   UNL     1      14.284  56.770  18.794  1.00  0.00    -0.550 OA
ATOM     20  O   UNL     1      14.393  57.872  16.788  1.00  0.00    -0.550 OA
ENDBRANCH  17  18
ENDBRANCH  16  17
ENDBRANCH  15  16
ENDBRANCH  14  15
ENDBRANCH  13  14
ENDBRANCH  12  13
ENDBRANCH  11  12
ENDBRANCH   1  11
TORSDOF 15
ENDMDL
MODEL 4
REMARK VINA RESULT:    -4.523      1.252      2.590
REMARK INTER + INTRA:         -11.155
REMARK INTER:                  -8.725
REMARK INTRA:                  -2.430
REMARK UNBOUND:                -2.665
REMARK SMILES O=C([O-])CCCCCCCCCCCCCCC(=O)[O-]
REMARK SMILES IDX 10 1 9 2 8 3 7 4 6 5 5 6 4 7 2 8 1 9 3 10 11 11 12 12 13 13
REMARK SMILES IDX 14 14 15 15 16 16 17 17 18 18 19 19 20 20
REMARK H PARENT
REMARK Flexibility Score: inf
ROOT
ATOM      1  C   UNL     1      18.629  55.188  13.972  1.00  0.00     0.000 C 
ENDROOT
BRANCH   1   2
ATOM      2  C   UNL     1      17.906  55.503  15.295  1.00  0.00     0.000 C 
BRANCH   2   3
ATOM      3  C   UNL     1      18.455  56.770  15.976  1.00  0.00     0.000 C 
BRANCH   3   4
ATOM      4  C   UNL     1      19.018  56.489  17.380  1.00  0.00     0.000 C 
BRANCH   4   5
ATOM      5  C   UNL     1      20.483  56.931  17.527  1.00  0.00     0.000 C 
BRANCH   5   6
ATOM      6  C   UNL     1      21.299  56.720  16.244  1.00  0.00     0.006 C 
BRANCH   6   7
ATOM      7  C   UNL     1      22.400  55.678  16.460  1.00  0.00     0.053 C 
BRANCH   7   8
ATOM      8  C   UNL     1      23.756  56.285  16.283  1.00  0.00     0.041 C 
ATOM      9  O   UNL     1      24.705  55.950  17.040  1.00  0.00    -0.550 OA
ATOM     10  O   UNL     1      23.977  57.217  15.281  1.00  0.00    -0.550 OA
ENDBRANCH   7   8
ENDBRANCH   6   7
ENDBRANCH   5   6
ENDBRANCH   4   5
ENDBRANCH   3   4
ENDBRANCH   2   3
ENDBRANCH   1   2
BRANCH   1  11
ATOM     11  C   UNL     1      19.734  54.133  14.137  1.00  0.00     0.000 C 
BRANCH  11  12
ATOM     12  C   UNL     1      19.324  52.978  15.064  1.00  0.00     0.000 C 
BRANCH  12  13
ATOM     13  C   UNL     1      20.367  52.761  16.171  1.00  0.00     0.000 C 
BRANCH  13  14
ATOM     14  C   UNL     1      19.776  52.966  17.582  1.00  0.00     0.000 C 
BRANCH  14  15
ATOM     15  C   UNL     1      18.568  52.059  17.890  1.00  0.00     0.000 C 
BRANCH  15  16
ATOM     16  C   UNL     1      17.207  52.778  17.930  1.00  0.00     0.006 C 
BRANCH  16  17
ATOM     17  C   UNL     1      17.078  53.817  19.054  1.00  0.00     0.053 C 
BRANCH  17  18
ATOM     18  C   UNL     1      15.964  54.785  18.792  1.00  0.00     0.041 C 
ATOM     19  O   UNL     1      16.067  55.989  19.143  1.00  0.00    -0.550 OA
ATOM     20  O   UNL     1      14.796  54.344  18.179  1.00  0.00    -0.550 OA
ENDBRANCH  17  18
ENDBRANCH  16  17
ENDBRANCH  15  16
ENDBRANCH  14  15
ENDBRANCH  13  14
ENDBRANCH  12  13
ENDBRANCH  11  12
ENDBRANCH   1  11
TORSDOF 15
ENDMDL
MODEL 5
REMARK VINA RESULT:    -4.492      1.581      6.124
REMARK INTER + INTRA:         -11.097
REMARK INTER:                  -8.810
REMARK INTRA:                  -2.286
REMARK UNBOUND:                -2.665
REMARK SMILES O=C([O-])CCCCCCCCCCCCCCC(=O)[O-]
REMARK SMILES IDX 10 1 9 2 8 3 7 4 6 5 5 6 4 7 2 8 1 9 3 10 11 11 12 12 13 13
REMARK SMILES IDX 14 14 15 15 16 16 17 17 18 18 19 19 20 20
REMARK H PARENT
REMARK Flexibility Score: inf
ROOT
ATOM      1  C   UNL     1      19.193  53.001  15.127  1.00  0.00     0.000 C 
ENDROOT
BRANCH   1   2
ATOM      2  C   UNL     1      19.554  54.079  14.089  1.00  0.00     0.000 C 
BRANCH   2   3
ATOM      3  C   UNL     1      18.555  55.250  14.086  1.00  0.00     0.000 C 
BRANCH   3   4
ATOM      4  C   UNL     1      17.608  55.216  12.874  1.00  0.00     0.000 C 
BRANCH   4   5
ATOM      5  C   UNL     1      16.161  54.874  13.267  1.00  0.00     0.000 C 
BRANCH   5   6
ATOM      6  C   UNL     1      15.939  54.886  14.786  1.00  0.00     0.006 C 
BRANCH   6   7
ATOM      7  C   UNL     1      14.490  55.250  15.124  1.00  0.00     0.053 C 
BRANCH   7   8
ATOM      8  C   UNL     1      14.424  56.105  16.350  1.00  0.00     0.041 C 
ATOM      9  O   UNL     1      14.435  57.361  16.249  1.00  0.00    -0.550 OA
ATOM     10  O   UNL     1      14.347  55.521  17.605  1.00  0.00    -0.550 OA
ENDBRANCH   7   8
ENDBRANCH   6   7
ENDBRANCH   5   6
ENDBRANCH   4   5
ENDBRANCH   3   4
ENDBRANCH   2   3
ENDBRANCH   1   2
BRANCH   1  11
ATOM     11  C   UNL     1      20.325  52.748  16.137  1.00  0.00     0.000 C 
BRANCH  11  12
ATOM     12  C   UNL     1      19.898  53.014  17.589  1.00  0.00     0.000 C 
BRANCH  12  13
ATOM     13  C   UNL     1      18.424  53.439  17.663  1.00  0.00     0.000 C 
BRANCH  13  14
ATOM     14  C   UNL     1      18.230  54.749  18.455  1.00  0.00     0.000 C 
BRANCH  14  15
ATOM     15  C   UNL     1      17.824  55.953  17.580  1.00  0.00     0.000 C 
BRANCH  15  16
ATOM     16  C   UNL     1      18.841  57.109  17.552  1.00  0.00     0.006 C 
BRANCH  16  17
ATOM     17  C   UNL     1      20.249  56.720  18.026  1.00  0.00     0.053 C 
BRANCH  17  18
ATOM     18  C   UNL     1      21.187  56.518  16.875  1.00  0.00     0.041 C 
ATOM     19  O   UNL     1      21.005  57.125  15.787  1.00  0.00    -0.550 OA
ATOM     20  O   UNL     1      22.252  55.633  16.999  1.00  0.00    -0.550 OA
ENDBRANCH  17  18
ENDBRANCH  16  17
ENDBRANCH  15  16
ENDBRANCH  14  15
ENDBRANCH  13  14
ENDBRANCH  12  13
ENDBRANCH  11  12
ENDBRANCH   1  11
TORSDOF 15
ENDMDL
MODEL 6
REMARK VINA RESULT:    -4.481      1.071      2.168
REMARK INTER + INTRA:         -11.076
REMARK INTER:                  -9.355
REMARK INTRA:                  -1.721
REMARK UNBOUND:                -2.665
REMARK SMILES O=C([O-])CCCCCCCCCCCCCCC(=O)[O-]
REMARK SMILES IDX 10 1 9 2 8 3 7 4 6 5 5 6 4 7 2 8 1 9 3 10 11 11 12 12 13 13
REMARK SMILES IDX 14 14 15 15 16 16 17 17 18 18 19 19 20 20
REMARK H PARENT
REMARK Flexibility Score: inf
ROOT
ATOM      1  C   UNL     1      19.860  53.733  14.235  1.00  0.00     0.000 C 
ENDROOT
BRANCH   1   2
ATOM      2  C   UNL     1      19.561  52.794  15.418  1.00  0.00     0.000 C 
BRANCH   2   3
ATOM      3  C   UNL     1      19.180  53.562  16.696  1.00  0.00     0.000 C 
BRANCH   3   4
ATOM      4  C   UNL     1      20.399  54.188  17.395  1.00  0.00     0.000 C 
BRANCH   4   5
ATOM      5  C   UNL     1      20.259  55.709  17.575  1.00  0.00     0.000 C 
BRANCH   5   6
ATOM      6  C   UNL     1      21.299  56.501  16.770  1.00  0.00     0.006 C 
BRANCH   6   7
ATOM      7  C   UNL     1      22.381  55.573  16.212  1.00  0.00     0.053 C 
BRANCH   7   8
ATOM      8  C   UNL     1      23.738  56.191  16.339  1.00  0.00     0.041 C 
ATOM      9  O   UNL     1      24.518  55.827  17.258  1.00  0.00    -0.550 OA
ATOM     10  O   UNL     1      24.145  57.169  15.444  1.00  0.00    -0.550 OA
ENDBRANCH   7   8
ENDBRANCH   6   7
ENDBRANCH   5   6
ENDBRANCH   4   5
ENDBRANCH   3   4
ENDBRANCH   2   3
ENDBRANCH   1   2
BRANCH   1  11
ATOM     11  C   UNL     1      18.856  54.893  14.131  1.00  0.00     0.000 C 
BRANCH  11  12
ATOM     12  C   UNL     1      17.971  54.806  12.878  1.00  0.00     0.000 C 
BRANCH  12  13
ATOM     13  C   UNL     1      16.482  54.875  13.248  1.00  0.00     0.000 C 
BRANCH  13  14
ATOM     14  C   UNL     1      16.259  54.934  14.774  1.00  0.00     0.000 C 
BRANCH  14  15
ATOM     15  C   UNL     1      14.772  54.949  15.187  1.00  0.00     0.000 C 
BRANCH  15  16
ATOM     16  C   UNL     1      14.318  56.213  15.938  1.00  0.00     0.006 C 
BRANCH  16  17
ATOM     17  C   UNL     1      15.446  56.939  16.687  1.00  0.00     0.053 C 
BRANCH  17  18
ATOM     18  C   UNL     1      15.618  56.412  18.079  1.00  0.00     0.041 C 
ATOM     19  O   UNL     1      14.628  56.303  18.849  1.00  0.00    -0.550 OA
ATOM     20  O   UNL     1      16.885  56.064  18.534  1.00  0.00    -0.550 OA
ENDBRANCH  17  18
ENDBRANCH  16  17
ENDBRANCH  15  16
ENDBRANCH  14  15
ENDBRANCH  13  14
ENDBRANCH  12  13
ENDBRANCH  11  12
ENDBRANCH   1  11
TORSDOF 15
ENDMDL
MODEL 7
REMARK VINA RESULT:    -4.468      2.408      5.520
REMARK INTER + INTRA:         -11.051
REMARK INTER:                  -9.219
REMARK INTRA:                  -1.832
REMARK UNBOUND:                -2.665
REMARK SMILES O=C([O-])CCCCCCCCCCCCCCC(=O)[O-]
REMARK SMILES IDX 10 1 9 2 8 3 7 4 6 5 5 6 4 7 2 8 1 9 3 10 11 11 12 12 13 13
REMARK SMILES IDX 14 14 15 15 16 16 17 17 18 18 19 19 20 20
REMARK H PARENT
REMARK Flexibility Score: inf
ROOT
ATOM      1  C   UNL     1      15.698  54.832  14.504  1.00  0.00     0.000 C 
ENDROOT
BRANCH   1   2
ATOM      2  C   UNL     1      14.859  55.020  15.781  1.00  0.00     0.000 C 
BRANCH   2   3
ATOM      3  C   UNL     1      14.230  56.422  15.869  1.00  0.00     0.000 C 
BRANCH   3   4
ATOM      4  C   UNL     1      14.731  57.219  17.086  1.00  0.00     0.000 C 
BRANCH   4   5
ATOM      5  C   UNL     1      14.724  56.386  18.379  1.00  0.00     0.000 C 
BRANCH   5   6
ATOM      6  C   UNL     1      16.136  56.039  18.870  1.00  0.00     0.006 C 
BRANCH   6   7
ATOM      7  C   UNL     1      16.237  54.556  19.241  1.00  0.00     0.053 C 
BRANCH   7   8
ATOM      8  C   UNL     1      17.317  53.879  18.458  1.00  0.00     0.041 C 
ATOM      9  O   UNL     1      18.503  54.297  18.521  1.00  0.00    -0.550 OA
ATOM     10  O   UNL     1      17.018  52.785  17.659  1.00  0.00    -0.550 OA
ENDBRANCH   7   8
ENDBRANCH   6   7
ENDBRANCH   5   6
ENDBRANCH   4   5
ENDBRANCH   3   4
ENDBRANCH   2   3
ENDBRANCH   1   2
BRANCH   1  11
ATOM     11  C   UNL     1      17.209  54.954  14.764  1.00  0.00     0.000 C 
BRANCH  11  12
ATOM     12  C   UNL     1      18.039  54.937  13.472  1.00  0.00     0.000 C 
BRANCH  12  13
ATOM     13  C   UNL     1      19.323  54.113  13.651  1.00  0.00     0.000 C 
BRANCH  13  14
ATOM     14  C   UNL     1      19.305  53.273  14.946  1.00  0.00     0.000 C 
BRANCH  14  15
ATOM     15  C   UNL     1      20.551  53.467  15.833  1.00  0.00     0.000 C 
BRANCH  15  16
ATOM     16  C   UNL     1      21.392  54.716  15.510  1.00  0.00     0.006 C 
BRANCH  16  17
ATOM     17  C   UNL     1      21.548  55.691  16.688  1.00  0.00     0.053 C 
BRANCH  17  18
ATOM     18  C   UNL     1      20.427  56.686  16.738  1.00  0.00     0.041 C 
ATOM     19  O   UNL     1      19.854  57.056  15.681  1.00  0.00    -0.550 OA
ATOM     20  O   UNL     1      20.036  57.223  17.958  1.00  0.00    -0.550 OA
ENDBRANCH  17  18
ENDBRANCH  16  17
ENDBRANCH  15  16
ENDBRANCH  14  15
ENDBRANCH  13  14
ENDBRANCH  12  13
ENDBRANCH  11  12
ENDBRANCH   1  11
TORSDOF 15
ENDMDL
MODEL 8
REMARK VINA RESULT:    -4.439      2.036      5.855
REMARK INTER + INTRA:         -10.997
REMARK INTER:                  -8.805
REMARK INTRA:                  -2.192
REMARK UNBOUND:                -2.665
REMARK SMILES O=C([O-])CCCCCCCCCCCCCCC(=O)[O-]
REMARK SMILES IDX 10 1 9 2 8 3 7 4 6 5 5 6 4 7 2 8 1 9 3 10 11 11 12 12 13 13
REMARK SMILES IDX 14 14 15 15 16 16 17 17 18 18 19 19 20 20
REMARK H PARENT
REMARK Flexibility Score: inf
ROOT
ATOM      1  C   UNL     1      16.368  55.004  14.944  1.00  0.00     0.000 C 
ENDROOT
BRANCH   1   2
ATOM      2  C   UNL     1      14.987  54.645  15.520  1.00  0.00     0.000 C 
BRANCH   2   3
ATOM      3  C   UNL     1      14.985  53.281  16.234  1.00  0.00     0.000 C 
BRANCH   3   4
ATOM      4  C   UNL     1      16.405  52.736  16.470  1.00  0.00     0.000 C 
BRANCH   4   5
ATOM      5  C   UNL     1      16.665  52.388  17.945  1.00  0.00     0.000 C 
BRANCH   5   6
ATOM      6  C   UNL     1      15.753  53.161  18.908  1.00  0.00     0.006 C 
BRANCH   6   7
ATOM      7  C   UNL     1      16.503  54.331  19.550  1.00  0.00     0.053 C 
BRANCH   7   8
ATOM      8  C   UNL     1      16.171  55.621  18.869  1.00  0.00     0.041 C 
ATOM      9  O   UNL     1      14.991  56.058  18.880  1.00  0.00    -0.550 OA
ATOM     10  O   UNL     1      17.163  56.344  18.224  1.00  0.00    -0.550 OA
ENDBRANCH   7   8
ENDBRANCH   6   7
ENDBRANCH   5   6
ENDBRANCH   4   5
ENDBRANCH   3   4
ENDBRANCH   2   3
ENDBRANCH   1   2
BRANCH   1  11
ATOM     11  C   UNL     1      16.426  54.873  13.414  1.00  0.00     0.000 C 
BRANCH  11  12
ATOM     12  C   UNL     1      17.863  54.822  12.873  1.00  0.00     0.000 C 
BRANCH  12  13
ATOM     13  C   UNL     1      18.886  54.901  14.017  1.00  0.00     0.000 C 
BRANCH  13  14
ATOM     14  C   UNL     1      19.826  53.677  14.049  1.00  0.00     0.000 C 
BRANCH  14  15
ATOM     15  C   UNL     1      19.773  52.885  15.371  1.00  0.00     0.000 C 
BRANCH  15  16
ATOM     16  C   UNL     1      20.791  53.328  16.438  1.00  0.00     0.006 C 
BRANCH  16  17
ATOM     17  C   UNL     1      20.284  54.439  17.369  1.00  0.00     0.053 C 
BRANCH  17  18
ATOM     18  C   UNL     1      20.876  55.771  17.021  1.00  0.00     0.041 C 
ATOM     19  O   UNL     1      21.787  55.859  16.156  1.00  0.00    -0.550 OA
ATOM     20  O   UNL     1      20.435  56.915  17.676  1.00  0.00    -0.550 OA
ENDBRANCH  17  18
ENDBRANCH  16  17
ENDBRANCH  15  16
ENDBRANCH  14  15
ENDBRANCH  13  14
ENDBRANCH  12  13
ENDBRANCH  11  12
ENDBRANCH   1  11
TORSDOF 15
ENDMDL
MODEL 9
REMARK VINA RESULT:    -4.429      1.634      6.090
REMARK INTER + INTRA:         -10.978
REMARK INTER:                  -8.590
REMARK INTRA:                  -2.389
REMARK UNBOUND:                -2.665
REMARK SMILES O=C([O-])CCCCCCCCCCCCCCC(=O)[O-]
REMARK SMILES IDX 10 1 9 2 8 3 7 4 6 5 5 6 4 7 2 8 1 9 3 10 11 11 12 12 13 13
REMARK SMILES IDX 14 14 15 15 16 16 17 17 18 18 19 19 20 20
REMARK H PARENT
REMARK Flexibility Score: inf
ROOT
ATOM      1  C   UNL     1      19.890  53.894  14.489  1.00  0.00     0.000 C 
ENDROOT
BRANCH   1   2
ATOM      2  C   UNL     1      19.866  52.687  15.443  1.00  0.00     0.000 C 
BRANCH   2   3
ATOM      3  C   UNL     1      18.653  52.712  16.391  1.00  0.00     0.000 C 
BRANCH   3   4
ATOM      4  C   UNL     1      19.049  52.512  17.864  1.00  0.00     0.000 C 
BRANCH   4   5
ATOM      5  C   UNL     1      17.830  52.342  18.785  1.00  0.00     0.000 C 
BRANCH   5   6
ATOM      6  C   UNL     1      17.314  53.676  19.341  1.00  0.00     0.006 C 
BRANCH   6   7
ATOM      7  C   UNL     1      15.785  53.735  19.292  1.00  0.00     0.053 C 
BRANCH   7   8
ATOM      8  C   UNL     1      15.318  54.897  18.474  1.00  0.00     0.041 C 
ATOM      9  O   UNL     1      15.498  56.074  18.884  1.00  0.00    -0.550 OA
ATOM     10  O   UNL     1      14.687  54.685  17.258  1.00  0.00    -0.550 OA
ENDBRANCH   7   8
ENDBRANCH   6   7
ENDBRANCH   5   6
ENDBRANCH   4   5
ENDBRANCH   3   4
ENDBRANCH   2   3
ENDBRANCH   1   2
BRANCH   1  11
ATOM     11  C   UNL     1      18.518  54.177  13.855  1.00  0.00     0.000 C 
BRANCH  11  12
ATOM     12  C   UNL     1      18.102  55.651  13.968  1.00  0.00     0.000 C 
BRANCH  12  13
ATOM     13  C   UNL     1      17.411  55.929  15.312  1.00  0.00     0.000 C 
BRANCH  13  14
ATOM     14  C   UNL     1      18.157  56.990  16.148  1.00  0.00     0.000 C 
BRANCH  14  15
ATOM     15  C   UNL     1      18.690  56.461  17.495  1.00  0.00     0.000 C 
BRANCH  15  16
ATOM     16  C   UNL     1      20.160  56.005  17.481  1.00  0.00     0.006 C 
BRANCH  16  17
ATOM     17  C   UNL     1      21.046  56.771  16.486  1.00  0.00     0.053 C 
BRANCH  17  18
ATOM     18  C   UNL     1      22.354  56.076  16.257  1.00  0.00     0.041 C 
ATOM     19  O   UNL     1      22.503  54.869  16.583  1.00  0.00    -0.550 OA
ATOM     20  O   UNL     1      23.420  56.776  15.705  1.00  0.00    -0.550 OA
ENDBRANCH  17  18
ENDBRANCH  16  17
ENDBRANCH  15  16
ENDBRANCH  14  15
ENDBRANCH  13  14
ENDBRANCH  12  13
ENDBRANCH  11  12
ENDBRANCH   1  11
TORSDOF 15
ENDMDL
