MODEL 1
REMARK VINA RESULT:    -4.830      0.000      0.000
REMARK INTER + INTRA:         -15.024
REMARK INTER:                 -11.043
REMARK INTRA:                  -3.981
REMARK UNBOUND:                -3.981
REMARK SMILES CCCCCCCCCCCCCCCCCCCCCCCC(=O)[O-]
REMARK SMILES IDX 13 1 14 2 15 3 16 4 17 5 18 6 19 7 20 8 21 9 22 10 23 11
REMARK SMILES IDX 24 12 25 13 26 14 12 15 11 16 10 17 9 18 8 19 7 20 6 21 5 22
REMARK SMILES IDX 4 23 3 24 2 25 1 26
REMARK H PARENT
REMARK Flexibility Score: inf
ROOT
ATOM      1  C   UNL     1      17.890 -33.476  19.297  1.00  0.00     0.000 C 
ENDROOT
BRANCH   1   2
ATOM      2  C   UNL     1      18.312 -32.773  20.599  1.00  0.00     0.000 C 
BRANCH   2   3
ATOM      3  C   UNL     1      17.949 -31.281  20.608  1.00  0.00     0.000 C 
BRANCH   3   4
ATOM      4  C   UNL     1      18.002 -30.664  22.015  1.00  0.00     0.000 C 
BRANCH   4   5
ATOM      5  C   UNL     1      18.096 -31.723  23.127  1.00  0.00     0.000 C 
BRANCH   5   6
ATOM      6  C   UNL     1      16.942 -31.649  24.150  1.00  0.00     0.000 C 
BRANCH   6   7
ATOM      7  C   UNL     1      16.187 -32.982  24.272  1.00  0.00     0.000 C 
BRANCH   7   8
ATOM      8  C   UNL     1      15.622 -33.424  22.916  1.00  0.00     0.000 C 
BRANCH   8   9
ATOM      9  C   UNL     1      14.286 -32.726  22.626  1.00  0.00     0.000 C 
BRANCH   9  10
ATOM     10  C   UNL     1      14.394 -31.677  21.507  1.00  0.00     0.006 C 
BRANCH  10  11
ATOM     11  C   UNL     1      14.268 -30.240  22.028  1.00  0.00     0.053 C 
BRANCH  11  12
ATOM     12  C   UNL     1      13.040 -30.094  22.870  1.00  0.00     0.041 C 
ATOM     13  O   UNL     1      13.138 -29.821  24.095  1.00  0.00    -0.550 OA
ATOM     14  O   UNL     1      11.782 -30.211  22.291  1.00  0.00    -0.550 OA
ENDBRANCH  11  12
ENDBRANCH  10  11
ENDBRANCH   9  10
ENDBRANCH   8   9
ENDBRANCH   7   8
ENDBRANCH   6   7
ENDBRANCH   5   6
ENDBRANCH   4   5
ENDBRANCH   3   4
ENDBRANCH   2   3
ENDBRANCH   1   2
BRANCH   1  15
ATOM     15  C   UNL     1      16.456 -34.028  19.356  1.00  0.00     0.000 C 
BRANCH  15  16
ATOM     16  C   UNL     1      16.339 -35.505  19.780  1.00  0.00     0.000 C 
BRANCH  16  17
ATOM     17  C   UNL     1      17.676 -36.275  19.747  1.00  0.00     0.000 C 
BRANCH  17  18
ATOM     18  C   UNL     1      17.704 -37.439  20.753  1.00  0.00    -0.000 C 
BRANCH  18  19
ATOM     19  C   UNL     1      18.524 -37.117  22.016  1.00  0.00    -0.000 C 
BRANCH  19  20
ATOM     20  C   UNL     1      18.253 -35.729  22.632  1.00  0.00    -0.000 C 
BRANCH  20  21
ATOM     21  C   UNL     1      19.368 -35.183  23.546  1.00  0.00    -0.000 C 
BRANCH  21  22
ATOM     22  C   UNL     1      19.057 -35.227  25.053  1.00  0.00    -0.000 C 
BRANCH  22  23
ATOM     23  C   UNL     1      19.506 -36.540  25.718  1.00  0.00    -0.000 C 
BRANCH  23  24
ATOM     24  C   UNL     1      18.337 -37.512  25.964  1.00  0.00    -0.000 C 
BRANCH  24  25
ATOM     25  C   UNL     1      17.094 -36.883  26.621  1.00  0.00    -0.003 C 
ATOM     26  C   UNL     1      16.229 -37.902  27.364  1.00  0.00     0.004 C 
ENDBRANCH  24  25
ENDBRANCH  23  24
ENDBRANCH  22  23
ENDBRANCH  21  22
ENDBRANCH  20  21
ENDBRANCH  19  20
ENDBRANCH  18  19
ENDBRANCH  17  18
ENDBRANCH  16  17
ENDBRANCH  15  16
ENDBRANCH   1  15
TORSDOF 22
ENDMDL
MODEL 2
REMARK VINA RESULT:    -4.803      3.315      6.053
REMARK INTER + INTRA:         -14.961
REMARK INTER:                 -10.714
REMARK INTRA:                  -4.247
REMARK UNBOUND:                -3.981
REMARK SMILES CCCCCCCCCCCCCCCCCCCCCCCC(=O)[O-]
REMARK SMILES IDX 13 1 14 2 15 3 16 4 17 5 18 6 19 7 20 8 21 9 22 10 23 11
REMARK SMILES IDX 24 12 25 13 26 14 12 15 11 16 10 17 9 18 8 19 7 20 6 21 5 22
REMARK SMILES IDX 4 23 3 24 2 25 1 26
REMARK H PARENT
REMARK Flexibility Score: inf
ROOT
ATOM      1  C   UNL     1      13.801 -31.003  23.339  1.00  0.00     0.000 C 
ENDROOT
BRANCH   1   2
ATOM      2  C   UNL     1      12.809 -30.997  22.162  1.00  0.00     0.000 C 
BRANCH   2   3
ATOM      3  C   UNL     1      13.433 -31.523  20.861  1.00  0.00     0.000 C 
BRANCH   3   4
ATOM      4  C   UNL     1      14.224 -32.825  21.065  1.00  0.00     0.000 C 
BRANCH   4   5
ATOM      5  C   UNL     1      14.435 -33.606  19.756  1.00  0.00     0.000 C 
BRANCH   5   6
ATOM      6  C   UNL     1      15.528 -34.691  19.854  1.00  0.00     0.000 C 
BRANCH   6   7
ATOM      7  C   UNL     1      16.799 -34.308  19.079  1.00  0.00     0.000 C 
BRANCH   7   8
ATOM      8  C   UNL     1      17.992 -35.168  19.513  1.00  0.00     0.000 C 
BRANCH   8   9
ATOM      9  C   UNL     1      17.599 -36.650  19.594  1.00  0.00     0.000 C 
BRANCH   9  10
ATOM     10  C   UNL     1      17.941 -37.282  20.953  1.00  0.00     0.006 C 
BRANCH  10  11
ATOM     11  C   UNL     1      18.354 -36.242  22.003  1.00  0.00     0.053 C 
BRANCH  11  12
ATOM     12  C   UNL     1      19.391 -36.808  22.921  1.00  0.00     0.041 C 
ATOM     13  O   UNL     1      19.049 -37.518  23.903  1.00  0.00    -0.550 OA
ATOM     14  O   UNL     1      20.739 -36.594  22.664  1.00  0.00    -0.550 OA
ENDBRANCH  11  12
ENDBRANCH  10  11
ENDBRANCH   9  10
ENDBRANCH   8   9
ENDBRANCH   7   8
ENDBRANCH   6   7
ENDBRANCH   5   6
ENDBRANCH   4   5
ENDBRANCH   3   4
ENDBRANCH   2   3
ENDBRANCH   1   2
BRANCH   1  15
ATOM     15  C   UNL     1      14.749 -29.793  23.325  1.00  0.00     0.000 C 
BRANCH  15  16
ATOM     16  C   UNL     1      16.250 -30.136  23.370  1.00  0.00     0.000 C 
BRANCH  16  17
ATOM     17  C   UNL     1      17.052 -29.611  22.160  1.00  0.00     0.000 C 
BRANCH  17  18
ATOM     18  C   UNL     1      17.128 -30.640  21.020  1.00  0.00    -0.000 C 
BRANCH  18  19
ATOM     19  C   UNL     1      17.777 -31.967  21.454  1.00  0.00    -0.000 C 
BRANCH  19  20
ATOM     20  C   UNL     1      19.312 -31.921  21.607  1.00  0.00    -0.000 C 
BRANCH  20  21
ATOM     21  C   UNL     1      19.907 -32.943  22.597  1.00  0.00    -0.000 C 
BRANCH  21  22
ATOM     22  C   UNL     1      19.719 -32.596  24.085  1.00  0.00    -0.000 C 
BRANCH  22  23
ATOM     23  C   UNL     1      19.647 -33.842  24.984  1.00  0.00    -0.000 C 
BRANCH  23  24
ATOM     24  C   UNL     1      18.248 -34.058  25.593  1.00  0.00    -0.000 C 
BRANCH  24  25
ATOM     25  C   UNL     1      17.128 -33.206  24.967  1.00  0.00    -0.003 C 
ATOM     26  C   UNL     1      16.213 -34.008  24.040  1.00  0.00     0.004 C 
ENDBRANCH  24  25
ENDBRANCH  23  24
ENDBRANCH  22  23
ENDBRANCH  21  22
ENDBRANCH  20  21
ENDBRANCH  19  20
ENDBRANCH  18  19
ENDBRANCH  17  18
ENDBRANCH  16  17
ENDBRANCH  15  16
ENDBRANCH   1  15
TORSDOF 22
ENDMDL
MODEL 3
REMARK VINA RESULT:    -4.793      1.299      3.002
REMARK INTER + INTRA:         -14.938
REMARK INTER:                 -11.307
REMARK INTRA:                  -3.632
REMARK UNBOUND:                -3.981
REMARK SMILES CCCCCCCCCCCCCCCCCCCCCCCC(=O)[O-]
REMARK SMILES IDX 13 1 14 2 15 3 16 4 17 5 18 6 19 7 20 8 21 9 22 10 23 11
REMARK SMILES IDX 24 12 25 13 26 14 12 15 11 16 10 17 9 18 8 19 7 20 6 21 5 22
REMARK SMILES IDX 4 23 3 24 2 25 1 26
REMARK H PARENT
REMARK Flexibility Score: inf
ROOT
ATOM      1  C   UNL     1      17.013 -35.772  20.820  1.00  0.00     0.000 C 
ENDROOT
BRANCH   1   2
ATOM      2  C   UNL     1      17.010 -35.355  19.339  1.00  0.00     0.000 C 
BRANCH   2   3
ATOM      3  C   UNL     1      17.262 -33.851  19.149  1.00  0.00     0.000 C 
BRANCH   3   4
ATOM      4  C   UNL     1      17.406 -33.099  20.481  1.00  0.00     0.000 C 
BRANCH   4   5
ATOM      5  C   UNL     1      18.586 -32.111  20.483  1.00  0.00     0.000 C 
BRANCH   5   6
ATOM      6  C   UNL     1      18.177 -30.662  20.824  1.00  0.00     0.000 C 
BRANCH   6   7
ATOM      7  C   UNL     1      17.902 -30.473  22.324  1.00  0.00     0.000 C 
BRANCH   7   8
ATOM      8  C   UNL     1      16.574 -29.741  22.556  1.00  0.00     0.000 C 
BRANCH   8   9
ATOM      9  C   UNL     1      15.651 -29.883  21.338  1.00  0.00     0.000 C 
BRANCH   9  10
ATOM     10  C   UNL     1      14.345 -30.625  21.666  1.00  0.00     0.006 C 
BRANCH  10  11
ATOM     11  C   UNL     1      14.576 -31.887  22.507  1.00  0.00     0.053 C 
BRANCH  11  12
ATOM     12  C   UNL     1      13.841 -31.792  23.807  1.00  0.00     0.041 C 
ATOM     13  O   UNL     1      13.350 -30.694  24.179  1.00  0.00    -0.550 OA
ATOM     14  O   UNL     1      13.654 -32.928  24.584  1.00  0.00    -0.550 OA
ENDBRANCH  11  12
ENDBRANCH  10  11
ENDBRANCH   9  10
ENDBRANCH   8   9
ENDBRANCH   7   8
ENDBRANCH   6   7
ENDBRANCH   5   6
ENDBRANCH   4   5
ENDBRANCH   3   4
ENDBRANCH   2   3
ENDBRANCH   1   2
BRANCH   1  15
ATOM     15  C   UNL     1      18.028 -36.886  21.124  1.00  0.00     0.000 C 
BRANCH  15  16
ATOM     16  C   UNL     1      18.908 -36.649  22.366  1.00  0.00     0.000 C 
BRANCH  16  17
ATOM     17  C   UNL     1      19.691 -35.319  22.337  1.00  0.00     0.000 C 
BRANCH  17  18
ATOM     18  C   UNL     1      19.813 -34.683  23.733  1.00  0.00    -0.000 C 
BRANCH  18  19
ATOM     19  C   UNL     1      18.805 -33.542  23.960  1.00  0.00    -0.000 C 
BRANCH  19  20
ATOM     20  C   UNL     1      17.338 -33.991  24.122  1.00  0.00    -0.000 C 
BRANCH  20  21
ATOM     21  C   UNL     1      16.849 -34.136  25.578  1.00  0.00    -0.000 C 
BRANCH  21  22
ATOM     22  C   UNL     1      16.523 -35.574  26.017  1.00  0.00    -0.000 C 
BRANCH  22  23
ATOM     23  C   UNL     1      17.774 -36.464  26.126  1.00  0.00    -0.000 C 
BRANCH  23  24
ATOM     24  C   UNL     1      17.489 -37.809  26.820  1.00  0.00    -0.000 C 
BRANCH  24  25
ATOM     25  C   UNL     1      16.033 -38.011  27.277  1.00  0.00    -0.003 C 
ATOM     26  C   UNL     1      15.887 -38.085  28.797  1.00  0.00     0.004 C 
ENDBRANCH  24  25
ENDBRANCH  23  24
ENDBRANCH  22  23
ENDBRANCH  21  22
ENDBRANCH  20  21
ENDBRANCH  19  20
ENDBRANCH  18  19
ENDBRANCH  17  18
ENDBRANCH  16  17
ENDBRANCH  15  16
ENDBRANCH   1  15
TORSDOF 22
ENDMDL
MODEL 4
REMARK VINA RESULT:    -4.783      3.201      6.402
REMARK INTER + INTRA:         -14.917
REMARK INTER:                 -10.947
REMARK INTRA:                  -3.969
REMARK UNBOUND:                -3.981
REMARK SMILES CCCCCCCCCCCCCCCCCCCCCCCC(=O)[O-]
REMARK SMILES IDX 13 1 14 2 15 3 16 4 17 5 18 6 19 7 20 8 21 9 22 10 23 11
REMARK SMILES IDX 24 12 25 13 26 14 12 15 11 16 10 17 9 18 8 19 7 20 6 21 5 22
REMARK SMILES IDX 4 23 3 24 2 25 1 26
REMARK H PARENT
REMARK Flexibility Score: inf
ROOT
ATOM      1  C   UNL     1      17.431 -29.736  21.640  1.00  0.00     0.000 C 
ENDROOT
BRANCH   1   2
ATOM      2  C   UNL     1      17.532 -31.038  20.826  1.00  0.00     0.000 C 
BRANCH   2   3
ATOM      3  C   UNL     1      18.923 -31.683  20.916  1.00  0.00     0.000 C 
BRANCH   3   4
ATOM      4  C   UNL     1      19.005 -32.773  21.995  1.00  0.00     0.000 C 
BRANCH   4   5
ATOM      5  C   UNL     1      19.396 -32.218  23.376  1.00  0.00     0.000 C 
BRANCH   5   6
ATOM      6  C   UNL     1      18.208 -32.102  24.354  1.00  0.00     0.000 C 
BRANCH   6   7
ATOM      7  C   UNL     1      18.289 -33.130  25.494  1.00  0.00     0.000 C 
BRANCH   7   8
ATOM      8  C   UNL     1      16.951 -33.857  25.680  1.00  0.00     0.000 C 
BRANCH   8   9
ATOM      9  C   UNL     1      16.996 -35.256  25.051  1.00  0.00     0.000 C 
BRANCH   9  10
ATOM     10  C   UNL     1      18.402 -35.876  25.080  1.00  0.00     0.006 C 
BRANCH  10  11
ATOM     11  C   UNL     1      18.919 -36.237  23.681  1.00  0.00     0.053 C 
BRANCH  11  12
ATOM     12  C   UNL     1      20.414 -36.294  23.674  1.00  0.00     0.041 C 
ATOM     13  O   UNL     1      21.023 -37.099  24.427  1.00  0.00    -0.550 OA
ATOM     14  O   UNL     1      21.136 -35.492  22.799  1.00  0.00    -0.550 OA
ENDBRANCH  11  12
ENDBRANCH  10  11
ENDBRANCH   9  10
ENDBRANCH   8   9
ENDBRANCH   7   8
ENDBRANCH   6   7
ENDBRANCH   5   6
ENDBRANCH   4   5
ENDBRANCH   3   4
ENDBRANCH   2   3
ENDBRANCH   1   2
BRANCH   1  15
ATOM     15  C   UNL     1      15.977 -29.299  21.888  1.00  0.00     0.000 C 
BRANCH  15  16
ATOM     16  C   UNL     1      15.380 -29.748  23.236  1.00  0.00     0.000 C 
BRANCH  16  17
ATOM     17  C   UNL     1      13.840 -29.672  23.296  1.00  0.00     0.000 C 
BRANCH  17  18
ATOM     18  C   UNL     1      13.175 -31.017  22.955  1.00  0.00    -0.000 C 
BRANCH  18  19
ATOM     19  C   UNL     1      13.190 -31.326  21.447  1.00  0.00    -0.000 C 
BRANCH  19  20
ATOM     20  C   UNL     1      14.097 -32.503  21.032  1.00  0.00    -0.000 C 
BRANCH  20  21
ATOM     21  C   UNL     1      14.818 -33.221  22.191  1.00  0.00    -0.000 C 
BRANCH  21  22
ATOM     22  C   UNL     1      15.840 -34.289  21.762  1.00  0.00    -0.000 C 
BRANCH  22  23
ATOM     23  C   UNL     1      15.509 -34.920  20.399  1.00  0.00    -0.000 C 
BRANCH  23  24
ATOM     24  C   UNL     1      16.602 -34.666  19.344  1.00  0.00    -0.000 C 
BRANCH  24  25
ATOM     25  C   UNL     1      17.761 -35.679  19.351  1.00  0.00    -0.003 C 
ATOM     26  C   UNL     1      17.413 -36.982  20.072  1.00  0.00     0.004 C 
ENDBRANCH  24  25
ENDBRANCH  23  24
ENDBRANCH  22  23
ENDBRANCH  21  22
ENDBRANCH  20  21
ENDBRANCH  19  20
ENDBRANCH  18  19
ENDBRANCH  17  18
ENDBRANCH  16  17
ENDBRANCH  15  16
ENDBRANCH   1  15
TORSDOF 22
ENDMDL
MODEL 5
REMARK VINA RESULT:    -4.774      2.766      6.007
REMARK INTER + INTRA:         -14.896
REMARK INTER:                 -10.770
REMARK INTRA:                  -4.126
REMARK UNBOUND:                -3.981
REMARK SMILES CCCCCCCCCCCCCCCCCCCCCCCC(=O)[O-]
REMARK SMILES IDX 13 1 14 2 15 3 16 4 17 5 18 6 19 7 20 8 21 9 22 10 23 11
REMARK SMILES IDX 24 12 25 13 26 14 12 15 11 16 10 17 9 18 8 19 7 20 6 21 5 22
REMARK SMILES IDX 4 23 3 24 2 25 1 26
REMARK H PARENT
REMARK Flexibility Score: inf
ROOT
ATOM      1  C   UNL     1      16.844 -35.050  19.346  1.00  0.00     0.000 C 
ENDROOT
BRANCH   1   2
ATOM      2  C   UNL     1      16.753 -35.739  20.719  1.00  0.00     0.000 C 
BRANCH   2   3
ATOM      3  C   UNL     1      18.012 -36.552  21.055  1.00  0.00     0.000 C 
BRANCH   3   4
ATOM      4  C   UNL     1      18.551 -36.259  22.464  1.00  0.00     0.000 C 
BRANCH   4   5
ATOM      5  C   UNL     1      17.789 -35.125  23.171  1.00  0.00     0.000 C 
BRANCH   5   6
ATOM      6  C   UNL     1      17.488 -35.415  24.656  1.00  0.00     0.000 C 
BRANCH   6   7
ATOM      7  C   UNL     1      17.098 -34.145  25.430  1.00  0.00     0.000 C 
BRANCH   7   8
ATOM      8  C   UNL     1      18.318 -33.246  25.668  1.00  0.00     0.000 C 
BRANCH   8   9
ATOM      9  C   UNL     1      17.947 -31.766  25.503  1.00  0.00     0.000 C 
BRANCH   9  10
ATOM     10  C   UNL     1      19.172 -30.838  25.551  1.00  0.00     0.006 C 
BRANCH  10  11
ATOM     11  C   UNL     1      19.737 -30.676  26.969  1.00  0.00     0.053 C 
BRANCH  11  12
ATOM     12  C   UNL     1      19.675 -29.244  27.396  1.00  0.00     0.041 C 
ATOM     13  O   UNL     1      20.482 -28.403  26.919  1.00  0.00    -0.550 OA
ATOM     14  O   UNL     1      18.693 -28.826  28.284  1.00  0.00    -0.550 OA
ENDBRANCH  11  12
ENDBRANCH  10  11
ENDBRANCH   9  10
ENDBRANCH   8   9
ENDBRANCH   7   8
ENDBRANCH   6   7
ENDBRANCH   5   6
ENDBRANCH   4   5
ENDBRANCH   3   4
ENDBRANCH   2   3
ENDBRANCH   1   2
BRANCH   1  15
ATOM     15  C   UNL     1      18.005 -34.046  19.259  1.00  0.00     0.000 C 
BRANCH  15  16
ATOM     16  C   UNL     1      17.742 -32.682  19.926  1.00  0.00     0.000 C 
BRANCH  16  17
ATOM     17  C   UNL     1      18.638 -32.399  21.151  1.00  0.00     0.000 C 
BRANCH  17  18
ATOM     18  C   UNL     1      18.044 -31.320  22.072  1.00  0.00    -0.000 C 
BRANCH  18  19
ATOM     19  C   UNL     1      17.571 -30.073  21.303  1.00  0.00    -0.000 C 
BRANCH  19  20
ATOM     20  C   UNL     1      16.192 -29.529  21.731  1.00  0.00    -0.000 C 
BRANCH  20  21
ATOM     21  C   UNL     1      15.774 -29.854  23.180  1.00  0.00    -0.000 C 
BRANCH  21  22
ATOM     22  C   UNL     1      14.259 -29.820  23.446  1.00  0.00    -0.000 C 
BRANCH  22  23
ATOM     23  C   UNL     1      13.589 -31.193  23.262  1.00  0.00    -0.000 C 
BRANCH  23  24
ATOM     24  C   UNL     1      14.563 -32.366  23.483  1.00  0.00    -0.000 C 
BRANCH  24  25
ATOM     25  C   UNL     1      14.801 -33.256  22.249  1.00  0.00    -0.003 C 
ATOM     26  C   UNL     1      14.251 -32.648  20.958  1.00  0.00     0.004 C 
ENDBRANCH  24  25
ENDBRANCH  23  24
ENDBRANCH  22  23
ENDBRANCH  21  22
ENDBRANCH  20  21
ENDBRANCH  19  20
ENDBRANCH  18  19
ENDBRANCH  17  18
ENDBRANCH  16  17
ENDBRANCH  15  16
ENDBRANCH   1  15
TORSDOF 22
ENDMDL
MODEL 6
REMARK VINA RESULT:    -4.762      3.557      7.111
REMARK INTER + INTRA:         -14.869
REMARK INTER:                 -12.101
REMARK INTRA:                  -2.768
REMARK UNBOUND:                -3.981
REMARK SMILES CCCCCCCCCCCCCCCCCCCCCCCC(=O)[O-]
REMARK SMILES IDX 13 1 14 2 15 3 16 4 17 5 18 6 19 7 20 8 21 9 22 10 23 11
REMARK SMILES IDX 24 12 25 13 26 14 12 15 11 16 10 17 9 18 8 19 7 20 6 21 5 22
REMARK SMILES IDX 4 23 3 24 2 25 1 26
REMARK H PARENT
REMARK Flexibility Score: inf
ROOT
ATOM      1  C   UNL     1      14.624 -33.623  19.992  1.00  0.00     0.000 C 
ENDROOT
BRANCH   1   2
ATOM      2  C   UNL     1      14.236 -32.722  21.178  1.00  0.00     0.000 C 
BRANCH   2   3
ATOM      3  C   UNL     1      13.334 -31.551  20.758  1.00  0.00     0.000 C 
BRANCH   3   4
ATOM      4  C   UNL     1      12.709 -30.822  21.958  1.00  0.00     0.000 C 
BRANCH   4   5
ATOM      5  C   UNL     1      13.627 -30.808  23.192  1.00  0.00     0.000 C 
BRANCH   5   6
ATOM      6  C   UNL     1      14.675 -29.675  23.170  1.00  0.00     0.000 C 
BRANCH   6   7
ATOM      7  C   UNL     1      16.077 -30.170  23.559  1.00  0.00     0.000 C 
BRANCH   7   8
ATOM      8  C   UNL     1      16.100 -31.695  23.720  1.00  0.00     0.000 C 
BRANCH   8   9
ATOM      9  C   UNL     1      17.381 -32.152  24.431  1.00  0.00     0.000 C 
BRANCH   9  10
ATOM     10  C   UNL     1      17.552 -33.679  24.423  1.00  0.00     0.006 C 
BRANCH  10  11
ATOM     11  C   UNL     1      16.830 -34.363  25.592  1.00  0.00     0.053 C 
BRANCH  11  12
ATOM     12  C   UNL     1      17.299 -35.776  25.743  1.00  0.00     0.041 C 
ATOM     13  O   UNL     1      18.108 -36.268  24.913  1.00  0.00    -0.550 OA
ATOM     14  O   UNL     1      16.883 -36.534  26.830  1.00  0.00    -0.550 OA
ENDBRANCH  11  12
ENDBRANCH  10  11
ENDBRANCH   9  10
ENDBRANCH   8   9
ENDBRANCH   7   8
ENDBRANCH   6   7
ENDBRANCH   5   6
ENDBRANCH   4   5
ENDBRANCH   3   4
ENDBRANCH   2   3
ENDBRANCH   1   2
BRANCH   1  15
ATOM     15  C   UNL     1      15.392 -34.882  20.427  1.00  0.00     0.000 C 
BRANCH  15  16
ATOM     16  C   UNL     1      16.833 -34.635  20.913  1.00  0.00     0.000 C 
BRANCH  16  17
ATOM     17  C   UNL     1      17.651 -33.696  20.001  1.00  0.00     0.000 C 
BRANCH  17  18
ATOM     18  C   UNL     1      18.446 -32.651  20.803  1.00  0.00    -0.000 C 
BRANCH  18  19
ATOM     19  C   UNL     1      17.959 -31.211  20.557  1.00  0.00    -0.000 C 
BRANCH  19  20
ATOM     20  C   UNL     1      18.830 -30.111  21.199  1.00  0.00    -0.000 C 
BRANCH  20  21
ATOM     21  C   UNL     1      18.373 -28.664  20.923  1.00  0.00    -0.000 C 
BRANCH  21  22
ATOM     22  C   UNL     1      19.507 -27.668  20.622  1.00  0.00    -0.000 C 
BRANCH  22  23
ATOM     23  C   UNL     1      20.905 -28.259  20.874  1.00  0.00    -0.000 C 
BRANCH  23  24
ATOM     24  C   UNL     1      21.944 -27.188  21.258  1.00  0.00    -0.000 C 
BRANCH  24  25
ATOM     25  C   UNL     1      22.803 -26.667  20.092  1.00  0.00    -0.003 C 
ATOM     26  C   UNL     1      23.199 -25.198  20.251  1.00  0.00     0.004 C 
ENDBRANCH  24  25
ENDBRANCH  23  24
ENDBRANCH  22  23
ENDBRANCH  21  22
ENDBRANCH  20  21
ENDBRANCH  19  20
ENDBRANCH  18  19
ENDBRANCH  17  18
ENDBRANCH  16  17
ENDBRANCH  15  16
ENDBRANCH   1  15
TORSDOF 22
ENDMDL
MODEL 7
REMARK VINA RESULT:    -4.755      1.827      4.578
REMARK INTER + INTRA:         -14.853
REMARK INTER:                 -10.640
REMARK INTRA:                  -4.213
REMARK UNBOUND:                -3.981
REMARK SMILES CCCCCCCCCCCCCCCCCCCCCCCC(=O)[O-]
REMARK SMILES IDX 13 1 14 2 15 3 16 4 17 5 18 6 19 7 20 8 21 9 22 10 23 11
REMARK SMILES IDX 24 12 25 13 26 14 12 15 11 16 10 17 9 18 8 19 7 20 6 21 5 22
REMARK SMILES IDX 4 23 3 24 2 25 1 26
REMARK H PARENT
REMARK Flexibility Score: inf
ROOT
ATOM      1  C   UNL     1      17.555 -31.159  20.971  1.00  0.00     0.000 C 
ENDROOT
BRANCH   1   2
ATOM      2  C   UNL     1      18.371 -32.461  20.880  1.00  0.00     0.000 C 
BRANCH   2   3
ATOM      3  C   UNL     1      18.024 -33.288  19.633  1.00  0.00     0.000 C 
BRANCH   3   4
ATOM      4  C   UNL     1      17.949 -34.796  19.921  1.00  0.00     0.000 C 
BRANCH   4   5
ATOM      5  C   UNL     1      16.559 -35.389  19.635  1.00  0.00     0.000 C 
BRANCH   5   6
ATOM      6  C   UNL     1      15.451 -34.844  20.561  1.00  0.00     0.000 C 
BRANCH   6   7
ATOM      7  C   UNL     1      14.578 -33.787  19.866  1.00  0.00     0.000 C 
BRANCH   7   8
ATOM      8  C   UNL     1      14.171 -32.677  20.842  1.00  0.00     0.000 C 
BRANCH   8   9
ATOM      9  C   UNL     1      14.584 -33.031  22.278  1.00  0.00     0.000 C 
BRANCH   9  10
ATOM     10  C   UNL     1      14.086 -32.005  23.309  1.00  0.00     0.006 C 
BRANCH  10  11
ATOM     11  C   UNL     1      14.032 -30.578  22.747  1.00  0.00     0.053 C 
BRANCH  11  12
ATOM     12  C   UNL     1      12.674 -29.985  22.954  1.00  0.00     0.041 C 
ATOM     13  O   UNL     1      11.723 -30.293  22.189  1.00  0.00    -0.550 OA
ATOM     14  O   UNL     1      12.446 -29.129  24.024  1.00  0.00    -0.550 OA
ENDBRANCH  11  12
ENDBRANCH  10  11
ENDBRANCH   9  10
ENDBRANCH   8   9
ENDBRANCH   7   8
ENDBRANCH   6   7
ENDBRANCH   5   6
ENDBRANCH   4   5
ENDBRANCH   3   4
ENDBRANCH   2   3
ENDBRANCH   1   2
BRANCH   1  15
ATOM     15  C   UNL     1      18.440 -29.905  21.044  1.00  0.00     0.000 C 
BRANCH  15  16
ATOM     16  C   UNL     1      19.955 -30.165  20.932  1.00  0.00     0.000 C 
BRANCH  16  17
ATOM     17  C   UNL     1      20.832 -28.980  21.390  1.00  0.00     0.000 C 
BRANCH  17  18
ATOM     18  C   UNL     1      21.630 -29.303  22.665  1.00  0.00    -0.000 C 
BRANCH  18  19
ATOM     19  C   UNL     1      21.420 -30.748  23.152  1.00  0.00    -0.000 C 
BRANCH  19  20
ATOM     20  C   UNL     1      21.026 -30.884  24.638  1.00  0.00    -0.000 C 
BRANCH  20  21
ATOM     21  C   UNL     1      19.830 -31.815  24.922  1.00  0.00    -0.000 C 
BRANCH  21  22
ATOM     22  C   UNL     1      18.452 -31.239  24.552  1.00  0.00    -0.000 C 
BRANCH  22  23
ATOM     23  C   UNL     1      17.328 -32.287  24.621  1.00  0.00    -0.000 C 
BRANCH  23  24
ATOM     24  C   UNL     1      17.862 -33.724  24.775  1.00  0.00    -0.000 C 
BRANCH  24  25
ATOM     25  C   UNL     1      17.470 -34.689  23.641  1.00  0.00    -0.003 C 
ATOM     26  C   UNL     1      18.484 -35.816  23.437  1.00  0.00     0.004 C 
ENDBRANCH  24  25
ENDBRANCH  23  24
ENDBRANCH  22  23
ENDBRANCH  21  22
ENDBRANCH  20  21
ENDBRANCH  19  20
ENDBRANCH  18  19
ENDBRANCH  17  18
ENDBRANCH  16  17
ENDBRANCH  15  16
ENDBRANCH   1  15
TORSDOF 22
ENDMDL
MODEL 8
REMARK VINA RESULT:    -4.746      1.399      3.282
REMARK INTER + INTRA:         -14.832
REMARK INTER:                 -10.930
REMARK INTRA:                  -3.903
REMARK UNBOUND:                -3.981
REMARK SMILES CCCCCCCCCCCCCCCCCCCCCCCC(=O)[O-]
REMARK SMILES IDX 13 1 14 2 15 3 16 4 17 5 18 6 19 7 20 8 21 9 22 10 23 11
REMARK SMILES IDX 24 12 25 13 26 14 12 15 11 16 10 17 9 18 8 19 7 20 6 21 5 22
REMARK SMILES IDX 4 23 3 24 2 25 1 26
REMARK H PARENT
REMARK Flexibility Score: inf
ROOT
ATOM      1  C   UNL     1      17.933 -36.212  21.727  1.00  0.00     0.000 C 
ENDROOT
BRANCH   1   2
ATOM      2  C   UNL     1      19.260 -36.627  22.386  1.00  0.00     0.000 C 
BRANCH   2   3
ATOM      3  C   UNL     1      20.140 -35.422  22.751  1.00  0.00     0.000 C 
BRANCH   3   4
ATOM      4  C   UNL     1      19.534 -34.084  22.299  1.00  0.00     0.000 C 
BRANCH   4   5
ATOM      5  C   UNL     1      20.231 -32.868  22.934  1.00  0.00     0.000 C 
BRANCH   5   6
ATOM      6  C   UNL     1      19.542 -31.524  22.614  1.00  0.00     0.000 C 
BRANCH   6   7
ATOM      7  C   UNL     1      19.257 -31.360  21.113  1.00  0.00     0.000 C 
BRANCH   7   8
ATOM      8  C   UNL     1      17.765 -31.109  20.857  1.00  0.00     0.000 C 
BRANCH   8   9
ATOM      9  C   UNL     1      17.307 -29.805  21.526  1.00  0.00     0.000 C 
BRANCH   9  10
ATOM     10  C   UNL     1      16.430 -30.049  22.764  1.00  0.00     0.006 C 
BRANCH  10  11
ATOM     11  C   UNL     1      15.021 -29.461  22.618  1.00  0.00     0.053 C 
BRANCH  11  12
ATOM     12  C   UNL     1      14.051 -30.521  22.201  1.00  0.00     0.041 C 
ATOM     13  O   UNL     1      14.000 -30.898  21.001  1.00  0.00    -0.550 OA
ATOM     14  O   UNL     1      13.239 -31.131  23.148  1.00  0.00    -0.550 OA
ENDBRANCH  11  12
ENDBRANCH  10  11
ENDBRANCH   9  10
ENDBRANCH   8   9
ENDBRANCH   7   8
ENDBRANCH   6   7
ENDBRANCH   5   6
ENDBRANCH   4   5
ENDBRANCH   3   4
ENDBRANCH   2   3
ENDBRANCH   1   2
BRANCH   1  15
ATOM     15  C   UNL     1      17.631 -37.004  20.445  1.00  0.00     0.000 C 
BRANCH  15  16
ATOM     16  C   UNL     1      16.666 -36.314  19.461  1.00  0.00     0.000 C 
BRANCH  16  17
ATOM     17  C   UNL     1      16.752 -34.773  19.472  1.00  0.00     0.000 C 
BRANCH  17  18
ATOM     18  C   UNL     1      15.389 -34.115  19.748  1.00  0.00    -0.000 C 
BRANCH  18  19
ATOM     19  C   UNL     1      14.997 -34.154  21.236  1.00  0.00    -0.000 C 
BRANCH  19  20
ATOM     20  C   UNL     1      16.092 -33.677  22.211  1.00  0.00    -0.000 C 
BRANCH  20  21
ATOM     21  C   UNL     1      15.677 -33.623  23.696  1.00  0.00    -0.000 C 
BRANCH  21  22
ATOM     22  C   UNL     1      16.724 -33.012  24.645  1.00  0.00    -0.000 C 
BRANCH  22  23
ATOM     23  C   UNL     1      17.256 -34.022  25.677  1.00  0.00    -0.000 C 
BRANCH  23  24
ATOM     24  C   UNL     1      17.006 -35.485  25.262  1.00  0.00    -0.000 C 
BRANCH  24  25
ATOM     25  C   UNL     1      17.837 -36.529  26.029  1.00  0.00    -0.003 C 
ATOM     26  C   UNL     1      17.017 -37.307  27.061  1.00  0.00     0.004 C 
ENDBRANCH  24  25
ENDBRANCH  23  24
ENDBRANCH  22  23
ENDBRANCH  21  22
ENDBRANCH  20  21
ENDBRANCH  19  20
ENDBRANCH  18  19
ENDBRANCH  17  18
ENDBRANCH  16  17
ENDBRANCH  15  16
ENDBRANCH   1  15
TORSDOF 22
ENDMDL
MODEL 9
REMARK VINA RESULT:    -4.735      4.141      6.240
REMARK INTER + INTRA:         -14.807
REMARK INTER:                 -11.354
REMARK INTRA:                  -3.453
REMARK UNBOUND:                -3.981
REMARK SMILES CCCCCCCCCCCCCCCCCCCCCCCC(=O)[O-]
REMARK SMILES IDX 13 1 14 2 15 3 16 4 17 5 18 6 19 7 20 8 21 9 22 10 23 11
REMARK SMILES IDX 24 12 25 13 26 14 12 15 11 16 10 17 9 18 8 19 7 20 6 21 5 22
REMARK SMILES IDX 4 23 3 24 2 25 1 26
REMARK H PARENT
REMARK Flexibility Score: inf
ROOT
ATOM      1  C   UNL     1      13.807 -31.220  23.196  1.00  0.00     0.000 C 
ENDROOT
BRANCH   1   2
ATOM      2  C   UNL     1      14.366 -29.814  23.476  1.00  0.00     0.000 C 
BRANCH   2   3
ATOM      3  C   UNL     1      15.893 -29.745  23.325  1.00  0.00     0.000 C 
BRANCH   3   4
ATOM      4  C   UNL     1      16.342 -29.666  21.857  1.00  0.00     0.000 C 
BRANCH   4   5
ATOM      5  C   UNL     1      17.309 -30.798  21.468  1.00  0.00     0.000 C 
BRANCH   5   6
ATOM      6  C   UNL     1      18.547 -30.310  20.685  1.00  0.00     0.000 C 
BRANCH   6   7
ATOM      7  C   UNL     1      19.749 -30.041  21.604  1.00  0.00     0.000 C 
BRANCH   7   8
ATOM      8  C   UNL     1      20.578 -28.855  21.097  1.00  0.00     0.000 C 
BRANCH   8   9
ATOM      9  C   UNL     1      19.669 -27.731  20.581  1.00  0.00     0.000 C 
BRANCH   9  10
ATOM     10  C   UNL     1      20.077 -26.347  21.109  1.00  0.00     0.006 C 
BRANCH  10  11
ATOM     11  C   UNL     1      20.562 -25.407  19.997  1.00  0.00     0.053 C 
BRANCH  11  12
ATOM     12  C   UNL     1      22.031 -25.154  20.128  1.00  0.00     0.041 C 
ATOM     13  O   UNL     1      22.834 -25.623  19.280  1.00  0.00    -0.550 OA
ATOM     14  O   UNL     1      22.509 -24.358  21.161  1.00  0.00    -0.550 OA
ENDBRANCH  11  12
ENDBRANCH  10  11
ENDBRANCH   9  10
ENDBRANCH   8   9
ENDBRANCH   7   8
ENDBRANCH   6   7
ENDBRANCH   5   6
ENDBRANCH   4   5
ENDBRANCH   3   4
ENDBRANCH   2   3
ENDBRANCH   1   2
BRANCH   1  15
ATOM     15  C   UNL     1      13.087 -31.316  21.841  1.00  0.00     0.000 C 
BRANCH  15  16
ATOM     16  C   UNL     1      13.823 -32.139  20.766  1.00  0.00     0.000 C 
BRANCH  16  17
ATOM     17  C   UNL     1      14.590 -33.357  21.323  1.00  0.00     0.000 C 
BRANCH  17  18
ATOM     18  C   UNL     1      15.278 -34.171  20.213  1.00  0.00    -0.000 C 
BRANCH  18  19
ATOM     19  C   UNL     1      16.427 -35.049  20.740  1.00  0.00    -0.000 C 
BRANCH  19  20
ATOM     20  C   UNL     1      17.808 -34.363  20.773  1.00  0.00    -0.000 C 
BRANCH  20  21
ATOM     21  C   UNL     1      18.461 -34.259  22.167  1.00  0.00    -0.000 C 
BRANCH  21  22
ATOM     22  C   UNL     1      17.536 -34.602  23.348  1.00  0.00    -0.000 C 
BRANCH  22  23
ATOM     23  C   UNL     1      16.843 -33.365  23.944  1.00  0.00    -0.000 C 
BRANCH  23  24
ATOM     24  C   UNL     1      17.591 -32.793  25.163  1.00  0.00    -0.000 C 
BRANCH  24  25
ATOM     25  C   UNL     1      18.585 -31.661  24.846  1.00  0.00    -0.003 C 
ATOM     26  C   UNL     1      18.741 -30.662  25.994  1.00  0.00     0.004 C 
ENDBRANCH  24  25
ENDBRANCH  23  24
ENDBRANCH  22  23
ENDBRANCH  21  22
ENDBRANCH  20  21
ENDBRANCH  19  20
ENDBRANCH  18  19
ENDBRANCH  17  18
ENDBRANCH  16  17
ENDBRANCH  15  16
ENDBRANCH   1  15
TORSDOF 22
ENDMDL
