MODEL 1
REMARK VINA RESULT:    -3.142      0.000      0.000
REMARK INTER + INTRA:          -3.614
REMARK INTER:                  -4.427
REMARK INTRA:                   0.813
REMARK UNBOUND:                 0.813
REMARK SMILES CC1=CCCC(C)=CCC(C)(C)C=CC1
REMARK SMILES IDX 2 1 3 2 1 3 4 4 5 5 6 6 7 7 8 8 15 10 14 11 13 12 10 13
REMARK SMILES IDX 11 14 12 15 9 16
REMARK H PARENT
REMARK Flexibility Score: 60.00
ROOT
ATOM      1  C   UNL     1      23.995  -1.509  34.566  1.00  0.00    -0.074 C 
ATOM      2  C   UNL     1      22.862  -1.245  35.269  1.00  0.00    -0.027 C 
ATOM      3  C   UNL     1      24.103  -2.866  33.914  1.00  0.00     0.039 C 
ENDROOT
BRANCH   2   4
ATOM      4  C   UNL     1      22.505   0.039  35.988  1.00  0.00     0.032 C 
BRANCH   4   5
ATOM      5  C   UNL     1      22.105   1.144  34.984  1.00  0.00     0.034 C 
BRANCH   5   6
ATOM      6  C   UNL     1      22.621   2.514  35.395  1.00  0.00    -0.077 C 
ATOM      7  C   UNL     1      22.189   3.095  36.717  1.00  0.00     0.039 C 
ATOM      8  C   UNL     1      23.434   3.255  34.604  1.00  0.00    -0.027 CG0
ATOM      9  G   UNL     1      23.950   2.814  33.251  1.00  0.00     0.000 G0
ENDBRANCH   5   6
ENDBRANCH   4   5
ENDBRANCH   2   4
BRANCH   1  10
ATOM     10  C   UNL     1      25.186  -0.570  34.454  1.00  0.00     0.057 C 
BRANCH  10  11
ATOM     11  C   UNL     1      25.482  -0.179  33.022  1.00  0.00    -0.026 C 
ATOM     12  C   UNL     1      25.612   1.067  32.503  1.00  0.00    -0.024 C 
BRANCH  12  13
ATOM     13  C   UNL     1      25.450   2.420  33.209  1.00  0.00    -0.014 C 
ATOM     14  C   UNL     1      26.205   3.479  32.367  1.00  0.00     0.016 C 
ATOM     15  C   UNL     1      26.116   2.392  34.613  1.00  0.00     0.016 C 
BRANCH  13  16
ATOM     16  C   UNL     1      23.939   2.813  33.242  1.00  0.00     0.038 CG0
ATOM     17  G   UNL     1      23.445   3.251  34.604  1.00  0.00     0.000 G0
ENDBRANCH  13  16
ENDBRANCH  12  13
ENDBRANCH  10  11
ENDBRANCH   1  10
TORSDOF 0
ENDMDL
MODEL 2
REMARK VINA RESULT:    -3.112      2.050      4.223
REMARK INTER + INTRA:          -3.572
REMARK INTER:                  -4.759
REMARK INTRA:                   1.187
REMARK UNBOUND:                 0.813
REMARK SMILES CC1=CCCC(C)=CCC(C)(C)C=CC1
REMARK SMILES IDX 2 1 3 2 1 3 4 4 5 5 6 6 7 7 8 8 15 10 14 11 13 12 10 13
REMARK SMILES IDX 11 14 12 15 9 16
REMARK H PARENT
REMARK Flexibility Score: 60.00
ROOT
ATOM      1  C   UNL     1      24.114  -1.409  34.229  1.00  0.00    -0.074 C 
ATOM      2  C   UNL     1      25.390  -0.985  34.030  1.00  0.00    -0.027 C 
ATOM      3  C   UNL     1      23.836  -2.880  34.036  1.00  0.00     0.039 C 
ENDROOT
BRANCH   2   4
ATOM      4  C   UNL     1      25.924   0.424  34.184  1.00  0.00     0.032 C 
BRANCH   4   5
ATOM      5  C   UNL     1      26.901   0.519  35.376  1.00  0.00     0.034 C 
BRANCH   5   6
ATOM      6  C   UNL     1      26.277   0.040  36.677  1.00  0.00    -0.077 C 
ATOM      7  C   UNL     1      26.823  -1.198  37.341  1.00  0.00     0.039 C 
ATOM      8  C   UNL     1      25.223   0.665  37.254  1.00  0.00    -0.027 CG0
ATOM      9  G   UNL     1      24.560   1.912  36.708  1.00  0.00     0.000 G0
ENDBRANCH   5   6
ENDBRANCH   4   5
ENDBRANCH   2   4
BRANCH   1  10
ATOM     10  C   UNL     1      22.938  -0.501  34.556  1.00  0.00     0.057 C 
BRANCH  10  11
ATOM     11  C   UNL     1      22.524  -0.592  36.010  1.00  0.00    -0.026 C 
ATOM     12  C   UNL     1      22.521   0.391  36.944  1.00  0.00    -0.024 C 
BRANCH  12  13
ATOM     13  C   UNL     1      22.978   1.850  36.800  1.00  0.00    -0.014 C 
ATOM     14  C   UNL     1      22.533   2.605  38.078  1.00  0.00     0.016 C 
ATOM     15  C   UNL     1      22.271   2.532  35.596  1.00  0.00     0.016 C 
BRANCH  13  16
ATOM     16  C   UNL     1      24.536   1.902  36.722  1.00  0.00     0.038 CG0
ATOM     17  G   UNL     1      25.222   0.660  37.253  1.00  0.00     0.000 G0
ENDBRANCH  13  16
ENDBRANCH  12  13
ENDBRANCH  10  11
ENDBRANCH   1  10
TORSDOF 0
ENDMDL
MODEL 3
REMARK VINA RESULT:    -3.092      2.315      2.651
REMARK INTER + INTRA:          -3.544
REMARK INTER:                  -4.431
REMARK INTRA:                   0.887
REMARK UNBOUND:                 0.813
REMARK SMILES CC1=CCCC(C)=CCC(C)(C)C=CC1
REMARK SMILES IDX 2 1 3 2 1 3 4 4 5 5 6 6 7 7 8 8 15 10 14 11 13 12 10 13
REMARK SMILES IDX 11 14 12 15 9 16
REMARK H PARENT
REMARK Flexibility Score: 60.00
ROOT
ATOM      1  C   UNL     1      24.555  -1.708  34.902  1.00  0.00    -0.074 C 
ATOM      2  C   UNL     1      23.238  -1.498  34.637  1.00  0.00    -0.027 C 
ATOM      3  C   UNL     1      25.325  -2.575  33.937  1.00  0.00     0.039 C 
ENDROOT
BRANCH   2   4
ATOM      4  C   UNL     1      22.264  -0.654  35.432  1.00  0.00     0.032 C 
BRANCH   4   5
ATOM      5  C   UNL     1      22.588   0.850  35.288  1.00  0.00     0.034 C 
BRANCH   5   6
ATOM      6  C   UNL     1      22.915   1.502  36.622  1.00  0.00    -0.077 C 
ATOM      7  C   UNL     1      21.832   1.629  37.662  1.00  0.00     0.039 C 
ATOM      8  C   UNL     1      24.140   2.005  36.907  1.00  0.00    -0.027 CG0
ATOM      9  G   UNL     1      25.327   1.960  35.968  1.00  0.00     0.000 G0
ENDBRANCH   5   6
ENDBRANCH   4   5
ENDBRANCH   2   4
BRANCH   1  10
ATOM     10  C   UNL     1      25.284  -1.196  36.136  1.00  0.00     0.057 C 
BRANCH  10  11
ATOM     11  C   UNL     1      26.715  -0.803  35.840  1.00  0.00    -0.026 C 
ATOM     12  C   UNL     1      27.322   0.388  36.068  1.00  0.00    -0.024 C 
BRANCH  12  13
ATOM     13  C   UNL     1      26.716   1.676  36.644  1.00  0.00    -0.014 C 
ATOM     14  C   UNL     1      27.678   2.839  36.296  1.00  0.00     0.016 C 
ATOM     15  C   UNL     1      26.631   1.600  38.194  1.00  0.00     0.016 C 
BRANCH  13  16
ATOM     16  C   UNL     1      25.344   1.959  35.956  1.00  0.00     0.038 CG0
ATOM     17  G   UNL     1      24.169   1.990  36.911  1.00  0.00     0.000 G0
ENDBRANCH  13  16
ENDBRANCH  12  13
ENDBRANCH  10  11
ENDBRANCH   1  10
TORSDOF 0
ENDMDL
MODEL 4
REMARK VINA RESULT:    -3.068      1.411      3.808
REMARK INTER + INTRA:          -3.510
REMARK INTER:                  -4.168
REMARK INTRA:                   0.658
REMARK UNBOUND:                 0.813
REMARK SMILES CC1=CCCC(C)=CCC(C)(C)C=CC1
REMARK SMILES IDX 2 1 3 2 1 3 4 4 5 5 6 6 7 7 8 8 15 10 14 11 13 12 10 13
REMARK SMILES IDX 11 14 12 15 9 16
REMARK H PARENT
REMARK Flexibility Score: 60.00
ROOT
ATOM      1  C   UNL     1      24.024  -1.205  34.093  1.00  0.00    -0.074 C 
ATOM      2  C   UNL     1      25.028  -0.615  33.392  1.00  0.00    -0.027 C 
ATOM      3  C   UNL     1      24.102  -2.698  34.289  1.00  0.00     0.039 C 
ENDROOT
BRANCH   2   4
ATOM      4  C   UNL     1      25.191   0.859  33.083  1.00  0.00     0.032 C 
BRANCH   4   5
ATOM      5  C   UNL     1      26.348   1.472  33.902  1.00  0.00     0.034 C 
BRANCH   5   6
ATOM      6  C   UNL     1      26.003   2.848  34.451  1.00  0.00    -0.077 C 
ATOM      7  C   UNL     1      26.414   4.073  33.674  1.00  0.00     0.039 C 
ATOM      8  C   UNL     1      25.363   3.023  35.632  1.00  0.00    -0.027 CG0
ATOM      9  G   UNL     1      24.891   1.898  36.528  1.00  0.00     0.000 G0
ENDBRANCH   5   6
ENDBRANCH   4   5
ENDBRANCH   2   4
BRANCH   1  10
ATOM     10  C   UNL     1      22.796  -0.481  34.625  1.00  0.00     0.057 C 
BRANCH  10  11
ATOM     11  C   UNL     1      22.686  -0.560  36.133  1.00  0.00    -0.026 C 
ATOM     12  C   UNL     1      22.899   0.423  37.042  1.00  0.00    -0.024 C 
BRANCH  12  13
ATOM     13  C   UNL     1      23.355   1.869  36.799  1.00  0.00    -0.014 C 
ATOM     14  C   UNL     1      23.066   2.671  38.092  1.00  0.00     0.016 C 
ATOM     15  C   UNL     1      22.526   2.524  35.659  1.00  0.00     0.016 C 
BRANCH  13  16
ATOM     16  C   UNL     1      24.896   1.893  36.546  1.00  0.00     0.038 CG0
ATOM     17  G   UNL     1      25.354   3.016  35.640  1.00  0.00     0.000 G0
ENDBRANCH  13  16
ENDBRANCH  12  13
ENDBRANCH  10  11
ENDBRANCH   1  10
TORSDOF 0
ENDMDL
MODEL 5
REMARK VINA RESULT:    -2.837      1.834      4.685
REMARK INTER + INTRA:          -3.185
REMARK INTER:                  -3.916
REMARK INTRA:                   0.731
REMARK UNBOUND:                 0.813
REMARK SMILES CC1=CCCC(C)=CCC(C)(C)C=CC1
REMARK SMILES IDX 2 1 3 2 1 3 4 4 5 5 6 6 7 7 8 8 15 10 14 11 13 12 10 13
REMARK SMILES IDX 11 14 12 15 9 16
REMARK H PARENT
REMARK Flexibility Score: 60.00
ROOT
ATOM      1  C   UNL     1      24.213   2.159  32.794  1.00  0.00    -0.074 C 
ATOM      2  C   UNL     1      24.741   1.015  32.285  1.00  0.00    -0.027 C 
ATOM      3  C   UNL     1      23.527   3.093  31.828  1.00  0.00     0.039 C 
ENDROOT
BRANCH   2   4
ATOM      4  C   UNL     1      25.451  -0.086  33.045  1.00  0.00     0.032 C 
BRANCH   4   5
ATOM      5  C   UNL     1      24.487  -0.795  34.024  1.00  0.00     0.034 C 
BRANCH   5   6
ATOM      6  C   UNL     1      25.024  -0.824  35.446  1.00  0.00    -0.077 C 
ATOM      7  C   UNL     1      26.371  -1.448  35.709  1.00  0.00     0.039 C 
ATOM      8  C   UNL     1      24.327  -0.337  36.500  1.00  0.00    -0.027 CG0
ATOM      9  G   UNL     1      22.962   0.312  36.400  1.00  0.00     0.000 G0
ENDBRANCH   5   6
ENDBRANCH   4   5
ENDBRANCH   2   4
BRANCH   1  10
ATOM     10  C   UNL     1      24.330   2.599  34.245  1.00  0.00     0.057 C 
BRANCH  10  11
ATOM     11  C   UNL     1      23.014   3.091  34.809  1.00  0.00    -0.026 C 
ATOM     12  C   UNL     1      22.428   2.758  35.985  1.00  0.00    -0.024 C 
BRANCH  12  13
ATOM     13  C   UNL     1      22.911   1.759  37.046  1.00  0.00    -0.014 C 
ATOM     14  C   UNL     1      21.864   1.750  38.188  1.00  0.00     0.016 C 
ATOM     15  C   UNL     1      24.259   2.221  37.665  1.00  0.00     0.016 C 
BRANCH  13  16
ATOM     16  C   UNL     1      22.965   0.327  36.425  1.00  0.00     0.038 CG0
ATOM     17  G   UNL     1      24.327  -0.330  36.509  1.00  0.00     0.000 G0
ENDBRANCH  13  16
ENDBRANCH  12  13
ENDBRANCH  10  11
ENDBRANCH   1  10
TORSDOF 0
ENDMDL
MODEL 6
REMARK VINA RESULT:    -2.808      1.905      3.447
REMARK INTER + INTRA:          -3.144
REMARK INTER:                  -4.100
REMARK INTRA:                   0.956
REMARK UNBOUND:                 0.813
REMARK SMILES CC1=CCCC(C)=CCC(C)(C)C=CC1
REMARK SMILES IDX 2 1 3 2 1 3 4 4 5 5 6 6 7 7 8 8 15 10 14 11 13 12 10 13
REMARK SMILES IDX 11 14 12 15 9 16
REMARK H PARENT
REMARK Flexibility Score: 60.00
ROOT
ATOM      1  C   UNL     1      22.752   2.520  31.287  1.00  0.00    -0.074 C 
ATOM      2  C   UNL     1      21.508   2.659  31.816  1.00  0.00    -0.027 C 
ATOM      3  C   UNL     1      22.848   2.282  29.800  1.00  0.00     0.039 C 
ENDROOT
BRANCH   2   4
ATOM      4  C   UNL     1      21.149   2.927  33.263  1.00  0.00     0.032 C 
BRANCH   4   5
ATOM      5  C   UNL     1      21.082   1.612  34.070  1.00  0.00     0.034 C 
BRANCH   5   6
ATOM      6  C   UNL     1      21.911   1.671  35.343  1.00  0.00    -0.077 C 
ATOM      7  C   UNL     1      21.467   2.569  36.469  1.00  0.00     0.039 C 
ATOM      8  C   UNL     1      23.058   0.967  35.500  1.00  0.00    -0.027 CG0
ATOM      9  G   UNL     1      23.638   0.028  34.463  1.00  0.00     0.000 G0
ENDBRANCH   5   6
ENDBRANCH   4   5
ENDBRANCH   2   4
BRANCH   1  10
ATOM     10  C   UNL     1      24.042   2.514  32.093  1.00  0.00     0.057 C 
BRANCH  10  11
ATOM     11  C   UNL     1      24.914   1.316  31.779  1.00  0.00    -0.026 C 
ATOM     12  C   UNL     1      25.369   0.364  32.630  1.00  0.00    -0.024 C 
BRANCH  12  13
ATOM     13  C   UNL     1      25.165   0.261  34.149  1.00  0.00    -0.014 C 
ATOM     14  C   UNL     1      25.572   1.623  34.766  1.00  0.00     0.016 C 
ATOM     15  C   UNL     1      26.104  -0.817  34.759  1.00  0.00     0.016 C 
BRANCH  13  16
ATOM     16  C   UNL     1      23.654   0.021  34.456  1.00  0.00     0.038 CG0
ATOM     17  G   UNL     1      23.079   0.960  35.496  1.00  0.00     0.000 G0
ENDBRANCH  13  16
ENDBRANCH  12  13
ENDBRANCH  10  11
ENDBRANCH   1  10
TORSDOF 0
ENDMDL
MODEL 7
REMARK VINA RESULT:    -2.766      1.694      3.512
REMARK INTER + INTRA:          -3.084
REMARK INTER:                  -4.369
REMARK INTRA:                   1.285
REMARK UNBOUND:                 0.813
REMARK SMILES CC1=CCCC(C)=CCC(C)(C)C=CC1
REMARK SMILES IDX 2 1 3 2 1 3 4 4 5 5 6 6 7 7 8 8 15 10 14 11 13 12 10 13
REMARK SMILES IDX 11 14 12 15 9 16
REMARK H PARENT
REMARK Flexibility Score: 60.00
ROOT
ATOM      1  C   UNL     1      25.601  -1.979  34.564  1.00  0.00    -0.074 C 
ATOM      2  C   UNL     1      26.150  -1.531  35.724  1.00  0.00    -0.027 C 
ATOM      3  C   UNL     1      26.292  -3.127  33.870  1.00  0.00     0.039 C 
ENDROOT
BRANCH   2   4
ATOM      4  C   UNL     1      25.636  -0.419  36.614  1.00  0.00     0.032 C 
BRANCH   4   5
ATOM      5  C   UNL     1      26.565   0.814  36.553  1.00  0.00     0.034 C 
BRANCH   5   6
ATOM      6  C   UNL     1      26.388   1.610  35.270  1.00  0.00    -0.077 C 
ATOM      7  C   UNL     1      27.597   1.919  34.424  1.00  0.00     0.039 C 
ATOM      8  C   UNL     1      25.186   2.085  34.866  1.00  0.00    -0.027 CG0
ATOM      9  G   UNL     1      23.883   1.866  35.607  1.00  0.00     0.000 G0
ENDBRANCH   5   6
ENDBRANCH   4   5
ENDBRANCH   2   4
BRANCH   1  10
ATOM     10  C   UNL     1      24.390  -1.362  33.881  1.00  0.00     0.057 C 
BRANCH  10  11
ATOM     11  C   UNL     1      23.191  -1.269  34.801  1.00  0.00    -0.026 C 
ATOM     12  C   UNL     1      22.481  -0.167  35.145  1.00  0.00    -0.024 C 
BRANCH  12  13
ATOM     13  C   UNL     1      22.723   1.293  34.736  1.00  0.00    -0.014 C 
ATOM     14  C   UNL     1      21.422   2.081  35.034  1.00  0.00     0.016 C 
ATOM     15  C   UNL     1      22.985   1.402  33.208  1.00  0.00     0.016 C 
BRANCH  13  16
ATOM     16  C   UNL     1      23.867   1.896  35.612  1.00  0.00     0.038 CG0
ATOM     17  G   UNL     1      25.177   2.079  34.874  1.00  0.00     0.000 G0
ENDBRANCH  13  16
ENDBRANCH  12  13
ENDBRANCH  10  11
ENDBRANCH   1  10
TORSDOF 0
ENDMDL
MODEL 8
REMARK VINA RESULT:    -2.758      1.688      2.441
REMARK INTER + INTRA:          -3.074
REMARK INTER:                  -3.778
REMARK INTRA:                   0.704
REMARK UNBOUND:                 0.813
REMARK SMILES CC1=CCCC(C)=CCC(C)(C)C=CC1
REMARK SMILES IDX 2 1 3 2 1 3 4 4 5 5 6 6 7 7 8 8 15 10 14 11 13 12 10 13
REMARK SMILES IDX 11 14 12 15 9 16
REMARK H PARENT
REMARK Flexibility Score: 60.00
ROOT
ATOM      1  C   UNL     1      26.048  -0.726  36.238  1.00  0.00    -0.074 C 
ATOM      2  C   UNL     1      24.848  -1.335  36.045  1.00  0.00    -0.027 C 
ATOM      3  C   UNL     1      27.194  -1.589  36.705  1.00  0.00     0.039 C 
ENDROOT
BRANCH   2   4
ATOM      4  C   UNL     1      23.562  -0.698  35.559  1.00  0.00     0.032 C 
BRANCH   4   5
ATOM      5  C   UNL     1      23.652  -0.344  34.058  1.00  0.00     0.034 C 
BRANCH   5   6
ATOM      6  C   UNL     1      23.336   1.119  33.788  1.00  0.00    -0.077 C 
ATOM      7  C   UNL     1      21.949   1.635  34.074  1.00  0.00     0.039 C 
ATOM      8  C   UNL     1      24.245   1.978  33.270  1.00  0.00    -0.027 CG0
ATOM      9  G   UNL     1      25.673   1.612  32.925  1.00  0.00     0.000 G0
ENDBRANCH   5   6
ENDBRANCH   4   5
ENDBRANCH   2   4
BRANCH   1  10
ATOM     10  C   UNL     1      26.297   0.768  36.091  1.00  0.00     0.057 C 
BRANCH  10  11
ATOM     11  C   UNL     1      27.597   1.070  35.376  1.00  0.00    -0.026 C 
ATOM     12  C   UNL     1      27.793   1.856  34.290  1.00  0.00    -0.024 C 
BRANCH  12  13
ATOM     13  C   UNL     1      26.751   2.616  33.457  1.00  0.00    -0.014 C 
ATOM     14  C   UNL     1      27.485   3.225  32.236  1.00  0.00     0.016 C 
ATOM     15  C   UNL     1      26.154   3.800  34.269  1.00  0.00     0.016 C 
BRANCH  13  16
ATOM     16  C   UNL     1      25.676   1.615  32.929  1.00  0.00     0.038 CG0
ATOM     17  G   UNL     1      24.253   1.998  33.277  1.00  0.00     0.000 G0
ENDBRANCH  13  16
ENDBRANCH  12  13
ENDBRANCH  10  11
ENDBRANCH   1  10
TORSDOF 0
ENDMDL
MODEL 9
REMARK VINA RESULT:    -2.729      1.681      4.118
REMARK INTER + INTRA:          -3.032
REMARK INTER:                  -3.686
REMARK INTRA:                   0.654
REMARK UNBOUND:                 0.813
REMARK SMILES CC1=CCCC(C)=CCC(C)(C)C=CC1
REMARK SMILES IDX 2 1 3 2 1 3 4 4 5 5 6 6 7 7 8 8 15 10 14 11 13 12 10 13
REMARK SMILES IDX 11 14 12 15 9 16
REMARK H PARENT
REMARK Flexibility Score: 60.00
ROOT
ATOM      1  C   UNL     1      26.593   1.656  33.603  1.00  0.00    -0.074 C 
ATOM      2  C   UNL     1      26.130   2.223  32.457  1.00  0.00    -0.027 C 
ATOM      3  C   UNL     1      27.881   2.199  34.171  1.00  0.00     0.039 C 
ENDROOT
BRANCH   2   4
ATOM      4  C   UNL     1      24.859   1.876  31.709  1.00  0.00     0.032 C 
BRANCH   4   5
ATOM      5  C   UNL     1      23.778   2.959  31.922  1.00  0.00     0.034 C 
BRANCH   5   6
ATOM      6  C   UNL     1      22.440   2.367  32.336  1.00  0.00    -0.077 C 
ATOM      7  C   UNL     1      21.388   2.121  31.284  1.00  0.00     0.039 C 
ATOM      8  C   UNL     1      22.137   2.077  33.624  1.00  0.00    -0.027 CG0
ATOM      9  G   UNL     1      23.081   2.272  34.792  1.00  0.00     0.000 G0
ENDBRANCH   5   6
ENDBRANCH   4   5
ENDBRANCH   2   4
BRANCH   1  10
ATOM     10  C   UNL     1      25.950   0.470  34.305  1.00  0.00     0.057 C 
BRANCH  10  11
ATOM     11  C   UNL     1      25.712   0.729  35.778  1.00  0.00    -0.026 C 
ATOM     12  C   UNL     1      24.534   0.959  36.409  1.00  0.00    -0.024 C 
BRANCH  12  13
ATOM     13  C   UNL     1      23.128   1.066  35.802  1.00  0.00    -0.014 C 
ATOM     14  C   UNL     1      22.142   1.362  36.960  1.00  0.00     0.016 C 
ATOM     15  C   UNL     1      22.697  -0.286  35.168  1.00  0.00     0.016 C 
BRANCH  13  16
ATOM     16  C   UNL     1      23.081   2.268  34.806  1.00  0.00     0.038 CG0
ATOM     17  G   UNL     1      22.141   2.063  33.636  1.00  0.00     0.000 G0
ENDBRANCH  13  16
ENDBRANCH  12  13
ENDBRANCH  10  11
ENDBRANCH   1  10
TORSDOF 0
ENDMDL
