MODEL 1
REMARK VINA RESULT:    -3.726      0.000      0.000
REMARK INTER + INTRA:          -8.702
REMARK INTER:                  -6.775
REMARK INTRA:                  -1.927
REMARK UNBOUND:                -1.927
REMARK SMILES CCCCCCCCCCCCCCCC(=O)[O-]
REMARK SMILES IDX 9 1 10 2 11 3 12 4 13 5 14 6 15 7 16 8 17 9 18 10 8 11 7 12
REMARK SMILES IDX 6 13 5 14 4 15 3 16 2 17 1 18
REMARK H PARENT
REMARK Flexibility Score: inf
ROOT
ATOM      1  C   UNL     1      41.133  11.935  13.328  1.00  0.00     0.000 C 
ENDROOT
BRANCH   1   2
ATOM      2  C   UNL     1      41.118  12.872  14.546  1.00  0.00     0.000 C 
BRANCH   2   3
ATOM      3  C   UNL     1      41.826  12.262  15.769  1.00  0.00     0.000 C 
BRANCH   3   4
ATOM      4  C   UNL     1      41.263  12.802  17.101  1.00  0.00     0.000 C 
BRANCH   4   5
ATOM      5  C   UNL     1      39.737  13.018  17.088  1.00  0.00     0.000 C 
BRANCH   5   6
ATOM      6  C   UNL     1      39.285  14.467  17.357  1.00  0.00     0.006 C 
BRANCH   6   7
ATOM      7  C   UNL     1      40.437  15.455  17.594  1.00  0.00     0.053 C 
BRANCH   7   8
ATOM      8  C   UNL     1      40.568  16.444  16.476  1.00  0.00     0.041 C 
ATOM      9  O   UNL     1      40.168  16.148  15.319  1.00  0.00    -0.550 OA
ATOM     10  O   UNL     1      41.162  17.678  16.704  1.00  0.00    -0.550 OA
ENDBRANCH   7   8
ENDBRANCH   6   7
ENDBRANCH   5   6
ENDBRANCH   4   5
ENDBRANCH   3   4
ENDBRANCH   2   3
ENDBRANCH   1   2
BRANCH   1  11
ATOM     11  C   UNL     1      39.916  12.144  12.409  1.00  0.00     0.000 C 
BRANCH  11  12
ATOM     12  C   UNL     1      39.803  11.064  11.321  1.00  0.00    -0.000 C 
BRANCH  12  13
ATOM     13  C   UNL     1      40.988  10.083  11.338  1.00  0.00    -0.000 C 
BRANCH  13  14
ATOM     14  C   UNL     1      40.552   8.638  11.633  1.00  0.00    -0.000 C 
BRANCH  14  15
ATOM     15  C   UNL     1      39.053   8.533  11.969  1.00  0.00    -0.000 C 
BRANCH  15  16
ATOM     16  C   UNL     1      38.794   8.217  13.453  1.00  0.00    -0.000 C 
BRANCH  16  17
ATOM     17  C   UNL     1      38.215   9.384  14.273  1.00  0.00    -0.003 C 
ATOM     18  C   UNL     1      39.038   9.705  15.521  1.00  0.00     0.004 C 
ENDBRANCH  16  17
ENDBRANCH  15  16
ENDBRANCH  14  15
ENDBRANCH  13  14
ENDBRANCH  12  13
ENDBRANCH  11  12
ENDBRANCH   1  11
TORSDOF 14
ENDMDL
MODEL 2
REMARK VINA RESULT:    -3.679      0.956      2.087
REMARK INTER + INTRA:          -8.617
REMARK INTER:                  -7.075
REMARK INTRA:                  -1.541
REMARK UNBOUND:                -1.927
REMARK SMILES CCCCCCCCCCCCCCCC(=O)[O-]
REMARK SMILES IDX 9 1 10 2 11 3 12 4 13 5 14 6 15 7 16 8 17 9 18 10 8 11 7 12
REMARK SMILES IDX 6 13 5 14 4 15 3 16 2 17 1 18
REMARK H PARENT
REMARK Flexibility Score: inf
ROOT
ATOM      1  C   UNL     1      40.752  12.685  15.164  1.00  0.00     0.000 C 
ENDROOT
BRANCH   1   2
ATOM      2  C   UNL     1      41.994  11.974  15.724  1.00  0.00     0.000 C 
BRANCH   2   3
ATOM      3  C   UNL     1      42.307  12.384  17.174  1.00  0.00     0.000 C 
BRANCH   3   4
ATOM      4  C   UNL     1      41.081  12.992  17.888  1.00  0.00     0.000 C 
BRANCH   4   5
ATOM      5  C   UNL     1      41.433  14.136  18.859  1.00  0.00     0.000 C 
BRANCH   5   6
ATOM      6  C   UNL     1      40.795  15.497  18.517  1.00  0.00     0.006 C 
BRANCH   6   7
ATOM      7  C   UNL     1      39.970  15.500  17.220  1.00  0.00     0.053 C 
BRANCH   7   8
ATOM      8  C   UNL     1      40.480  16.505  16.233  1.00  0.00     0.041 C 
ATOM      9  O   UNL     1      40.245  16.362  15.005  1.00  0.00    -0.550 OA
ATOM     10  O   UNL     1      41.244  17.580  16.667  1.00  0.00    -0.550 OA
ENDBRANCH   7   8
ENDBRANCH   6   7
ENDBRANCH   5   6
ENDBRANCH   4   5
ENDBRANCH   3   4
ENDBRANCH   2   3
ENDBRANCH   1   2
BRANCH   1  11
ATOM     11  C   UNL     1      39.626  11.702  14.795  1.00  0.00     0.000 C 
BRANCH  11  12
ATOM     12  C   UNL     1      38.889  12.102  13.507  1.00  0.00    -0.000 C 
BRANCH  12  13
ATOM     13  C   UNL     1      39.851  12.389  12.342  1.00  0.00    -0.000 C 
BRANCH  13  14
ATOM     14  C   UNL     1      39.932  11.221  11.344  1.00  0.00    -0.000 C 
BRANCH  14  15
ATOM     15  C   UNL     1      41.108  10.274  11.641  1.00  0.00    -0.000 C 
BRANCH  15  16
ATOM     16  C   UNL     1      40.696   8.791  11.640  1.00  0.00    -0.000 C 
BRANCH  16  17
ATOM     17  C   UNL     1      39.203   8.532  11.909  1.00  0.00    -0.003 C 
ATOM     18  C   UNL     1      38.895   8.282  13.385  1.00  0.00     0.004 C 
ENDBRANCH  16  17
ENDBRANCH  15  16
ENDBRANCH  14  15
ENDBRANCH  13  14
ENDBRANCH  12  13
ENDBRANCH  11  12
ENDBRANCH   1  11
TORSDOF 14
ENDMDL
MODEL 3
REMARK VINA RESULT:    -3.585      2.960      6.530
REMARK INTER + INTRA:          -8.446
REMARK INTER:                  -5.804
REMARK INTRA:                  -2.643
REMARK UNBOUND:                -1.927
REMARK SMILES CCCCCCCCCCCCCCCC(=O)[O-]
REMARK SMILES IDX 9 1 10 2 11 3 12 4 13 5 14 6 15 7 16 8 17 9 18 10 8 11 7 12
REMARK SMILES IDX 6 13 5 14 4 15 3 16 2 17 1 18
REMARK H PARENT
REMARK Flexibility Score: inf
ROOT
ATOM      1  C   UNL     1      42.133  12.335  16.221  1.00  0.00     0.000 C 
ENDROOT
BRANCH   1   2
ATOM      2  C   UNL     1      41.632  12.015  14.803  1.00  0.00     0.000 C 
BRANCH   2   3
ATOM      3  C   UNL     1      40.872  13.192  14.165  1.00  0.00     0.000 C 
BRANCH   3   4
ATOM      4  C   UNL     1      39.460  12.787  13.690  1.00  0.00     0.000 C 
BRANCH   4   5
ATOM      5  C   UNL     1      39.089  11.328  14.019  1.00  0.00     0.000 C 
BRANCH   5   6
ATOM      6  C   UNL     1      38.503  10.526  12.840  1.00  0.00     0.006 C 
BRANCH   6   7
ATOM      7  C   UNL     1      39.353  10.573  11.560  1.00  0.00     0.053 C 
BRANCH   7   8
ATOM      8  C   UNL     1      40.613   9.774  11.694  1.00  0.00     0.041 C 
ATOM      9  O   UNL     1      41.731  10.353  11.712  1.00  0.00    -0.550 OA
ATOM     10  O   UNL     1      40.555   8.388  11.763  1.00  0.00    -0.550 OA
ENDBRANCH   7   8
ENDBRANCH   6   7
ENDBRANCH   5   6
ENDBRANCH   4   5
ENDBRANCH   3   4
ENDBRANCH   2   3
ENDBRANCH   1   2
BRANCH   1  11
ATOM     11  C   UNL     1      41.912  11.169  17.201  1.00  0.00     0.000 C 
BRANCH  11  12
ATOM     12  C   UNL     1      40.456  11.069  17.683  1.00  0.00    -0.000 C 
BRANCH  12  13
ATOM     13  C   UNL     1      39.898  12.421  18.159  1.00  0.00    -0.000 C 
BRANCH  13  14
ATOM     14  C   UNL     1      38.629  12.836  17.394  1.00  0.00    -0.000 C 
BRANCH  14  15
ATOM     15  C   UNL     1      38.653  14.316  16.972  1.00  0.00    -0.000 C 
BRANCH  15  16
ATOM     16  C   UNL     1      39.915  15.054  17.454  1.00  0.00    -0.000 C 
BRANCH  16  17
ATOM     17  C   UNL     1      40.488  16.078  16.458  1.00  0.00    -0.003 C 
ATOM     18  C   UNL     1      39.509  16.438  15.340  1.00  0.00     0.004 C 
ENDBRANCH  16  17
ENDBRANCH  15  16
ENDBRANCH  14  15
ENDBRANCH  13  14
ENDBRANCH  12  13
ENDBRANCH  11  12
ENDBRANCH   1  11
TORSDOF 14
ENDMDL
MODEL 4
REMARK VINA RESULT:    -3.568      1.154      2.406
REMARK INTER + INTRA:          -8.415
REMARK INTER:                  -6.082
REMARK INTRA:                  -2.333
REMARK UNBOUND:                -1.927
REMARK SMILES CCCCCCCCCCCCCCCC(=O)[O-]
REMARK SMILES IDX 9 1 10 2 11 3 12 4 13 5 14 6 15 7 16 8 17 9 18 10 8 11 7 12
REMARK SMILES IDX 6 13 5 14 4 15 3 16 2 17 1 18
REMARK H PARENT
REMARK Flexibility Score: inf
ROOT
ATOM      1  C   UNL     1      40.764  12.984  13.598  1.00  0.00     0.000 C 
ENDROOT
BRANCH   1   2
ATOM      2  C   UNL     1      41.453  11.931  14.480  1.00  0.00     0.000 C 
BRANCH   2   3
ATOM      3  C   UNL     1      42.001  12.526  15.791  1.00  0.00     0.000 C 
BRANCH   3   4
ATOM      4  C   UNL     1      41.415  11.832  17.039  1.00  0.00     0.000 C 
BRANCH   4   5
ATOM      5  C   UNL     1      40.570  12.765  17.927  1.00  0.00     0.000 C 
BRANCH   5   6
ATOM      6  C   UNL     1      40.458  14.217  17.422  1.00  0.00     0.006 C 
BRANCH   6   7
ATOM      7  C   UNL     1      39.105  14.562  16.782  1.00  0.00     0.053 C 
BRANCH   7   8
ATOM      8  C   UNL     1      39.231  15.637  15.746  1.00  0.00     0.041 C 
ATOM      9  O   UNL     1      38.201  16.134  15.221  1.00  0.00    -0.550 OA
ATOM     10  O   UNL     1      40.488  16.065  15.338  1.00  0.00    -0.550 OA
ENDBRANCH   7   8
ENDBRANCH   6   7
ENDBRANCH   5   6
ENDBRANCH   4   5
ENDBRANCH   3   4
ENDBRANCH   2   3
ENDBRANCH   1   2
BRANCH   1  11
ATOM     11  C   UNL     1      39.246  12.754  13.482  1.00  0.00     0.000 C 
BRANCH  11  12
ATOM     12  C   UNL     1      38.741  11.653  14.430  1.00  0.00    -0.000 C 
BRANCH  12  13
ATOM     13  C   UNL     1      38.083  10.484  13.677  1.00  0.00    -0.000 C 
BRANCH  13  14
ATOM     14  C   UNL     1      38.946   9.211  13.699  1.00  0.00    -0.000 C 
BRANCH  14  15
ATOM     15  C   UNL     1      38.936   8.469  12.350  1.00  0.00    -0.000 C 
BRANCH  15  16
ATOM     16  C   UNL     1      40.307   8.482  11.650  1.00  0.00    -0.000 C 
BRANCH  16  17
ATOM     17  C   UNL     1      41.004   9.854  11.613  1.00  0.00    -0.003 C 
ATOM     18  C   UNL     1      40.423  10.792  10.555  1.00  0.00     0.004 C 
ENDBRANCH  16  17
ENDBRANCH  15  16
ENDBRANCH  14  15
ENDBRANCH  13  14
ENDBRANCH  12  13
ENDBRANCH  11  12
ENDBRANCH   1  11
TORSDOF 14
ENDMDL
MODEL 5
REMARK VINA RESULT:    -3.538      1.362      3.349
REMARK INTER + INTRA:          -8.361
REMARK INTER:                  -6.063
REMARK INTRA:                  -2.298
REMARK UNBOUND:                -1.927
REMARK SMILES CCCCCCCCCCCCCCCC(=O)[O-]
REMARK SMILES IDX 9 1 10 2 11 3 12 4 13 5 14 6 15 7 16 8 17 9 18 10 8 11 7 12
REMARK SMILES IDX 6 13 5 14 4 15 3 16 2 17 1 18
REMARK H PARENT
REMARK Flexibility Score: inf
ROOT
ATOM      1  C   UNL     1      41.457  11.229  17.004  1.00  0.00     0.000 C 
ENDROOT
BRANCH   1   2
ATOM      2  C   UNL     1      42.005  12.361  16.120  1.00  0.00     0.000 C 
BRANCH   2   3
ATOM      3  C   UNL     1      41.623  12.192  14.638  1.00  0.00     0.000 C 
BRANCH   3   4
ATOM      4  C   UNL     1      40.834  13.403  14.095  1.00  0.00     0.000 C 
BRANCH   4   5
ATOM      5  C   UNL     1      39.423  13.545  14.699  1.00  0.00     0.000 C 
BRANCH   5   6
ATOM      6  C   UNL     1      39.136  14.904  15.367  1.00  0.00     0.006 C 
BRANCH   6   7
ATOM      7  C   UNL     1      40.306  15.899  15.302  1.00  0.00     0.053 C 
BRANCH   7   8
ATOM      8  C   UNL     1      40.384  16.754  16.530  1.00  0.00     0.041 C 
ATOM      9  O   UNL     1      39.518  16.640  17.436  1.00  0.00    -0.550 OA
ATOM     10  O   UNL     1      41.392  17.700  16.656  1.00  0.00    -0.550 OA
ENDBRANCH   7   8
ENDBRANCH   6   7
ENDBRANCH   5   6
ENDBRANCH   4   5
ENDBRANCH   3   4
ENDBRANCH   2   3
ENDBRANCH   1   2
BRANCH   1  11
ATOM     11  C   UNL     1      40.166  11.630  17.739  1.00  0.00     0.000 C 
BRANCH  11  12
ATOM     12  C   UNL     1      38.937  10.849  17.245  1.00  0.00    -0.000 C 
BRANCH  12  13
ATOM     13  C   UNL     1      39.285   9.843  16.134  1.00  0.00    -0.000 C 
BRANCH  13  14
ATOM     14  C   UNL     1      38.364   9.977  14.909  1.00  0.00    -0.000 C 
BRANCH  14  15
ATOM     15  C   UNL     1      39.102   9.707  13.586  1.00  0.00    -0.000 C 
BRANCH  15  16
ATOM     16  C   UNL     1      38.797  10.762  12.506  1.00  0.00    -0.000 C 
BRANCH  16  17
ATOM     17  C   UNL     1      39.728  10.723  11.281  1.00  0.00    -0.003 C 
ATOM     18  C   UNL     1      41.150  10.280  11.624  1.00  0.00     0.004 C 
ENDBRANCH  16  17
ENDBRANCH  15  16
ENDBRANCH  14  15
ENDBRANCH  13  14
ENDBRANCH  12  13
ENDBRANCH  11  12
ENDBRANCH   1  11
TORSDOF 14
ENDMDL
MODEL 6
REMARK VINA RESULT:    -3.515      2.954      5.616
REMARK INTER + INTRA:          -8.319
REMARK INTER:                  -6.019
REMARK INTRA:                  -2.300
REMARK UNBOUND:                -1.927
REMARK SMILES CCCCCCCCCCCCCCCC(=O)[O-]
REMARK SMILES IDX 9 1 10 2 11 3 12 4 13 5 14 6 15 7 16 8 17 9 18 10 8 11 7 12
REMARK SMILES IDX 6 13 5 14 4 15 3 16 2 17 1 18
REMARK H PARENT
REMARK Flexibility Score: inf
ROOT
ATOM      1  C   UNL     1      40.869  10.491  11.395  1.00  0.00     0.000 C 
ENDROOT
BRANCH   1   2
ATOM      2  C   UNL     1      40.557   8.998  11.580  1.00  0.00     0.000 C 
BRANCH   2   3
ATOM      3  C   UNL     1      39.083   8.741  11.943  1.00  0.00     0.000 C 
BRANCH   3   4
ATOM      4  C   UNL     1      38.926   8.105  13.340  1.00  0.00     0.000 C 
BRANCH   4   5
ATOM      5  C   UNL     1      38.224   9.019  14.363  1.00  0.00     0.000 C 
BRANCH   5   6
ATOM      6  C   UNL     1      39.140   9.582  15.467  1.00  0.00     0.006 C 
BRANCH   6   7
ATOM      7  C   UNL     1      38.486   9.655  16.856  1.00  0.00     0.053 C 
BRANCH   7   8
ATOM      8  C   UNL     1      39.380   9.109  17.927  1.00  0.00     0.041 C 
ATOM      9  O   UNL     1      38.885   8.608  18.970  1.00  0.00    -0.550 OA
ATOM     10  O   UNL     1      40.759   9.187  17.788  1.00  0.00    -0.550 OA
ENDBRANCH   7   8
ENDBRANCH   6   7
ENDBRANCH   5   6
ENDBRANCH   4   5
ENDBRANCH   3   4
ENDBRANCH   2   3
ENDBRANCH   1   2
BRANCH   1  11
ATOM     11  C   UNL     1      40.991  11.238  12.736  1.00  0.00     0.000 C 
BRANCH  11  12
ATOM     12  C   UNL     1      40.185  12.547  12.760  1.00  0.00    -0.000 C 
BRANCH  12  13
ATOM     13  C   UNL     1      38.700  12.319  13.093  1.00  0.00    -0.000 C 
BRANCH  13  14
ATOM     14  C   UNL     1      38.245  13.120  14.325  1.00  0.00    -0.000 C 
BRANCH  14  15
ATOM     15  C   UNL     1      39.418  13.804  15.049  1.00  0.00    -0.000 C 
BRANCH  15  16
ATOM     16  C   UNL     1      39.814  13.090  16.354  1.00  0.00    -0.000 C 
BRANCH  16  17
ATOM     17  C   UNL     1      41.313  13.147  16.696  1.00  0.00    -0.003 C 
ATOM     18  C   UNL     1      42.111  11.996  16.085  1.00  0.00     0.004 C 
ENDBRANCH  16  17
ENDBRANCH  15  16
ENDBRANCH  14  15
ENDBRANCH  13  14
ENDBRANCH  12  13
ENDBRANCH  11  12
ENDBRANCH   1  11
TORSDOF 14
ENDMDL
MODEL 7
REMARK VINA RESULT:    -3.473      1.311      3.603
REMARK INTER + INTRA:          -8.242
REMARK INTER:                  -5.973
REMARK INTRA:                  -2.269
REMARK UNBOUND:                -1.927
REMARK SMILES CCCCCCCCCCCCCCCC(=O)[O-]
REMARK SMILES IDX 9 1 10 2 11 3 12 4 13 5 14 6 15 7 16 8 17 9 18 10 8 11 7 12
REMARK SMILES IDX 6 13 5 14 4 15 3 16 2 17 1 18
REMARK H PARENT
REMARK Flexibility Score: inf
ROOT
ATOM      1  C   UNL     1      40.603   9.478  11.655  1.00  0.00     0.000 C 
ENDROOT
BRANCH   1   2
ATOM      2  C   UNL     1      40.117  10.784  11.005  1.00  0.00     0.000 C 
BRANCH   2   3
ATOM      3  C   UNL     1      40.019  11.945  12.011  1.00  0.00     0.000 C 
BRANCH   3   4
ATOM      4  C   UNL     1      40.983  11.768  13.204  1.00  0.00     0.000 C 
BRANCH   4   5
ATOM      5  C   UNL     1      40.675  12.699  14.393  1.00  0.00     0.000 C 
BRANCH   5   6
ATOM      6  C   UNL     1      39.237  13.251  14.429  1.00  0.00     0.006 C 
BRANCH   6   7
ATOM      7  C   UNL     1      38.885  14.014  15.716  1.00  0.00     0.053 C 
BRANCH   7   8
ATOM      8  C   UNL     1      39.976  14.956  16.127  1.00  0.00     0.041 C 
ATOM      9  O   UNL     1      40.253  15.953  15.411  1.00  0.00    -0.550 OA
ATOM     10  O   UNL     1      40.708  14.711  17.281  1.00  0.00    -0.550 OA
ENDBRANCH   7   8
ENDBRANCH   6   7
ENDBRANCH   5   6
ENDBRANCH   4   5
ENDBRANCH   3   4
ENDBRANCH   2   3
ENDBRANCH   1   2
BRANCH   1  11
ATOM     11  C   UNL     1      39.474   8.444  11.814  1.00  0.00     0.000 C 
BRANCH  11  12
ATOM     12  C   UNL     1      39.085   8.214  13.283  1.00  0.00    -0.000 C 
BRANCH  12  13
ATOM     13  C   UNL     1      38.209   9.348  13.846  1.00  0.00    -0.000 C 
BRANCH  13  14
ATOM     14  C   UNL     1      38.051   9.266  15.374  1.00  0.00    -0.000 C 
BRANCH  14  15
ATOM     15  C   UNL     1      39.300   9.765  16.122  1.00  0.00    -0.000 C 
BRANCH  15  16
ATOM     16  C   UNL     1      38.958  10.678  17.313  1.00  0.00    -0.000 C 
BRANCH  16  17
ATOM     17  C   UNL     1      40.175  11.258  18.057  1.00  0.00    -0.003 C 
ATOM     18  C   UNL     1      41.506  10.903  17.394  1.00  0.00     0.004 C 
ENDBRANCH  16  17
ENDBRANCH  15  16
ENDBRANCH  14  15
ENDBRANCH  13  14
ENDBRANCH  12  13
ENDBRANCH  11  12
ENDBRANCH   1  11
TORSDOF 14
ENDMDL
MODEL 8
REMARK VINA RESULT:    -3.386      1.234      3.139
REMARK INTER + INTRA:          -8.085
REMARK INTER:                  -6.052
REMARK INTRA:                  -2.033
REMARK UNBOUND:                -1.927
REMARK SMILES CCCCCCCCCCCCCCCC(=O)[O-]
REMARK SMILES IDX 9 1 10 2 11 3 12 4 13 5 14 6 15 7 16 8 17 9 18 10 8 11 7 12
REMARK SMILES IDX 6 13 5 14 4 15 3 16 2 17 1 18
REMARK H PARENT
REMARK Flexibility Score: inf
ROOT
ATOM      1  C   UNL     1      39.974  10.798  17.050  1.00  0.00     0.000 C 
ENDROOT
BRANCH   1   2
ATOM      2  C   UNL     1      41.434  11.219  16.819  1.00  0.00     0.000 C 
BRANCH   2   3
ATOM      3  C   UNL     1      41.609  12.748  16.781  1.00  0.00     0.000 C 
BRANCH   3   4
ATOM      4  C   UNL     1      41.631  13.371  18.193  1.00  0.00     0.000 C 
BRANCH   4   5
ATOM      5  C   UNL     1      40.574  14.472  18.403  1.00  0.00     0.000 C 
BRANCH   5   6
ATOM      6  C   UNL     1      39.349  14.381  17.472  1.00  0.00     0.006 C 
BRANCH   6   7
ATOM      7  C   UNL     1      39.052  15.670  16.689  1.00  0.00     0.053 C 
BRANCH   7   8
ATOM      8  C   UNL     1      40.247  16.149  15.923  1.00  0.00     0.041 C 
ATOM      9  O   UNL     1      40.614  15.546  14.880  1.00  0.00    -0.550 OA
ATOM     10  O   UNL     1      40.976  17.239  16.381  1.00  0.00    -0.550 OA
ENDBRANCH   7   8
ENDBRANCH   6   7
ENDBRANCH   5   6
ENDBRANCH   4   5
ENDBRANCH   3   4
ENDBRANCH   2   3
ENDBRANCH   1   2
BRANCH   1  11
ATOM     11  C   UNL     1      39.369  10.079  15.831  1.00  0.00     0.000 C 
BRANCH  11  12
ATOM     12  C   UNL     1      38.163  10.828  15.239  1.00  0.00    -0.000 C 
BRANCH  12  13
ATOM     13  C   UNL     1      38.545  12.209  14.678  1.00  0.00    -0.000 C 
BRANCH  13  14
ATOM     14  C   UNL     1      38.744  12.189  13.153  1.00  0.00    -0.000 C 
BRANCH  14  15
ATOM     15  C   UNL     1      40.190  12.524  12.744  1.00  0.00    -0.000 C 
BRANCH  15  16
ATOM     16  C   UNL     1      41.151  11.334  12.919  1.00  0.00    -0.000 C 
BRANCH  16  17
ATOM     17  C   UNL     1      41.276  10.414  11.691  1.00  0.00    -0.003 C 
ATOM     18  C   UNL     1      40.251   9.281  11.686  1.00  0.00     0.004 C 
ENDBRANCH  16  17
ENDBRANCH  15  16
ENDBRANCH  14  15
ENDBRANCH  13  14
ENDBRANCH  12  13
ENDBRANCH  11  12
ENDBRANCH   1  11
TORSDOF 14
ENDMDL
MODEL 9
REMARK VINA RESULT:    -3.384      1.410      2.790
REMARK INTER + INTRA:          -8.081
REMARK INTER:                  -5.957
REMARK INTRA:                  -2.124
REMARK UNBOUND:                -1.927
REMARK SMILES CCCCCCCCCCCCCCCC(=O)[O-]
REMARK SMILES IDX 9 1 10 2 11 3 12 4 13 5 14 6 15 7 16 8 17 9 18 10 8 11 7 12
REMARK SMILES IDX 6 13 5 14 4 15 3 16 2 17 1 18
REMARK H PARENT
REMARK Flexibility Score: inf
ROOT
ATOM      1  C   UNL     1      42.002  12.090  15.788  1.00  0.00     0.000 C 
ENDROOT
BRANCH   1   2
ATOM      2  C   UNL     1      41.195  11.301  16.832  1.00  0.00     0.000 C 
BRANCH   2   3
ATOM      3  C   UNL     1      40.515  12.215  17.867  1.00  0.00     0.000 C 
BRANCH   3   4
ATOM      4  C   UNL     1      39.138  12.722  17.387  1.00  0.00     0.000 C 
BRANCH   4   5
ATOM      5  C   UNL     1      39.082  14.245  17.161  1.00  0.00     0.000 C 
BRANCH   5   6
ATOM      6  C   UNL     1      40.450  14.955  17.174  1.00  0.00     0.006 C 
BRANCH   6   7
ATOM      7  C   UNL     1      40.527  16.163  18.121  1.00  0.00     0.053 C 
BRANCH   7   8
ATOM      8  C   UNL     1      40.484  17.462  17.376  1.00  0.00     0.041 C 
ATOM      9  O   UNL     1      41.530  17.927  16.853  1.00  0.00    -0.550 OA
ATOM     10  O   UNL     1      39.296  18.176  17.291  1.00  0.00    -0.550 OA
ENDBRANCH   7   8
ENDBRANCH   6   7
ENDBRANCH   5   6
ENDBRANCH   4   5
ENDBRANCH   3   4
ENDBRANCH   2   3
ENDBRANCH   1   2
BRANCH   1  11
ATOM     11  C   UNL     1      41.431  11.941  14.366  1.00  0.00     0.000 C 
BRANCH  11  12
ATOM     12  C   UNL     1      40.600  13.159  13.931  1.00  0.00    -0.000 C 
BRANCH  12  13
ATOM     13  C   UNL     1      39.168  12.778  13.514  1.00  0.00    -0.000 C 
BRANCH  13  14
ATOM     14  C   UNL     1      38.773  11.369  13.988  1.00  0.00    -0.000 C 
BRANCH  14  15
ATOM     15  C   UNL     1      37.921  10.616  12.951  1.00  0.00    -0.000 C 
BRANCH  15  16
ATOM     16  C   UNL     1      38.661  10.390  11.620  1.00  0.00    -0.000 C 
BRANCH  16  17
ATOM     17  C   UNL     1      39.943   9.545  11.726  1.00  0.00    -0.003 C 
ATOM     18  C   UNL     1      41.184  10.273  11.209  1.00  0.00     0.004 C 
ENDBRANCH  16  17
ENDBRANCH  15  16
ENDBRANCH  14  15
ENDBRANCH  13  14
ENDBRANCH  12  13
ENDBRANCH  11  12
ENDBRANCH   1  11
TORSDOF 14
ENDMDL
