MODEL 1
REMARK VINA RESULT:    -6.706      0.000      0.000
REMARK INTER + INTRA:          -8.364
REMARK INTER:                  -8.079
REMARK INTRA:                  -0.285
REMARK UNBOUND:                -0.285
REMARK SMILES O=c1c(O)c(-c2ccc(O)c(O)c2)oc2cc(O)cc(O)c12
REMARK SMILES IDX 5 1 3 2 2 3 1 4 22 5 20 6 19 7 17 8 16 9 15 10 14 11 6 12
REMARK SMILES IDX 7 13 8 14 9 15 13 16 11 17 10 18 12 20 4 22 21 24 18 26
REMARK H PARENT 10 19 12 21 4 23 21 25 18 27
REMARK Flexibility Score: inf
ROOT
ATOM      1  C   UNL     1      -6.125  14.197  10.460  1.00  0.00     0.180 A 
ATOM      2  C   UNL     1      -5.220  15.273  10.453  1.00  0.00     0.208 A 
ATOM      3  C   UNL     1      -4.818  15.817   9.223  1.00  0.00     0.238 A 
ATOM      4  O   UNL     1      -3.965  16.743   9.221  1.00  0.00    -0.285 OA
ATOM      5  C   UNL     1      -5.339  15.292   8.016  1.00  0.00     0.111 A 
ATOM      6  C   UNL     1      -5.032  15.792   6.716  1.00  0.00     0.134 A 
ATOM      7  C   UNL     1      -5.502  15.111   5.585  1.00  0.00     0.093 A 
ATOM      8  C   UNL     1      -6.323  13.988   5.710  1.00  0.00     0.123 A 
ATOM      9  C   UNL     1      -6.676  13.527   6.976  1.00  0.00     0.094 A 
ATOM     10  C   UNL     1      -6.192  14.163   8.122  1.00  0.00     0.146 A 
ATOM     11  O   UNL     1      -6.545  13.685   9.309  1.00  0.00    -0.452 OA
ENDROOT
BRANCH   1  12
ATOM     12  C   UNL     1      -6.615  13.587  11.717  1.00  0.00     0.025 A 
ATOM     13  C   UNL     1      -7.580  14.226  12.514  1.00  0.00     0.016 A 
ATOM     14  C   UNL     1      -8.045  13.620  13.683  1.00  0.00     0.051 A 
ATOM     15  C   UNL     1      -7.563  12.362  14.068  1.00  0.00     0.157 A 
ATOM     16  C   UNL     1      -6.149  12.316  12.096  1.00  0.00     0.062 A 
ATOM     17  C   UNL     1      -6.612  11.706  13.267  1.00  0.00     0.158 A 
BRANCH  15  18
ATOM     18  O   UNL     1      -8.026  11.761  15.237  1.00  0.00    -0.504 OA
ATOM     19  H   UNL     1      -8.576  12.275  15.915  1.00  0.00     0.293 HD
ENDBRANCH  15  18
BRANCH  17  20
ATOM     20  O   UNL     1      -6.117  10.451  13.618  1.00  0.00    -0.504 OA
ATOM     21  H   UNL     1      -6.728   9.668  13.816  1.00  0.00     0.293 HD
ENDBRANCH  17  20
ENDBRANCH   1  12
BRANCH   2  22
ATOM     22  O   UNL     1      -4.701  15.762  11.655  1.00  0.00    -0.502 OA
ATOM     23  H   UNL     1      -3.890  16.368  11.691  1.00  0.00     0.293 HD
ENDBRANCH   2  22
BRANCH   6  24
ATOM     24  O   UNL     1      -4.299  16.960   6.481  1.00  0.00    -0.507 OA
ATOM     25  H   UNL     1      -4.223  17.730   7.127  1.00  0.00     0.293 HD
ENDBRANCH   6  24
BRANCH   8  26
ATOM     26  O   UNL     1      -6.799  13.326   4.580  1.00  0.00    -0.508 OA
ATOM     27  H   UNL     1      -6.438  13.530   3.656  1.00  0.00     0.293 HD
ENDBRANCH   8  26
TORSDOF 6
ENDMDL
MODEL 2
REMARK VINA RESULT:    -6.624      4.247      6.522
REMARK INTER + INTRA:          -8.264
REMARK INTER:                  -7.966
REMARK INTRA:                  -0.299
REMARK UNBOUND:                -0.285
REMARK SMILES O=c1c(O)c(-c2ccc(O)c(O)c2)oc2cc(O)cc(O)c12
REMARK SMILES IDX 5 1 3 2 2 3 1 4 22 5 20 6 19 7 17 8 16 9 15 10 14 11 6 12
REMARK SMILES IDX 7 13 8 14 9 15 13 16 11 17 10 18 12 20 4 22 21 24 18 26
REMARK H PARENT 10 19 12 21 4 23 21 25 18 27
REMARK Flexibility Score: inf
ROOT
ATOM      1  C   UNL     1      -6.817  15.913   7.203  1.00  0.00     0.180 A 
ATOM      2  C   UNL     1      -7.472  15.418   6.061  1.00  0.00     0.208 A 
ATOM      3  C   UNL     1      -8.857  15.612   5.933  1.00  0.00     0.238 A 
ATOM      4  O   UNL     1      -9.446  15.119   4.937  1.00  0.00    -0.285 OA
ATOM      5  C   UNL     1      -9.566  16.314   6.938  1.00  0.00     0.111 A 
ATOM      6  C   UNL     1     -10.962  16.604   6.892  1.00  0.00     0.134 A 
ATOM      7  C   UNL     1     -11.584  17.189   8.003  1.00  0.00     0.093 A 
ATOM      8  C   UNL     1     -10.846  17.555   9.131  1.00  0.00     0.123 A 
ATOM      9  C   UNL     1      -9.472  17.330   9.161  1.00  0.00     0.094 A 
ATOM     10  C   UNL     1      -8.830  16.714   8.084  1.00  0.00     0.146 A 
ATOM     11  O   UNL     1      -7.521  16.509   8.158  1.00  0.00    -0.452 OA
ENDROOT
BRANCH   1  12
ATOM     12  C   UNL     1      -5.356  15.769   7.397  1.00  0.00     0.025 A 
ATOM     13  C   UNL     1      -4.474  16.833   7.138  1.00  0.00     0.016 A 
ATOM     14  C   UNL     1      -3.102  16.681   7.351  1.00  0.00     0.051 A 
ATOM     15  C   UNL     1      -2.591  15.471   7.840  1.00  0.00     0.157 A 
ATOM     16  C   UNL     1      -4.842  14.565   7.906  1.00  0.00     0.062 A 
ATOM     17  C   UNL     1      -3.467  14.409   8.121  1.00  0.00     0.158 A 
BRANCH  15  18
ATOM     18  O   UNL     1      -1.221  15.322   8.049  1.00  0.00    -0.504 OA
ATOM     19  H   UNL     1      -0.592  16.115   8.022  1.00  0.00     0.293 HD
ENDBRANCH  15  18
BRANCH  17  20
ATOM     20  O   UNL     1      -2.993  13.195   8.614  1.00  0.00    -0.504 OA
ATOM     21  H   UNL     1      -2.447  12.559   8.045  1.00  0.00     0.293 HD
ENDBRANCH  17  20
ENDBRANCH   1  12
BRANCH   2  22
ATOM     22  O   UNL     1      -6.757  14.710   5.092  1.00  0.00    -0.502 OA
ATOM     23  H   UNL     1      -6.662  13.701   5.115  1.00  0.00     0.293 HD
ENDBRANCH   2  22
BRANCH   6  24
ATOM     24  O   UNL     1     -11.773  16.364   5.778  1.00  0.00    -0.507 OA
ATOM     25  H   UNL     1     -11.817  15.490   5.277  1.00  0.00     0.293 HD
ENDBRANCH   6  24
BRANCH   8  26
ATOM     26  O   UNL     1     -11.469  18.151  10.225  1.00  0.00    -0.508 OA
ATOM     27  H   UNL     1     -12.136  17.645  10.795  1.00  0.00     0.293 HD
ENDBRANCH   8  26
TORSDOF 6
ENDMDL
MODEL 3
REMARK VINA RESULT:    -6.605      4.446      6.720
REMARK INTER + INTRA:          -8.241
REMARK INTER:                  -7.913
REMARK INTRA:                  -0.329
REMARK UNBOUND:                -0.285
REMARK SMILES O=c1c(O)c(-c2ccc(O)c(O)c2)oc2cc(O)cc(O)c12
REMARK SMILES IDX 5 1 3 2 2 3 1 4 22 5 20 6 19 7 17 8 16 9 15 10 14 11 6 12
REMARK SMILES IDX 7 13 8 14 9 15 13 16 11 17 10 18 12 20 4 22 21 24 18 26
REMARK H PARENT 10 19 12 21 4 23 21 25 18 27
REMARK Flexibility Score: inf
ROOT
ATOM      1  C   UNL     1      -3.347  15.508   7.173  1.00  0.00     0.180 A 
ATOM      2  C   UNL     1      -2.784  14.809   8.255  1.00  0.00     0.208 A 
ATOM      3  C   UNL     1      -1.431  15.017   8.570  1.00  0.00     0.238 A 
ATOM      4  O   UNL     1      -0.919  14.347   9.505  1.00  0.00    -0.285 OA
ATOM      5  C   UNL     1      -0.663  15.933   7.812  1.00  0.00     0.111 A 
ATOM      6  C   UNL     1       0.704  16.251   8.068  1.00  0.00     0.134 A 
ATOM      7  C   UNL     1       1.401  17.073   7.172  1.00  0.00     0.093 A 
ATOM      8  C   UNL     1       0.762  17.640   6.068  1.00  0.00     0.123 A 
ATOM      9  C   UNL     1      -0.589  17.383   5.843  1.00  0.00     0.094 A 
ATOM     10  C   UNL     1      -1.301  16.538   6.697  1.00  0.00     0.146 A 
ATOM     11  O   UNL     1      -2.584  16.311   6.440  1.00  0.00    -0.452 OA
ENDROOT
BRANCH   1  12
ATOM     12  C   UNL     1      -4.771  15.361   6.796  1.00  0.00     0.025 A 
ATOM     13  C   UNL     1      -5.759  16.213   7.318  1.00  0.00     0.016 A 
ATOM     14  C   UNL     1      -7.093  16.071   6.929  1.00  0.00     0.051 A 
ATOM     15  C   UNL     1      -7.459  15.085   6.002  1.00  0.00     0.157 A 
ATOM     16  C   UNL     1      -5.139  14.387   5.851  1.00  0.00     0.062 A 
ATOM     17  C   UNL     1      -6.475  14.242   5.459  1.00  0.00     0.158 A 
BRANCH  15  18
ATOM     18  O   UNL     1      -8.791  14.944   5.618  1.00  0.00    -0.504 OA
ATOM     19  H   UNL     1      -9.414  15.741   5.564  1.00  0.00     0.293 HD
ENDBRANCH  15  18
BRANCH  17  20
ATOM     20  O   UNL     1      -6.804  13.256   4.531  1.00  0.00    -0.504 OA
ATOM     21  H   UNL     1      -7.589  12.630   4.665  1.00  0.00     0.293 HD
ENDBRANCH  17  20
ENDBRANCH   1  12
BRANCH   2  22
ATOM     22  O   UNL     1      -3.553  13.893   8.977  1.00  0.00    -0.502 OA
ATOM     23  H   UNL     1      -3.290  12.920   9.077  1.00  0.00     0.293 HD
ENDBRANCH   2  22
BRANCH   6  24
ATOM     24  O   UNL     1       1.411  15.812   9.192  1.00  0.00    -0.507 OA
ATOM     25  H   UNL     1       2.242  15.242   9.161  1.00  0.00     0.293 HD
ENDBRANCH   6  24
BRANCH   8  26
ATOM     26  O   UNL     1       1.458  18.469   5.191  1.00  0.00    -0.508 OA
ATOM     27  H   UNL     1       2.471  18.472   5.157  1.00  0.00     0.293 HD
ENDBRANCH   8  26
TORSDOF 6
ENDMDL
MODEL 4
REMARK VINA RESULT:    -6.588      4.434      6.615
REMARK INTER + INTRA:          -8.221
REMARK INTER:                  -7.899
REMARK INTRA:                  -0.322
REMARK UNBOUND:                -0.285
REMARK SMILES O=c1c(O)c(-c2ccc(O)c(O)c2)oc2cc(O)cc(O)c12
REMARK SMILES IDX 5 1 3 2 2 3 1 4 22 5 20 6 19 7 17 8 16 9 15 10 14 11 6 12
REMARK SMILES IDX 7 13 8 14 9 15 13 16 11 17 10 18 12 20 4 22 21 24 18 26
REMARK H PARENT 10 19 12 21 4 23 21 25 18 27
REMARK Flexibility Score: inf
ROOT
ATOM      1  C   UNL     1      -5.373  15.504   7.106  1.00  0.00     0.180 A 
ATOM      2  C   UNL     1      -5.840  14.649   6.092  1.00  0.00     0.208 A 
ATOM      3  C   UNL     1      -7.212  14.628   5.797  1.00  0.00     0.238 A 
ATOM      4  O   UNL     1      -7.631  13.821   4.926  1.00  0.00    -0.285 OA
ATOM      5  C   UNL     1      -8.098  15.474   6.506  1.00  0.00     0.111 A 
ATOM      6  C   UNL     1      -9.501  15.564   6.262  1.00  0.00     0.134 A 
ATOM      7  C   UNL     1     -10.303  16.338   7.112  1.00  0.00     0.093 A 
ATOM      8  C   UNL     1      -9.740  17.076   8.156  1.00  0.00     0.123 A 
ATOM      9  C   UNL     1      -8.364  17.041   8.365  1.00  0.00     0.094 A 
ATOM     10  C   UNL     1      -7.544  16.250   7.557  1.00  0.00     0.146 A 
ATOM     11  O   UNL     1      -6.238  16.237   7.797  1.00  0.00    -0.452 OA
ENDROOT
BRANCH   1  12
ATOM     12  C   UNL     1      -3.938  15.600   7.457  1.00  0.00     0.025 A 
ATOM     13  C   UNL     1      -3.373  14.790   8.458  1.00  0.00     0.016 A 
ATOM     14  C   UNL     1      -2.012  14.880   8.755  1.00  0.00     0.051 A 
ATOM     15  C   UNL     1      -1.191  15.770   8.050  1.00  0.00     0.157 A 
ATOM     16  C   UNL     1      -3.107  16.476   6.739  1.00  0.00     0.062 A 
ATOM     17  C   UNL     1      -1.742  16.569   7.034  1.00  0.00     0.158 A 
BRANCH  15  18
ATOM     18  O   UNL     1       0.167  15.860   8.351  1.00  0.00    -0.504 OA
ATOM     19  H   UNL     1       0.494  16.309   9.198  1.00  0.00     0.293 HD
ENDBRANCH  15  18
BRANCH  17  20
ATOM     20  O   UNL     1      -0.952  17.460   6.309  1.00  0.00    -0.504 OA
ATOM     21  H   UNL     1       0.060  17.428   6.338  1.00  0.00     0.293 HD
ENDBRANCH  17  20
ENDBRANCH   1  12
BRANCH   2  22
ATOM     22  O   UNL     1      -4.951  13.807   5.419  1.00  0.00    -0.502 OA
ATOM     23  H   UNL     1      -5.256  13.140   4.720  1.00  0.00     0.293 HD
ENDBRANCH   2  22
BRANCH   6  24
ATOM     24  O   UNL     1     -10.150  14.941   5.190  1.00  0.00    -0.507 OA
ATOM     25  H   UNL     1     -10.725  14.117   5.269  1.00  0.00     0.293 HD
ENDBRANCH   6  24
BRANCH   8  26
ATOM     26  O   UNL     1     -10.542  17.855   8.988  1.00  0.00    -0.508 OA
ATOM     27  H   UNL     1     -10.225  18.152   9.903  1.00  0.00     0.293 HD
ENDBRANCH   8  26
TORSDOF 6
ENDMDL
MODEL 5
REMARK VINA RESULT:    -6.373      3.854      6.230
REMARK INTER + INTRA:          -7.962
REMARK INTER:                  -7.640
REMARK INTRA:                  -0.322
REMARK UNBOUND:                -0.285
REMARK SMILES O=c1c(O)c(-c2ccc(O)c(O)c2)oc2cc(O)cc(O)c12
REMARK SMILES IDX 5 1 3 2 2 3 1 4 22 5 20 6 19 7 17 8 16 9 15 10 14 11 6 12
REMARK SMILES IDX 7 13 8 14 9 15 13 16 11 17 10 18 12 20 4 22 21 24 18 26
REMARK H PARENT 10 19 12 21 4 23 21 25 18 27
REMARK Flexibility Score: inf
ROOT
ATOM      1  C   UNL     1      -5.680  15.649   7.250  1.00  0.00     0.180 A 
ATOM      2  C   UNL     1      -5.325  14.681   8.206  1.00  0.00     0.208 A 
ATOM      3  C   UNL     1      -3.978  14.556   8.582  1.00  0.00     0.238 A 
ATOM      4  O   UNL     1      -3.660  13.652   9.397  1.00  0.00    -0.285 OA
ATOM      5  C   UNL     1      -3.005  15.412   8.012  1.00  0.00     0.111 A 
ATOM      6  C   UNL     1      -1.619  15.401   8.350  1.00  0.00     0.134 A 
ATOM      7  C   UNL     1      -0.725  16.202   7.626  1.00  0.00     0.093 A 
ATOM      8  C   UNL     1      -1.179  17.063   6.623  1.00  0.00     0.123 A 
ATOM      9  C   UNL     1      -2.538  17.124   6.328  1.00  0.00     0.094 A 
ATOM     10  C   UNL     1      -3.449  16.310   7.006  1.00  0.00     0.146 A 
ATOM     11  O   UNL     1      -4.735  16.392   6.685  1.00  0.00    -0.452 OA
ENDROOT
BRANCH   1  12
ATOM     12  C   UNL     1      -7.082  15.857   6.821  1.00  0.00     0.025 A 
ATOM     13  C   UNL     1      -7.642  15.115   5.767  1.00  0.00     0.016 A 
ATOM     14  C   UNL     1      -8.974  15.311   5.395  1.00  0.00     0.051 A 
ATOM     15  C   UNL     1      -9.771  16.239   6.080  1.00  0.00     0.157 A 
ATOM     16  C   UNL     1      -7.890  16.770   7.518  1.00  0.00     0.062 A 
ATOM     17  C   UNL     1      -9.225  16.969   7.149  1.00  0.00     0.158 A 
BRANCH  15  18
ATOM     18  O   UNL     1     -11.099  16.433   5.705  1.00  0.00    -0.504 OA
ATOM     19  H   UNL     1     -11.461  17.355   5.495  1.00  0.00     0.293 HD
ENDBRANCH  15  18
BRANCH  17  20
ATOM     20  O   UNL     1      -9.992  17.895   7.855  1.00  0.00    -0.504 OA
ATOM     21  H   UNL     1     -10.402  17.679   8.756  1.00  0.00     0.293 HD
ENDBRANCH  17  20
ENDBRANCH   1  12
BRANCH   2  22
ATOM     22  O   UNL     1      -6.298  13.832   8.741  1.00  0.00    -0.502 OA
ATOM     23  H   UNL     1      -6.478  13.769   9.736  1.00  0.00     0.293 HD
ENDBRANCH   2  22
BRANCH   6  24
ATOM     24  O   UNL     1      -1.076  14.648   9.395  1.00  0.00    -0.507 OA
ATOM     25  H   UNL     1      -1.550  13.893   9.866  1.00  0.00     0.293 HD
ENDBRANCH   6  24
BRANCH   8  26
ATOM     26  O   UNL     1      -0.286  17.867   5.920  1.00  0.00    -0.508 OA
ATOM     27  H   UNL     1      -0.563  18.769   5.551  1.00  0.00     0.293 HD
ENDBRANCH   8  26
TORSDOF 6
ENDMDL
MODEL 6
REMARK VINA RESULT:    -6.330      1.228      1.578
REMARK INTER + INTRA:          -7.910
REMARK INTER:                  -7.575
REMARK INTRA:                  -0.335
REMARK UNBOUND:                -0.285
REMARK SMILES O=c1c(O)c(-c2ccc(O)c(O)c2)oc2cc(O)cc(O)c12
REMARK SMILES IDX 5 1 3 2 2 3 1 4 22 5 20 6 19 7 17 8 16 9 15 10 14 11 6 12
REMARK SMILES IDX 7 13 8 14 9 15 13 16 11 17 10 18 12 20 4 22 21 24 18 26
REMARK H PARENT 10 19 12 21 4 23 21 25 18 27
REMARK Flexibility Score: inf
ROOT
ATOM      1  C   UNL     1      -6.462  14.792  10.421  1.00  0.00     0.180 A 
ATOM      2  C   UNL     1      -5.181  15.362  10.522  1.00  0.00     0.208 A 
ATOM      3  C   UNL     1      -4.377  15.438   9.373  1.00  0.00     0.238 A 
ATOM      4  O   UNL     1      -3.211  15.900   9.481  1.00  0.00    -0.285 OA
ATOM      5  C   UNL     1      -4.870  14.959   8.136  1.00  0.00     0.111 A 
ATOM      6  C   UNL     1      -4.157  15.023   6.901  1.00  0.00     0.134 A 
ATOM      7  C   UNL     1      -4.688  14.400   5.764  1.00  0.00     0.093 A 
ATOM      8  C   UNL     1      -5.936  13.773   5.802  1.00  0.00     0.123 A 
ATOM      9  C   UNL     1      -6.666  13.758   6.989  1.00  0.00     0.094 A 
ATOM     10  C   UNL     1      -6.146  14.339   8.148  1.00  0.00     0.146 A 
ATOM     11  O   UNL     1      -6.870  14.292   9.260  1.00  0.00    -0.452 OA
ENDROOT
BRANCH   1  12
ATOM     12  C   UNL     1      -7.377  14.699  11.582  1.00  0.00     0.025 A 
ATOM     13  C   UNL     1      -8.256  15.747  11.907  1.00  0.00     0.016 A 
ATOM     14  C   UNL     1      -9.127  15.628  12.992  1.00  0.00     0.051 A 
ATOM     15  C   UNL     1      -9.144  14.456  13.760  1.00  0.00     0.157 A 
ATOM     16  C   UNL     1      -7.412  13.518  12.342  1.00  0.00     0.062 A 
ATOM     17  C   UNL     1      -8.284  13.395  13.430  1.00  0.00     0.158 A 
BRANCH  15  18
ATOM     18  O   UNL     1     -10.013  14.341  14.844  1.00  0.00    -0.504 OA
ATOM     19  H   UNL     1      -9.670  14.296  15.796  1.00  0.00     0.293 HD
ENDBRANCH  15  18
BRANCH  17  20
ATOM     20  O   UNL     1      -8.280  12.213  14.169  1.00  0.00    -0.504 OA
ATOM     21  H   UNL     1      -8.314  11.302  13.728  1.00  0.00     0.293 HD
ENDBRANCH  17  20
ENDBRANCH   1  12
BRANCH   2  22
ATOM     22  O   UNL     1      -4.706  15.809  11.758  1.00  0.00    -0.502 OA
ATOM     23  H   UNL     1      -3.718  15.915  11.955  1.00  0.00     0.293 HD
ENDBRANCH   2  22
BRANCH   6  24
ATOM     24  O   UNL     1      -2.947  15.704   6.732  1.00  0.00    -0.507 OA
ATOM     25  H   UNL     1      -2.454  15.790   5.856  1.00  0.00     0.293 HD
ENDBRANCH   6  24
BRANCH   8  26
ATOM     26  O   UNL     1      -6.464  13.170   4.663  1.00  0.00    -0.508 OA
ATOM     27  H   UNL     1      -5.958  12.449   4.163  1.00  0.00     0.293 HD
ENDBRANCH   8  26
TORSDOF 6
ENDMDL
MODEL 7
REMARK VINA RESULT:    -6.196      2.832      4.217
REMARK INTER + INTRA:          -7.749
REMARK INTER:                  -7.479
REMARK INTRA:                  -0.271
REMARK UNBOUND:                -0.285
REMARK SMILES O=c1c(O)c(-c2ccc(O)c(O)c2)oc2cc(O)cc(O)c12
REMARK SMILES IDX 5 1 3 2 2 3 1 4 22 5 20 6 19 7 17 8 16 9 15 10 14 11 6 12
REMARK SMILES IDX 7 13 8 14 9 15 13 16 11 17 10 18 12 20 4 22 21 24 18 26
REMARK H PARENT 10 19 12 21 4 23 21 25 18 27
REMARK Flexibility Score: inf
ROOT
ATOM      1  C   UNL     1      -6.448  15.613   9.172  1.00  0.00     0.180 A 
ATOM      2  C   UNL     1      -5.803  14.618   8.415  1.00  0.00     0.208 A 
ATOM      3  C   UNL     1      -6.364  14.225   7.189  1.00  0.00     0.238 A 
ATOM      4  O   UNL     1      -5.812  13.297   6.542  1.00  0.00    -0.285 OA
ATOM      5  C   UNL     1      -7.551  14.843   6.727  1.00  0.00     0.111 A 
ATOM      6  C   UNL     1      -8.183  14.552   5.481  1.00  0.00     0.134 A 
ATOM      7  C   UNL     1      -9.426  15.128   5.185  1.00  0.00     0.093 A 
ATOM      8  C   UNL     1     -10.025  16.036   6.062  1.00  0.00     0.123 A 
ATOM      9  C   UNL     1      -9.386  16.372   7.253  1.00  0.00     0.094 A 
ATOM     10  C   UNL     1      -8.165  15.785   7.592  1.00  0.00     0.146 A 
ATOM     11  O   UNL     1      -7.595  16.125   8.742  1.00  0.00    -0.452 OA
ENDROOT
BRANCH   1  12
ATOM     12  C   UNL     1      -5.905  16.097  10.462  1.00  0.00     0.025 A 
ATOM     13  C   UNL     1      -4.775  16.930  10.513  1.00  0.00     0.016 A 
ATOM     14  C   UNL     1      -4.295  17.395  11.740  1.00  0.00     0.051 A 
ATOM     15  C   UNL     1      -4.944  17.046  12.932  1.00  0.00     0.157 A 
ATOM     16  C   UNL     1      -6.565  15.766  11.657  1.00  0.00     0.062 A 
ATOM     17  C   UNL     1      -6.087  16.230  12.888  1.00  0.00     0.158 A 
BRANCH  15  18
ATOM     18  O   UNL     1      -4.461  17.509  14.155  1.00  0.00    -0.504 OA
ATOM     19  H   UNL     1      -3.510  17.327  14.452  1.00  0.00     0.293 HD
ENDBRANCH  15  18
BRANCH  17  20
ATOM     20  O   UNL     1      -6.760  15.869  14.055  1.00  0.00    -0.504 OA
ATOM     21  H   UNL     1      -6.380  15.196  14.709  1.00  0.00     0.293 HD
ENDBRANCH  17  20
ENDBRANCH   1  12
BRANCH   2  22
ATOM     22  O   UNL     1      -4.644  14.007   8.900  1.00  0.00    -0.502 OA
ATOM     23  H   UNL     1      -4.644  13.416   9.722  1.00  0.00     0.293 HD
ENDBRANCH   2  22
BRANCH   6  24
ATOM     24  O   UNL     1      -7.626  13.731   4.495  1.00  0.00    -0.507 OA
ATOM     25  H   UNL     1      -8.152  13.261   3.775  1.00  0.00     0.293 HD
ENDBRANCH   6  24
BRANCH   8  26
ATOM     26  O   UNL     1     -11.253  16.617   5.753  1.00  0.00    -0.508 OA
ATOM     27  H   UNL     1     -11.794  16.318   4.950  1.00  0.00     0.293 HD
ENDBRANCH   8  26
TORSDOF 6
ENDMDL
MODEL 8
REMARK VINA RESULT:    -6.177      8.000      9.959
REMARK INTER + INTRA:          -7.726
REMARK INTER:                  -7.416
REMARK INTRA:                  -0.309
REMARK UNBOUND:                -0.285
REMARK SMILES O=c1c(O)c(-c2ccc(O)c(O)c2)oc2cc(O)cc(O)c12
REMARK SMILES IDX 5 1 3 2 2 3 1 4 22 5 20 6 19 7 17 8 16 9 15 10 14 11 6 12
REMARK SMILES IDX 7 13 8 14 9 15 13 16 11 17 10 18 12 20 4 22 21 24 18 26
REMARK H PARENT 10 19 12 21 4 23 21 25 18 27
REMARK Flexibility Score: inf
ROOT
ATOM      1  C   UNL     1     -13.364  15.079   6.760  1.00  0.00     0.180 A 
ATOM      2  C   UNL     1     -13.912  14.342   7.825  1.00  0.00     0.208 A 
ATOM      3  C   UNL     1     -15.173  13.747   7.663  1.00  0.00     0.238 A 
ATOM      4  O   UNL     1     -15.682  13.135   8.637  1.00  0.00    -0.285 OA
ATOM      5  C   UNL     1     -15.863  13.882   6.434  1.00  0.00     0.111 A 
ATOM      6  C   UNL     1     -17.128  13.288   6.145  1.00  0.00     0.134 A 
ATOM      7  C   UNL     1     -17.779  13.597   4.944  1.00  0.00     0.093 A 
ATOM      8  C   UNL     1     -17.179  14.425   3.992  1.00  0.00     0.123 A 
ATOM      9  C   UNL     1     -15.918  14.962   4.239  1.00  0.00     0.094 A 
ATOM     10  C   UNL     1     -15.260  14.702   5.445  1.00  0.00     0.146 A 
ATOM     11  O   UNL     1     -14.064  15.242   5.644  1.00  0.00    -0.452 OA
ENDROOT
BRANCH   1  12
ATOM     12  C   UNL     1     -12.029  15.714   6.847  1.00  0.00     0.025 A 
ATOM     13  C   UNL     1     -11.854  16.973   7.448  1.00  0.00     0.016 A 
ATOM     14  C   UNL     1     -10.582  17.542   7.541  1.00  0.00     0.051 A 
ATOM     15  C   UNL     1      -9.463  16.857   7.047  1.00  0.00     0.157 A 
ATOM     16  C   UNL     1     -10.902  15.022   6.373  1.00  0.00     0.062 A 
ATOM     17  C   UNL     1      -9.625  15.589   6.464  1.00  0.00     0.158 A 
BRANCH  15  18
ATOM     18  O   UNL     1      -8.195  17.428   7.139  1.00  0.00    -0.504 OA
ATOM     19  H   UNL     1      -8.055  18.348   7.540  1.00  0.00     0.293 HD
ENDBRANCH  15  18
BRANCH  17  20
ATOM     20  O   UNL     1      -8.533  14.878   5.969  1.00  0.00    -0.504 OA
ATOM     21  H   UNL     1      -7.589  15.043   6.299  1.00  0.00     0.293 HD
ENDBRANCH  17  20
ENDBRANCH   1  12
BRANCH   2  22
ATOM     22  O   UNL     1     -13.223  14.239   9.036  1.00  0.00    -0.502 OA
ATOM     23  H   UNL     1     -13.677  13.961   9.898  1.00  0.00     0.293 HD
ENDBRANCH   2  22
BRANCH   6  24
ATOM     24  O   UNL     1     -17.772  12.374   6.986  1.00  0.00    -0.507 OA
ATOM     25  H   UNL     1     -17.367  11.977   7.820  1.00  0.00     0.293 HD
ENDBRANCH   6  24
BRANCH   8  26
ATOM     26  O   UNL     1     -17.826  14.715   2.793  1.00  0.00    -0.508 OA
ATOM     27  H   UNL     1     -18.290  15.602   2.642  1.00  0.00     0.293 HD
ENDBRANCH   8  26
TORSDOF 6
ENDMDL
MODEL 9
REMARK VINA RESULT:    -6.176      8.151     11.246
REMARK INTER + INTRA:          -7.725
REMARK INTER:                  -7.412
REMARK INTRA:                  -0.313
REMARK UNBOUND:                -0.285
REMARK SMILES O=c1c(O)c(-c2ccc(O)c(O)c2)oc2cc(O)cc(O)c12
REMARK SMILES IDX 5 1 3 2 2 3 1 4 22 5 20 6 19 7 17 8 16 9 15 10 14 11 6 12
REMARK SMILES IDX 7 13 8 14 9 15 13 16 11 17 10 18 12 20 4 22 21 24 18 26
REMARK H PARENT 10 19 12 21 4 23 21 25 18 27
REMARK Flexibility Score: inf
ROOT
ATOM      1  C   UNL     1      -1.046  21.585  13.107  1.00  0.00     0.180 A 
ATOM      2  C   UNL     1       0.334  21.382  13.287  1.00  0.00     0.208 A 
ATOM      3  C   UNL     1       0.771  20.225  13.951  1.00  0.00     0.238 A 
ATOM      4  O   UNL     1       2.003  20.075  14.158  1.00  0.00    -0.285 OA
ATOM      5  C   UNL     1      -0.175  19.277  14.412  1.00  0.00     0.111 A 
ATOM      6  C   UNL     1       0.157  18.051  15.062  1.00  0.00     0.134 A 
ATOM      7  C   UNL     1      -0.864  17.252  15.593  1.00  0.00     0.093 A 
ATOM      8  C   UNL     1      -2.208  17.603  15.438  1.00  0.00     0.123 A 
ATOM      9  C   UNL     1      -2.543  18.768  14.753  1.00  0.00     0.094 A 
ATOM     10  C   UNL     1      -1.546  19.605  14.245  1.00  0.00     0.146 A 
ATOM     11  O   UNL     1      -1.910  20.711  13.608  1.00  0.00    -0.452 OA
ENDROOT
BRANCH   1  12
ATOM     12  C   UNL     1      -1.581  22.768  12.395  1.00  0.00     0.025 A 
ATOM     13  C   UNL     1      -1.611  22.826  10.990  1.00  0.00     0.016 A 
ATOM     14  C   UNL     1      -2.143  23.941  10.340  1.00  0.00     0.051 A 
ATOM     15  C   UNL     1      -2.665  25.010  11.081  1.00  0.00     0.157 A 
ATOM     16  C   UNL     1      -2.125  23.832  13.133  1.00  0.00     0.062 A 
ATOM     17  C   UNL     1      -2.659  24.952  12.485  1.00  0.00     0.158 A 
BRANCH  15  18
ATOM     18  O   UNL     1      -3.193  26.123  10.429  1.00  0.00    -0.504 OA
ATOM     19  H   UNL     1      -3.852  26.028   9.665  1.00  0.00     0.293 HD
ENDBRANCH  15  18
BRANCH  17  20
ATOM     20  O   UNL     1      -3.177  25.995  13.252  1.00  0.00    -0.504 OA
ATOM     21  H   UNL     1      -3.395  26.900  12.853  1.00  0.00     0.293 HD
ENDBRANCH  17  20
ENDBRANCH   1  12
BRANCH   2  22
ATOM     22  O   UNL     1       1.250  22.340  12.843  1.00  0.00    -0.502 OA
ATOM     23  H   UNL     1       0.964  23.185  12.364  1.00  0.00     0.293 HD
ENDBRANCH   2  22
BRANCH   6  24
ATOM     24  O   UNL     1       1.461  17.562  15.188  1.00  0.00    -0.507 OA
ATOM     25  H   UNL     1       1.764  16.911  15.896  1.00  0.00     0.293 HD
ENDBRANCH   6  24
BRANCH   8  26
ATOM     26  O   UNL     1      -3.218  16.795  15.956  1.00  0.00    -0.508 OA
ATOM     27  H   UNL     1      -3.440  15.896  15.544  1.00  0.00     0.293 HD
ENDBRANCH   8  26
TORSDOF 6
ENDMDL
