MODEL 1
REMARK VINA RESULT:    -3.629      0.000      0.000
REMARK INTER + INTRA:          -7.248
REMARK INTER:                  -5.432
REMARK INTRA:                  -1.816
REMARK UNBOUND:                -1.816
REMARK SMILES COC(=O)C1=CO[C@H](O[C@H]2O[C@@H](CO)[C@H](O)[C@H](O)[C@@H]2O)[C@@H]2C(CO)=CC[C@@H]12
REMARK SMILES IDX 9 1 8 2 5 3 6 4 27 5 7 6 21 7 26 8 22 9 25 10 3 11 4 12 2 13
REMARK SMILES IDX 1 14 23 15 24 16 10 18 19 19 11 20 17 21 12 22 15 23 20 24
REMARK SMILES IDX 18 26 13 28 14 29 16 31
REMARK H PARENT 24 17 20 25 18 27 14 30 16 32
REMARK Flexibility Score: inf
ROOT
ATOM      1  O   UNL     1      26.344  33.066  40.536  1.00  0.00    -0.310 OA
ENDROOT
BRANCH   1   2
ATOM      2  C   UNL     1      25.575  33.716  41.541  1.00  0.00     0.316 C 
ATOM      3  C   UNL     1      26.587  36.343  42.346  1.00  0.00     0.076 C 
ATOM      4  C   UNL     1      26.715  35.288  43.172  1.00  0.00     0.202 C 
ATOM      5  C   UNL     1      26.168  36.046  40.936  1.00  0.00     0.047 C 
ATOM      6  O   UNL     1      26.335  33.992  42.751  1.00  0.00    -0.471 OA
ATOM      7  C   UNL     1      25.029  35.046  40.984  1.00  0.00     0.094 C 
ATOM      8  C   UNL     1      25.619  37.151  40.035  1.00  0.00     0.037 C 
ATOM      9  C   UNL     1      24.484  35.147  39.599  1.00  0.00    -0.039 C 
ATOM     10  C   UNL     1      24.750  36.356  39.101  1.00  0.00    -0.024 C 
BRANCH   3  11
ATOM     11  C   UNL     1      26.863  37.717  42.815  1.00  0.00     0.337 C 
ATOM     12  O   UNL     1      27.985  38.230  42.561  1.00  0.00    -0.246 OA
BRANCH  11  13
ATOM     13  O   UNL     1      25.931  38.468  43.546  1.00  0.00    -0.466 OA
ATOM     14  C   UNL     1      24.520  38.329  43.415  1.00  0.00     0.282 C 
ENDBRANCH  11  13
ENDBRANCH   3  11
BRANCH   9  15
ATOM     15  C   UNL     1      23.677  34.095  38.877  1.00  0.00     0.187 C 
BRANCH  15  16
ATOM     16  O   UNL     1      24.528  33.165  38.252  1.00  0.00    -0.392 OA
ATOM     17  H   UNL     1      24.735  33.523  37.347  1.00  0.00     0.211 HD
ENDBRANCH  15  16
ENDBRANCH   9  15
ENDBRANCH   1   2
BRANCH   1  18
ATOM     18  C   UNL     1      27.319  32.175  41.059  1.00  0.00     0.286 C 
ATOM     19  C   UNL     1      28.344  31.815  39.941  1.00  0.00     0.202 C 
ATOM     20  O   UNL     1      26.720  31.036  41.680  1.00  0.00    -0.341 OA
ATOM     21  C   UNL     1      28.046  30.472  39.247  1.00  0.00     0.179 C 
ATOM     22  C   UNL     1      26.148  30.063  40.806  1.00  0.00     0.178 C 
ATOM     23  C   UNL     1      26.542  30.195  39.318  1.00  0.00     0.177 C 
BRANCH  19  24
ATOM     24  O   UNL     1      29.651  31.820  40.461  1.00  0.00    -0.385 OA
ATOM     25  H   UNL     1      30.104  32.623  40.091  1.00  0.00     0.211 HD
ENDBRANCH  19  24
BRANCH  21  26
ATOM     26  O   UNL     1      28.775  29.435  39.864  1.00  0.00    -0.387 OA
ATOM     27  H   UNL     1      29.531  29.853  40.354  1.00  0.00     0.211 HD
ENDBRANCH  21  26
BRANCH  22  28
ATOM     28  C   UNL     1      24.623  30.016  40.999  1.00  0.00     0.191 C 
BRANCH  28  29
ATOM     29  O   UNL     1      23.991  30.918  40.125  1.00  0.00    -0.394 OA
ATOM     30  H   UNL     1      23.062  30.583  39.985  1.00  0.00     0.210 HD
ENDBRANCH  28  29
ENDBRANCH  22  28
BRANCH  23  31
ATOM     31  O   UNL     1      26.251  29.002  38.632  1.00  0.00    -0.387 OA
ATOM     32  H   UNL     1      26.155  28.283  39.311  1.00  0.00     0.211 HD
ENDBRANCH  23  31
ENDBRANCH   1  18
TORSDOF 11
ENDMDL
MODEL 2
REMARK VINA RESULT:    -3.618      4.739      7.453
REMARK INTER + INTRA:          -7.231
REMARK INTER:                  -5.267
REMARK INTRA:                  -1.965
REMARK UNBOUND:                -1.816
REMARK SMILES COC(=O)C1=CO[C@H](O[C@H]2O[C@@H](CO)[C@H](O)[C@H](O)[C@@H]2O)[C@@H]2C(CO)=CC[C@@H]12
REMARK SMILES IDX 9 1 8 2 5 3 6 4 27 5 7 6 21 7 26 8 22 9 25 10 3 11 4 12 2 13
REMARK SMILES IDX 1 14 23 15 24 16 10 18 19 19 11 20 17 21 12 22 15 23 20 24
REMARK SMILES IDX 18 26 13 28 14 29 16 31
REMARK H PARENT 24 17 20 25 18 27 14 30 16 32
REMARK Flexibility Score: inf
ROOT
ATOM      1  O   UNL     1      20.527  34.003  40.629  1.00  0.00    -0.310 OA
ENDROOT
BRANCH   1   2
ATOM      2  C   UNL     1      21.640  33.188  40.278  1.00  0.00     0.316 C 
ATOM      3  C   UNL     1      24.189  34.617  40.088  1.00  0.00     0.076 C 
ATOM      4  C   UNL     1      23.568  34.193  38.971  1.00  0.00     0.202 C 
ATOM      5  C   UNL     1      23.395  34.565  41.361  1.00  0.00     0.047 C 
ATOM      6  O   UNL     1      22.284  33.604  39.040  1.00  0.00    -0.471 OA
ATOM      7  C   UNL     1      22.680  33.228  41.415  1.00  0.00     0.094 C 
ATOM      8  C   UNL     1      24.090  34.640  42.719  1.00  0.00     0.037 C 
ATOM      9  C   UNL     1      22.272  33.167  42.849  1.00  0.00    -0.039 C 
ATOM     10  C   UNL     1      23.112  33.898  43.585  1.00  0.00    -0.024 C 
BRANCH   3  11
ATOM     11  C   UNL     1      25.578  35.119  40.044  1.00  0.00     0.337 C 
ATOM     12  O   UNL     1      26.512  34.300  39.834  1.00  0.00    -0.246 OA
BRANCH  11  13
ATOM     13  O   UNL     1      25.901  36.469  40.241  1.00  0.00    -0.466 OA
ATOM     14  C   UNL     1      25.079  37.553  39.820  1.00  0.00     0.282 C 
ENDBRANCH  11  13
ENDBRANCH   3  11
BRANCH   9  15
ATOM     15  C   UNL     1      21.143  32.346  43.422  1.00  0.00     0.187 C 
BRANCH  15  16
ATOM     16  O   UNL     1      19.989  33.136  43.578  1.00  0.00    -0.392 OA
ATOM     17  H   UNL     1      19.208  32.555  43.366  1.00  0.00     0.211 HD
ENDBRANCH  15  16
ENDBRANCH   9  15
ENDBRANCH   1   2
BRANCH   1  18
ATOM     18  C   UNL     1      19.276  33.432  40.274  1.00  0.00     0.286 C 
ATOM     19  C   UNL     1      18.942  33.796  38.795  1.00  0.00     0.202 C 
ATOM     20  O   UNL     1      18.248  33.784  41.201  1.00  0.00    -0.341 OA
ATOM     21  C   UNL     1      17.995  35.004  38.663  1.00  0.00     0.179 C 
ATOM     22  C   UNL     1      17.770  35.129  41.140  1.00  0.00     0.178 C 
ATOM     23  C   UNL     1      18.178  35.920  39.875  1.00  0.00     0.177 C 
BRANCH  19  24
ATOM     24  O   UNL     1      18.410  32.678  38.129  1.00  0.00    -0.385 OA
ATOM     25  H   UNL     1      18.971  31.898  38.382  1.00  0.00     0.211 HD
ENDBRANCH  19  24
BRANCH  21  26
ATOM     26  O   UNL     1      16.659  34.565  38.564  1.00  0.00    -0.387 OA
ATOM     27  H   UNL     1      16.078  35.301  38.891  1.00  0.00     0.211 HD
ENDBRANCH  21  26
BRANCH  22  28
ATOM     28  C   UNL     1      18.137  35.876  42.432  1.00  0.00     0.191 C 
BRANCH  28  29
ATOM     29  O   UNL     1      19.531  35.886  42.615  1.00  0.00    -0.394 OA
ATOM     30  H   UNL     1      19.774  36.798  42.937  1.00  0.00     0.210 HD
ENDBRANCH  28  29
ENDBRANCH  22  28
BRANCH  23  31
ATOM     31  O   UNL     1      17.363  37.057  39.733  1.00  0.00    -0.387 OA
ATOM     32  H   UNL     1      17.963  37.843  39.631  1.00  0.00     0.211 HD
ENDBRANCH  23  31
ENDBRANCH   1  18
TORSDOF 11
ENDMDL
MODEL 3
REMARK VINA RESULT:    -3.538      1.346      2.654
REMARK INTER + INTRA:          -7.111
REMARK INTER:                  -5.872
REMARK INTRA:                  -1.239
REMARK UNBOUND:                -1.816
REMARK SMILES COC(=O)C1=CO[C@H](O[C@H]2O[C@@H](CO)[C@H](O)[C@H](O)[C@@H]2O)[C@@H]2C(CO)=CC[C@@H]12
REMARK SMILES IDX 9 1 8 2 5 3 6 4 27 5 7 6 21 7 26 8 22 9 25 10 3 11 4 12 2 13
REMARK SMILES IDX 1 14 23 15 24 16 10 18 19 19 11 20 17 21 12 22 15 23 20 24
REMARK SMILES IDX 18 26 13 28 14 29 16 31
REMARK H PARENT 24 17 20 25 18 27 14 30 16 32
REMARK Flexibility Score: inf
ROOT
ATOM      1  O   UNL     1      26.800  33.189  39.544  1.00  0.00    -0.310 OA
ENDROOT
BRANCH   1   2
ATOM      2  C   UNL     1      25.939  33.406  40.656  1.00  0.00     0.316 C 
ATOM      3  C   UNL     1      26.516  35.831  42.193  1.00  0.00     0.076 C 
ATOM      4  C   UNL     1      26.815  34.621  42.703  1.00  0.00     0.202 C 
ATOM      5  C   UNL     1      26.146  35.875  40.740  1.00  0.00     0.047 C 
ATOM      6  O   UNL     1      26.648  33.450  41.927  1.00  0.00    -0.471 OA
ATOM      7  C   UNL     1      25.184  34.736  40.464  1.00  0.00     0.094 C 
ATOM      8  C   UNL     1      25.424  37.087  40.155  1.00  0.00     0.037 C 
ATOM      9  C   UNL     1      24.626  35.132  39.138  1.00  0.00    -0.039 C 
ATOM     10  C   UNL     1      24.692  36.458  39.002  1.00  0.00    -0.024 C 
BRANCH   3  11
ATOM     11  C   UNL     1      26.568  37.045  43.033  1.00  0.00     0.337 C 
ATOM     12  O   UNL     1      27.550  37.825  42.911  1.00  0.00    -0.246 OA
BRANCH  11  13
ATOM     13  O   UNL     1      25.575  37.359  43.972  1.00  0.00    -0.466 OA
ATOM     14  C   UNL     1      24.191  37.470  43.658  1.00  0.00     0.282 C 
ENDBRANCH  11  13
ENDBRANCH   3  11
BRANCH   9  15
ATOM     15  C   UNL     1      23.997  34.210  38.121  1.00  0.00     0.187 C 
BRANCH  15  16
ATOM     16  O   UNL     1      22.594  34.251  38.219  1.00  0.00    -0.392 OA
ATOM     17  H   UNL     1      22.374  34.393  39.180  1.00  0.00     0.211 HD
ENDBRANCH  15  16
ENDBRANCH   9  15
ENDBRANCH   1   2
BRANCH   1  18
ATOM     18  C   UNL     1      26.577  31.946  38.892  1.00  0.00     0.286 C 
ATOM     19  C   UNL     1      26.403  30.824  39.961  1.00  0.00     0.202 C 
ATOM     20  O   UNL     1      27.586  31.666  37.921  1.00  0.00    -0.341 OA
ATOM     21  C   UNL     1      27.692  30.021  40.219  1.00  0.00     0.179 C 
ATOM     22  C   UNL     1      28.867  31.290  38.427  1.00  0.00     0.178 C 
ATOM     23  C   UNL     1      28.903  30.909  39.925  1.00  0.00     0.177 C 
BRANCH  19  24
ATOM     24  O   UNL     1      25.352  29.965  39.596  1.00  0.00    -0.385 OA
ATOM     25  H   UNL     1      25.478  29.122  40.106  1.00  0.00     0.211 HD
ENDBRANCH  19  24
BRANCH  21  26
ATOM     26  O   UNL     1      27.712  28.865  39.413  1.00  0.00    -0.387 OA
ATOM     27  H   UNL     1      28.514  28.337  39.667  1.00  0.00     0.211 HD
ENDBRANCH  21  26
BRANCH  22  28
ATOM     28  C   UNL     1      29.906  32.368  38.079  1.00  0.00     0.191 C 
BRANCH  28  29
ATOM     29  O   UNL     1      30.078  33.251  39.159  1.00  0.00    -0.394 OA
ATOM     30  H   UNL     1      31.058  33.297  39.342  1.00  0.00     0.210 HD
ENDBRANCH  28  29
ENDBRANCH  22  28
BRANCH  23  31
ATOM     31  O   UNL     1      30.085  30.205  40.217  1.00  0.00    -0.387 OA
ATOM     32  H   UNL     1      30.306  30.375  41.171  1.00  0.00     0.211 HD
ENDBRANCH  23  31
ENDBRANCH   1  18
TORSDOF 11
ENDMDL
MODEL 4
REMARK VINA RESULT:    -3.534      3.264      8.161
REMARK INTER + INTRA:          -7.106
REMARK INTER:                  -5.255
REMARK INTRA:                  -1.851
REMARK UNBOUND:                -1.816
REMARK SMILES COC(=O)C1=CO[C@H](O[C@H]2O[C@@H](CO)[C@H](O)[C@H](O)[C@@H]2O)[C@@H]2C(CO)=CC[C@@H]12
REMARK SMILES IDX 9 1 8 2 5 3 6 4 27 5 7 6 21 7 26 8 22 9 25 10 3 11 4 12 2 13
REMARK SMILES IDX 1 14 23 15 24 16 10 18 19 19 11 20 17 21 12 22 15 23 20 24
REMARK SMILES IDX 18 26 13 28 14 29 16 31
REMARK H PARENT 24 17 20 25 18 27 14 30 16 32
REMARK Flexibility Score: inf
ROOT
ATOM      1  O   UNL     1      25.344  29.776  40.386  1.00  0.00    -0.310 OA
ENDROOT
BRANCH   1   2
ATOM      2  C   UNL     1      24.875  28.664  41.140  1.00  0.00     0.316 C 
ATOM      3  C   UNL     1      22.800  27.077  39.816  1.00  0.00     0.076 C 
ATOM      4  C   UNL     1      22.482  27.874  40.854  1.00  0.00     0.202 C 
ATOM      5  C   UNL     1      24.167  27.258  39.225  1.00  0.00     0.047 C 
ATOM      6  O   UNL     1      23.450  28.730  41.429  1.00  0.00    -0.471 OA
ATOM      7  C   UNL     1      25.163  27.364  40.363  1.00  0.00     0.094 C 
ATOM      8  C   UNL     1      24.779  26.182  38.330  1.00  0.00     0.037 C 
ATOM      9  C   UNL     1      26.456  27.151  39.650  1.00  0.00    -0.039 C 
ATOM     10  C   UNL     1      26.247  26.423  38.552  1.00  0.00    -0.024 C 
BRANCH   3  11
ATOM     11  C   UNL     1      21.836  26.090  39.289  1.00  0.00     0.337 C 
ATOM     12  O   UNL     1      21.183  26.375  38.250  1.00  0.00    -0.246 OA
BRANCH  11  13
ATOM     13  O   UNL     1      21.605  24.852  39.908  1.00  0.00    -0.466 OA
ATOM     14  C   UNL     1      21.828  23.595  39.277  1.00  0.00     0.282 C 
ENDBRANCH  11  13
ENDBRANCH   3  11
BRANCH   9  15
ATOM     15  C   UNL     1      27.819  27.603  40.116  1.00  0.00     0.187 C 
BRANCH  15  16
ATOM     16  O   UNL     1      28.235  28.738  39.396  1.00  0.00    -0.392 OA
ATOM     17  H   UNL     1      27.486  29.393  39.429  1.00  0.00     0.211 HD
ENDBRANCH  15  16
ENDBRANCH   9  15
ENDBRANCH   1   2
BRANCH   1  18
ATOM     18  C   UNL     1      26.018  30.748  41.173  1.00  0.00     0.286 C 
ATOM     19  C   UNL     1      24.986  31.787  41.708  1.00  0.00     0.202 C 
ATOM     20  O   UNL     1      27.115  31.334  40.470  1.00  0.00    -0.341 OA
ATOM     21  C   UNL     1      24.921  33.074  40.864  1.00  0.00     0.179 C 
ATOM     22  C   UNL     1      26.784  32.254  39.430  1.00  0.00     0.178 C 
ATOM     23  C   UNL     1      25.319  32.749  39.423  1.00  0.00     0.177 C 
BRANCH  19  24
ATOM     24  O   UNL     1      25.259  32.093  43.054  1.00  0.00    -0.385 OA
ATOM     25  H   UNL     1      25.444  31.232  43.513  1.00  0.00     0.211 HD
ENDBRANCH  19  24
BRANCH  21  26
ATOM     26  O   UNL     1      25.773  34.055  41.410  1.00  0.00    -0.387 OA
ATOM     27  H   UNL     1      26.637  33.614  41.623  1.00  0.00     0.211 HD
ENDBRANCH  21  26
BRANCH  22  28
ATOM     28  C   UNL     1      27.207  31.681  38.068  1.00  0.00     0.191 C 
BRANCH  28  29
ATOM     29  O   UNL     1      26.644  30.407  37.875  1.00  0.00    -0.394 OA
ATOM     30  H   UNL     1      26.440  30.325  36.902  1.00  0.00     0.210 HD
ENDBRANCH  28  29
ENDBRANCH  22  28
BRANCH  23  31
ATOM     31  O   UNL     1      25.202  33.904  38.631  1.00  0.00    -0.387 OA
ATOM     32  H   UNL     1      24.870  34.636  39.216  1.00  0.00     0.211 HD
ENDBRANCH  23  31
ENDBRANCH   1  18
TORSDOF 11
ENDMDL
MODEL 5
REMARK VINA RESULT:    -3.493      4.476      8.274
REMARK INTER + INTRA:          -7.044
REMARK INTER:                  -5.227
REMARK INTRA:                  -1.818
REMARK UNBOUND:                -1.816
REMARK SMILES COC(=O)C1=CO[C@H](O[C@H]2O[C@@H](CO)[C@H](O)[C@H](O)[C@@H]2O)[C@@H]2C(CO)=CC[C@@H]12
REMARK SMILES IDX 9 1 8 2 5 3 6 4 27 5 7 6 21 7 26 8 22 9 25 10 3 11 4 12 2 13
REMARK SMILES IDX 1 14 23 15 24 16 10 18 19 19 11 20 17 21 12 22 15 23 20 24
REMARK SMILES IDX 18 26 13 28 14 29 16 31
REMARK H PARENT 24 17 20 25 18 27 14 30 16 32
REMARK Flexibility Score: inf
ROOT
ATOM      1  O   UNL     1      26.956  29.058  39.483  1.00  0.00    -0.310 OA
ENDROOT
BRANCH   1   2
ATOM      2  C   UNL     1      26.244  28.256  40.417  1.00  0.00     0.316 C 
ATOM      3  C   UNL     1      23.792  27.045  39.370  1.00  0.00     0.076 C 
ATOM      4  C   UNL     1      23.720  28.068  40.243  1.00  0.00     0.202 C 
ATOM      5  C   UNL     1      25.140  26.762  38.775  1.00  0.00     0.047 C 
ATOM      6  O   UNL     1      24.893  28.735  40.669  1.00  0.00    -0.471 OA
ATOM      7  C   UNL     1      26.166  26.809  39.890  1.00  0.00     0.094 C 
ATOM      8  C   UNL     1      25.428  25.424  38.096  1.00  0.00     0.037 C 
ATOM      9  C   UNL     1      27.338  26.148  39.245  1.00  0.00    -0.039 C 
ATOM     10  C   UNL     1      26.915  25.316  38.292  1.00  0.00    -0.024 C 
BRANCH   3  11
ATOM     11  C   UNL     1      22.591  26.262  39.014  1.00  0.00     0.337 C 
ATOM     12  O   UNL     1      21.819  26.705  38.122  1.00  0.00    -0.246 OA
BRANCH  11  13
ATOM     13  O   UNL     1      22.265  25.050  39.641  1.00  0.00    -0.466 OA
ATOM     14  C   UNL     1      22.993  24.500  40.734  1.00  0.00     0.282 C 
ENDBRANCH  11  13
ENDBRANCH   3  11
BRANCH   9  15
ATOM     15  C   UNL     1      28.785  26.311  39.642  1.00  0.00     0.187 C 
BRANCH  15  16
ATOM     16  O   UNL     1      29.363  27.400  38.964  1.00  0.00    -0.392 OA
ATOM     17  H   UNL     1      29.424  28.149  39.617  1.00  0.00     0.211 HD
ENDBRANCH  15  16
ENDBRANCH   9  15
ENDBRANCH   1   2
BRANCH   1  18
ATOM     18  C   UNL     1      26.758  30.452  39.671  1.00  0.00     0.286 C 
ATOM     19  C   UNL     1      27.013  31.198  38.325  1.00  0.00     0.202 C 
ATOM     20  O   UNL     1      27.528  30.956  40.764  1.00  0.00    -0.341 OA
ATOM     21  C   UNL     1      28.427  31.801  38.220  1.00  0.00     0.179 C 
ATOM     22  C   UNL     1      28.934  31.079  40.548  1.00  0.00     0.178 C 
ATOM     23  C   UNL     1      29.390  30.975  39.075  1.00  0.00     0.177 C 
BRANCH  19  24
ATOM     24  O   UNL     1      26.037  32.191  38.129  1.00  0.00    -0.385 OA
ATOM     25  H   UNL     1      26.482  33.066  38.284  1.00  0.00     0.211 HD
ENDBRANCH  19  24
BRANCH  21  26
ATOM     26  O   UNL     1      28.412  33.147  38.641  1.00  0.00    -0.387 OA
ATOM     27  H   UNL     1      27.609  33.272  39.212  1.00  0.00     0.211 HD
ENDBRANCH  21  26
BRANCH  22  28
ATOM     28  C   UNL     1      29.692  30.099  41.459  1.00  0.00     0.191 C 
BRANCH  28  29
ATOM     29  O   UNL     1      30.544  29.280  40.698  1.00  0.00    -0.394 OA
ATOM     30  H   UNL     1      30.632  28.417  41.190  1.00  0.00     0.210 HD
ENDBRANCH  28  29
ENDBRANCH  22  28
BRANCH  23  31
ATOM     31  O   UNL     1      30.695  31.480  38.936  1.00  0.00    -0.387 OA
ATOM     32  H   UNL     1      31.152  30.938  38.240  1.00  0.00     0.211 HD
ENDBRANCH  23  31
ENDBRANCH   1  18
TORSDOF 11
ENDMDL
MODEL 6
REMARK VINA RESULT:    -3.438      2.840      5.154
REMARK INTER + INTRA:          -6.962
REMARK INTER:                  -5.044
REMARK INTRA:                  -1.918
REMARK UNBOUND:                -1.816
REMARK SMILES COC(=O)C1=CO[C@H](O[C@H]2O[C@@H](CO)[C@H](O)[C@H](O)[C@@H]2O)[C@@H]2C(CO)=CC[C@@H]12
REMARK SMILES IDX 9 1 8 2 5 3 6 4 27 5 7 6 21 7 26 8 22 9 25 10 3 11 4 12 2 13
REMARK SMILES IDX 1 14 23 15 24 16 10 18 19 19 11 20 17 21 12 22 15 23 20 24
REMARK SMILES IDX 18 26 13 28 14 29 16 31
REMARK H PARENT 24 17 20 25 18 27 14 30 16 32
REMARK Flexibility Score: inf
ROOT
ATOM      1  O   UNL     1      25.309  29.024  40.387  1.00  0.00    -0.310 OA
ENDROOT
BRANCH   1   2
ATOM      2  C   UNL     1      26.432  29.890  40.497  1.00  0.00     0.316 C 
ATOM      3  C   UNL     1      25.915  32.667  39.727  1.00  0.00     0.076 C 
ATOM      4  C   UNL     1      26.648  31.870  38.927  1.00  0.00     0.202 C 
ATOM      5  C   UNL     1      25.175  31.998  40.847  1.00  0.00     0.047 C 
ATOM      6  O   UNL     1      26.810  30.498  39.230  1.00  0.00    -0.471 OA
ATOM      7  C   UNL     1      26.116  31.009  41.509  1.00  0.00     0.094 C 
ATOM      8  C   UNL     1      24.642  32.810  42.026  1.00  0.00     0.037 C 
ATOM      9  C   UNL     1      25.400  30.727  42.787  1.00  0.00    -0.039 C 
ATOM     10  C   UNL     1      24.635  31.770  43.112  1.00  0.00    -0.024 C 
BRANCH   3  11
ATOM     11  C   UNL     1      25.841  34.123  39.490  1.00  0.00     0.337 C 
ATOM     12  O   UNL     1      26.570  34.887  40.176  1.00  0.00    -0.246 OA
BRANCH  11  13
ATOM     13  O   UNL     1      24.979  34.693  38.541  1.00  0.00    -0.466 OA
ATOM     14  C   UNL     1      23.633  34.275  38.338  1.00  0.00     0.282 C 
ENDBRANCH  11  13
ENDBRANCH   3  11
BRANCH   9  15
ATOM     15  C   UNL     1      25.561  29.497  43.648  1.00  0.00     0.187 C 
BRANCH  15  16
ATOM     16  O   UNL     1      24.532  28.574  43.386  1.00  0.00    -0.392 OA
ATOM     17  H   UNL     1      24.903  27.896  42.758  1.00  0.00     0.211 HD
ENDBRANCH  15  16
ENDBRANCH   9  15
ENDBRANCH   1   2
BRANCH   1  18
ATOM     18  C   UNL     1      25.662  27.651  40.295  1.00  0.00     0.286 C 
ATOM     19  C   UNL     1      25.892  27.274  38.800  1.00  0.00     0.202 C 
ATOM     20  O   UNL     1      24.716  26.813  40.962  1.00  0.00    -0.341 OA
ATOM     21  C   UNL     1      24.669  26.608  38.142  1.00  0.00     0.179 C 
ATOM     22  C   UNL     1      23.455  26.639  40.316  1.00  0.00     0.178 C 
ATOM     23  C   UNL     1      23.397  27.096  38.840  1.00  0.00     0.177 C 
BRANCH  19  24
ATOM     24  O   UNL     1      27.027  26.451  38.676  1.00  0.00    -0.385 OA
ATOM     25  H   UNL     1      27.351  26.269  39.597  1.00  0.00     0.211 HD
ENDBRANCH  19  24
BRANCH  21  26
ATOM     26  O   UNL     1      24.778  25.205  38.223  1.00  0.00    -0.387 OA
ATOM     27  H   UNL     1      25.457  24.999  38.918  1.00  0.00     0.211 HD
ENDBRANCH  21  26
BRANCH  22  28
ATOM     28  C   UNL     1      22.340  27.275  41.162  1.00  0.00     0.191 C 
BRANCH  28  29
ATOM     29  O   UNL     1      22.511  28.669  41.231  1.00  0.00    -0.394 OA
ATOM     30  H   UNL     1      22.880  28.960  40.352  1.00  0.00     0.210 HD
ENDBRANCH  28  29
ENDBRANCH  22  28
BRANCH  23  31
ATOM     31  O   UNL     1      22.271  26.542  38.206  1.00  0.00    -0.387 OA
ATOM     32  H   UNL     1      21.472  26.794  38.741  1.00  0.00     0.211 HD
ENDBRANCH  23  31
ENDBRANCH   1  18
TORSDOF 11
ENDMDL
MODEL 7
REMARK VINA RESULT:    -3.378      3.243      7.507
REMARK INTER + INTRA:          -6.873
REMARK INTER:                  -5.029
REMARK INTRA:                  -1.844
REMARK UNBOUND:                -1.816
REMARK SMILES COC(=O)C1=CO[C@H](O[C@H]2O[C@@H](CO)[C@H](O)[C@H](O)[C@@H]2O)[C@@H]2C(CO)=CC[C@@H]12
REMARK SMILES IDX 9 1 8 2 5 3 6 4 27 5 7 6 21 7 26 8 22 9 25 10 3 11 4 12 2 13
REMARK SMILES IDX 1 14 23 15 24 16 10 18 19 19 11 20 17 21 12 22 15 23 20 24
REMARK SMILES IDX 18 26 13 28 14 29 16 31
REMARK H PARENT 24 17 20 25 18 27 14 30 16 32
REMARK Flexibility Score: inf
ROOT
ATOM      1  O   UNL     1      24.576  30.010  40.395  1.00  0.00    -0.310 OA
ENDROOT
BRANCH   1   2
ATOM      2  C   UNL     1      24.586  28.934  41.327  1.00  0.00     0.316 C 
ATOM      3  C   UNL     1      21.946  27.828  41.944  1.00  0.00     0.076 C 
ATOM      4  C   UNL     1      22.593  28.579  42.855  1.00  0.00     0.202 C 
ATOM      5  C   UNL     1      22.507  27.826  40.553  1.00  0.00     0.047 C 
ATOM      6  O   UNL     1      23.815  29.213  42.529  1.00  0.00    -0.471 OA
ATOM      7  C   UNL     1      24.013  27.672  40.652  1.00  0.00     0.094 C 
ATOM      8  C   UNL     1      22.114  26.739  39.553  1.00  0.00     0.037 C 
ATOM      9  C   UNL     1      24.368  27.305  39.250  1.00  0.00    -0.039 C 
ATOM     10  C   UNL     1      23.326  26.714  38.664  1.00  0.00    -0.024 C 
BRANCH   3  11
ATOM     11  C   UNL     1      20.737  27.062  42.309  1.00  0.00     0.337 C 
ATOM     12  O   UNL     1      20.861  26.048  43.048  1.00  0.00    -0.246 OA
BRANCH  11  13
ATOM     13  O   UNL     1      19.456  27.408  41.855  1.00  0.00    -0.466 OA
ATOM     14  C   UNL     1      19.015  28.749  41.668  1.00  0.00     0.282 C 
ENDBRANCH  11  13
ENDBRANCH   3  11
BRANCH   9  15
ATOM     15  C   UNL     1      25.716  27.484  38.594  1.00  0.00     0.187 C 
BRANCH  15  16
ATOM     16  O   UNL     1      25.829  28.775  38.045  1.00  0.00    -0.392 OA
ATOM     17  H   UNL     1      26.170  29.369  38.767  1.00  0.00     0.211 HD
ENDBRANCH  15  16
ENDBRANCH   9  15
ENDBRANCH   1   2
BRANCH   1  18
ATOM     18  C   UNL     1      24.685  31.287  41.008  1.00  0.00     0.286 C 
ATOM     19  C   UNL     1      24.092  32.370  40.055  1.00  0.00     0.202 C 
ATOM     20  O   UNL     1      26.021  31.561  41.432  1.00  0.00    -0.341 OA
ATOM     21  C   UNL     1      25.162  33.103  39.223  1.00  0.00     0.179 C 
ATOM     22  C   UNL     1      26.966  31.858  40.403  1.00  0.00     0.178 C 
ATOM     23  C   UNL     1      26.360  32.174  39.017  1.00  0.00     0.177 C 
BRANCH  19  24
ATOM     24  O   UNL     1      23.322  33.291  40.788  1.00  0.00    -0.385 OA
ATOM     25  H   UNL     1      23.914  34.062  40.994  1.00  0.00     0.211 HD
ENDBRANCH  19  24
BRANCH  21  26
ATOM     26  O   UNL     1      25.554  34.290  39.874  1.00  0.00    -0.387 OA
ATOM     27  H   UNL     1      24.824  34.543  40.498  1.00  0.00     0.211 HD
ENDBRANCH  21  26
BRANCH  22  28
ATOM     28  C   UNL     1      28.029  30.749  40.331  1.00  0.00     0.191 C 
BRANCH  28  29
ATOM     29  O   UNL     1      28.082  30.204  39.037  1.00  0.00    -0.394 OA
ATOM     30  H   UNL     1      29.045  30.052  38.825  1.00  0.00     0.210 HD
ENDBRANCH  28  29
ENDBRANCH  22  28
BRANCH  23  31
ATOM     31  O   UNL     1      27.315  32.811  38.205  1.00  0.00    -0.387 OA
ATOM     32  H   UNL     1      26.927  33.678  37.912  1.00  0.00     0.211 HD
ENDBRANCH  23  31
ENDBRANCH   1  18
TORSDOF 11
ENDMDL
MODEL 8
REMARK VINA RESULT:    -3.351      2.039      3.751
REMARK INTER + INTRA:          -6.831
REMARK INTER:                  -5.057
REMARK INTRA:                  -1.774
REMARK UNBOUND:                -1.816
REMARK SMILES COC(=O)C1=CO[C@H](O[C@H]2O[C@@H](CO)[C@H](O)[C@H](O)[C@@H]2O)[C@@H]2C(CO)=CC[C@@H]12
REMARK SMILES IDX 9 1 8 2 5 3 6 4 27 5 7 6 21 7 26 8 22 9 25 10 3 11 4 12 2 13
REMARK SMILES IDX 1 14 23 15 24 16 10 18 19 19 11 20 17 21 12 22 15 23 20 24
REMARK SMILES IDX 18 26 13 28 14 29 16 31
REMARK H PARENT 24 17 20 25 18 27 14 30 16 32
REMARK Flexibility Score: inf
ROOT
ATOM      1  O   UNL     1      25.738  31.358  39.711  1.00  0.00    -0.310 OA
ENDROOT
BRANCH   1   2
ATOM      2  C   UNL     1      25.529  32.528  38.929  1.00  0.00     0.316 C 
ATOM      3  C   UNL     1      25.722  35.042  40.418  1.00  0.00     0.076 C 
ATOM      4  C   UNL     1      24.521  34.592  40.005  1.00  0.00     0.202 C 
ATOM      5  C   UNL     1      26.870  34.082  40.320  1.00  0.00     0.047 C 
ATOM      6  O   UNL     1      24.401  33.326  39.387  1.00  0.00    -0.471 OA
ATOM      7  C   UNL     1      26.800  33.400  38.967  1.00  0.00     0.094 C 
ATOM      8  C   UNL     1      28.313  34.581  40.381  1.00  0.00     0.037 C 
ATOM      9  C   UNL     1      28.162  32.799  38.865  1.00  0.00    -0.039 C 
ATOM     10  C   UNL     1      29.021  33.510  39.597  1.00  0.00    -0.024 C 
BRANCH   3  11
ATOM     11  C   UNL     1      25.880  36.411  40.951  1.00  0.00     0.337 C 
ATOM     12  O   UNL     1      26.004  36.567  42.195  1.00  0.00    -0.246 OA
BRANCH  11  13
ATOM     13  O   UNL     1      25.882  37.547  40.129  1.00  0.00    -0.466 OA
ATOM     14  C   UNL     1      26.646  38.719  40.395  1.00  0.00     0.282 C 
ENDBRANCH  11  13
ENDBRANCH   3  11
BRANCH   9  15
ATOM     15  C   UNL     1      28.557  31.622  38.007  1.00  0.00     0.187 C 
BRANCH  15  16
ATOM     16  O   UNL     1      28.297  30.413  38.678  1.00  0.00    -0.392 OA
ATOM     17  H   UNL     1      28.090  30.645  39.624  1.00  0.00     0.211 HD
ENDBRANCH  15  16
ENDBRANCH   9  15
ENDBRANCH   1   2
BRANCH   1  18
ATOM     18  C   UNL     1      24.652  31.055  40.576  1.00  0.00     0.286 C 
ATOM     19  C   UNL     1      25.143  31.094  42.055  1.00  0.00     0.202 C 
ATOM     20  O   UNL     1      24.008  29.833  40.213  1.00  0.00    -0.341 OA
ATOM     21  C   UNL     1      25.483  29.702  42.623  1.00  0.00     0.179 C 
ATOM     22  C   UNL     1      24.716  28.629  40.511  1.00  0.00     0.178 C 
ATOM     23  C   UNL     1      25.913  28.785  41.476  1.00  0.00     0.177 C 
BRANCH  19  24
ATOM     24  O   UNL     1      24.189  31.737  42.865  1.00  0.00    -0.385 OA
ATOM     25  H   UNL     1      23.951  32.587  42.410  1.00  0.00     0.211 HD
ENDBRANCH  19  24
BRANCH  21  26
ATOM     26  O   UNL     1      24.366  29.169  43.299  1.00  0.00    -0.387 OA
ATOM     27  H   UNL     1      24.628  29.035  44.247  1.00  0.00     0.211 HD
ENDBRANCH  21  26
BRANCH  22  28
ATOM     28  C   UNL     1      25.114  27.918  39.207  1.00  0.00     0.191 C 
BRANCH  28  29
ATOM     29  O   UNL     1      25.900  28.765  38.407  1.00  0.00    -0.394 OA
ATOM     30  H   UNL     1      25.428  29.642  38.361  1.00  0.00     0.210 HD
ENDBRANCH  28  29
ENDBRANCH  22  28
BRANCH  23  31
ATOM     31  O   UNL     1      26.286  27.531  41.992  1.00  0.00    -0.387 OA
ATOM     32  H   UNL     1      26.314  27.612  42.982  1.00  0.00     0.211 HD
ENDBRANCH  23  31
ENDBRANCH   1  18
TORSDOF 11
ENDMDL
MODEL 9
REMARK VINA RESULT:    -3.318      2.563      4.510
REMARK INTER + INTRA:          -6.782
REMARK INTER:                  -4.946
REMARK INTRA:                  -1.837
REMARK UNBOUND:                -1.816
REMARK SMILES COC(=O)C1=CO[C@H](O[C@H]2O[C@@H](CO)[C@H](O)[C@H](O)[C@@H]2O)[C@@H]2C(CO)=CC[C@@H]12
REMARK SMILES IDX 9 1 8 2 5 3 6 4 27 5 7 6 21 7 26 8 22 9 25 10 3 11 4 12 2 13
REMARK SMILES IDX 1 14 23 15 24 16 10 18 19 19 11 20 17 21 12 22 15 23 20 24
REMARK SMILES IDX 18 26 13 28 14 29 16 31
REMARK H PARENT 24 17 20 25 18 27 14 30 16 32
REMARK Flexibility Score: inf
ROOT
ATOM      1  O   UNL     1      24.931  29.896  40.537  1.00  0.00    -0.310 OA
ENDROOT
BRANCH   1   2
ATOM      2  C   UNL     1      25.826  30.997  40.654  1.00  0.00     0.316 C 
ATOM      3  C   UNL     1      24.862  33.488  39.453  1.00  0.00     0.076 C 
ATOM      4  C   UNL     1      25.849  32.790  38.860  1.00  0.00     0.202 C 
ATOM      5  C   UNL     1      24.125  32.799  40.564  1.00  0.00     0.047 C 
ATOM      6  O   UNL     1      26.246  31.530  39.367  1.00  0.00    -0.471 OA
ATOM      7  C   UNL     1      25.146  32.123  41.459  1.00  0.00     0.094 C 
ATOM      8  C   UNL     1      23.276  33.598  41.551  1.00  0.00     0.037 C 
ATOM      9  C   UNL     1      24.331  31.831  42.674  1.00  0.00    -0.039 C 
ATOM     10  C   UNL     1      23.330  32.709  42.762  1.00  0.00    -0.024 C 
BRANCH   3  11
ATOM     11  C   UNL     1      24.525  34.856  39.011  1.00  0.00     0.337 C 
ATOM     12  O   UNL     1      24.004  35.015  37.875  1.00  0.00    -0.246 OA
BRANCH  11  13
ATOM     13  O   UNL     1      24.774  35.989  39.799  1.00  0.00    -0.466 OA
ATOM     14  C   UNL     1      25.998  36.225  40.488  1.00  0.00     0.282 C 
ENDBRANCH  11  13
ENDBRANCH   3  11
BRANCH   9  15
ATOM     15  C   UNL     1      24.618  30.771  43.709  1.00  0.00     0.187 C 
BRANCH  15  16
ATOM     16  O   UNL     1      23.850  29.618  43.460  1.00  0.00    -0.392 OA
ATOM     17  H   UNL     1      24.258  29.162  42.675  1.00  0.00     0.211 HD
ENDBRANCH  15  16
ENDBRANCH   9  15
ENDBRANCH   1   2
BRANCH   1  18
ATOM     18  C   UNL     1      25.571  28.634  40.657  1.00  0.00     0.286 C 
ATOM     19  C   UNL     1      26.096  28.185  39.258  1.00  0.00     0.202 C 
ATOM     20  O   UNL     1      24.732  27.670  41.294  1.00  0.00    -0.341 OA
ATOM     21  C   UNL     1      25.149  27.207  38.536  1.00  0.00     0.179 C 
ATOM     22  C   UNL     1      23.645  27.162  40.520  1.00  0.00     0.178 C 
ATOM     23  C   UNL     1      23.714  27.460  39.005  1.00  0.00     0.177 C 
BRANCH  19  24
ATOM     24  O   UNL     1      27.381  27.628  39.379  1.00  0.00    -0.385 OA
ATOM     25  H   UNL     1      27.392  26.807  38.820  1.00  0.00     0.211 HD
ENDBRANCH  19  24
BRANCH  21  26
ATOM     26  O   UNL     1      25.534  25.877  38.798  1.00  0.00    -0.387 OA
ATOM     27  H   UNL     1      25.354  25.347  37.978  1.00  0.00     0.211 HD
ENDBRANCH  21  26
BRANCH  22  28
ATOM     28  C   UNL     1      22.308  27.608  41.136  1.00  0.00     0.191 C 
BRANCH  28  29
ATOM     29  O   UNL     1      22.285  29.004  41.300  1.00  0.00    -0.394 OA
ATOM     30  H   UNL     1      22.699  29.198  42.186  1.00  0.00     0.210 HD
ENDBRANCH  28  29
ENDBRANCH  22  28
BRANCH  23  31
ATOM     31  O   UNL     1      22.835  26.615  38.304  1.00  0.00    -0.387 OA
ATOM     32  H   UNL     1      23.065  26.679  37.339  1.00  0.00     0.211 HD
ENDBRANCH  23  31
ENDBRANCH   1  18
TORSDOF 11
ENDMDL
