MODEL 1
REMARK VINA RESULT:    -7.792      0.000      0.000
REMARK INTER + INTRA:         -11.707
REMARK INTER:                 -10.297
REMARK INTRA:                  -1.410
REMARK UNBOUND:                -1.410
REMARK SMILES CC[C@@H](C=C[C@@H](C)[C@@H]1CC[C@@H]2[C@@H]3CC=C4C[C@@H](O)CC[C@]4(C)[C@H]3CC[C@]21C)C(C)C
REMARK SMILES IDX 6 1 7 2 5 3 4 4 3 5 2 6 1 7 28 8 29 9 30 10 8 11 9 12 26 13
REMARK SMILES IDX 10 14 11 15 25 16 27 17 12 18 24 19 23 20 13 21 21 22 14 23
REMARK SMILES IDX 15 24 20 25 22 26 16 27 19 28 17 29 18 30
REMARK H PARENT 18 31
REMARK Flexibility Score: inf
ROOT
ATOM      1  C   UNL     1      16.628  24.441  41.438  1.00  0.00     0.012 C 
ATOM      2  C   UNL     1      15.991  25.829  41.595  1.00  0.00     0.012 C 
ENDROOT
BRANCH   1   3
ATOM      3  C   UNL     1      17.111  24.267  40.005  1.00  0.00    -0.028 C 
ATOM      4  C   UNL     1      18.392  24.126  39.594  1.00  0.00    -0.027 C 
BRANCH   4   5
ATOM      5  C   UNL     1      19.627  23.993  40.479  1.00  0.00     0.014 C 
BRANCH   5   6
ATOM      6  C   UNL     1      20.489  25.282  40.408  1.00  0.00     0.004 C 
ATOM      7  C   UNL     1      19.896  26.454  41.184  1.00  0.00     0.004 C 
ENDBRANCH   5   6
BRANCH   5   8
ATOM      8  C   UNL     1      20.489  22.742  40.092  1.00  0.00    -0.011 C 
ATOM      9  C   UNL     1      20.102  22.106  38.743  1.00  0.00     0.008 C 
ATOM     10  C   UNL     1      20.489  21.666  41.188  1.00  0.00     0.008 C 
ENDBRANCH   5   8
ENDBRANCH   4   5
ENDBRANCH   1   3
BRANCH   1  11
ATOM     11  C   UNL     1      15.707  23.309  42.001  1.00  0.00     0.002 C 
ATOM     12  C   UNL     1      14.216  23.710  42.084  1.00  0.00     0.005 C 
ATOM     13  C   UNL     1      15.998  22.615  43.372  1.00  0.00    -0.026 C 
ATOM     14  C   UNL     1      13.568  22.817  43.153  1.00  0.00     0.005 C 
ATOM     15  C   UNL     1      14.674  21.847  43.540  1.00  0.00    -0.001 C 
ATOM     16  C   UNL     1      17.177  21.579  43.356  1.00  0.00     0.007 C 
ATOM     17  C   UNL     1      16.221  23.685  44.480  1.00  0.00     0.012 C 
ATOM     18  C   UNL     1      14.530  20.965  44.810  1.00  0.00     0.000 C 
ATOM     19  C   UNL     1      16.896  20.257  44.139  1.00  0.00     0.005 C 
ATOM     20  C   UNL     1      15.906  20.458  45.320  1.00  0.00     0.003 C 
ATOM     21  C   UNL     1      13.759  21.553  45.989  1.00  0.00     0.031 C 
ATOM     22  C   UNL     1      15.718  19.237  46.295  1.00  0.00    -0.008 C 
ATOM     23  C   UNL     1      13.676  20.539  47.110  1.00  0.00    -0.027 C 
ATOM     24  C   UNL     1      14.555  19.515  47.273  1.00  0.00    -0.065 C 
ATOM     25  C   UNL     1      17.016  19.050  47.144  1.00  0.00     0.014 C 
ATOM     26  C   UNL     1      15.438  17.935  45.499  1.00  0.00     0.016 C 
ATOM     27  C   UNL     1      14.382  18.585  48.457  1.00  0.00     0.063 C 
ATOM     28  C   UNL     1      16.852  18.061  48.310  1.00  0.00     0.033 C 
ATOM     29  C   UNL     1      15.696  18.466  49.236  1.00  0.00     0.118 C 
BRANCH  29  30
ATOM     30  O   UNL     1      15.555  17.502  50.245  1.00  0.00    -0.393 OA
ATOM     31  H   UNL     1      14.612  17.540  50.553  1.00  0.00     0.210 HD
ENDBRANCH  29  30
ENDBRANCH   1  11
TORSDOF 6
ENDMDL
MODEL 2
REMARK VINA RESULT:    -7.643      1.293      2.215
REMARK INTER + INTRA:         -11.510
REMARK INTER:                 -10.114
REMARK INTRA:                  -1.396
REMARK UNBOUND:                -1.410
REMARK SMILES CC[C@@H](C=C[C@@H](C)[C@@H]1CC[C@@H]2[C@@H]3CC=C4C[C@@H](O)CC[C@]4(C)[C@H]3CC[C@]21C)C(C)C
REMARK SMILES IDX 6 1 7 2 5 3 4 4 3 5 2 6 1 7 28 8 29 9 30 10 8 11 9 12 26 13
REMARK SMILES IDX 10 14 11 15 25 16 27 17 12 18 24 19 23 20 13 21 21 22 14 23
REMARK SMILES IDX 15 24 20 25 22 26 16 27 19 28 17 29 18 30
REMARK H PARENT 18 31
REMARK Flexibility Score: inf
ROOT
ATOM      1  C   UNL     1      16.247  24.399  41.416  1.00  0.00     0.012 C 
ATOM      2  C   UNL     1      15.597  25.034  40.179  1.00  0.00     0.012 C 
ENDROOT
BRANCH   1   3
ATOM      3  C   UNL     1      17.709  24.096  41.118  1.00  0.00    -0.028 C 
ATOM      4  C   UNL     1      18.754  24.945  41.251  1.00  0.00    -0.027 C 
BRANCH   4   5
ATOM      5  C   UNL     1      18.720  26.354  41.836  1.00  0.00     0.014 C 
BRANCH   5   6
ATOM      6  C   UNL     1      20.021  27.123  41.481  1.00  0.00     0.004 C 
ATOM      7  C   UNL     1      20.913  26.383  40.489  1.00  0.00     0.004 C 
ENDBRANCH   5   6
BRANCH   5   8
ATOM      8  C   UNL     1      18.508  26.334  43.389  1.00  0.00    -0.011 C 
ATOM      9  C   UNL     1      17.188  26.978  43.851  1.00  0.00     0.008 C 
ATOM     10  C   UNL     1      19.684  26.963  44.151  1.00  0.00     0.008 C 
ENDBRANCH   5   8
ENDBRANCH   4   5
ENDBRANCH   1   3
BRANCH   1  11
ATOM     11  C   UNL     1      15.396  23.213  41.979  1.00  0.00     0.002 C 
ATOM     12  C   UNL     1      13.881  23.517  42.045  1.00  0.00     0.005 C 
ATOM     13  C   UNL     1      15.718  22.549  43.358  1.00  0.00    -0.026 C 
ATOM     14  C   UNL     1      13.282  22.592  43.114  1.00  0.00     0.005 C 
ATOM     15  C   UNL     1      14.444  21.698  43.520  1.00  0.00    -0.001 C 
ATOM     16  C   UNL     1      16.961  21.591  43.361  1.00  0.00     0.007 C 
ATOM     17  C   UNL     1      15.860  23.639  44.460  1.00  0.00     0.012 C 
ATOM     18  C   UNL     1      14.346  20.818  44.795  1.00  0.00     0.000 C 
ATOM     19  C   UNL     1      16.758  20.260  44.152  1.00  0.00     0.005 C 
ATOM     20  C   UNL     1      15.747  20.404  45.322  1.00  0.00     0.003 C 
ATOM     21  C   UNL     1      13.526  21.363  45.963  1.00  0.00     0.031 C 
ATOM     22  C   UNL     1      15.628  19.181  46.304  1.00  0.00    -0.008 C 
ATOM     23  C   UNL     1      13.498  20.354  47.090  1.00  0.00    -0.027 C 
ATOM     24  C   UNL     1      14.440  19.390  47.270  1.00  0.00    -0.065 C 
ATOM     25  C   UNL     1      16.927  19.084  47.167  1.00  0.00     0.014 C 
ATOM     26  C   UNL     1      15.440  17.858  45.516  1.00  0.00     0.016 C 
ATOM     27  C   UNL     1      14.316  18.459  48.458  1.00  0.00     0.063 C 
ATOM     28  C   UNL     1      16.816  18.095  48.338  1.00  0.00     0.033 C 
ATOM     29  C   UNL     1      15.628  18.431  49.251  1.00  0.00     0.118 C 
BRANCH  29  30
ATOM     30  O   UNL     1      15.539  17.467  50.266  1.00  0.00    -0.393 OA
ATOM     31  H   UNL     1      14.636  17.553  50.670  1.00  0.00     0.210 HD
ENDBRANCH  29  30
ENDBRANCH   1  11
TORSDOF 6
ENDMDL
MODEL 3
REMARK VINA RESULT:    -7.602      3.526      8.439
REMARK INTER + INTRA:         -11.456
REMARK INTER:                  -9.849
REMARK INTRA:                  -1.607
REMARK UNBOUND:                -1.410
REMARK SMILES CC[C@@H](C=C[C@@H](C)[C@@H]1CC[C@@H]2[C@@H]3CC=C4C[C@@H](O)CC[C@]4(C)[C@H]3CC[C@]21C)C(C)C
REMARK SMILES IDX 6 1 7 2 5 3 4 4 3 5 2 6 1 7 28 8 29 9 30 10 8 11 9 12 26 13
REMARK SMILES IDX 10 14 11 15 25 16 27 17 12 18 24 19 23 20 13 21 21 22 14 23
REMARK SMILES IDX 15 24 20 25 22 26 16 27 19 28 17 29 18 30
REMARK H PARENT 18 31
REMARK Flexibility Score: inf
ROOT
ATOM      1  C   UNL     1      15.049  23.028  46.101  1.00  0.00     0.012 C 
ATOM      2  C   UNL     1      14.110  24.065  46.733  1.00  0.00     0.012 C 
ENDROOT
BRANCH   1   3
ATOM      3  C   UNL     1      15.273  21.887  47.083  1.00  0.00    -0.028 C 
ATOM      4  C   UNL     1      15.549  20.598  46.776  1.00  0.00    -0.027 C 
BRANCH   4   5
ATOM      5  C   UNL     1      15.812  20.024  45.387  1.00  0.00     0.014 C 
BRANCH   5   6
ATOM      6  C   UNL     1      14.481  19.590  44.717  1.00  0.00     0.004 C 
ATOM      7  C   UNL     1      14.079  20.471  43.538  1.00  0.00     0.004 C 
ENDBRANCH   5   6
BRANCH   5   8
ATOM      8  C   UNL     1      16.813  18.819  45.436  1.00  0.00    -0.011 C 
ATOM      9  C   UNL     1      16.357  17.590  44.627  1.00  0.00     0.008 C 
ATOM     10  C   UNL     1      17.152  18.394  46.873  1.00  0.00     0.008 C 
ENDBRANCH   5   8
ENDBRANCH   4   5
ENDBRANCH   1   3
BRANCH   1  11
ATOM     11  C   UNL     1      16.335  23.691  45.504  1.00  0.00     0.002 C 
ATOM     12  C   UNL     1      16.698  25.040  46.166  1.00  0.00     0.005 C 
ATOM     13  C   UNL     1      16.489  23.957  43.971  1.00  0.00    -0.026 C 
ATOM     14  C   UNL     1      17.539  25.827  45.151  1.00  0.00     0.005 C 
ATOM     15  C   UNL     1      17.745  24.848  44.006  1.00  0.00    -0.001 C 
ATOM     16  C   UNL     1      16.802  22.687  43.103  1.00  0.00     0.007 C 
ATOM     17  C   UNL     1      15.236  24.702  43.425  1.00  0.00     0.012 C 
ATOM     18  C   UNL     1      18.291  25.345  42.640  1.00  0.00     0.000 C 
ATOM     19  C   UNL     1      17.892  22.899  42.005  1.00  0.00     0.005 C 
ATOM     20  C   UNL     1      17.947  24.363  41.487  1.00  0.00     0.003 C 
ATOM     21  C   UNL     1      17.913  26.759  42.205  1.00  0.00     0.031 C 
ATOM     22  C   UNL     1      18.865  24.633  40.239  1.00  0.00    -0.008 C 
ATOM     23  C   UNL     1      18.573  27.088  40.884  1.00  0.00    -0.027 C 
ATOM     24  C   UNL     1      18.982  26.153  39.986  1.00  0.00    -0.065 C 
ATOM     25  C   UNL     1      18.214  23.992  38.971  1.00  0.00     0.014 C 
ATOM     26  C   UNL     1      20.276  24.024  40.450  1.00  0.00     0.016 C 
ATOM     27  C   UNL     1      19.602  26.613  38.682  1.00  0.00     0.063 C 
ATOM     28  C   UNL     1      18.883  24.416  37.654  1.00  0.00     0.033 C 
ATOM     29  C   UNL     1      18.900  25.944  37.495  1.00  0.00     0.118 C 
BRANCH  29  30
ATOM     30  O   UNL     1      19.570  26.277  36.308  1.00  0.00    -0.393 OA
ATOM     31  H   UNL     1      18.960  26.859  35.785  1.00  0.00     0.210 HD
ENDBRANCH  29  30
ENDBRANCH   1  11
TORSDOF 6
ENDMDL
MODEL 4
REMARK VINA RESULT:    -7.473      4.463      7.599
REMARK INTER + INTRA:         -11.286
REMARK INTER:                  -9.669
REMARK INTRA:                  -1.618
REMARK UNBOUND:                -1.410
REMARK SMILES CC[C@@H](C=C[C@@H](C)[C@@H]1CC[C@@H]2[C@@H]3CC=C4C[C@@H](O)CC[C@]4(C)[C@H]3CC[C@]21C)C(C)C
REMARK SMILES IDX 6 1 7 2 5 3 4 4 3 5 2 6 1 7 28 8 29 9 30 10 8 11 9 12 26 13
REMARK SMILES IDX 10 14 11 15 25 16 27 17 12 18 24 19 23 20 13 21 21 22 14 23
REMARK SMILES IDX 15 24 20 25 22 26 16 27 19 28 17 29 18 30
REMARK H PARENT 18 31
REMARK Flexibility Score: inf
ROOT
ATOM      1  C   UNL     1      16.346  21.742  44.157  1.00  0.00     0.012 C 
ATOM      2  C   UNL     1      17.651  21.607  43.362  1.00  0.00     0.012 C 
ENDROOT
BRANCH   1   3
ATOM      3  C   UNL     1      15.270  20.879  43.512  1.00  0.00    -0.028 C 
ATOM      4  C   UNL     1      14.694  19.775  44.039  1.00  0.00    -0.027 C 
BRANCH   4   5
ATOM      5  C   UNL     1      14.906  19.214  45.442  1.00  0.00     0.014 C 
BRANCH   5   6
ATOM      6  C   UNL     1      15.685  17.873  45.381  1.00  0.00     0.004 C 
ATOM      7  C   UNL     1      17.152  18.040  44.995  1.00  0.00     0.004 C 
ENDBRANCH   5   6
BRANCH   5   8
ATOM      8  C   UNL     1      13.548  19.018  46.201  1.00  0.00    -0.011 C 
ATOM      9  C   UNL     1      13.044  17.563  46.221  1.00  0.00     0.008 C 
ATOM     10  C   UNL     1      12.441  19.940  45.672  1.00  0.00     0.008 C 
ENDBRANCH   5   8
ENDBRANCH   4   5
ENDBRANCH   1   3
BRANCH   1  11
ATOM     11  C   UNL     1      15.970  23.239  44.415  1.00  0.00     0.002 C 
ATOM     12  C   UNL     1      17.109  24.228  44.077  1.00  0.00     0.005 C 
ATOM     13  C   UNL     1      15.430  23.727  45.799  1.00  0.00    -0.026 C 
ATOM     14  C   UNL     1      16.860  25.499  44.902  1.00  0.00     0.005 C 
ATOM     15  C   UNL     1      15.518  25.247  45.570  1.00  0.00    -0.001 C 
ATOM     16  C   UNL     1      13.936  23.353  46.100  1.00  0.00     0.007 C 
ATOM     17  C   UNL     1      16.363  23.234  46.944  1.00  0.00     0.012 C 
ATOM     18  C   UNL     1      15.038  26.161  46.730  1.00  0.00     0.000 C 
ATOM     19  C   UNL     1      13.093  24.498  46.747  1.00  0.00     0.005 C 
ATOM     20  C   UNL     1      13.955  25.468  47.601  1.00  0.00     0.003 C 
ATOM     21  C   UNL     1      16.106  26.744  47.652  1.00  0.00     0.031 C 
ATOM     22  C   UNL     1      13.175  26.531  48.460  1.00  0.00    -0.008 C 
ATOM     23  C   UNL     1      15.463  27.644  48.684  1.00  0.00    -0.027 C 
ATOM     24  C   UNL     1      14.164  27.547  49.072  1.00  0.00    -0.065 C 
ATOM     25  C   UNL     1      12.448  25.808  49.639  1.00  0.00     0.014 C 
ATOM     26  C   UNL     1      12.124  27.274  47.594  1.00  0.00     0.016 C 
ATOM     27  C   UNL     1      13.647  28.489  50.140  1.00  0.00     0.063 C 
ATOM     28  C   UNL     1      11.875  26.770  50.692  1.00  0.00     0.033 C 
ATOM     29  C   UNL     1      12.959  27.699  51.259  1.00  0.00     0.118 C 
BRANCH  29  30
ATOM     30  O   UNL     1      12.373  28.591  52.169  1.00  0.00    -0.393 OA
ATOM     31  H   UNL     1      11.581  28.985  51.719  1.00  0.00     0.210 HD
ENDBRANCH  29  30
ENDBRANCH   1  11
TORSDOF 6
ENDMDL
MODEL 5
REMARK VINA RESULT:    -7.333      4.368      9.025
REMARK INTER + INTRA:         -11.100
REMARK INTER:                  -9.313
REMARK INTRA:                  -1.787
REMARK UNBOUND:                -1.410
REMARK SMILES CC[C@@H](C=C[C@@H](C)[C@@H]1CC[C@@H]2[C@@H]3CC=C4C[C@@H](O)CC[C@]4(C)[C@H]3CC[C@]21C)C(C)C
REMARK SMILES IDX 6 1 7 2 5 3 4 4 3 5 2 6 1 7 28 8 29 9 30 10 8 11 9 12 26 13
REMARK SMILES IDX 10 14 11 15 25 16 27 17 12 18 24 19 23 20 13 21 21 22 14 23
REMARK SMILES IDX 15 24 20 25 22 26 16 27 19 28 17 29 18 30
REMARK H PARENT 18 31
REMARK Flexibility Score: inf
ROOT
ATOM      1  C   UNL     1      16.541  26.138  45.823  1.00  0.00     0.012 C 
ATOM      2  C   UNL     1      16.822  27.265  46.826  1.00  0.00     0.012 C 
ENDROOT
BRANCH   1   3
ATOM      3  C   UNL     1      16.078  24.898  46.574  1.00  0.00    -0.028 C 
ATOM      4  C   UNL     1      14.834  24.367  46.571  1.00  0.00    -0.027 C 
BRANCH   4   5
ATOM      5  C   UNL     1      13.647  24.822  45.726  1.00  0.00     0.014 C 
BRANCH   5   6
ATOM      6  C   UNL     1      12.404  25.070  46.621  1.00  0.00     0.004 C 
ATOM      7  C   UNL     1      12.349  26.476  47.210  1.00  0.00     0.004 C 
ENDBRANCH   5   6
BRANCH   5   8
ATOM      8  C   UNL     1      13.307  23.788  44.598  1.00  0.00    -0.011 C 
ATOM      9  C   UNL     1      14.194  22.529  44.613  1.00  0.00     0.008 C 
ATOM     10  C   UNL     1      13.328  24.418  43.198  1.00  0.00     0.008 C 
ENDBRANCH   5   8
ENDBRANCH   4   5
ENDBRANCH   1   3
BRANCH   1  11
ATOM     11  C   UNL     1      17.727  25.938  44.821  1.00  0.00     0.002 C 
ATOM     12  C   UNL     1      18.803  27.045  44.910  1.00  0.00     0.005 C 
ATOM     13  C   UNL     1      17.487  25.752  43.287  1.00  0.00    -0.026 C 
ATOM     14  C   UNL     1      19.529  27.076  43.557  1.00  0.00     0.005 C 
ATOM     15  C   UNL     1      18.940  25.898  42.797  1.00  0.00    -0.001 C 
ATOM     16  C   UNL     1      16.957  24.337  42.864  1.00  0.00     0.007 C 
ATOM     17  C   UNL     1      16.553  26.874  42.748  1.00  0.00     0.012 C 
ATOM     18  C   UNL     1      19.183  25.752  41.270  1.00  0.00     0.000 C 
ATOM     19  C   UNL     1      17.631  23.742  41.586  1.00  0.00     0.005 C 
ATOM     20  C   UNL     1      18.121  24.839  40.600  1.00  0.00     0.003 C 
ATOM     21  C   UNL     1      19.308  27.036  40.453  1.00  0.00     0.031 C 
ATOM     22  C   UNL     1      18.626  24.345  39.194  1.00  0.00    -0.008 C 
ATOM     23  C   UNL     1      19.594  26.702  39.006  1.00  0.00    -0.027 C 
ATOM     24  C   UNL     1      19.274  25.516  38.423  1.00  0.00    -0.065 C 
ATOM     25  C   UNL     1      17.406  23.844  38.355  1.00  0.00     0.014 C 
ATOM     26  C   UNL     1      19.646  23.187  39.350  1.00  0.00     0.016 C 
ATOM     27  C   UNL     1      19.585  25.316  36.953  1.00  0.00     0.063 C 
ATOM     28  C   UNL     1      17.740  23.587  36.876  1.00  0.00     0.033 C 
ATOM     29  C   UNL     1      18.336  24.834  36.207  1.00  0.00     0.118 C 
BRANCH  29  30
ATOM     30  O   UNL     1      18.673  24.528  34.880  1.00  0.00    -0.393 OA
ATOM     31  H   UNL     1      18.392  23.590  34.718  1.00  0.00     0.210 HD
ENDBRANCH  29  30
ENDBRANCH   1  11
TORSDOF 6
ENDMDL
MODEL 6
REMARK VINA RESULT:    -7.204      4.465      7.665
REMARK INTER + INTRA:         -10.930
REMARK INTER:                  -9.465
REMARK INTRA:                  -1.465
REMARK UNBOUND:                -1.410
REMARK SMILES CC[C@@H](C=C[C@@H](C)[C@@H]1CC[C@@H]2[C@@H]3CC=C4C[C@@H](O)CC[C@]4(C)[C@H]3CC[C@]21C)C(C)C
REMARK SMILES IDX 6 1 7 2 5 3 4 4 3 5 2 6 1 7 28 8 29 9 30 10 8 11 9 12 26 13
REMARK SMILES IDX 10 14 11 15 25 16 27 17 12 18 24 19 23 20 13 21 21 22 14 23
REMARK SMILES IDX 15 24 20 25 22 26 16 27 19 28 17 29 18 30
REMARK H PARENT 18 31
REMARK Flexibility Score: inf
ROOT
ATOM      1  C   UNL     1      14.537  20.721  44.878  1.00  0.00     0.012 C 
ATOM      2  C   UNL     1      14.087  20.363  43.455  1.00  0.00     0.012 C 
ENDROOT
BRANCH   1   3
ATOM      3  C   UNL     1      14.094  19.626  45.838  1.00  0.00    -0.028 C 
ATOM      4  C   UNL     1      14.889  18.888  46.646  1.00  0.00    -0.027 C 
BRANCH   4   5
ATOM      5  C   UNL     1      16.389  19.065  46.864  1.00  0.00     0.014 C 
BRANCH   5   6
ATOM      6  C   UNL     1      17.191  18.261  45.806  1.00  0.00     0.004 C 
ATOM      7  C   UNL     1      16.307  17.511  44.814  1.00  0.00     0.004 C 
ENDBRANCH   5   6
BRANCH   5   8
ATOM      8  C   UNL     1      16.821  18.641  48.310  1.00  0.00    -0.011 C 
ATOM      9  C   UNL     1      15.652  18.198  49.209  1.00  0.00     0.008 C 
ATOM     10  C   UNL     1      17.636  19.730  49.022  1.00  0.00     0.008 C 
ENDBRANCH   5   8
ENDBRANCH   4   5
ENDBRANCH   1   3
BRANCH   1  11
ATOM     11  C   UNL     1      14.138  22.184  45.266  1.00  0.00     0.002 C 
ATOM     12  C   UNL     1      14.308  23.197  44.110  1.00  0.00     0.005 C 
ATOM     13  C   UNL     1      14.758  22.906  46.507  1.00  0.00    -0.026 C 
ATOM     14  C   UNL     1      14.475  24.584  44.748  1.00  0.00     0.005 C 
ATOM     15  C   UNL     1      14.255  24.335  46.232  1.00  0.00    -0.001 C 
ATOM     16  C   UNL     1      14.197  22.439  47.897  1.00  0.00     0.007 C 
ATOM     17  C   UNL     1      16.310  22.795  46.475  1.00  0.00     0.012 C 
ATOM     18  C   UNL     1      14.632  25.425  47.271  1.00  0.00     0.000 C 
ATOM     19  C   UNL     1      13.908  23.595  48.907  1.00  0.00     0.005 C 
ATOM     20  C   UNL     1      14.831  24.826  48.690  1.00  0.00     0.003 C 
ATOM     21  C   UNL     1      15.826  26.320  46.948  1.00  0.00     0.031 C 
ATOM     22  C   UNL     1      14.762  25.957  49.782  1.00  0.00    -0.008 C 
ATOM     23  C   UNL     1      16.011  27.350  48.041  1.00  0.00    -0.027 C 
ATOM     24  C   UNL     1      15.564  27.192  49.315  1.00  0.00    -0.065 C 
ATOM     25  C   UNL     1      15.416  25.439  51.103  1.00  0.00     0.014 C 
ATOM     26  C   UNL     1      13.291  26.359  50.065  1.00  0.00     0.016 C 
ATOM     27  C   UNL     1      15.841  28.285  50.328  1.00  0.00     0.063 C 
ATOM     28  C   UNL     1      15.644  26.541  52.150  1.00  0.00     0.033 C 
ATOM     29  C   UNL     1      16.489  27.693  51.585  1.00  0.00     0.118 C 
BRANCH  29  30
ATOM     30  O   UNL     1      16.616  28.693  52.561  1.00  0.00    -0.393 OA
ATOM     31  H   UNL     1      16.431  29.559  52.113  1.00  0.00     0.210 HD
ENDBRANCH  29  30
ENDBRANCH   1  11
TORSDOF 6
ENDMDL
MODEL 7
REMARK VINA RESULT:    -7.181      1.300      2.198
REMARK INTER + INTRA:         -10.900
REMARK INTER:                  -9.204
REMARK INTRA:                  -1.695
REMARK UNBOUND:                -1.410
REMARK SMILES CC[C@@H](C=C[C@@H](C)[C@@H]1CC[C@@H]2[C@@H]3CC=C4C[C@@H](O)CC[C@]4(C)[C@H]3CC[C@]21C)C(C)C
REMARK SMILES IDX 6 1 7 2 5 3 4 4 3 5 2 6 1 7 28 8 29 9 30 10 8 11 9 12 26 13
REMARK SMILES IDX 10 14 11 15 25 16 27 17 12 18 24 19 23 20 13 21 21 22 14 23
REMARK SMILES IDX 15 24 20 25 22 26 16 27 19 28 17 29 18 30
REMARK H PARENT 18 31
REMARK Flexibility Score: inf
ROOT
ATOM      1  C   UNL     1      14.335  24.632  41.208  1.00  0.00     0.012 C 
ATOM      2  C   UNL     1      13.041  25.373  40.842  1.00  0.00     0.012 C 
ENDROOT
BRANCH   1   3
ATOM      3  C   UNL     1      15.365  24.844  40.108  1.00  0.00    -0.028 C 
ATOM      4  C   UNL     1      16.673  25.151  40.272  1.00  0.00    -0.027 C 
BRANCH   4   5
ATOM      5  C   UNL     1      17.433  25.239  41.592  1.00  0.00     0.014 C 
BRANCH   5   6
ATOM      6  C   UNL     1      16.963  26.470  42.411  1.00  0.00     0.004 C 
ATOM      7  C   UNL     1      16.740  26.167  43.890  1.00  0.00     0.004 C 
ENDBRANCH   5   6
BRANCH   5   8
ATOM      8  C   UNL     1      18.984  25.296  41.367  1.00  0.00    -0.011 C 
ATOM      9  C   UNL     1      19.519  26.704  41.045  1.00  0.00     0.008 C 
ATOM     10  C   UNL     1      19.459  24.306  40.294  1.00  0.00     0.008 C 
ENDBRANCH   5   8
ENDBRANCH   4   5
ENDBRANCH   1   3
BRANCH   1  11
ATOM     11  C   UNL     1      14.061  23.149  41.623  1.00  0.00     0.002 C 
ATOM     12  C   UNL     1      12.574  22.740  41.512  1.00  0.00     0.005 C 
ATOM     13  C   UNL     1      14.515  22.584  43.009  1.00  0.00    -0.026 C 
ATOM     14  C   UNL     1      12.359  21.559  42.469  1.00  0.00     0.005 C 
ATOM     15  C   UNL     1      13.754  21.245  42.985  1.00  0.00    -0.001 C 
ATOM     16  C   UNL     1      16.051  22.282  43.134  1.00  0.00     0.007 C 
ATOM     17  C   UNL     1      14.044  23.526  44.155  1.00  0.00     0.012 C 
ATOM     18  C   UNL     1      13.943  20.308  44.209  1.00  0.00     0.000 C 
ATOM     19  C   UNL     1      16.397  20.938  43.850  1.00  0.00     0.005 C 
ATOM     20  C   UNL     1      15.322  20.518  44.891  1.00  0.00     0.003 C 
ATOM     21  C   UNL     1      12.859  20.331  45.284  1.00  0.00     0.031 C 
ATOM     22  C   UNL     1      15.676  19.292  45.811  1.00  0.00    -0.008 C 
ATOM     23  C   UNL     1      13.182  19.324  46.366  1.00  0.00    -0.027 C 
ATOM     24  C   UNL     1      14.435  18.869  46.629  1.00  0.00    -0.065 C 
ATOM     25  C   UNL     1      16.790  19.711  46.823  1.00  0.00     0.014 C 
ATOM     26  C   UNL     1      16.182  18.095  44.963  1.00  0.00     0.016 C 
ATOM     27  C   UNL     1      14.633  17.882  47.762  1.00  0.00     0.063 C 
ATOM     28  C   UNL     1      17.027  18.681  47.939  1.00  0.00     0.033 C 
ATOM     29  C   UNL     1      15.734  18.374  48.709  1.00  0.00     0.118 C 
BRANCH  29  30
ATOM     30  O   UNL     1      15.994  17.390  49.674  1.00  0.00    -0.393 OA
ATOM     31  H   UNL     1      16.611  17.792  50.339  1.00  0.00     0.210 HD
ENDBRANCH  29  30
ENDBRANCH   1  11
TORSDOF 6
ENDMDL
MODEL 8
REMARK VINA RESULT:    -7.176      1.669      3.266
REMARK INTER + INTRA:         -10.893
REMARK INTER:                  -9.164
REMARK INTRA:                  -1.730
REMARK UNBOUND:                -1.410
REMARK SMILES CC[C@@H](C=C[C@@H](C)[C@@H]1CC[C@@H]2[C@@H]3CC=C4C[C@@H](O)CC[C@]4(C)[C@H]3CC[C@]21C)C(C)C
REMARK SMILES IDX 6 1 7 2 5 3 4 4 3 5 2 6 1 7 28 8 29 9 30 10 8 11 9 12 26 13
REMARK SMILES IDX 10 14 11 15 25 16 27 17 12 18 24 19 23 20 13 21 21 22 14 23
REMARK SMILES IDX 15 24 20 25 22 26 16 27 19 28 17 29 18 30
REMARK H PARENT 18 31
REMARK Flexibility Score: inf
ROOT
ATOM      1  C   UNL     1      15.927  24.694  41.825  1.00  0.00     0.012 C 
ATOM      2  C   UNL     1      16.365  24.374  40.389  1.00  0.00     0.012 C 
ENDROOT
BRANCH   1   3
ATOM      3  C   UNL     1      15.987  26.199  42.046  1.00  0.00    -0.028 C 
ATOM      4  C   UNL     1      17.061  26.914  42.454  1.00  0.00    -0.027 C 
BRANCH   4   5
ATOM      5  C   UNL     1      18.479  26.394  42.669  1.00  0.00     0.014 C 
BRANCH   5   6
ATOM      6  C   UNL     1      18.991  26.778  44.083  1.00  0.00     0.004 C 
ATOM      7  C   UNL     1      18.041  26.369  45.205  1.00  0.00     0.004 C 
ENDBRANCH   5   6
BRANCH   5   8
ATOM      8  C   UNL     1      19.466  26.924  41.573  1.00  0.00    -0.011 C 
ATOM      9  C   UNL     1      19.673  25.956  40.393  1.00  0.00     0.008 C 
ATOM     10  C   UNL     1      20.829  27.328  42.154  1.00  0.00     0.008 C 
ENDBRANCH   5   8
ENDBRANCH   4   5
ENDBRANCH   1   3
BRANCH   1  11
ATOM     11  C   UNL     1      16.676  23.809  42.875  1.00  0.00     0.002 C 
ATOM     12  C   UNL     1      17.738  22.874  42.250  1.00  0.00     0.005 C 
ATOM     13  C   UNL     1      15.905  22.898  43.886  1.00  0.00    -0.026 C 
ATOM     14  C   UNL     1      17.937  21.705  43.225  1.00  0.00     0.005 C 
ATOM     15  C   UNL     1      17.092  22.083  44.432  1.00  0.00    -0.001 C 
ATOM     16  C   UNL     1      15.228  23.656  45.082  1.00  0.00     0.007 C 
ATOM     17  C   UNL     1      14.864  22.019  43.132  1.00  0.00     0.012 C 
ATOM     18  C   UNL     1      16.775  21.028  45.526  1.00  0.00     0.000 C 
ATOM     19  C   UNL     1      15.392  22.963  46.472  1.00  0.00     0.005 C 
ATOM     20  C   UNL     1      15.525  21.419  46.360  1.00  0.00     0.003 C 
ATOM     21  C   UNL     1      16.630  19.575  45.080  1.00  0.00     0.031 C 
ATOM     22  C   UNL     1      15.487  20.611  47.710  1.00  0.00    -0.008 C 
ATOM     23  C   UNL     1      16.377  18.689  46.280  1.00  0.00    -0.027 C 
ATOM     24  C   UNL     1      15.846  19.130  47.451  1.00  0.00    -0.065 C 
ATOM     25  C   UNL     1      14.039  20.651  48.295  1.00  0.00     0.014 C 
ATOM     26  C   UNL     1      16.471  21.219  48.743  1.00  0.00     0.016 C 
ATOM     27  C   UNL     1      15.612  18.135  48.569  1.00  0.00     0.063 C 
ATOM     28  C   UNL     1      13.821  19.680  49.467  1.00  0.00     0.033 C 
ATOM     29  C   UNL     1      14.168  18.236  49.077  1.00  0.00     0.118 C 
BRANCH  29  30
ATOM     30  O   UNL     1      14.007  17.405  50.195  1.00  0.00    -0.393 OA
ATOM     31  H   UNL     1      13.998  16.470  49.862  1.00  0.00     0.210 HD
ENDBRANCH  29  30
ENDBRANCH   1  11
TORSDOF 6
ENDMDL
MODEL 9
REMARK VINA RESULT:    -7.166      1.357      2.189
REMARK INTER + INTRA:         -10.881
REMARK INTER:                  -9.911
REMARK INTRA:                  -0.970
REMARK UNBOUND:                -1.410
REMARK SMILES CC[C@@H](C=C[C@@H](C)[C@@H]1CC[C@@H]2[C@@H]3CC=C4C[C@@H](O)CC[C@]4(C)[C@H]3CC[C@]21C)C(C)C
REMARK SMILES IDX 6 1 7 2 5 3 4 4 3 5 2 6 1 7 28 8 29 9 30 10 8 11 9 12 26 13
REMARK SMILES IDX 10 14 11 15 25 16 27 17 12 18 24 19 23 20 13 21 21 22 14 23
REMARK SMILES IDX 15 24 20 25 22 26 16 27 19 28 17 29 18 30
REMARK H PARENT 18 31
REMARK Flexibility Score: inf
ROOT
ATOM      1  C   UNL     1      18.347  25.481  41.259  1.00  0.00     0.012 C 
ATOM      2  C   UNL     1      18.140  26.789  42.034  1.00  0.00     0.012 C 
ENDROOT
BRANCH   1   3
ATOM      3  C   UNL     1      18.705  25.802  39.815  1.00  0.00    -0.028 C 
ATOM      4  C   UNL     1      19.152  24.933  38.879  1.00  0.00    -0.027 C 
BRANCH   4   5
ATOM      5  C   UNL     1      19.285  23.420  39.026  1.00  0.00     0.014 C 
BRANCH   5   6
ATOM      6  C   UNL     1      20.413  23.067  40.032  1.00  0.00     0.004 C 
ATOM      7  C   UNL     1      20.781  21.587  40.038  1.00  0.00     0.004 C 
ENDBRANCH   5   6
BRANCH   5   8
ATOM      8  C   UNL     1      19.551  22.723  37.647  1.00  0.00    -0.011 C 
ATOM      9  C   UNL     1      20.017  23.685  36.537  1.00  0.00     0.008 C 
ATOM     10  C   UNL     1      18.342  21.914  37.154  1.00  0.00     0.008 C 
ENDBRANCH   5   8
ENDBRANCH   4   5
ENDBRANCH   1   3
BRANCH   1  11
ATOM     11  C   UNL     1      17.162  24.482  41.472  1.00  0.00     0.002 C 
ATOM     12  C   UNL     1      15.769  25.123  41.272  1.00  0.00     0.005 C 
ATOM     13  C   UNL     1      17.017  23.643  42.784  1.00  0.00    -0.026 C 
ATOM     14  C   UNL     1      14.764  24.273  42.063  1.00  0.00     0.005 C 
ATOM     15  C   UNL     1      15.591  23.102  42.569  1.00  0.00    -0.001 C 
ATOM     16  C   UNL     1      18.000  22.425  42.907  1.00  0.00     0.007 C 
ATOM     17  C   UNL     1      17.129  24.570  44.030  1.00  0.00     0.012 C 
ATOM     18  C   UNL     1      15.024  22.161  43.666  1.00  0.00     0.000 C 
ATOM     19  C   UNL     1      17.349  21.114  43.452  1.00  0.00     0.005 C 
ATOM     20  C   UNL     1      16.152  21.387  44.403  1.00  0.00     0.003 C 
ATOM     21  C   UNL     1      14.093  22.777  44.707  1.00  0.00     0.031 C 
ATOM     22  C   UNL     1      15.561  20.144  45.165  1.00  0.00    -0.008 C 
ATOM     23  C   UNL     1      13.600  21.708  45.657  1.00  0.00    -0.027 C 
ATOM     24  C   UNL     1      14.255  20.539  45.891  1.00  0.00    -0.065 C 
ATOM     25  C   UNL     1      16.581  19.672  46.251  1.00  0.00     0.014 C 
ATOM     26  C   UNL     1      15.285  18.976  44.183  1.00  0.00     0.016 C 
ATOM     27  C   UNL     1      13.673  19.562  46.892  1.00  0.00     0.063 C 
ATOM     28  C   UNL     1      16.003  18.638  47.230  1.00  0.00     0.033 C 
ATOM     29  C   UNL     1      14.735  19.160  47.921  1.00  0.00     0.118 C 
BRANCH  29  30
ATOM     30  O   UNL     1      14.220  18.158  48.757  1.00  0.00    -0.393 OA
ATOM     31  H   UNL     1      14.959  17.520  48.935  1.00  0.00     0.210 HD
ENDBRANCH  29  30
ENDBRANCH   1  11
TORSDOF 6
ENDMDL
