MODEL 1
REMARK VINA RESULT:    -3.725      0.000      0.000
REMARK INTER + INTRA:          -5.736
REMARK INTER:                  -5.249
REMARK INTRA:                  -0.487
REMARK UNBOUND:                -0.487
REMARK SMILES CCCCCCCCC(=O)[O-]
REMARK SMILES IDX 6 1 7 2 8 3 9 4 10 5 11 6 5 7 4 8 3 9 2 10 1 11
REMARK H PARENT
REMARK Flexibility Score: inf
ROOT
ATOM      1  C   UNL     1      -0.617   8.008  -8.367  1.00  0.00     0.000 C 
ENDROOT
BRANCH   1   2
ATOM      2  C   UNL     1       0.804   8.279  -7.842  1.00  0.00     0.006 C 
BRANCH   2   3
ATOM      3  C   UNL     1       1.856   7.409  -8.545  1.00  0.00     0.053 C 
BRANCH   3   4
ATOM      4  C   UNL     1       2.336   8.037  -9.817  1.00  0.00     0.041 C 
ATOM      5  O   UNL     1       2.221   7.422 -10.910  1.00  0.00    -0.550 OA
ATOM      6  O   UNL     1       2.942   9.287  -9.791  1.00  0.00    -0.550 OA
ENDBRANCH   3   4
ENDBRANCH   2   3
ENDBRANCH   1   2
BRANCH   1   7
ATOM      7  C   UNL     1      -0.723   6.669  -9.113  1.00  0.00     0.000 C 
BRANCH   7   8
ATOM      8  C   UNL     1      -1.278   6.829 -10.539  1.00  0.00    -0.000 C 
BRANCH   8   9
ATOM      9  C   UNL     1      -1.800   8.248 -10.814  1.00  0.00    -0.000 C 
BRANCH   9  10
ATOM     10  C   UNL     1      -3.331   8.305 -10.915  1.00  0.00    -0.003 C 
ATOM     11  C   UNL     1      -3.883   9.545 -10.218  1.00  0.00     0.004 C 
ENDBRANCH   9  10
ENDBRANCH   8   9
ENDBRANCH   7   8
ENDBRANCH   1   7
TORSDOF 7
ENDMDL
MODEL 2
REMARK VINA RESULT:    -3.719      1.639      2.185
REMARK INTER + INTRA:          -5.727
REMARK INTER:                  -5.107
REMARK INTRA:                  -0.620
REMARK UNBOUND:                -0.487
REMARK SMILES CCCCCCCCC(=O)[O-]
REMARK SMILES IDX 6 1 7 2 8 3 9 4 10 5 11 6 5 7 4 8 3 9 2 10 1 11
REMARK H PARENT
REMARK Flexibility Score: inf
ROOT
ATOM      1  C   UNL     1      -1.668   6.771  -9.431  1.00  0.00     0.000 C 
ENDROOT
BRANCH   1   2
ATOM      2  C   UNL     1      -1.244   7.934  -8.517  1.00  0.00     0.006 C 
BRANCH   2   3
ATOM      3  C   UNL     1       0.187   8.406  -8.808  1.00  0.00     0.053 C 
BRANCH   3   4
ATOM      4  C   UNL     1       1.206   7.534  -8.141  1.00  0.00     0.041 C 
ATOM      5  O   UNL     1       2.090   6.954  -8.827  1.00  0.00    -0.550 OA
ATOM      6  O   UNL     1       1.159   7.333  -6.768  1.00  0.00    -0.550 OA
ENDBRANCH   3   4
ENDBRANCH   2   3
ENDBRANCH   1   2
BRANCH   1   7
ATOM      7  C   UNL     1      -1.623   7.147 -10.921  1.00  0.00     0.000 C 
BRANCH   7   8
ATOM      8  C   UNL     1      -2.933   6.812 -11.655  1.00  0.00    -0.000 C 
BRANCH   8   9
ATOM      9  C   UNL     1      -3.918   7.991 -11.675  1.00  0.00    -0.000 C 
BRANCH   9  10
ATOM     10  C   UNL     1      -3.239   9.331 -11.360  1.00  0.00    -0.003 C 
ATOM     11  C   UNL     1      -3.915  10.026 -10.181  1.00  0.00     0.004 C 
ENDBRANCH   9  10
ENDBRANCH   8   9
ENDBRANCH   7   8
ENDBRANCH   1   7
TORSDOF 7
ENDMDL
MODEL 3
REMARK VINA RESULT:    -3.656      2.714      4.800
REMARK INTER + INTRA:          -5.639
REMARK INTER:                  -4.909
REMARK INTRA:                  -0.731
REMARK UNBOUND:                -0.487
REMARK SMILES CCCCCCCCC(=O)[O-]
REMARK SMILES IDX 6 1 7 2 8 3 9 4 10 5 11 6 5 7 4 8 3 9 2 10 1 11
REMARK H PARENT
REMARK Flexibility Score: inf
ROOT
ATOM      1  C   UNL     1       1.274   7.426 -11.908  1.00  0.00     0.000 C 
ENDROOT
BRANCH   1   2
ATOM      2  C   UNL     1      -0.004   6.812 -11.310  1.00  0.00     0.006 C 
BRANCH   2   3
ATOM      3  C   UNL     1      -1.091   7.866 -11.064  1.00  0.00     0.053 C 
BRANCH   3   4
ATOM      4  C   UNL     1      -2.359   7.249 -10.558  1.00  0.00     0.041 C 
ATOM      5  O   UNL     1      -3.472   7.620 -11.018  1.00  0.00    -0.550 OA
ATOM      6  O   UNL     1      -2.314   6.289  -9.555  1.00  0.00    -0.550 OA
ENDBRANCH   3   4
ENDBRANCH   2   3
ENDBRANCH   1   2
BRANCH   1   7
ATOM      7  C   UNL     1       1.595   8.807 -11.316  1.00  0.00     0.000 C 
BRANCH   7   8
ATOM      8  C   UNL     1       2.278   8.717  -9.940  1.00  0.00    -0.000 C 
BRANCH   8   9
ATOM      9  C   UNL     1       1.475   9.422  -8.835  1.00  0.00    -0.000 C 
BRANCH   9  10
ATOM     10  C   UNL     1       0.818   8.433  -7.862  1.00  0.00    -0.003 C 
ATOM     11  C   UNL     1       1.518   7.078  -7.898  1.00  0.00     0.004 C 
ENDBRANCH   9  10
ENDBRANCH   8   9
ENDBRANCH   7   8
ENDBRANCH   1   7
TORSDOF 7
ENDMDL
MODEL 4
REMARK VINA RESULT:    -3.633      2.560      4.783
REMARK INTER + INTRA:          -5.606
REMARK INTER:                  -4.970
REMARK INTRA:                  -0.636
REMARK UNBOUND:                -0.487
REMARK SMILES CCCCCCCCC(=O)[O-]
REMARK SMILES IDX 6 1 7 2 8 3 9 4 10 5 11 6 5 7 4 8 3 9 2 10 1 11
REMARK H PARENT
REMARK Flexibility Score: inf
ROOT
ATOM      1  C   UNL     1      -0.245   8.881 -11.069  1.00  0.00     0.000 C 
ENDROOT
BRANCH   1   2
ATOM      2  C   UNL     1      -1.671   9.427 -10.878  1.00  0.00     0.006 C 
BRANCH   2   3
ATOM      3  C   UNL     1      -2.491   8.574  -9.900  1.00  0.00     0.053 C 
BRANCH   3   4
ATOM      4  C   UNL     1      -2.551   7.140 -10.329  1.00  0.00     0.041 C 
ATOM      5  O   UNL     1      -2.084   6.237  -9.585  1.00  0.00    -0.550 OA
ATOM      6  O   UNL     1      -3.089   6.805 -11.564  1.00  0.00    -0.550 OA
ENDBRANCH   3   4
ENDBRANCH   2   3
ENDBRANCH   1   2
BRANCH   1   7
ATOM      7  C   UNL     1       0.833   9.934 -10.772  1.00  0.00     0.000 C 
BRANCH   7   8
ATOM      8  C   UNL     1       1.857   9.455  -9.728  1.00  0.00    -0.000 C 
BRANCH   8   9
ATOM      9  C   UNL     1       2.000   7.924  -9.700  1.00  0.00    -0.000 C 
BRANCH   9  10
ATOM     10  C   UNL     1       1.720   7.332  -8.312  1.00  0.00    -0.003 C 
ATOM     11  C   UNL     1       0.710   8.181  -7.544  1.00  0.00     0.004 C 
ENDBRANCH   9  10
ENDBRANCH   8   9
ENDBRANCH   7   8
ENDBRANCH   1   7
TORSDOF 7
ENDMDL
MODEL 5
REMARK VINA RESULT:    -3.631      1.196      1.613
REMARK INTER + INTRA:          -5.603
REMARK INTER:                  -4.976
REMARK INTRA:                  -0.627
REMARK UNBOUND:                -0.487
REMARK SMILES CCCCCCCCC(=O)[O-]
REMARK SMILES IDX 6 1 7 2 8 3 9 4 10 5 11 6 5 7 4 8 3 9 2 10 1 11
REMARK H PARENT
REMARK Flexibility Score: inf
ROOT
ATOM      1  C   UNL     1       1.257   7.682  -8.735  1.00  0.00     0.000 C 
ENDROOT
BRANCH   1   2
ATOM      2  C   UNL     1       1.060   8.992  -9.517  1.00  0.00     0.006 C 
BRANCH   2   3
ATOM      3  C   UNL     1       1.313   8.812 -11.020  1.00  0.00     0.053 C 
BRANCH   3   4
ATOM      4  C   UNL     1       2.650   8.192 -11.287  1.00  0.00     0.041 C 
ATOM      5  O   UNL     1       2.726   7.065 -11.845  1.00  0.00    -0.550 OA
ATOM      6  O   UNL     1       3.811   8.843 -10.889  1.00  0.00    -0.550 OA
ENDBRANCH   3   4
ENDBRANCH   2   3
ENDBRANCH   1   2
BRANCH   1   7
ATOM      7  C   UNL     1       0.052   6.736  -8.857  1.00  0.00     0.000 C 
BRANCH   7   8
ATOM      8  C   UNL     1      -1.293   7.483  -8.806  1.00  0.00    -0.000 C 
BRANCH   8   9
ATOM      9  C   UNL     1      -2.249   7.056  -9.931  1.00  0.00    -0.000 C 
BRANCH   9  10
ATOM     10  C   UNL     1      -2.632   8.221 -10.853  1.00  0.00    -0.003 C 
ATOM     11  C   UNL     1      -3.320   9.337 -10.073  1.00  0.00     0.004 C 
ENDBRANCH   9  10
ENDBRANCH   8   9
ENDBRANCH   7   8
ENDBRANCH   1   7
TORSDOF 7
ENDMDL
MODEL 6
REMARK VINA RESULT:    -3.585     15.049     16.309
REMARK INTER + INTRA:          -5.538
REMARK INTER:                  -5.225
REMARK INTRA:                  -0.314
REMARK UNBOUND:                -0.487
REMARK SMILES CCCCCCCCC(=O)[O-]
REMARK SMILES IDX 6 1 7 2 8 3 9 4 10 5 11 6 5 7 4 8 3 9 2 10 1 11
REMARK H PARENT
REMARK Flexibility Score: inf
ROOT
ATOM      1  C   UNL     1       4.510  13.073   5.904  1.00  0.00     0.000 C 
ENDROOT
BRANCH   1   2
ATOM      2  C   UNL     1       4.115  11.915   6.837  1.00  0.00     0.006 C 
BRANCH   2   3
ATOM      3  C   UNL     1       5.322  11.052   7.229  1.00  0.00     0.053 C 
BRANCH   3   4
ATOM      4  C   UNL     1       5.866  10.293   6.057  1.00  0.00     0.041 C 
ATOM      5  O   UNL     1       5.216   9.330   5.570  1.00  0.00    -0.550 OA
ATOM      6  O   UNL     1       7.105  10.627   5.526  1.00  0.00    -0.550 OA
ENDBRANCH   3   4
ENDBRANCH   2   3
ENDBRANCH   1   2
BRANCH   1   7
ATOM      7  C   UNL     1       3.289  13.823   5.347  1.00  0.00     0.000 C 
BRANCH   7   8
ATOM      8  C   UNL     1       2.068  12.905   5.158  1.00  0.00    -0.000 C 
BRANCH   8   9
ATOM      9  C   UNL     1       0.763  13.692   4.957  1.00  0.00    -0.000 C 
BRANCH   9  10
ATOM     10  C   UNL     1      -0.268  12.920   4.123  1.00  0.00    -0.003 C 
ATOM     11  C   UNL     1      -0.435  11.493   4.638  1.00  0.00     0.004 C 
ENDBRANCH   9  10
ENDBRANCH   8   9
ENDBRANCH   7   8
ENDBRANCH   1   7
TORSDOF 7
ENDMDL
MODEL 7
REMARK VINA RESULT:    -3.559      2.552      4.027
REMARK INTER + INTRA:          -5.502
REMARK INTER:                  -4.822
REMARK INTRA:                  -0.680
REMARK UNBOUND:                -0.487
REMARK SMILES CCCCCCCCC(=O)[O-]
REMARK SMILES IDX 6 1 7 2 8 3 9 4 10 5 11 6 5 7 4 8 3 9 2 10 1 11
REMARK H PARENT
REMARK Flexibility Score: inf
ROOT
ATOM      1  C   UNL     1       0.333   7.716  -8.378  1.00  0.00     0.000 C 
ENDROOT
BRANCH   1   2
ATOM      2  C   UNL     1      -0.478   6.637  -9.119  1.00  0.00     0.006 C 
BRANCH   2   3
ATOM      3  C   UNL     1      -1.901   7.108  -9.447  1.00  0.00     0.053 C 
BRANCH   3   4
ATOM      4  C   UNL     1      -2.232   6.909 -10.894  1.00  0.00     0.041 C 
ATOM      5  O   UNL     1      -3.087   7.645 -11.456  1.00  0.00    -0.550 OA
ATOM      6  O   UNL     1      -1.623   5.889 -11.614  1.00  0.00    -0.550 OA
ENDBRANCH   3   4
ENDBRANCH   2   3
ENDBRANCH   1   2
BRANCH   1   7
ATOM      7  C   UNL     1       1.846   7.574  -8.605  1.00  0.00     0.000 C 
BRANCH   7   8
ATOM      8  C   UNL     1       2.338   8.372  -9.826  1.00  0.00    -0.000 C 
BRANCH   8   9
ATOM      9  C   UNL     1       1.520   9.651 -10.064  1.00  0.00    -0.000 C 
BRANCH   9  10
ATOM     10  C   UNL     1       0.783   9.638 -11.410  1.00  0.00    -0.003 C 
ATOM     11  C   UNL     1      -0.575  10.326 -11.300  1.00  0.00     0.004 C 
ENDBRANCH   9  10
ENDBRANCH   8   9
ENDBRANCH   7   8
ENDBRANCH   1   7
TORSDOF 7
ENDMDL
MODEL 8
REMARK VINA RESULT:    -3.540      2.834      4.997
REMARK INTER + INTRA:          -5.475
REMARK INTER:                  -4.928
REMARK INTRA:                  -0.548
REMARK UNBOUND:                -0.487
REMARK SMILES CCCCCCCCC(=O)[O-]
REMARK SMILES IDX 6 1 7 2 8 3 9 4 10 5 11 6 5 7 4 8 3 9 2 10 1 11
REMARK H PARENT
REMARK Flexibility Score: inf
ROOT
ATOM      1  C   UNL     1      -1.320   6.978  -9.265  1.00  0.00     0.000 C 
ENDROOT
BRANCH   1   2
ATOM      2  C   UNL     1      -1.490   7.094 -10.791  1.00  0.00     0.006 C 
BRANCH   2   3
ATOM      3  C   UNL     1      -2.965   7.050 -11.213  1.00  0.00     0.053 C 
BRANCH   3   4
ATOM      4  C   UNL     1      -3.594   8.409 -11.172  1.00  0.00     0.041 C 
ATOM      5  O   UNL     1      -4.843   8.525 -11.053  1.00  0.00    -0.550 OA
ATOM      6  O   UNL     1      -2.807   9.546 -11.300  1.00  0.00    -0.550 OA
ENDBRANCH   3   4
ENDBRANCH   2   3
ENDBRANCH   1   2
BRANCH   1   7
ATOM      7  C   UNL     1      -0.344   8.022  -8.701  1.00  0.00     0.000 C 
BRANCH   7   8
ATOM      8  C   UNL     1       0.920   7.383  -8.097  1.00  0.00    -0.000 C 
BRANCH   8   9
ATOM      9  C   UNL     1       2.189   7.711  -8.899  1.00  0.00    -0.000 C 
BRANCH   9  10
ATOM     10  C   UNL     1       1.890   8.506 -10.178  1.00  0.00    -0.003 C 
ATOM     11  C   UNL     1       2.188   7.677 -11.424  1.00  0.00     0.004 C 
ENDBRANCH   9  10
ENDBRANCH   8   9
ENDBRANCH   7   8
ENDBRANCH   1   7
TORSDOF 7
ENDMDL
MODEL 9
REMARK VINA RESULT:    -3.449      3.508      5.480
REMARK INTER + INTRA:          -5.348
REMARK INTER:                  -4.947
REMARK INTRA:                  -0.400
REMARK UNBOUND:                -0.487
REMARK SMILES CCCCCCCCC(=O)[O-]
REMARK SMILES IDX 6 1 7 2 8 3 9 4 10 5 11 6 5 7 4 8 3 9 2 10 1 11
REMARK H PARENT
REMARK Flexibility Score: inf
ROOT
ATOM      1  C   UNL     1      -2.395   6.979 -10.504  1.00  0.00     0.000 C 
ENDROOT
BRANCH   1   2
ATOM      2  C   UNL     1      -2.819   8.450 -10.344  1.00  0.00     0.006 C 
BRANCH   2   3
ATOM      3  C   UNL     1      -4.131   8.757 -11.080  1.00  0.00     0.053 C 
BRANCH   3   4
ATOM      4  C   UNL     1      -4.790   9.992 -10.548  1.00  0.00     0.041 C 
ATOM      5  O   UNL     1      -6.036  10.145 -10.663  1.00  0.00    -0.550 OA
ATOM      6  O   UNL     1      -4.026  10.990  -9.957  1.00  0.00    -0.550 OA
ENDBRANCH   3   4
ENDBRANCH   2   3
ENDBRANCH   1   2
BRANCH   1   7
ATOM      7  C   UNL     1      -0.892   6.828 -10.787  1.00  0.00     0.000 C 
BRANCH   7   8
ATOM      8  C   UNL     1      -0.094   8.096 -10.437  1.00  0.00    -0.000 C 
BRANCH   8   9
ATOM      9  C   UNL     1       1.376   7.796 -10.103  1.00  0.00    -0.000 C 
BRANCH   9  10
ATOM     10  C   UNL     1       1.581   7.421  -8.629  1.00  0.00    -0.003 C 
ATOM     11  C   UNL     1       0.718   8.288  -7.716  1.00  0.00     0.004 C 
ENDBRANCH   9  10
ENDBRANCH   8   9
ENDBRANCH   7   8
ENDBRANCH   1   7
TORSDOF 7
ENDMDL
