MODEL 1
REMARK VINA RESULT:    -7.123      0.000      0.000
REMARK INTER + INTRA:         -12.096
REMARK INTER:                 -11.078
REMARK INTRA:                  -1.018
REMARK UNBOUND:                -1.018
REMARK SMILES C[C@]12C[C@]3(O)O[C@H](O1)[C@@]1(COC(=O)c4ccccc4)[C@@H]3C[C@]12O[C@@H]1O[C@H](CO)[C@@H](O)[C@H](O)[C@H]1O
REMARK SMILES IDX 1 1 2 2 3 3 4 4 20 5 21 6 22 7 9 8 7 9 8 10 6 11 23 12 24 13
REMARK SMILES IDX 33 14 25 15 31 16 26 17 29 18 34 19 32 21 27 23 28 24 30 26
REMARK SMILES IDX 5 28 10 30 11 31 12 32 13 33 14 34 15 35 19 36 16 37 18 38
REMARK SMILES IDX 17 39
REMARK H PARENT 34 20 32 22 28 25 30 27 5 29
REMARK Flexibility Score: inf
ROOT
ATOM      1  C   UNL     1     -48.366 -15.486   6.737  1.00  0.00     0.046 C 
ATOM      2  C   UNL     1     -47.249 -14.903   5.984  1.00  0.00     0.104 C 
ATOM      3  C   UNL     1     -46.626 -13.563   6.515  1.00  0.00     0.104 C 
ATOM      4  C   UNL     1     -45.491 -13.241   5.457  1.00  0.00     0.175 C 
ATOM      5  C   UNL     1     -44.634 -14.519   5.184  1.00  0.00     0.070 C 
ATOM      6  C   UNL     1     -44.730 -15.521   6.347  1.00  0.00     0.050 C 
ATOM      7  C   UNL     1     -46.087 -15.944   5.748  1.00  0.00     0.115 C 
ATOM      8  C   UNL     1     -45.641 -15.347   4.388  1.00  0.00     0.096 C 
ATOM      9  C   UNL     1     -46.684 -14.333   3.936  1.00  0.00     0.267 C 
ATOM     10  O   UNL     1     -47.795 -14.586   4.733  1.00  0.00    -0.342 OA
ATOM     11  O   UNL     1     -46.148 -13.050   4.219  1.00  0.00    -0.320 OA
ENDROOT
BRANCH   7  12
ATOM     12  O   UNL     1     -46.422 -17.344   5.818  1.00  0.00    -0.339 OA
BRANCH  12  13
ATOM     13  C   UNL     1     -46.396 -17.942   7.152  1.00  0.00     0.282 C 
ATOM     14  C   UNL     1     -47.737 -18.755   7.558  1.00  0.00     0.202 C 
ATOM     15  O   UNL     1     -45.286 -18.829   7.208  1.00  0.00    -0.341 OA
ATOM     16  C   UNL     1     -48.023 -19.690   6.325  1.00  0.00     0.179 C 
ATOM     17  C   UNL     1     -45.336 -19.894   6.259  1.00  0.00     0.178 C 
ATOM     18  C   UNL     1     -46.755 -20.554   6.008  1.00  0.00     0.177 C 
BRANCH  14  19
ATOM     19  O   UNL     1     -47.396 -19.525   8.697  1.00  0.00    -0.385 OA
ATOM     20  H   UNL     1     -47.616 -18.916   9.459  1.00  0.00     0.211 HD
ENDBRANCH  14  19
BRANCH  16  21
ATOM     21  O   UNL     1     -48.386 -18.898   5.220  1.00  0.00    -0.387 OA
ATOM     22  H   UNL     1     -48.837 -18.054   5.510  1.00  0.00     0.211 HD
ENDBRANCH  16  21
BRANCH  17  23
ATOM     23  C   UNL     1     -44.594 -19.564   4.952  1.00  0.00     0.191 C 
BRANCH  23  24
ATOM     24  O   UNL     1     -45.507 -19.578   3.892  1.00  0.00    -0.394 OA
ATOM     25  H   UNL     1     -46.439 -19.670   4.261  1.00  0.00     0.210 HD
ENDBRANCH  23  24
ENDBRANCH  17  23
BRANCH  18  26
ATOM     26  O   UNL     1     -46.874 -21.820   6.626  1.00  0.00    -0.387 OA
ATOM     27  H   UNL     1     -46.078 -22.362   6.313  1.00  0.00     0.211 HD
ENDBRANCH  18  26
ENDBRANCH  12  13
ENDBRANCH   7  12
BRANCH   4  28
ATOM     28  O   UNL     1     -44.667 -12.175   5.797  1.00  0.00    -0.365 OA
ATOM     29  H   UNL     1     -44.449 -12.266   6.795  1.00  0.00     0.214 HD
ENDBRANCH   4  28
BRANCH   8  30
ATOM     30  C   UNL     1     -45.122 -16.338   3.311  1.00  0.00     0.249 C 
BRANCH  30  31
ATOM     31  O   UNL     1     -45.088 -15.731   2.019  1.00  0.00    -0.461 OA
BRANCH  31  32
ATOM     32  C   UNL     1     -43.870 -15.414   1.369  1.00  0.00     0.338 C 
ATOM     33  O   UNL     1     -42.797 -15.411   2.039  1.00  0.00    -0.246 OA
BRANCH  32  34
ATOM     34  C   UNL     1     -43.886 -15.051  -0.078  1.00  0.00     0.060 A 
ATOM     35  C   UNL     1     -42.849 -15.508  -0.945  1.00  0.00     0.015 A 
ATOM     36  C   UNL     1     -44.905 -14.244  -0.622  1.00  0.00     0.015 A 
ATOM     37  C   UNL     1     -42.994 -15.347  -2.349  1.00  0.00     0.001 A 
ATOM     38  C   UNL     1     -45.036 -14.067  -2.027  1.00  0.00     0.001 A 
ATOM     39  C   UNL     1     -44.114 -14.647  -2.897  1.00  0.00     0.000 A 
ENDBRANCH  32  34
ENDBRANCH  31  32
ENDBRANCH  30  31
ENDBRANCH   8  30
TORSDOF 12
ENDMDL
MODEL 2
REMARK VINA RESULT:    -7.094      2.184      2.981
REMARK INTER + INTRA:         -12.053
REMARK INTER:                 -10.966
REMARK INTRA:                  -1.087
REMARK UNBOUND:                -1.018
REMARK SMILES C[C@]12C[C@]3(O)O[C@H](O1)[C@@]1(COC(=O)c4ccccc4)[C@@H]3C[C@]12O[C@@H]1O[C@H](CO)[C@@H](O)[C@H](O)[C@H]1O
REMARK SMILES IDX 1 1 2 2 3 3 4 4 20 5 21 6 22 7 9 8 7 9 8 10 6 11 23 12 24 13
REMARK SMILES IDX 33 14 25 15 31 16 26 17 29 18 34 19 32 21 27 23 28 24 30 26
REMARK SMILES IDX 5 28 10 30 11 31 12 32 13 33 14 34 15 35 19 36 16 37 18 38
REMARK SMILES IDX 17 39
REMARK H PARENT 34 20 32 22 28 25 30 27 5 29
REMARK Flexibility Score: inf
ROOT
ATOM      1  C   UNL     1     -48.186 -13.731   6.425  1.00  0.00     0.046 C 
ATOM      2  C   UNL     1     -47.569 -13.036   5.289  1.00  0.00     0.104 C 
ATOM      3  C   UNL     1     -47.639 -11.467   5.262  1.00  0.00     0.104 C 
ATOM      4  C   UNL     1     -46.906 -11.090   3.910  1.00  0.00     0.175 C 
ATOM      5  C   UNL     1     -45.560 -11.876   3.792  1.00  0.00     0.070 C 
ATOM      6  C   UNL     1     -45.051 -12.330   5.170  1.00  0.00     0.050 C 
ATOM      7  C   UNL     1     -46.072 -13.481   5.065  1.00  0.00     0.115 C 
ATOM      8  C   UNL     1     -46.097 -13.282   3.528  1.00  0.00     0.096 C 
ATOM      9  C   UNL     1     -47.539 -13.054   3.090  1.00  0.00     0.267 C 
ATOM     10  O   UNL     1     -48.308 -13.457   4.176  1.00  0.00    -0.342 OA
ATOM     11  O   UNL     1     -47.678 -11.659   2.869  1.00  0.00    -0.320 OA
ENDROOT
BRANCH   7  12
ATOM     12  O   UNL     1     -45.670 -14.760   5.595  1.00  0.00    -0.339 OA
BRANCH  12  13
ATOM     13  C   UNL     1     -45.376 -14.794   7.028  1.00  0.00     0.282 C 
ATOM     14  C   UNL     1     -46.027 -16.045   7.825  1.00  0.00     0.202 C 
ATOM     15  O   UNL     1     -43.963 -14.839   7.178  1.00  0.00    -0.341 OA
ATOM     16  C   UNL     1     -45.660 -17.304   6.955  1.00  0.00     0.179 C 
ATOM     17  C   UNL     1     -43.343 -15.978   6.583  1.00  0.00     0.178 C 
ATOM     18  C   UNL     1     -44.111 -17.357   6.723  1.00  0.00     0.177 C 
BRANCH  14  19
ATOM     19  O   UNL     1     -45.365 -16.096   9.076  1.00  0.00    -0.385 OA
ATOM     20  H   UNL     1     -45.811 -15.370   9.600  1.00  0.00     0.211 HD
ENDBRANCH  14  19
BRANCH  16  21
ATOM     21  O   UNL     1     -46.354 -17.238   5.732  1.00  0.00    -0.387 OA
ATOM     22  H   UNL     1     -47.190 -17.787   5.759  1.00  0.00     0.211 HD
ENDBRANCH  16  21
BRANCH  17  23
ATOM     23  C   UNL     1     -42.858 -15.712   5.147  1.00  0.00     0.191 C 
BRANCH  23  24
ATOM     24  O   UNL     1     -43.516 -16.584   4.272  1.00  0.00    -0.394 OA
ATOM     25  H   UNL     1     -42.897 -17.340   4.034  1.00  0.00     0.210 HD
ENDBRANCH  23  24
ENDBRANCH  17  23
BRANCH  18  26
ATOM     26  O   UNL     1     -43.515 -18.208   7.682  1.00  0.00    -0.387 OA
ATOM     27  H   UNL     1     -43.812 -17.864   8.587  1.00  0.00     0.211 HD
ENDBRANCH  18  26
ENDBRANCH  12  13
ENDBRANCH   7  12
BRANCH   4  28
ATOM     28  O   UNL     1     -46.684  -9.730   3.730  1.00  0.00    -0.365 OA
ATOM     29  H   UNL     1     -47.600  -9.269   3.749  1.00  0.00     0.214 HD
ENDBRANCH   4  28
BRANCH   8  30
ATOM     30  C   UNL     1     -45.256 -14.264   2.668  1.00  0.00     0.249 C 
BRANCH  30  31
ATOM     31  O   UNL     1     -45.825 -14.437   1.369  1.00  0.00    -0.461 OA
BRANCH  31  32
ATOM     32  C   UNL     1     -45.400 -13.672   0.255  1.00  0.00     0.338 C 
ATOM     33  O   UNL     1     -45.736 -12.456   0.178  1.00  0.00    -0.246 OA
BRANCH  32  34
ATOM     34  C   UNL     1     -44.601 -14.330  -0.820  1.00  0.00     0.060 A 
ATOM     35  C   UNL     1     -43.384 -15.003  -0.502  1.00  0.00     0.015 A 
ATOM     36  C   UNL     1     -45.014 -14.296  -2.167  1.00  0.00     0.015 A 
ATOM     37  C   UNL     1     -42.756 -15.809  -1.488  1.00  0.00     0.001 A 
ATOM     38  C   UNL     1     -44.370 -15.089  -3.157  1.00  0.00     0.001 A 
ATOM     39  C   UNL     1     -43.271 -15.878  -2.820  1.00  0.00     0.000 A 
ENDBRANCH  32  34
ENDBRANCH  31  32
ENDBRANCH  30  31
ENDBRANCH   8  30
TORSDOF 12
ENDMDL
MODEL 3
REMARK VINA RESULT:    -6.985      2.442      3.511
REMARK INTER + INTRA:         -11.882
REMARK INTER:                 -10.111
REMARK INTRA:                  -1.771
REMARK UNBOUND:                -1.018
REMARK SMILES C[C@]12C[C@]3(O)O[C@H](O1)[C@@]1(COC(=O)c4ccccc4)[C@@H]3C[C@]12O[C@@H]1O[C@H](CO)[C@@H](O)[C@H](O)[C@H]1O
REMARK SMILES IDX 1 1 2 2 3 3 4 4 20 5 21 6 22 7 9 8 7 9 8 10 6 11 23 12 24 13
REMARK SMILES IDX 33 14 25 15 31 16 26 17 29 18 34 19 32 21 27 23 28 24 30 26
REMARK SMILES IDX 5 28 10 30 11 31 12 32 13 33 14 34 15 35 19 36 16 37 18 38
REMARK SMILES IDX 17 39
REMARK H PARENT 34 20 32 22 28 25 30 27 5 29
REMARK Flexibility Score: inf
ROOT
ATOM      1  C   UNL     1     -48.149 -13.786   6.359  1.00  0.00     0.046 C 
ATOM      2  C   UNL     1     -47.525 -13.070   5.239  1.00  0.00     0.104 C 
ATOM      3  C   UNL     1     -47.615 -11.502   5.229  1.00  0.00     0.104 C 
ATOM      4  C   UNL     1     -46.868 -11.100   3.891  1.00  0.00     0.175 C 
ATOM      5  C   UNL     1     -45.511 -11.868   3.783  1.00  0.00     0.070 C 
ATOM      6  C   UNL     1     -45.015 -12.331   5.162  1.00  0.00     0.050 C 
ATOM      7  C   UNL     1     -46.020 -13.493   5.030  1.00  0.00     0.115 C 
ATOM      8  C   UNL     1     -46.027 -13.277   3.496  1.00  0.00     0.096 C 
ATOM      9  C   UNL     1     -47.465 -13.063   3.041  1.00  0.00     0.267 C 
ATOM     10  O   UNL     1     -48.243 -13.487   4.111  1.00  0.00    -0.342 OA
ATOM     11  O   UNL     1     -47.619 -11.667   2.834  1.00  0.00    -0.320 OA
ENDROOT
BRANCH   7  12
ATOM     12  O   UNL     1     -45.609 -14.773   5.552  1.00  0.00    -0.339 OA
BRANCH  12  13
ATOM     13  C   UNL     1     -45.337 -14.821   6.988  1.00  0.00     0.282 C 
ATOM     14  C   UNL     1     -46.022 -16.064   7.768  1.00  0.00     0.202 C 
ATOM     15  O   UNL     1     -43.927 -14.892   7.159  1.00  0.00    -0.341 OA
ATOM     16  C   UNL     1     -45.665 -17.325   6.896  1.00  0.00     0.179 C 
ATOM     17  C   UNL     1     -43.320 -16.040   6.567  1.00  0.00     0.178 C 
ATOM     18  C   UNL     1     -44.115 -17.405   6.687  1.00  0.00     0.177 C 
BRANCH  14  19
ATOM     19  O   UNL     1     -45.381 -16.134   9.029  1.00  0.00    -0.385 OA
ATOM     20  H   UNL     1     -44.495 -15.703   8.859  1.00  0.00     0.211 HD
ENDBRANCH  14  19
BRANCH  16  21
ATOM     21  O   UNL     1     -46.340 -17.239   5.664  1.00  0.00    -0.387 OA
ATOM     22  H   UNL     1     -46.025 -17.943   5.027  1.00  0.00     0.211 HD
ENDBRANCH  16  21
BRANCH  17  23
ATOM     23  C   UNL     1     -42.808 -15.774   5.140  1.00  0.00     0.191 C 
BRANCH  23  24
ATOM     24  O   UNL     1     -43.482 -16.617   4.248  1.00  0.00    -0.394 OA
ATOM     25  H   UNL     1     -44.471 -16.443   4.316  1.00  0.00     0.210 HD
ENDBRANCH  23  24
ENDBRANCH  17  23
BRANCH  18  26
ATOM     26  O   UNL     1     -43.549 -18.272   7.650  1.00  0.00    -0.387 OA
ATOM     27  H   UNL     1     -42.690 -17.830   7.956  1.00  0.00     0.211 HD
ENDBRANCH  18  26
ENDBRANCH  12  13
ENDBRANCH   7  12
BRANCH   4  28
ATOM     28  O   UNL     1     -46.661  -9.736   3.730  1.00  0.00    -0.365 OA
ATOM     29  H   UNL     1     -46.021  -9.618   2.936  1.00  0.00     0.214 HD
ENDBRANCH   4  28
BRANCH   8  30
ATOM     30  C   UNL     1     -45.161 -14.238   2.636  1.00  0.00     0.249 C 
BRANCH  30  31
ATOM     31  O   UNL     1     -45.686 -14.369   1.314  1.00  0.00    -0.461 OA
BRANCH  31  32
ATOM     32  C   UNL     1     -45.017 -13.837   0.185  1.00  0.00     0.338 C 
ATOM     33  O   UNL     1     -44.669 -14.617  -0.749  1.00  0.00    -0.246 OA
BRANCH  32  34
ATOM     34  C   UNL     1     -44.701 -12.380   0.141  1.00  0.00     0.060 A 
ATOM     35  C   UNL     1     -45.754 -11.418   0.105  1.00  0.00     0.015 A 
ATOM     36  C   UNL     1     -43.371 -11.916   0.121  1.00  0.00     0.015 A 
ATOM     37  C   UNL     1     -45.447 -10.043   0.290  1.00  0.00     0.001 A 
ATOM     38  C   UNL     1     -43.066 -10.536   0.285  1.00  0.00     0.001 A 
ATOM     39  C   UNL     1     -44.092  -9.602   0.412  1.00  0.00     0.000 A 
ENDBRANCH  32  34
ENDBRANCH  31  32
ENDBRANCH  30  31
ENDBRANCH   8  30
TORSDOF 12
ENDMDL
MODEL 4
REMARK VINA RESULT:    -6.809      3.316      6.300
REMARK INTER + INTRA:         -11.608
REMARK INTER:                  -9.673
REMARK INTRA:                  -1.935
REMARK UNBOUND:                -1.018
REMARK SMILES C[C@]12C[C@]3(O)O[C@H](O1)[C@@]1(COC(=O)c4ccccc4)[C@@H]3C[C@]12O[C@@H]1O[C@H](CO)[C@@H](O)[C@H](O)[C@H]1O
REMARK SMILES IDX 1 1 2 2 3 3 4 4 20 5 21 6 22 7 9 8 7 9 8 10 6 11 23 12 24 13
REMARK SMILES IDX 33 14 25 15 31 16 26 17 29 18 34 19 32 21 27 23 28 24 30 26
REMARK SMILES IDX 5 28 10 30 11 31 12 32 13 33 14 34 15 35 19 36 16 37 18 38
REMARK SMILES IDX 17 39
REMARK H PARENT 34 20 32 22 28 25 30 27 5 29
REMARK Flexibility Score: inf
ROOT
ATOM      1  C   UNL     1     -45.113 -12.723   4.685  1.00  0.00     0.046 C 
ATOM      2  C   UNL     1     -44.606 -13.988   5.231  1.00  0.00     0.104 C 
ATOM      3  C   UNL     1     -43.351 -13.930   6.173  1.00  0.00     0.104 C 
ATOM      4  C   UNL     1     -43.094 -15.451   6.535  1.00  0.00     0.175 C 
ATOM      5  C   UNL     1     -44.434 -16.136   6.956  1.00  0.00     0.070 C 
ATOM      6  C   UNL     1     -45.467 -15.104   7.437  1.00  0.00     0.050 C 
ATOM      7  C   UNL     1     -45.739 -14.820   5.946  1.00  0.00     0.115 C 
ATOM      8  C   UNL     1     -45.134 -16.204   5.600  1.00  0.00     0.096 C 
ATOM      9  C   UNL     1     -44.011 -16.005   4.590  1.00  0.00     0.267 C 
ATOM     10  O   UNL     1     -44.191 -14.714   4.107  1.00  0.00    -0.342 OA
ATOM     11  O   UNL     1     -42.794 -16.102   5.315  1.00  0.00    -0.320 OA
ENDROOT
BRANCH   7  12
ATOM     12  O   UNL     1     -47.105 -14.544   5.574  1.00  0.00    -0.339 OA
BRANCH  12  13
ATOM     13  C   UNL     1     -47.779 -13.499   6.343  1.00  0.00     0.282 C 
ATOM     14  C   UNL     1     -48.347 -12.265   5.461  1.00  0.00     0.202 C 
ATOM     15  O   UNL     1     -48.862 -14.104   7.038  1.00  0.00    -0.341 OA
ATOM     16  C   UNL     1     -49.132 -12.950   4.281  1.00  0.00     0.179 C 
ATOM     17  C   UNL     1     -49.836 -14.713   6.193  1.00  0.00     0.178 C 
ATOM     18  C   UNL     1     -50.199 -13.942   4.857  1.00  0.00     0.177 C 
BRANCH  14  19
ATOM     19  O   UNL     1     -49.237 -11.559   6.306  1.00  0.00    -0.385 OA
ATOM     20  H   UNL     1     -49.394 -10.704   5.811  1.00  0.00     0.211 HD
ENDBRANCH  14  19
BRANCH  16  21
ATOM     21  O   UNL     1     -48.217 -13.617   3.445  1.00  0.00    -0.387 OA
ATOM     22  H   UNL     1     -47.390 -13.074   3.303  1.00  0.00     0.211 HD
ENDBRANCH  16  21
BRANCH  17  23
ATOM     23  C   UNL     1     -49.572 -16.212   5.961  1.00  0.00     0.191 C 
BRANCH  23  24
ATOM     24  O   UNL     1     -49.422 -16.443   4.589  1.00  0.00    -0.394 OA
ATOM     25  H   UNL     1     -49.123 -17.393   4.446  1.00  0.00     0.210 HD
ENDBRANCH  23  24
ENDBRANCH  17  23
BRANCH  18  26
ATOM     26  O   UNL     1     -51.455 -13.298   4.934  1.00  0.00    -0.387 OA
ATOM     27  H   UNL     1     -51.512 -12.900   5.863  1.00  0.00     0.211 HD
ENDBRANCH  18  26
ENDBRANCH  12  13
ENDBRANCH   7  12
BRANCH   4  28
ATOM     28  O   UNL     1     -42.122 -15.660   7.506  1.00  0.00    -0.365 OA
ATOM     29  H   UNL     1     -41.633 -14.768   7.642  1.00  0.00     0.214 HD
ENDBRANCH   4  28
BRANCH   8  30
ATOM     30  C   UNL     1     -46.125 -17.366   5.318  1.00  0.00     0.249 C 
BRANCH  30  31
ATOM     31  O   UNL     1     -45.513 -18.393   4.537  1.00  0.00    -0.461 OA
BRANCH  31  32
ATOM     32  C   UNL     1     -45.071 -19.611   5.111  1.00  0.00     0.338 C 
ATOM     33  O   UNL     1     -45.695 -20.679   4.846  1.00  0.00    -0.246 OA
BRANCH  32  34
ATOM     34  C   UNL     1     -43.908 -19.599   6.045  1.00  0.00     0.060 A 
ATOM     35  C   UNL     1     -42.582 -19.449   5.539  1.00  0.00     0.015 A 
ATOM     36  C   UNL     1     -44.080 -19.745   7.435  1.00  0.00     0.015 A 
ATOM     37  C   UNL     1     -41.514 -19.214   6.446  1.00  0.00     0.001 A 
ATOM     38  C   UNL     1     -43.004 -19.531   8.340  1.00  0.00     0.001 A 
ATOM     39  C   UNL     1     -41.732 -19.225   7.859  1.00  0.00     0.000 A 
ENDBRANCH  32  34
ENDBRANCH  31  32
ENDBRANCH  30  31
ENDBRANCH   8  30
TORSDOF 12
ENDMDL
MODEL 5
REMARK VINA RESULT:    -6.804      3.757      6.842
REMARK INTER + INTRA:         -11.602
REMARK INTER:                  -9.807
REMARK INTRA:                  -1.795
REMARK UNBOUND:                -1.018
REMARK SMILES C[C@]12C[C@]3(O)O[C@H](O1)[C@@]1(COC(=O)c4ccccc4)[C@@H]3C[C@]12O[C@@H]1O[C@H](CO)[C@@H](O)[C@H](O)[C@H]1O
REMARK SMILES IDX 1 1 2 2 3 3 4 4 20 5 21 6 22 7 9 8 7 9 8 10 6 11 23 12 24 13
REMARK SMILES IDX 33 14 25 15 31 16 26 17 29 18 34 19 32 21 27 23 28 24 30 26
REMARK SMILES IDX 5 28 10 30 11 31 12 32 13 33 14 34 15 35 19 36 16 37 18 38
REMARK SMILES IDX 17 39
REMARK H PARENT 34 20 32 22 28 25 30 27 5 29
REMARK Flexibility Score: inf
ROOT
ATOM      1  C   UNL     1     -48.509 -17.244   8.962  1.00  0.00     0.046 C 
ATOM      2  C   UNL     1     -47.423 -17.967   8.288  1.00  0.00     0.104 C 
ATOM      3  C   UNL     1     -47.544 -19.527   8.165  1.00  0.00     0.104 C 
ATOM      4  C   UNL     1     -46.210 -19.942   7.419  1.00  0.00     0.175 C 
ATOM      5  C   UNL     1     -45.977 -19.014   6.183  1.00  0.00     0.070 C 
ATOM      6  C   UNL     1     -47.289 -18.372   5.705  1.00  0.00     0.050 C 
ATOM      7  C   UNL     1     -47.111 -17.368   6.862  1.00  0.00     0.115 C 
ATOM      8  C   UNL     1     -45.601 -17.716   6.894  1.00  0.00     0.096 C 
ATOM      9  C   UNL     1     -45.232 -18.156   8.305  1.00  0.00     0.267 C 
ATOM     10  O   UNL     1     -46.300 -17.746   9.096  1.00  0.00    -0.342 OA
ATOM     11  O   UNL     1     -45.147 -19.572   8.277  1.00  0.00    -0.320 OA
ENDROOT
BRANCH   7  12
ATOM     12  O   UNL     1     -47.507 -16.005   6.609  1.00  0.00    -0.339 OA
BRANCH  12  13
ATOM     13  C   UNL     1     -48.143 -15.754   5.316  1.00  0.00     0.282 C 
ATOM     14  C   UNL     1     -49.627 -15.110   5.404  1.00  0.00     0.202 C 
ATOM     15  O   UNL     1     -47.302 -14.871   4.584  1.00  0.00    -0.341 OA
ATOM     16  C   UNL     1     -49.480 -13.910   6.412  1.00  0.00     0.179 C 
ATOM     17  C   UNL     1     -47.086 -13.608   5.212  1.00  0.00     0.178 C 
ATOM     18  C   UNL     1     -48.334 -12.954   5.936  1.00  0.00     0.177 C 
BRANCH  14  19
ATOM     19  O   UNL     1     -49.922 -14.633   4.103  1.00  0.00    -0.385 OA
ATOM     20  H   UNL     1     -49.670 -13.666   4.151  1.00  0.00     0.211 HD
ENDBRANCH  14  19
BRANCH  16  21
ATOM     21  O   UNL     1     -49.217 -14.418   7.698  1.00  0.00    -0.387 OA
ATOM     22  H   UNL     1     -48.804 -13.723   8.286  1.00  0.00     0.211 HD
ENDBRANCH  16  21
BRANCH  17  23
ATOM     23  C   UNL     1     -45.815 -13.582   6.079  1.00  0.00     0.191 C 
BRANCH  23  24
ATOM     24  O   UNL     1     -46.181 -13.624   7.429  1.00  0.00    -0.394 OA
ATOM     25  H   UNL     1     -45.868 -12.781   7.881  1.00  0.00     0.210 HD
ENDBRANCH  23  24
ENDBRANCH  17  23
BRANCH  18  26
ATOM     26  O   UNL     1     -48.884 -11.883   5.195  1.00  0.00    -0.387 OA
ATOM     27  H   UNL     1     -48.102 -11.416   4.753  1.00  0.00     0.211 HD
ENDBRANCH  18  26
ENDBRANCH  12  13
ENDBRANCH   7  12
BRANCH   4  28
ATOM     28  O   UNL     1     -46.150 -21.276   7.036  1.00  0.00    -0.365 OA
ATOM     29  H   UNL     1     -46.306 -21.841   7.879  1.00  0.00     0.214 HD
ENDBRANCH   4  28
BRANCH   8  30
ATOM     30  C   UNL     1     -44.627 -16.727   6.197  1.00  0.00     0.249 C 
BRANCH  30  31
ATOM     31  O   UNL     1     -43.282 -16.924   6.638  1.00  0.00    -0.461 OA
BRANCH  31  32
ATOM     32  C   UNL     1     -42.379 -17.765   5.943  1.00  0.00     0.338 C 
ATOM     33  O   UNL     1     -41.761 -17.309   4.938  1.00  0.00    -0.246 OA
BRANCH  32  34
ATOM     34  C   UNL     1     -42.209 -19.180   6.386  1.00  0.00     0.060 A 
ATOM     35  C   UNL     1     -41.650 -19.469   7.666  1.00  0.00     0.015 A 
ATOM     36  C   UNL     1     -42.580 -20.258   5.559  1.00  0.00     0.015 A 
ATOM     37  C   UNL     1     -41.701 -20.799   8.164  1.00  0.00     0.001 A 
ATOM     38  C   UNL     1     -42.610 -21.592   6.053  1.00  0.00     0.001 A 
ATOM     39  C   UNL     1     -42.215 -21.865   7.361  1.00  0.00     0.000 A 
ENDBRANCH  32  34
ENDBRANCH  31  32
ENDBRANCH  30  31
ENDBRANCH   8  30
TORSDOF 12
ENDMDL
MODEL 6
REMARK VINA RESULT:    -6.732      2.711      7.135
REMARK INTER + INTRA:         -11.489
REMARK INTER:                  -9.752
REMARK INTRA:                  -1.737
REMARK UNBOUND:                -1.018
REMARK SMILES C[C@]12C[C@]3(O)O[C@H](O1)[C@@]1(COC(=O)c4ccccc4)[C@@H]3C[C@]12O[C@@H]1O[C@H](CO)[C@@H](O)[C@H](O)[C@H]1O
REMARK SMILES IDX 1 1 2 2 3 3 4 4 20 5 21 6 22 7 9 8 7 9 8 10 6 11 23 12 24 13
REMARK SMILES IDX 33 14 25 15 31 16 26 17 29 18 34 19 32 21 27 23 28 24 30 26
REMARK SMILES IDX 5 28 10 30 11 31 12 32 13 33 14 34 15 35 19 36 16 37 18 38
REMARK SMILES IDX 17 39
REMARK H PARENT 34 20 32 22 28 25 30 27 5 29
REMARK Flexibility Score: inf
ROOT
ATOM      1  C   UNL     1     -44.907 -13.969   3.243  1.00  0.00     0.046 C 
ATOM      2  C   UNL     1     -44.785 -14.916   4.358  1.00  0.00     0.104 C 
ATOM      3  C   UNL     1     -43.383 -15.061   5.049  1.00  0.00     0.104 C 
ATOM      4  C   UNL     1     -43.633 -16.160   6.161  1.00  0.00     0.175 C 
ATOM      5  C   UNL     1     -44.936 -15.829   6.958  1.00  0.00     0.070 C 
ATOM      6  C   UNL     1     -45.293 -14.338   6.860  1.00  0.00     0.050 C 
ATOM      7  C   UNL     1     -45.875 -14.664   5.470  1.00  0.00     0.115 C 
ATOM      8  C   UNL     1     -45.985 -16.151   5.895  1.00  0.00     0.096 C 
ATOM      9  C   UNL     1     -45.237 -17.004   4.879  1.00  0.00     0.267 C 
ATOM     10  O   UNL     1     -45.045 -16.168   3.785  1.00  0.00    -0.342 OA
ATOM     11  O   UNL     1     -43.994 -17.343   5.474  1.00  0.00    -0.320 OA
ENDROOT
BRANCH   7  12
ATOM     12  O   UNL     1     -47.073 -13.961   5.083  1.00  0.00    -0.339 OA
BRANCH  12  13
ATOM     13  C   UNL     1     -47.283 -12.660   5.717  1.00  0.00     0.282 C 
ATOM     14  C   UNL     1     -47.307 -11.402   4.697  1.00  0.00     0.202 C 
ATOM     15  O   UNL     1     -48.523 -12.712   6.411  1.00  0.00    -0.341 OA
ATOM     16  C   UNL     1     -48.288 -11.842   3.548  1.00  0.00     0.179 C 
ATOM     17  C   UNL     1     -49.652 -12.973   5.578  1.00  0.00     0.178 C 
ATOM     18  C   UNL     1     -49.666 -12.267   4.160  1.00  0.00     0.177 C 
BRANCH  14  19
ATOM     19  O   UNL     1     -47.851 -10.318   5.427  1.00  0.00    -0.385 OA
ATOM     20  H   UNL     1     -47.617  -9.523   4.867  1.00  0.00     0.211 HD
ENDBRANCH  14  19
BRANCH  16  21
ATOM     21  O   UNL     1     -47.706 -12.899   2.824  1.00  0.00    -0.387 OA
ATOM     22  H   UNL     1     -46.716 -12.930   2.958  1.00  0.00     0.211 HD
ENDBRANCH  16  21
BRANCH  17  23
ATOM     23  C   UNL     1     -50.002 -14.470   5.500  1.00  0.00     0.191 C 
BRANCH  23  24
ATOM     24  O   UNL     1     -49.686 -14.947   4.222  1.00  0.00    -0.394 OA
ATOM     25  H   UNL     1     -50.029 -15.889   4.129  1.00  0.00     0.210 HD
ENDBRANCH  23  24
ENDBRANCH  17  23
BRANCH  18  26
ATOM     26  O   UNL     1     -50.565 -11.176   4.113  1.00  0.00    -0.387 OA
ATOM     27  H   UNL     1     -50.115 -10.465   3.550  1.00  0.00     0.211 HD
ENDBRANCH  18  26
ENDBRANCH  12  13
ENDBRANCH   7  12
BRANCH   4  28
ATOM     28  O   UNL     1     -42.571 -16.352   7.036  1.00  0.00    -0.365 OA
ATOM     29  H   UNL     1     -42.637 -17.315   7.386  1.00  0.00     0.214 HD
ENDBRANCH   4  28
BRANCH   8  30
ATOM     30  C   UNL     1     -47.381 -16.663   6.341  1.00  0.00     0.249 C 
BRANCH  30  31
ATOM     31  O   UNL     1     -47.448 -18.090   6.304  1.00  0.00    -0.461 OA
BRANCH  31  32
ATOM     32  C   UNL     1     -47.106 -18.887   7.424  1.00  0.00     0.338 C 
ATOM     33  O   UNL     1     -47.935 -19.005   8.372  1.00  0.00    -0.246 OA
BRANCH  32  34
ATOM     34  C   UNL     1     -45.763 -19.535   7.478  1.00  0.00     0.060 A 
ATOM     35  C   UNL     1     -45.469 -20.649   6.635  1.00  0.00     0.015 A 
ATOM     36  C   UNL     1     -44.763 -19.081   8.360  1.00  0.00     0.015 A 
ATOM     37  C   UNL     1     -44.129 -21.109   6.534  1.00  0.00     0.001 A 
ATOM     38  C   UNL     1     -43.426 -19.560   8.271  1.00  0.00     0.001 A 
ATOM     39  C   UNL     1     -43.092 -20.538   7.336  1.00  0.00     0.000 A 
ENDBRANCH  32  34
ENDBRANCH  31  32
ENDBRANCH  30  31
ENDBRANCH   8  30
TORSDOF 12
ENDMDL
MODEL 7
REMARK VINA RESULT:    -6.727      1.684      1.979
REMARK INTER + INTRA:         -11.481
REMARK INTER:                  -9.764
REMARK INTRA:                  -1.717
REMARK UNBOUND:                -1.018
REMARK SMILES C[C@]12C[C@]3(O)O[C@H](O1)[C@@]1(COC(=O)c4ccccc4)[C@@H]3C[C@]12O[C@@H]1O[C@H](CO)[C@@H](O)[C@H](O)[C@H]1O
REMARK SMILES IDX 1 1 2 2 3 3 4 4 20 5 21 6 22 7 9 8 7 9 8 10 6 11 23 12 24 13
REMARK SMILES IDX 33 14 25 15 31 16 26 17 29 18 34 19 32 21 27 23 28 24 30 26
REMARK SMILES IDX 5 28 10 30 11 31 12 32 13 33 14 34 15 35 19 36 16 37 18 38
REMARK SMILES IDX 17 39
REMARK H PARENT 34 20 32 22 28 25 30 27 5 29
REMARK Flexibility Score: inf
ROOT
ATOM      1  C   UNL     1     -49.667 -14.635   5.069  1.00  0.00     0.046 C 
ATOM      2  C   UNL     1     -48.617 -13.634   4.842  1.00  0.00     0.104 C 
ATOM      3  C   UNL     1     -48.840 -12.192   5.424  1.00  0.00     0.104 C 
ATOM      4  C   UNL     1     -47.540 -11.409   4.971  1.00  0.00     0.175 C 
ATOM      5  C   UNL     1     -46.266 -12.257   5.285  1.00  0.00     0.070 C 
ATOM      6  C   UNL     1     -46.535 -13.290   6.391  1.00  0.00     0.050 C 
ATOM      7  C   UNL     1     -47.198 -14.151   5.297  1.00  0.00     0.115 C 
ATOM      8  C   UNL     1     -46.410 -13.352   4.229  1.00  0.00     0.096 C 
ATOM      9  C   UNL     1     -47.400 -12.774   3.225  1.00  0.00     0.267 C 
ATOM     10  O   UNL     1     -48.583 -13.469   3.452  1.00  0.00    -0.342 OA
ATOM     11  O   UNL     1     -47.556 -11.402   3.556  1.00  0.00    -0.320 OA
ENDROOT
BRANCH   7  12
ATOM     12  O   UNL     1     -47.004 -15.577   5.384  1.00  0.00    -0.339 OA
BRANCH  12  13
ATOM     13  C   UNL     1     -47.085 -16.153   6.726  1.00  0.00     0.282 C 
ATOM     14  C   UNL     1     -48.197 -17.319   6.899  1.00  0.00     0.202 C 
ATOM     15  O   UNL     1     -45.806 -16.688   7.045  1.00  0.00    -0.341 OA
ATOM     16  C   UNL     1     -47.951 -18.286   5.683  1.00  0.00     0.179 C 
ATOM     17  C   UNL     1     -45.361 -17.715   6.161  1.00  0.00     0.178 C 
ATOM     18  C   UNL     1     -46.454 -18.750   5.667  1.00  0.00     0.177 C 
BRANCH  14  19
ATOM     19  O   UNL     1     -47.894 -17.968   8.120  1.00  0.00    -0.385 OA
ATOM     20  H   UNL     1     -48.521 -18.747   8.128  1.00  0.00     0.211 HD
ENDBRANCH  14  19
BRANCH  16  21
ATOM     21  O   UNL     1     -48.288 -17.622   4.489  1.00  0.00    -0.387 OA
ATOM     22  H   UNL     1     -48.607 -16.691   4.668  1.00  0.00     0.211 HD
ENDBRANCH  16  21
BRANCH  17  23
ATOM     23  C   UNL     1     -44.490 -17.177   5.011  1.00  0.00     0.191 C 
BRANCH  23  24
ATOM     24  O   UNL     1     -45.133 -17.429   3.794  1.00  0.00    -0.394 OA
ATOM     25  H   UNL     1     -44.778 -16.795   3.097  1.00  0.00     0.210 HD
ENDBRANCH  23  24
ENDBRANCH  17  23
BRANCH  18  26
ATOM     26  O   UNL     1     -46.337 -20.002   6.313  1.00  0.00    -0.387 OA
ATOM     27  H   UNL     1     -46.966 -19.970   7.106  1.00  0.00     0.211 HD
ENDBRANCH  18  26
ENDBRANCH  12  13
ENDBRANCH   7  12
BRANCH   4  28
ATOM     28  O   UNL     1     -47.413 -10.135   5.511  1.00  0.00    -0.365 OA
ATOM     29  H   UNL     1     -46.546 -10.124   6.061  1.00  0.00     0.214 HD
ENDBRANCH   4  28
BRANCH   8  30
ATOM     30  C   UNL     1     -45.132 -14.012   3.644  1.00  0.00     0.249 C 
BRANCH  30  31
ATOM     31  O   UNL     1     -45.416 -14.710   2.430  1.00  0.00    -0.461 OA
BRANCH  31  32
ATOM     32  C   UNL     1     -44.400 -15.051   1.504  1.00  0.00     0.338 C 
ATOM     33  O   UNL     1     -43.399 -15.712   1.903  1.00  0.00    -0.246 OA
BRANCH  32  34
ATOM     34  C   UNL     1     -44.514 -14.587   0.090  1.00  0.00     0.060 A 
ATOM     35  C   UNL     1     -43.378 -14.627  -0.773  1.00  0.00     0.015 A 
ATOM     36  C   UNL     1     -45.728 -14.090  -0.425  1.00  0.00     0.015 A 
ATOM     37  C   UNL     1     -43.553 -14.398  -2.164  1.00  0.00     0.001 A 
ATOM     38  C   UNL     1     -45.894 -13.841  -1.815  1.00  0.00     0.001 A 
ATOM     39  C   UNL     1     -44.829 -14.032  -2.695  1.00  0.00     0.000 A 
ENDBRANCH  32  34
ENDBRANCH  31  32
ENDBRANCH  30  31
ENDBRANCH   8  30
TORSDOF 12
ENDMDL
MODEL 8
REMARK VINA RESULT:    -6.647      2.685      7.532
REMARK INTER + INTRA:         -11.356
REMARK INTER:                  -9.727
REMARK INTRA:                  -1.629
REMARK UNBOUND:                -1.018
REMARK SMILES C[C@]12C[C@]3(O)O[C@H](O1)[C@@]1(COC(=O)c4ccccc4)[C@@H]3C[C@]12O[C@@H]1O[C@H](CO)[C@@H](O)[C@H](O)[C@H]1O
REMARK SMILES IDX 1 1 2 2 3 3 4 4 20 5 21 6 22 7 9 8 7 9 8 10 6 11 23 12 24 13
REMARK SMILES IDX 33 14 25 15 31 16 26 17 29 18 34 19 32 21 27 23 28 24 30 26
REMARK SMILES IDX 5 28 10 30 11 31 12 32 13 33 14 34 15 35 19 36 16 37 18 38
REMARK SMILES IDX 17 39
REMARK H PARENT 34 20 32 22 28 25 30 27 5 29
REMARK Flexibility Score: inf
ROOT
ATOM      1  C   UNL     1     -44.632 -14.223   3.192  1.00  0.00     0.046 C 
ATOM      2  C   UNL     1     -44.622 -15.148   4.333  1.00  0.00     0.104 C 
ATOM      3  C   UNL     1     -43.259 -15.381   5.077  1.00  0.00     0.104 C 
ATOM      4  C   UNL     1     -43.632 -16.429   6.205  1.00  0.00     0.175 C 
ATOM      5  C   UNL     1     -44.931 -15.977   6.948  1.00  0.00     0.070 C 
ATOM      6  C   UNL     1     -45.168 -14.466   6.801  1.00  0.00     0.050 C 
ATOM      7  C   UNL     1     -45.726 -14.783   5.399  1.00  0.00     0.115 C 
ATOM      8  C   UNL     1     -45.966 -16.245   5.856  1.00  0.00     0.096 C 
ATOM      9  C   UNL     1     -45.253 -17.180   4.887  1.00  0.00     0.267 C 
ATOM     10  O   UNL     1     -44.959 -16.390   3.781  1.00  0.00    -0.342 OA
ATOM     11  O   UNL     1     -44.061 -17.598   5.534  1.00  0.00    -0.320 OA
ENDROOT
BRANCH   7  12
ATOM     12  O   UNL     1     -46.851 -13.999   4.953  1.00  0.00    -0.339 OA
BRANCH  12  13
ATOM     13  C   UNL     1     -46.952 -12.651   5.511  1.00  0.00     0.282 C 
ATOM     14  C   UNL     1     -46.889 -11.457   4.417  1.00  0.00     0.202 C 
ATOM     15  O   UNL     1     -48.186 -12.565   6.213  1.00  0.00    -0.341 OA
ATOM     16  C   UNL     1     -47.914 -11.885   3.303  1.00  0.00     0.179 C 
ATOM     17  C   UNL     1     -49.340 -12.785   5.405  1.00  0.00     0.178 C 
ATOM     18  C   UNL     1     -49.314 -12.164   3.947  1.00  0.00     0.177 C 
BRANCH  14  19
ATOM     19  O   UNL     1     -47.339 -10.292   5.085  1.00  0.00    -0.385 OA
ATOM     20  H   UNL     1     -47.751 -10.654   5.922  1.00  0.00     0.211 HD
ENDBRANCH  14  19
BRANCH  16  21
ATOM     21  O   UNL     1     -47.425 -13.026   2.639  1.00  0.00    -0.387 OA
ATOM     22  H   UNL     1     -46.836 -12.775   1.871  1.00  0.00     0.211 HD
ENDBRANCH  16  21
BRANCH  17  23
ATOM     23  C   UNL     1     -49.807 -14.251   5.418  1.00  0.00     0.191 C 
BRANCH  23  24
ATOM     24  O   UNL     1     -49.632 -14.798   4.142  1.00  0.00    -0.394 OA
ATOM     25  H   UNL     1     -49.070 -15.630   4.215  1.00  0.00     0.210 HD
ENDBRANCH  23  24
ENDBRANCH  17  23
BRANCH  18  26
ATOM     26  O   UNL     1     -50.125 -11.010   3.842  1.00  0.00    -0.387 OA
ATOM     27  H   UNL     1     -49.679 -10.415   3.155  1.00  0.00     0.211 HD
ENDBRANCH  18  26
ENDBRANCH  12  13
ENDBRANCH   7  12
BRANCH   4  28
ATOM     28  O   UNL     1     -42.618 -16.679   7.122  1.00  0.00    -0.365 OA
ATOM     29  H   UNL     1     -41.864 -17.156   6.617  1.00  0.00     0.214 HD
ENDBRANCH   4  28
BRANCH   8  30
ATOM     30  C   UNL     1     -47.412 -16.636   6.264  1.00  0.00     0.249 C 
BRANCH  30  31
ATOM     31  O   UNL     1     -47.772 -17.916   5.740  1.00  0.00    -0.461 OA
BRANCH  31  32
ATOM     32  C   UNL     1     -47.757 -19.085   6.539  1.00  0.00     0.338 C 
ATOM     33  O   UNL     1     -48.175 -20.173   6.047  1.00  0.00    -0.246 OA
BRANCH  32  34
ATOM     34  C   UNL     1     -47.287 -18.999   7.952  1.00  0.00     0.060 A 
ATOM     35  C   UNL     1     -45.908 -19.192   8.264  1.00  0.00     0.015 A 
ATOM     36  C   UNL     1     -48.181 -18.741   9.010  1.00  0.00     0.015 A 
ATOM     37  C   UNL     1     -45.440 -18.888   9.570  1.00  0.00     0.001 A 
ATOM     38  C   UNL     1     -47.712 -18.457  10.322  1.00  0.00     0.001 A 
ATOM     39  C   UNL     1     -46.346 -18.486  10.601  1.00  0.00     0.000 A 
ENDBRANCH  32  34
ENDBRANCH  31  32
ENDBRANCH  30  31
ENDBRANCH   8  30
TORSDOF 12
ENDMDL
MODEL 9
REMARK VINA RESULT:    -6.599      2.642      7.435
REMARK INTER + INTRA:         -11.283
REMARK INTER:                  -9.741
REMARK INTRA:                  -1.541
REMARK UNBOUND:                -1.018
REMARK SMILES C[C@]12C[C@]3(O)O[C@H](O1)[C@@]1(COC(=O)c4ccccc4)[C@@H]3C[C@]12O[C@@H]1O[C@H](CO)[C@@H](O)[C@H](O)[C@H]1O
REMARK SMILES IDX 1 1 2 2 3 3 4 4 20 5 21 6 22 7 9 8 7 9 8 10 6 11 23 12 24 13
REMARK SMILES IDX 33 14 25 15 31 16 26 17 29 18 34 19 32 21 27 23 28 24 30 26
REMARK SMILES IDX 5 28 10 30 11 31 12 32 13 33 14 34 15 35 19 36 16 37 18 38
REMARK SMILES IDX 17 39
REMARK H PARENT 34 20 32 22 28 25 30 27 5 29
REMARK Flexibility Score: inf
ROOT
ATOM      1  C   UNL     1     -44.076 -15.126   2.669  1.00  0.00     0.046 C 
ATOM      2  C   UNL     1     -44.129 -15.487   4.091  1.00  0.00     0.104 C 
ATOM      3  C   UNL     1     -42.774 -15.797   4.821  1.00  0.00     0.104 C 
ATOM      4  C   UNL     1     -43.227 -16.159   6.296  1.00  0.00     0.175 C 
ATOM      5  C   UNL     1     -44.243 -15.094   6.821  1.00  0.00     0.070 C 
ATOM      6  C   UNL     1     -44.108 -13.764   6.062  1.00  0.00     0.050 C 
ATOM      7  C   UNL     1     -44.933 -14.428   4.941  1.00  0.00     0.115 C 
ATOM      8  C   UNL     1     -45.463 -15.453   5.975  1.00  0.00     0.096 C 
ATOM      9  C   UNL     1     -45.164 -16.857   5.465  1.00  0.00     0.267 C 
ATOM     10  O   UNL     1     -44.848 -16.689   4.122  1.00  0.00    -0.342 OA
ATOM     11  O   UNL     1     -44.032 -17.317   6.189  1.00  0.00    -0.320 OA
ENDROOT
BRANCH   7  12
ATOM     12  O   UNL     1     -45.877 -13.591   4.243  1.00  0.00    -0.339 OA
BRANCH  12  13
ATOM     13  C   UNL     1     -45.603 -12.154   4.274  1.00  0.00     0.282 C 
ATOM     14  C   UNL     1     -45.439 -11.462   2.818  1.00  0.00     0.202 C 
ATOM     15  O   UNL     1     -46.674 -11.525   4.965  1.00  0.00    -0.341 OA
ATOM     16  C   UNL     1     -46.682 -11.969   1.996  1.00  0.00     0.179 C 
ATOM     17  C   UNL     1     -47.953 -11.706   4.358  1.00  0.00     0.178 C 
ATOM     18  C   UNL     1     -48.002 -11.647   2.776  1.00  0.00     0.177 C 
BRANCH  14  19
ATOM     19  O   UNL     1     -45.526 -10.066   3.040  1.00  0.00    -0.385 OA
ATOM     20  H   UNL     1     -45.786  -9.707   2.143  1.00  0.00     0.211 HD
ENDBRANCH  14  19
BRANCH  16  21
ATOM     21  O   UNL     1     -46.551 -13.352   1.769  1.00  0.00    -0.387 OA
ATOM     22  H   UNL     1     -47.096 -13.645   0.984  1.00  0.00     0.211 HD
ENDBRANCH  16  21
BRANCH  17  23
ATOM     23  C   UNL     1     -48.719 -12.912   4.932  1.00  0.00     0.191 C 
BRANCH  23  24
ATOM     24  O   UNL     1     -48.723 -13.943   3.986  1.00  0.00    -0.394 OA
ATOM     25  H   UNL     1     -48.950 -13.561   3.083  1.00  0.00     0.210 HD
ENDBRANCH  23  24
ENDBRANCH  17  23
BRANCH  18  26
ATOM     26  O   UNL     1     -48.551 -10.433   2.302  1.00  0.00    -0.387 OA
ATOM     27  H   UNL     1     -47.855 -10.031   1.686  1.00  0.00     0.211 HD
ENDBRANCH  18  26
ENDBRANCH  12  13
ENDBRANCH   7  12
BRANCH   4  28
ATOM     28  O   UNL     1     -42.184 -16.313   7.201  1.00  0.00    -0.365 OA
ATOM     29  H   UNL     1     -41.483 -16.916   6.756  1.00  0.00     0.214 HD
ENDBRANCH   4  28
BRANCH   8  30
ATOM     30  C   UNL     1     -46.883 -15.212   6.554  1.00  0.00     0.249 C 
BRANCH  30  31
ATOM     31  O   UNL     1     -47.829 -16.138   6.016  1.00  0.00    -0.461 OA
BRANCH  31  32
ATOM     32  C   UNL     1     -48.424 -17.150   6.810  1.00  0.00     0.338 C 
ATOM     33  O   UNL     1     -49.523 -16.911   7.389  1.00  0.00    -0.246 OA
BRANCH  32  34
ATOM     34  C   UNL     1     -47.722 -18.456   6.976  1.00  0.00     0.060 A 
ATOM     35  C   UNL     1     -47.844 -19.468   5.978  1.00  0.00     0.015 A 
ATOM     36  C   UNL     1     -46.939 -18.730   8.115  1.00  0.00     0.015 A 
ATOM     37  C   UNL     1     -46.999 -20.609   6.038  1.00  0.00     0.001 A 
ATOM     38  C   UNL     1     -46.110 -19.884   8.181  1.00  0.00     0.001 A 
ATOM     39  C   UNL     1     -46.101 -20.803   7.134  1.00  0.00     0.000 A 
ENDBRANCH  32  34
ENDBRANCH  31  32
ENDBRANCH  30  31
ENDBRANCH   8  30
TORSDOF 12
ENDMDL
