MODEL 1
REMARK VINA RESULT:    -3.486      0.000      0.000
REMARK INTER + INTRA:          -7.771
REMARK INTER:                  -5.932
REMARK INTRA:                  -1.839
REMARK UNBOUND:                -1.839
REMARK SMILES CCCCCCCCCCCCCC(=O)[O-]
REMARK SMILES IDX 8 1 9 2 10 3 11 4 12 5 13 6 14 7 15 8 16 9 7 10 6 11 5 12
REMARK SMILES IDX 4 13 3 14 2 15 1 16
REMARK H PARENT
REMARK Flexibility Score: inf
ROOT
ATOM      1  C   UNL     1       6.088   0.570  49.540  1.00  0.00     0.000 C 
ENDROOT
BRANCH   1   2
ATOM      2  C   UNL     1       7.126   1.239  48.628  1.00  0.00     0.000 C 
BRANCH   2   3
ATOM      3  C   UNL     1       6.444   1.989  47.477  1.00  0.00     0.000 C 
BRANCH   3   4
ATOM      4  C   UNL     1       5.696   3.225  47.992  1.00  0.00     0.000 C 
BRANCH   4   5
ATOM      5  C   UNL     1       6.677   4.319  48.430  1.00  0.00     0.006 C 
BRANCH   5   6
ATOM      6  C   UNL     1       6.183   5.026  49.695  1.00  0.00     0.053 C 
BRANCH   6   7
ATOM      7  C   UNL     1       7.273   5.098  50.716  1.00  0.00     0.041 C 
ATOM      8  O   UNL     1       7.666   6.215  51.145  1.00  0.00    -0.550 OA
ATOM      9  O   UNL     1       7.822   3.931  51.231  1.00  0.00    -0.550 OA
ENDBRANCH   6   7
ENDBRANCH   5   6
ENDBRANCH   4   5
ENDBRANCH   3   4
ENDBRANCH   2   3
ENDBRANCH   1   2
BRANCH   1  10
ATOM     10  C   UNL     1       6.398   0.756  51.036  1.00  0.00     0.000 C 
BRANCH  10  11
ATOM     11  C   UNL     1       5.184   1.132  51.910  1.00  0.00    -0.000 C 
BRANCH  11  12
ATOM     12  C   UNL     1       4.499   2.465  51.544  1.00  0.00    -0.000 C 
BRANCH  12  13
ATOM     13  C   UNL     1       3.004   2.351  51.198  1.00  0.00    -0.000 C 
BRANCH  13  14
ATOM     14  C   UNL     1       2.758   1.822  49.778  1.00  0.00    -0.000 C 
BRANCH  14  15
ATOM     15  C   UNL     1       1.785   0.637  49.794  1.00  0.00    -0.003 C 
ATOM     16  C   UNL     1       2.508  -0.667  50.119  1.00  0.00     0.004 C 
ENDBRANCH  14  15
ENDBRANCH  13  14
ENDBRANCH  12  13
ENDBRANCH  11  12
ENDBRANCH  10  11
ENDBRANCH   1  10
TORSDOF 12
ENDMDL
MODEL 2
REMARK VINA RESULT:    -3.428      2.428      3.837
REMARK INTER + INTRA:          -7.673
REMARK INTER:                  -5.741
REMARK INTRA:                  -1.932
REMARK UNBOUND:                -1.839
REMARK SMILES CCCCCCCCCCCCCC(=O)[O-]
REMARK SMILES IDX 8 1 9 2 10 3 11 4 12 5 13 6 14 7 15 8 16 9 7 10 6 11 5 12
REMARK SMILES IDX 4 13 3 14 2 15 1 16
REMARK H PARENT
REMARK Flexibility Score: inf
ROOT
ATOM      1  C   UNL     1       7.784   3.634  51.436  1.00  0.00     0.000 C 
ENDROOT
BRANCH   1   2
ATOM      2  C   UNL     1       6.947   4.780  52.023  1.00  0.00     0.000 C 
BRANCH   2   3
ATOM      3  C   UNL     1       6.408   5.690  50.913  1.00  0.00     0.000 C 
BRANCH   3   4
ATOM      4  C   UNL     1       7.553   6.312  50.104  1.00  0.00     0.000 C 
BRANCH   4   5
ATOM      5  C   UNL     1       7.332   6.119  48.599  1.00  0.00     0.006 C 
BRANCH   5   6
ATOM      6  C   UNL     1       7.457   7.449  47.851  1.00  0.00     0.053 C 
BRANCH   6   7
ATOM      7  C   UNL     1       8.844   7.994  47.977  1.00  0.00     0.041 C 
ATOM      8  O   UNL     1       9.825   7.336  47.540  1.00  0.00    -0.550 OA
ATOM      9  O   UNL     1       9.050   9.251  48.530  1.00  0.00    -0.550 OA
ENDBRANCH   6   7
ENDBRANCH   5   6
ENDBRANCH   4   5
ENDBRANCH   3   4
ENDBRANCH   2   3
ENDBRANCH   1   2
BRANCH   1  10
ATOM     10  C   UNL     1       7.107   2.260  51.592  1.00  0.00     0.000 C 
BRANCH  10  11
ATOM     11  C   UNL     1       6.692   1.586  50.269  1.00  0.00    -0.000 C 
BRANCH  11  12
ATOM     12  C   UNL     1       6.634   2.522  49.045  1.00  0.00    -0.000 C 
BRANCH  12  13
ATOM     13  C   UNL     1       5.222   2.993  48.653  1.00  0.00    -0.000 C 
BRANCH  13  14
ATOM     14  C   UNL     1       4.127   2.412  49.559  1.00  0.00    -0.000 C 
BRANCH  14  15
ATOM     15  C   UNL     1       3.443   3.517  50.372  1.00  0.00    -0.003 C 
ATOM     16  C   UNL     1       3.512   3.226  51.868  1.00  0.00     0.004 C 
ENDBRANCH  14  15
ENDBRANCH  13  14
ENDBRANCH  12  13
ENDBRANCH  11  12
ENDBRANCH  10  11
ENDBRANCH   1  10
TORSDOF 12
ENDMDL
MODEL 3
REMARK VINA RESULT:    -3.372      1.496      3.702
REMARK INTER + INTRA:          -7.577
REMARK INTER:                  -5.377
REMARK INTRA:                  -2.200
REMARK UNBOUND:                -1.839
REMARK SMILES CCCCCCCCCCCCCC(=O)[O-]
REMARK SMILES IDX 8 1 9 2 10 3 11 4 12 5 13 6 14 7 15 8 16 9 7 10 6 11 5 12
REMARK SMILES IDX 4 13 3 14 2 15 1 16
REMARK H PARENT
REMARK Flexibility Score: inf
ROOT
ATOM      1  C   UNL     1       3.079   2.043  49.842  1.00  0.00     0.000 C 
ENDROOT
BRANCH   1   2
ATOM      2  C   UNL     1       3.414   3.423  50.427  1.00  0.00     0.000 C 
BRANCH   2   3
ATOM      3  C   UNL     1       4.000   3.293  51.838  1.00  0.00     0.000 C 
BRANCH   3   4
ATOM      4  C   UNL     1       5.362   3.991  51.936  1.00  0.00     0.000 C 
BRANCH   4   5
ATOM      5  C   UNL     1       5.621   4.867  50.704  1.00  0.00     0.006 C 
BRANCH   5   6
ATOM      6  C   UNL     1       7.122   5.053  50.468  1.00  0.00     0.053 C 
BRANCH   6   7
ATOM      7  C   UNL     1       7.371   6.219  49.564  1.00  0.00     0.041 C 
ATOM      8  O   UNL     1       7.545   7.368  50.048  1.00  0.00    -0.550 OA
ATOM      9  O   UNL     1       7.461   6.027  48.191  1.00  0.00    -0.550 OA
ENDBRANCH   6   7
ENDBRANCH   5   6
ENDBRANCH   4   5
ENDBRANCH   3   4
ENDBRANCH   2   3
ENDBRANCH   1   2
BRANCH   1  10
ATOM     10  C   UNL     1       3.363   0.892  50.825  1.00  0.00     0.000 C 
BRANCH  10  11
ATOM     11  C   UNL     1       3.786  -0.436  50.165  1.00  0.00    -0.000 C 
BRANCH  11  12
ATOM     12  C   UNL     1       5.273  -0.527  49.767  1.00  0.00    -0.000 C 
BRANCH  12  13
ATOM     13  C   UNL     1       6.218   0.374  50.581  1.00  0.00    -0.000 C 
BRANCH  13  14
ATOM     14  C   UNL     1       6.927   1.429  49.719  1.00  0.00    -0.000 C 
BRANCH  14  15
ATOM     15  C   UNL     1       6.464   1.347  48.260  1.00  0.00    -0.003 C 
ATOM     16  C   UNL     1       6.071   2.722  47.727  1.00  0.00     0.004 C 
ENDBRANCH  14  15
ENDBRANCH  13  14
ENDBRANCH  12  13
ENDBRANCH  11  12
ENDBRANCH  10  11
ENDBRANCH   1  10
TORSDOF 12
ENDMDL
MODEL 4
REMARK VINA RESULT:    -3.329      3.434      5.998
REMARK INTER + INTRA:          -7.503
REMARK INTER:                  -6.062
REMARK INTRA:                  -1.441
REMARK UNBOUND:                -1.839
REMARK SMILES CCCCCCCCCCCCCC(=O)[O-]
REMARK SMILES IDX 8 1 9 2 10 3 11 4 12 5 13 6 14 7 15 8 16 9 7 10 6 11 5 12
REMARK SMILES IDX 4 13 3 14 2 15 1 16
REMARK H PARENT
REMARK Flexibility Score: inf
ROOT
ATOM      1  C   UNL     1       4.035   5.113  50.550  1.00  0.00     0.000 C 
ENDROOT
BRANCH   1   2
ATOM      2  C   UNL     1       2.952   4.064  50.840  1.00  0.00     0.000 C 
BRANCH   2   3
ATOM      3  C   UNL     1       3.532   2.646  50.784  1.00  0.00     0.000 C 
BRANCH   3   4
ATOM      4  C   UNL     1       2.572   1.686  50.071  1.00  0.00     0.000 C 
BRANCH   4   5
ATOM      5  C   UNL     1       2.029   0.629  51.040  1.00  0.00     0.006 C 
BRANCH   5   6
ATOM      6  C   UNL     1       0.805  -0.078  50.453  1.00  0.00     0.053 C 
BRANCH   6   7
ATOM      7  C   UNL     1       1.133  -0.676  49.122  1.00  0.00     0.041 C 
ATOM      8  O   UNL     1       1.963  -1.619  49.039  1.00  0.00    -0.550 OA
ATOM      9  O   UNL     1       0.484  -0.227  47.979  1.00  0.00    -0.550 OA
ENDBRANCH   6   7
ENDBRANCH   5   6
ENDBRANCH   4   5
ENDBRANCH   3   4
ENDBRANCH   2   3
ENDBRANCH   1   2
BRANCH   1  10
ATOM     10  C   UNL     1       5.452   4.513  50.510  1.00  0.00     0.000 C 
BRANCH  10  11
ATOM     11  C   UNL     1       6.428   5.215  49.544  1.00  0.00    -0.000 C 
BRANCH  11  12
ATOM     12  C   UNL     1       6.713   4.456  48.232  1.00  0.00    -0.000 C 
BRANCH  12  13
ATOM     13  C   UNL     1       5.756   3.287  47.938  1.00  0.00    -0.000 C 
BRANCH  13  14
ATOM     14  C   UNL     1       6.485   1.946  47.769  1.00  0.00    -0.000 C 
BRANCH  14  15
ATOM     15  C   UNL     1       6.611   1.216  49.111  1.00  0.00    -0.003 C 
ATOM     16  C   UNL     1       5.740  -0.036  49.142  1.00  0.00     0.004 C 
ENDBRANCH  14  15
ENDBRANCH  13  14
ENDBRANCH  12  13
ENDBRANCH  11  12
ENDBRANCH  10  11
ENDBRANCH   1  10
TORSDOF 12
ENDMDL
MODEL 5
REMARK VINA RESULT:    -3.302      2.015      3.173
REMARK INTER + INTRA:          -7.458
REMARK INTER:                  -5.948
REMARK INTRA:                  -1.510
REMARK UNBOUND:                -1.839
REMARK SMILES CCCCCCCCCCCCCC(=O)[O-]
REMARK SMILES IDX 8 1 9 2 10 3 11 4 12 5 13 6 14 7 15 8 16 9 7 10 6 11 5 12
REMARK SMILES IDX 4 13 3 14 2 15 1 16
REMARK H PARENT
REMARK Flexibility Score: inf
ROOT
ATOM      1  C   UNL     1       6.646   2.069  47.609  1.00  0.00     0.000 C 
ENDROOT
BRANCH   1   2
ATOM      2  C   UNL     1       5.858   3.326  48.008  1.00  0.00     0.000 C 
BRANCH   2   3
ATOM      3  C   UNL     1       6.802   4.503  48.277  1.00  0.00     0.000 C 
BRANCH   3   4
ATOM      4  C   UNL     1       6.671   4.995  49.724  1.00  0.00     0.000 C 
BRANCH   4   5
ATOM      5  C   UNL     1       7.609   6.179  49.990  1.00  0.00     0.006 C 
BRANCH   5   6
ATOM      6  C   UNL     1       6.910   7.510  49.701  1.00  0.00     0.053 C 
BRANCH   6   7
ATOM      7  C   UNL     1       7.639   8.265  48.636  1.00  0.00     0.041 C 
ATOM      8  O   UNL     1       7.805   7.752  47.498  1.00  0.00    -0.550 OA
ATOM      9  O   UNL     1       8.091   9.555  48.883  1.00  0.00    -0.550 OA
ENDBRANCH   6   7
ENDBRANCH   5   6
ENDBRANCH   4   5
ENDBRANCH   3   4
ENDBRANCH   2   3
ENDBRANCH   1   2
BRANCH   1  10
ATOM     10  C   UNL     1       6.425   0.893  48.577  1.00  0.00     0.000 C 
BRANCH  10  11
ATOM     11  C   UNL     1       6.602   1.238  50.070  1.00  0.00    -0.000 C 
BRANCH  11  12
ATOM     12  C   UNL     1       5.310   1.195  50.911  1.00  0.00    -0.000 C 
BRANCH  12  13
ATOM     13  C   UNL     1       4.044   0.793  50.134  1.00  0.00    -0.000 C 
BRANCH  13  14
ATOM     14  C   UNL     1       3.080   1.969  49.914  1.00  0.00    -0.000 C 
BRANCH  14  15
ATOM     15  C   UNL     1       3.052   2.892  51.137  1.00  0.00    -0.003 C 
ATOM     16  C   UNL     1       3.186   4.356  50.728  1.00  0.00     0.004 C 
ENDBRANCH  14  15
ENDBRANCH  13  14
ENDBRANCH  12  13
ENDBRANCH  11  12
ENDBRANCH  10  11
ENDBRANCH   1  10
TORSDOF 12
ENDMDL
MODEL 6
REMARK VINA RESULT:    -3.299      2.389      3.252
REMARK INTER + INTRA:          -7.453
REMARK INTER:                  -5.685
REMARK INTRA:                  -1.768
REMARK UNBOUND:                -1.839
REMARK SMILES CCCCCCCCCCCCCC(=O)[O-]
REMARK SMILES IDX 8 1 9 2 10 3 11 4 12 5 13 6 14 7 15 8 16 9 7 10 6 11 5 12
REMARK SMILES IDX 4 13 3 14 2 15 1 16
REMARK H PARENT
REMARK Flexibility Score: inf
ROOT
ATOM      1  C   UNL     1       6.544   1.991  47.474  1.00  0.00     0.000 C 
ENDROOT
BRANCH   1   2
ATOM      2  C   UNL     1       5.631   3.163  47.863  1.00  0.00     0.000 C 
BRANCH   2   3
ATOM      3  C   UNL     1       6.428   4.271  48.563  1.00  0.00     0.000 C 
BRANCH   3   4
ATOM      4  C   UNL     1       5.882   4.536  49.971  1.00  0.00     0.000 C 
BRANCH   4   5
ATOM      5  C   UNL     1       4.371   4.283  50.033  1.00  0.00     0.006 C 
BRANCH   5   6
ATOM      6  C   UNL     1       3.741   5.002  51.229  1.00  0.00     0.053 C 
BRANCH   6   7
ATOM      7  C   UNL     1       2.748   6.020  50.766  1.00  0.00     0.041 C 
ATOM      8  O   UNL     1       1.518   5.750  50.767  1.00  0.00    -0.550 OA
ATOM      9  O   UNL     1       3.177   7.284  50.382  1.00  0.00    -0.550 OA
ENDBRANCH   6   7
ENDBRANCH   5   6
ENDBRANCH   4   5
ENDBRANCH   3   4
ENDBRANCH   2   3
ENDBRANCH   1   2
BRANCH   1  10
ATOM     10  C   UNL     1       7.089   1.227  48.694  1.00  0.00     0.000 C 
BRANCH  10  11
ATOM     11  C   UNL     1       6.029   0.443  49.496  1.00  0.00    -0.000 C 
BRANCH  11  12
ATOM     12  C   UNL     1       5.817   0.922  50.946  1.00  0.00    -0.000 C 
BRANCH  12  13
ATOM     13  C   UNL     1       4.411   0.666  51.515  1.00  0.00    -0.000 C 
BRANCH  13  14
ATOM     14  C   UNL     1       3.417   0.176  50.452  1.00  0.00    -0.000 C 
BRANCH  14  15
ATOM     15  C   UNL     1       2.446   1.294  50.053  1.00  0.00    -0.003 C 
ATOM     16  C   UNL     1       1.564   1.705  51.228  1.00  0.00     0.004 C 
ENDBRANCH  14  15
ENDBRANCH  13  14
ENDBRANCH  12  13
ENDBRANCH  11  12
ENDBRANCH  10  11
ENDBRANCH   1  10
TORSDOF 12
ENDMDL
MODEL 7
REMARK VINA RESULT:    -3.267      3.240      5.667
REMARK INTER + INTRA:          -7.398
REMARK INTER:                  -5.672
REMARK INTRA:                  -1.727
REMARK UNBOUND:                -1.839
REMARK SMILES CCCCCCCCCCCCCC(=O)[O-]
REMARK SMILES IDX 8 1 9 2 10 3 11 4 12 5 13 6 14 7 15 8 16 9 7 10 6 11 5 12
REMARK SMILES IDX 4 13 3 14 2 15 1 16
REMARK H PARENT
REMARK Flexibility Score: inf
ROOT
ATOM      1  C   UNL     1       6.760   1.081  49.091  1.00  0.00     0.000 C 
ENDROOT
BRANCH   1   2
ATOM      2  C   UNL     1       5.850  -0.140  49.293  1.00  0.00     0.000 C 
BRANCH   2   3
ATOM      3  C   UNL     1       5.518  -0.338  50.777  1.00  0.00     0.000 C 
BRANCH   3   4
ATOM      4  C   UNL     1       4.694   0.836  51.319  1.00  0.00     0.000 C 
BRANCH   4   5
ATOM      5  C   UNL     1       3.222   0.443  51.491  1.00  0.00     0.006 C 
BRANCH   5   6
ATOM      6  C   UNL     1       2.428   0.711  50.209  1.00  0.00     0.053 C 
BRANCH   6   7
ATOM      7  C   UNL     1       1.776  -0.544  49.723  1.00  0.00     0.041 C 
ATOM      8  O   UNL     1       2.480  -1.522  49.357  1.00  0.00    -0.550 OA
ATOM      9  O   UNL     1       0.392  -0.653  49.722  1.00  0.00    -0.550 OA
ENDBRANCH   6   7
ENDBRANCH   5   6
ENDBRANCH   4   5
ENDBRANCH   3   4
ENDBRANCH   2   3
ENDBRANCH   1   2
BRANCH   1  10
ATOM     10  C   UNL     1       6.545   1.767  47.730  1.00  0.00     0.000 C 
BRANCH  10  11
ATOM     11  C   UNL     1       6.014   3.213  47.808  1.00  0.00    -0.000 C 
BRANCH  11  12
ATOM     12  C   UNL     1       4.882   3.442  48.830  1.00  0.00    -0.000 C 
BRANCH  12  13
ATOM     13  C   UNL     1       5.265   4.316  50.037  1.00  0.00    -0.000 C 
BRANCH  13  14
ATOM     14  C   UNL     1       6.706   4.841  49.961  1.00  0.00    -0.000 C 
BRANCH  14  15
ATOM     15  C   UNL     1       7.399   4.742  51.325  1.00  0.00    -0.003 C 
ATOM     16  C   UNL     1       7.708   3.291  51.682  1.00  0.00     0.004 C 
ENDBRANCH  14  15
ENDBRANCH  13  14
ENDBRANCH  12  13
ENDBRANCH  11  12
ENDBRANCH  10  11
ENDBRANCH   1  10
TORSDOF 12
ENDMDL
MODEL 8
REMARK VINA RESULT:    -3.232      3.373      5.569
REMARK INTER + INTRA:          -7.339
REMARK INTER:                  -5.679
REMARK INTRA:                  -1.660
REMARK UNBOUND:                -1.839
REMARK SMILES CCCCCCCCCCCCCC(=O)[O-]
REMARK SMILES IDX 8 1 9 2 10 3 11 4 12 5 13 6 14 7 15 8 16 9 7 10 6 11 5 12
REMARK SMILES IDX 4 13 3 14 2 15 1 16
REMARK H PARENT
REMARK Flexibility Score: inf
ROOT
ATOM      1  C   UNL     1       6.551   0.776  51.863  1.00  0.00     0.000 C 
ENDROOT
BRANCH   1   2
ATOM      2  C   UNL     1       5.151   0.308  51.438  1.00  0.00     0.000 C 
BRANCH   2   3
ATOM      3  C   UNL     1       4.166   1.482  51.406  1.00  0.00     0.000 C 
BRANCH   3   4
ATOM      4  C   UNL     1       3.243   1.393  50.184  1.00  0.00     0.000 C 
BRANCH   4   5
ATOM      5  C   UNL     1       1.770   1.354  50.609  1.00  0.00     0.006 C 
BRANCH   5   6
ATOM      6  C   UNL     1       1.265  -0.087  50.712  1.00  0.00     0.053 C 
BRANCH   6   7
ATOM      7  C   UNL     1       1.291  -0.749  49.370  1.00  0.00     0.041 C 
ATOM      8  O   UNL     1       0.553  -0.326  48.442  1.00  0.00    -0.550 OA
ATOM      9  O   UNL     1       2.167  -1.799  49.130  1.00  0.00    -0.550 OA
ENDBRANCH   6   7
ENDBRANCH   5   6
ENDBRANCH   4   5
ENDBRANCH   3   4
ENDBRANCH   2   3
ENDBRANCH   1   2
BRANCH   1  10
ATOM     10  C   UNL     1       6.597   2.273  52.220  1.00  0.00     0.000 C 
BRANCH  10  11
ATOM     11  C   UNL     1       7.401   3.150  51.238  1.00  0.00    -0.000 C 
BRANCH  11  12
ATOM     12  C   UNL     1       6.625   4.339  50.635  1.00  0.00    -0.000 C 
BRANCH  12  13
ATOM     13  C   UNL     1       6.672   4.432  49.100  1.00  0.00    -0.000 C 
BRANCH  13  14
ATOM     14  C   UNL     1       5.678   3.484  48.414  1.00  0.00    -0.000 C 
BRANCH  14  15
ATOM     15  C   UNL     1       6.406   2.496  47.494  1.00  0.00    -0.003 C 
ATOM     16  C   UNL     1       6.712   1.190  48.220  1.00  0.00     0.004 C 
ENDBRANCH  14  15
ENDBRANCH  13  14
ENDBRANCH  12  13
ENDBRANCH  11  12
ENDBRANCH  10  11
ENDBRANCH   1  10
TORSDOF 12
ENDMDL
MODEL 9
REMARK VINA RESULT:    -3.211      2.916      4.815
REMARK INTER + INTRA:          -7.303
REMARK INTER:                  -6.145
REMARK INTRA:                  -1.157
REMARK UNBOUND:                -1.839
REMARK SMILES CCCCCCCCCCCCCC(=O)[O-]
REMARK SMILES IDX 8 1 9 2 10 3 11 4 12 5 13 6 14 7 15 8 16 9 7 10 6 11 5 12
REMARK SMILES IDX 4 13 3 14 2 15 1 16
REMARK H PARENT
REMARK Flexibility Score: inf
ROOT
ATOM      1  C   UNL     1       6.043   4.599  49.057  1.00  0.00     0.000 C 
ENDROOT
BRANCH   1   2
ATOM      2  C   UNL     1       7.141   5.308  48.249  1.00  0.00     0.000 C 
BRANCH   2   3
ATOM      3  C   UNL     1       7.528   6.641  48.901  1.00  0.00     0.000 C 
BRANCH   3   4
ATOM      4  C   UNL     1       7.557   7.772  47.866  1.00  0.00     0.000 C 
BRANCH   4   5
ATOM      5  C   UNL     1       7.063   9.089  48.476  1.00  0.00     0.006 C 
BRANCH   5   6
ATOM      6  C   UNL     1       5.591   9.335  48.136  1.00  0.00     0.053 C 
BRANCH   6   7
ATOM      7  C   UNL     1       4.737   9.167  49.352  1.00  0.00     0.041 C 
ATOM      8  O   UNL     1       5.261   8.873  50.458  1.00  0.00    -0.550 OA
ATOM      9  O   UNL     1       3.367   9.385  49.275  1.00  0.00    -0.550 OA
ENDBRANCH   6   7
ENDBRANCH   5   6
ENDBRANCH   4   5
ENDBRANCH   3   4
ENDBRANCH   2   3
ENDBRANCH   1   2
BRANCH   1  10
ATOM     10  C   UNL     1       5.405   3.424  48.295  1.00  0.00     0.000 C 
BRANCH  10  11
ATOM     11  C   UNL     1       6.392   2.327  47.846  1.00  0.00    -0.000 C 
BRANCH  11  12
ATOM     12  C   UNL     1       6.337   1.021  48.664  1.00  0.00    -0.000 C 
BRANCH  12  13
ATOM     13  C   UNL     1       7.020   1.088  50.041  1.00  0.00    -0.000 C 
BRANCH  13  14
ATOM     14  C   UNL     1       6.019   1.202  51.199  1.00  0.00    -0.000 C 
BRANCH  14  15
ATOM     15  C   UNL     1       6.325   2.426  52.071  1.00  0.00    -0.003 C 
ATOM     16  C   UNL     1       7.708   2.992  51.762  1.00  0.00     0.004 C 
ENDBRANCH  14  15
ENDBRANCH  13  14
ENDBRANCH  12  13
ENDBRANCH  11  12
ENDBRANCH  10  11
ENDBRANCH   1  10
TORSDOF 12
ENDMDL
