MODEL 1
REMARK VINA RESULT:    -4.419      0.000      0.000
REMARK INTER + INTRA:          -6.960
REMARK INTER:                  -6.486
REMARK INTRA:                  -0.474
REMARK UNBOUND:                -0.474
REMARK SMILES O=C([O-])CCCCCCCC(=O)[O-]
REMARK SMILES IDX 7 1 6 2 5 3 4 4 2 5 1 6 3 7 8 8 9 9 10 10 11 11 12 12 13 13
REMARK H PARENT
REMARK Flexibility Score: inf
ROOT
ATOM      1  C   UNL     1      43.015  17.675  11.742  1.00  0.00     0.000 C 
ENDROOT
BRANCH   1   2
ATOM      2  C   UNL     1      41.556  17.567  12.209  1.00  0.00     0.000 C 
BRANCH   2   3
ATOM      3  C   UNL     1      40.598  18.128  11.152  1.00  0.00     0.006 C 
BRANCH   3   4
ATOM      4  C   UNL     1      39.486  18.957  11.802  1.00  0.00     0.053 C 
BRANCH   4   5
ATOM      5  C   UNL     1      38.184  18.728  11.102  1.00  0.00     0.041 C 
ATOM      6  O   UNL     1      38.157  18.542   9.857  1.00  0.00    -0.550 OA
ATOM      7  O   UNL     1      37.003  18.672  11.831  1.00  0.00    -0.550 OA
ENDBRANCH   4   5
ENDBRANCH   3   4
ENDBRANCH   2   3
ENDBRANCH   1   2
BRANCH   1   8
ATOM      8  C   UNL     1      43.799  18.779  12.472  1.00  0.00     0.000 C 
BRANCH   8   9
ATOM      9  C   UNL     1      43.332  20.219  12.174  1.00  0.00     0.006 C 
BRANCH   9  10
ATOM     10  C   UNL     1      43.555  21.213  13.324  1.00  0.00     0.053 C 
BRANCH  10  11
ATOM     11  C   UNL     1      42.300  21.456  14.106  1.00  0.00     0.041 C 
ATOM     12  O   UNL     1      41.455  20.533  14.250  1.00  0.00    -0.550 OA
ATOM     13  O   UNL     1      42.079  22.691  14.701  1.00  0.00    -0.550 OA
ENDBRANCH  10  11
ENDBRANCH   9  10
ENDBRANCH   8   9
ENDBRANCH   1   8
TORSDOF 8
ENDMDL
MODEL 2
REMARK VINA RESULT:    -4.363      0.909      4.999
REMARK INTER + INTRA:          -6.878
REMARK INTER:                  -6.378
REMARK INTRA:                  -0.500
REMARK UNBOUND:                -0.474
REMARK SMILES O=C([O-])CCCCCCCC(=O)[O-]
REMARK SMILES IDX 7 1 6 2 5 3 4 4 2 5 1 6 3 7 8 8 9 9 10 10 11 11 12 12 13 13
REMARK H PARENT
REMARK Flexibility Score: inf
ROOT
ATOM      1  C   UNL     1      43.321  18.152  12.943  1.00  0.00     0.000 C 
ENDROOT
BRANCH   1   2
ATOM      2  C   UNL     1      43.837  19.417  12.242  1.00  0.00     0.000 C 
BRANCH   2   3
ATOM      3  C   UNL     1      43.939  20.588  13.226  1.00  0.00     0.006 C 
BRANCH   3   4
ATOM      4  C   UNL     1      42.811  21.599  12.996  1.00  0.00     0.053 C 
BRANCH   4   5
ATOM      5  C   UNL     1      42.085  21.873  14.275  1.00  0.00     0.041 C 
ATOM      6  O   UNL     1      41.380  20.977  14.809  1.00  0.00    -0.550 OA
ATOM      7  O   UNL     1      42.225  23.104  14.904  1.00  0.00    -0.550 OA
ENDBRANCH   4   5
ENDBRANCH   3   4
ENDBRANCH   2   3
ENDBRANCH   1   2
BRANCH   1   8
ATOM      8  C   UNL     1      42.102  17.530  12.239  1.00  0.00     0.000 C 
BRANCH   8   9
ATOM      9  C   UNL     1      40.852  18.432  12.179  1.00  0.00     0.006 C 
BRANCH   9  10
ATOM     10  C   UNL     1      39.769  17.956  11.198  1.00  0.00     0.053 C 
BRANCH  10  11
ATOM     11  C   UNL     1      38.809  19.051  10.846  1.00  0.00     0.041 C 
ATOM     12  O   UNL     1      39.212  20.070  10.225  1.00  0.00    -0.550 OA
ATOM     13  O   UNL     1      37.466  18.933  11.175  1.00  0.00    -0.550 OA
ENDBRANCH  10  11
ENDBRANCH   9  10
ENDBRANCH   8   9
ENDBRANCH   1   8
TORSDOF 8
ENDMDL
MODEL 3
REMARK VINA RESULT:    -4.350     16.422     17.371
REMARK INTER + INTRA:          -6.859
REMARK INTER:                  -6.461
REMARK INTRA:                  -0.398
REMARK UNBOUND:                -0.474
REMARK SMILES O=C([O-])CCCCCCCC(=O)[O-]
REMARK SMILES IDX 7 1 6 2 5 3 4 4 2 5 1 6 3 7 8 8 9 9 10 10 11 11 12 12 13 13
REMARK H PARENT
REMARK Flexibility Score: inf
ROOT
ATOM      1  C   UNL     1      33.132   5.405  16.252  1.00  0.00     0.000 C 
ENDROOT
BRANCH   1   2
ATOM      2  C   UNL     1      32.180   6.501  16.755  1.00  0.00     0.000 C 
BRANCH   2   3
ATOM      3  C   UNL     1      31.204   5.944  17.798  1.00  0.00     0.006 C 
BRANCH   3   4
ATOM      4  C   UNL     1      31.606   6.376  19.212  1.00  0.00     0.053 C 
BRANCH   4   5
ATOM      5  C   UNL     1      32.549   5.384  19.815  1.00  0.00     0.041 C 
ATOM      6  O   UNL     1      33.481   5.771  20.567  1.00  0.00    -0.550 OA
ATOM      7  O   UNL     1      32.369   4.026  19.584  1.00  0.00    -0.550 OA
ENDBRANCH   4   5
ENDBRANCH   3   4
ENDBRANCH   2   3
ENDBRANCH   1   2
BRANCH   1   8
ATOM      8  C   UNL     1      34.577   5.592  16.747  1.00  0.00     0.000 C 
BRANCH   8   9
ATOM      9  C   UNL     1      35.635   4.748  16.007  1.00  0.00     0.006 C 
BRANCH   9  10
ATOM     10  C   UNL     1      35.453   4.691  14.482  1.00  0.00     0.053 C 
BRANCH  10  11
ATOM     11  C   UNL     1      36.484   3.825  13.826  1.00  0.00     0.041 C 
ATOM     12  O   UNL     1      36.342   3.469  12.626  1.00  0.00    -0.550 OA
ATOM     13  O   UNL     1      37.618   3.437  14.528  1.00  0.00    -0.550 OA
ENDBRANCH  10  11
ENDBRANCH   9  10
ENDBRANCH   8   9
ENDBRANCH   1   8
TORSDOF 8
ENDMDL
MODEL 4
REMARK VINA RESULT:    -4.346      3.311      4.518
REMARK INTER + INTRA:          -6.853
REMARK INTER:                  -6.172
REMARK INTRA:                  -0.681
REMARK UNBOUND:                -0.474
REMARK SMILES O=C([O-])CCCCCCCC(=O)[O-]
REMARK SMILES IDX 7 1 6 2 5 3 4 4 2 5 1 6 3 7 8 8 9 9 10 10 11 11 12 12 13 13
REMARK H PARENT
REMARK Flexibility Score: inf
ROOT
ATOM      1  C   UNL     1      39.962  18.120  11.206  1.00  0.00     0.000 C 
ENDROOT
BRANCH   1   2
ATOM      2  C   UNL     1      39.974  18.784   9.821  1.00  0.00     0.000 C 
BRANCH   2   3
ATOM      3  C   UNL     1      41.352  18.655   9.162  1.00  0.00     0.006 C 
BRANCH   3   4
ATOM      4  C   UNL     1      41.689  19.905   8.342  1.00  0.00     0.053 C 
BRANCH   4   5
ATOM      5  C   UNL     1      42.111  21.023   9.241  1.00  0.00     0.041 C 
ATOM      6  O   UNL     1      41.714  22.197   9.022  1.00  0.00    -0.550 OA
ATOM      7  O   UNL     1      42.905  20.761  10.351  1.00  0.00    -0.550 OA
ENDBRANCH   4   5
ENDBRANCH   3   4
ENDBRANCH   2   3
ENDBRANCH   1   2
BRANCH   1   8
ATOM      8  C   UNL     1      40.495  19.041  12.318  1.00  0.00     0.000 C 
BRANCH   8   9
ATOM      9  C   UNL     1      41.868  18.641  12.896  1.00  0.00     0.006 C 
BRANCH   9  10
ATOM     10  C   UNL     1      42.399  17.286  12.399  1.00  0.00     0.053 C 
BRANCH  10  11
ATOM     11  C   UNL     1      43.894  17.268  12.312  1.00  0.00     0.041 C 
ATOM     12  O   UNL     1      44.535  18.346  12.197  1.00  0.00    -0.550 OA
ATOM     13  O   UNL     1      44.582  16.064  12.390  1.00  0.00    -0.550 OA
ENDBRANCH  10  11
ENDBRANCH   9  10
ENDBRANCH   8   9
ENDBRANCH   1   8
TORSDOF 8
ENDMDL
MODEL 5
REMARK VINA RESULT:    -4.321      2.422      3.068
REMARK INTER + INTRA:          -6.816
REMARK INTER:                  -5.949
REMARK INTRA:                  -0.867
REMARK UNBOUND:                -0.474
REMARK SMILES O=C([O-])CCCCCCCC(=O)[O-]
REMARK SMILES IDX 7 1 6 2 5 3 4 4 2 5 1 6 3 7 8 8 9 9 10 10 11 11 12 12 13 13
REMARK H PARENT
REMARK Flexibility Score: inf
ROOT
ATOM      1  C   UNL     1      41.957  19.582  12.712  1.00  0.00     0.000 C 
ENDROOT
BRANCH   1   2
ATOM      2  C   UNL     1      41.797  18.107  12.315  1.00  0.00     0.000 C 
BRANCH   2   3
ATOM      3  C   UNL     1      40.506  17.889  11.518  1.00  0.00     0.006 C 
BRANCH   3   4
ATOM      4  C   UNL     1      39.482  18.988  11.819  1.00  0.00     0.053 C 
BRANCH   4   5
ATOM      5  C   UNL     1      38.223  18.757  11.043  1.00  0.00     0.041 C 
ATOM      6  O   UNL     1      38.271  18.568   9.800  1.00  0.00    -0.550 OA
ATOM      7  O   UNL     1      37.002  18.703  11.702  1.00  0.00    -0.550 OA
ENDBRANCH   4   5
ENDBRANCH   3   4
ENDBRANCH   2   3
ENDBRANCH   1   2
BRANCH   1   8
ATOM      8  C   UNL     1      43.068  20.299  11.925  1.00  0.00     0.000 C 
BRANCH   8   9
ATOM      9  C   UNL     1      42.603  21.513  11.096  1.00  0.00     0.006 C 
BRANCH   9  10
ATOM     10  C   UNL     1      42.592  21.282   9.577  1.00  0.00     0.053 C 
BRANCH  10  11
ATOM     11  C   UNL     1      41.289  20.713   9.105  1.00  0.00     0.041 C 
ATOM     12  O   UNL     1      41.254  19.579   8.558  1.00  0.00    -0.550 OA
ATOM     13  O   UNL     1      40.109  21.420   9.299  1.00  0.00    -0.550 OA
ENDBRANCH  10  11
ENDBRANCH   9  10
ENDBRANCH   8   9
ENDBRANCH   1   8
TORSDOF 8
ENDMDL
MODEL 6
REMARK VINA RESULT:    -4.306      3.478      5.446
REMARK INTER + INTRA:          -6.794
REMARK INTER:                  -6.245
REMARK INTRA:                  -0.549
REMARK UNBOUND:                -0.474
REMARK SMILES O=C([O-])CCCCCCCC(=O)[O-]
REMARK SMILES IDX 7 1 6 2 5 3 4 4 2 5 1 6 3 7 8 8 9 9 10 10 11 11 12 12 13 13
REMARK H PARENT
REMARK Flexibility Score: inf
ROOT
ATOM      1  C   UNL     1      39.953  18.012  11.444  1.00  0.00     0.000 C 
ENDROOT
BRANCH   1   2
ATOM      2  C   UNL     1      40.534  19.004  12.463  1.00  0.00     0.000 C 
BRANCH   2   3
ATOM      3  C   UNL     1      42.012  18.705  12.739  1.00  0.00     0.006 C 
BRANCH   3   4
ATOM      4  C   UNL     1      42.392  17.305  12.246  1.00  0.00     0.053 C 
BRANCH   4   5
ATOM      5  C   UNL     1      43.879  17.147  12.214  1.00  0.00     0.041 C 
ATOM      6  O   UNL     1      44.624  18.161  12.182  1.00  0.00    -0.550 OA
ATOM      7  O   UNL     1      44.444  15.879  12.270  1.00  0.00    -0.550 OA
ENDBRANCH   4   5
ENDBRANCH   3   4
ENDBRANCH   2   3
ENDBRANCH   1   2
BRANCH   1   8
ATOM      8  C   UNL     1      39.303  18.706  10.235  1.00  0.00     0.000 C 
BRANCH   8   9
ATOM      9  C   UNL     1      40.146  19.826   9.592  1.00  0.00     0.006 C 
BRANCH   9  10
ATOM     10  C   UNL     1      41.426  19.340   8.892  1.00  0.00     0.053 C 
BRANCH  10  11
ATOM     11  C   UNL     1      42.075  20.427   8.092  1.00  0.00     0.041 C 
ATOM     12  O   UNL     1      42.177  21.588   8.568  1.00  0.00    -0.550 OA
ATOM     13  O   UNL     1      42.599  20.149   6.836  1.00  0.00    -0.550 OA
ENDBRANCH  10  11
ENDBRANCH   9  10
ENDBRANCH   8   9
ENDBRANCH   1   8
TORSDOF 8
ENDMDL
MODEL 7
REMARK VINA RESULT:    -4.305     16.385     17.346
REMARK INTER + INTRA:          -6.792
REMARK INTER:                  -6.327
REMARK INTRA:                  -0.465
REMARK UNBOUND:                -0.474
REMARK SMILES O=C([O-])CCCCCCCC(=O)[O-]
REMARK SMILES IDX 7 1 6 2 5 3 4 4 2 5 1 6 3 7 8 8 9 9 10 10 11 11 12 12 13 13
REMARK H PARENT
REMARK Flexibility Score: inf
ROOT
ATOM      1  C   UNL     1      33.267   5.504  16.125  1.00  0.00     0.000 C 
ENDROOT
BRANCH   1   2
ATOM      2  C   UNL     1      34.708   5.577  16.652  1.00  0.00     0.000 C 
BRANCH   2   3
ATOM      3  C   UNL     1      35.517   4.352  16.210  1.00  0.00     0.006 C 
BRANCH   3   4
ATOM      4  C   UNL     1      35.108   3.901  14.804  1.00  0.00     0.053 C 
BRANCH   4   5
ATOM      5  C   UNL     1      36.315   3.740  13.934  1.00  0.00     0.041 C 
ATOM      6  O   UNL     1      37.459   3.644  14.449  1.00  0.00    -0.550 OA
ATOM      7  O   UNL     1      36.171   3.649  12.556  1.00  0.00    -0.550 OA
ENDBRANCH   4   5
ENDBRANCH   3   4
ENDBRANCH   2   3
ENDBRANCH   1   2
BRANCH   1   8
ATOM      8  C   UNL     1      32.348   6.573  16.741  1.00  0.00     0.000 C 
BRANCH   8   9
ATOM      9  C   UNL     1      31.289   6.036  17.726  1.00  0.00     0.006 C 
BRANCH   9  10
ATOM     10  C   UNL     1      31.592   6.319  19.206  1.00  0.00     0.053 C 
BRANCH  10  11
ATOM     11  C   UNL     1      32.549   5.321  19.783  1.00  0.00     0.041 C 
ATOM     12  O   UNL     1      32.518   4.121  19.401  1.00  0.00    -0.550 OA
ATOM     13  O   UNL     1      33.495   5.722  20.716  1.00  0.00    -0.550 OA
ENDBRANCH  10  11
ENDBRANCH   9  10
ENDBRANCH   8   9
ENDBRANCH   1   8
TORSDOF 8
ENDMDL
MODEL 8
REMARK VINA RESULT:    -4.250      1.810      4.704
REMARK INTER + INTRA:          -6.712
REMARK INTER:                  -6.047
REMARK INTRA:                  -0.666
REMARK UNBOUND:                -0.474
REMARK SMILES O=C([O-])CCCCCCCC(=O)[O-]
REMARK SMILES IDX 7 1 6 2 5 3 4 4 2 5 1 6 3 7 8 8 9 9 10 10 11 11 12 12 13 13
REMARK H PARENT
REMARK Flexibility Score: inf
ROOT
ATOM      1  C   UNL     1      42.723  17.523  11.682  1.00  0.00     0.000 C 
ENDROOT
BRANCH   1   2
ATOM      2  C   UNL     1      43.856  18.369  12.281  1.00  0.00     0.000 C 
BRANCH   2   3
ATOM      3  C   UNL     1      43.588  19.866  12.083  1.00  0.00     0.006 C 
BRANCH   3   4
ATOM      4  C   UNL     1      43.773  20.636  13.395  1.00  0.00     0.053 C 
BRANCH   4   5
ATOM      5  C   UNL     1      42.524  21.381  13.745  1.00  0.00     0.041 C 
ATOM      6  O   UNL     1      41.545  20.775  14.253  1.00  0.00    -0.550 OA
ATOM      7  O   UNL     1      42.459  22.756  13.556  1.00  0.00    -0.550 OA
ENDBRANCH   4   5
ENDBRANCH   3   4
ENDBRANCH   2   3
ENDBRANCH   1   2
BRANCH   1   8
ATOM      8  C   UNL     1      41.343  17.865  12.271  1.00  0.00     0.000 C 
BRANCH   8   9
ATOM      9  C   UNL     1      40.186  17.894  11.251  1.00  0.00     0.006 C 
BRANCH   9  10
ATOM     10  C   UNL     1      39.731  19.304  10.842  1.00  0.00     0.053 C 
BRANCH  10  11
ATOM     11  C   UNL     1      40.658  19.925   9.842  1.00  0.00     0.041 C 
ATOM     12  O   UNL     1      41.071  19.253   8.860  1.00  0.00    -0.550 OA
ATOM     13  O   UNL     1      41.038  21.254   9.975  1.00  0.00    -0.550 OA
ENDBRANCH  10  11
ENDBRANCH   9  10
ENDBRANCH   8   9
ENDBRANCH   1   8
TORSDOF 8
ENDMDL
MODEL 9
REMARK VINA RESULT:    -4.224     16.356     17.291
REMARK INTER + INTRA:          -6.674
REMARK INTER:                  -6.140
REMARK INTRA:                  -0.534
REMARK UNBOUND:                -0.474
REMARK SMILES O=C([O-])CCCCCCCC(=O)[O-]
REMARK SMILES IDX 7 1 6 2 5 3 4 4 2 5 1 6 3 7 8 8 9 9 10 10 11 11 12 12 13 13
REMARK H PARENT
REMARK Flexibility Score: inf
ROOT
ATOM      1  C   UNL     1      35.192   5.538  16.808  1.00  0.00     0.000 C 
ENDROOT
BRANCH   1   2
ATOM      2  C   UNL     1      35.001   4.019  16.679  1.00  0.00     0.000 C 
BRANCH   2   3
ATOM      3  C   UNL     1      34.759   3.618  15.219  1.00  0.00     0.006 C 
BRANCH   3   4
ATOM      4  C   UNL     1      35.617   4.459  14.268  1.00  0.00     0.053 C 
BRANCH   4   5
ATOM      5  C   UNL     1      36.521   3.581  13.463  1.00  0.00     0.041 C 
ATOM      6  O   UNL     1      36.346   3.457  12.223  1.00  0.00    -0.550 OA
ATOM      7  O   UNL     1      37.589   2.937  14.075  1.00  0.00    -0.550 OA
ENDBRANCH   4   5
ENDBRANCH   3   4
ENDBRANCH   2   3
ENDBRANCH   1   2
BRANCH   1   8
ATOM      8  C   UNL     1      34.024   6.231  17.531  1.00  0.00     0.000 C 
BRANCH   8   9
ATOM      9  C   UNL     1      32.721   6.339  16.713  1.00  0.00     0.006 C 
BRANCH   9  10
ATOM     10  C   UNL     1      31.590   5.414  17.189  1.00  0.00     0.053 C 
BRANCH  10  11
ATOM     11  C   UNL     1      31.063   5.818  18.532  1.00  0.00     0.041 C 
ATOM     12  O   UNL     1      30.725   7.012  18.746  1.00  0.00    -0.550 OA
ATOM     13  O   UNL     1      30.913   4.870  19.536  1.00  0.00    -0.550 OA
ENDBRANCH  10  11
ENDBRANCH   9  10
ENDBRANCH   8   9
ENDBRANCH   1   8
TORSDOF 8
ENDMDL
