MODEL 1
REMARK VINA RESULT:    -3.011      0.000      0.000
REMARK INTER + INTRA:          -3.630
REMARK INTER:                  -3.539
REMARK INTRA:                  -0.092
REMARK UNBOUND:                -0.092
REMARK SMILES O=C([O-])CCC(=O)[O-]
REMARK SMILES IDX 4 1 2 2 1 3 3 4 5 5 6 6 7 7 8 8
REMARK H PARENT
REMARK Flexibility Score: inf
ROOT
ATOM      1  C   UNL     1       6.241   5.929  16.228  1.00  0.00     0.059 C 
ENDROOT
BRANCH   1   2
ATOM      2  C   UNL     1       7.541   5.578  15.570  1.00  0.00     0.042 C 
ATOM      3  O   UNL     1       7.626   4.556  14.840  1.00  0.00    -0.550 OA
ATOM      4  O   UNL     1       8.669   6.358  15.797  1.00  0.00    -0.550 OA
ENDBRANCH   1   2
BRANCH   1   5
ATOM      5  C   UNL     1       6.409   7.075  17.233  1.00  0.00     0.059 C 
BRANCH   5   6
ATOM      6  C   UNL     1       6.435   6.571  18.644  1.00  0.00     0.042 C 
ATOM      7  O   UNL     1       6.375   5.335  18.877  1.00  0.00    -0.550 OA
ATOM      8  O   UNL     1       6.486   7.469  19.703  1.00  0.00    -0.550 OA
ENDBRANCH   5   6
ENDBRANCH   1   5
TORSDOF 3
ENDMDL
MODEL 2
REMARK VINA RESULT:    -2.995      0.136      3.693
REMARK INTER + INTRA:          -3.613
REMARK INTER:                  -3.515
REMARK INTRA:                  -0.097
REMARK UNBOUND:                -0.092
REMARK SMILES O=C([O-])CCC(=O)[O-]
REMARK SMILES IDX 4 1 2 2 1 3 3 4 5 5 6 6 7 7 8 8
REMARK H PARENT
REMARK Flexibility Score: inf
ROOT
ATOM      1  C   UNL     1       6.388   6.941  17.209  1.00  0.00     0.059 C 
ENDROOT
BRANCH   1   2
ATOM      2  C   UNL     1       6.371   6.475  18.633  1.00  0.00     0.042 C 
ATOM      3  O   UNL     1       6.316   5.245  18.896  1.00  0.00    -0.550 OA
ATOM      4  O   UNL     1       6.374   7.401  19.669  1.00  0.00    -0.550 OA
ENDBRANCH   1   2
BRANCH   1   5
ATOM      5  C   UNL     1       6.250   5.770  16.229  1.00  0.00     0.059 C 
BRANCH   5   6
ATOM      6  C   UNL     1       7.550   5.465  15.548  1.00  0.00     0.042 C 
ATOM      7  O   UNL     1       7.623   4.522  14.718  1.00  0.00    -0.550 OA
ATOM      8  O   UNL     1       8.688   6.196  15.862  1.00  0.00    -0.550 OA
ENDBRANCH   5   6
ENDBRANCH   1   5
TORSDOF 3
ENDMDL
MODEL 3
REMARK VINA RESULT:    -2.969      2.175      3.091
REMARK INTER + INTRA:          -3.581
REMARK INTER:                  -3.525
REMARK INTRA:                  -0.056
REMARK UNBOUND:                -0.092
REMARK SMILES O=C([O-])CCC(=O)[O-]
REMARK SMILES IDX 4 1 2 2 1 3 3 4 5 5 6 6 7 7 8 8
REMARK H PARENT
REMARK Flexibility Score: inf
ROOT
ATOM      1  C   UNL     1       6.468   6.212  18.378  1.00  0.00     0.059 C 
ENDROOT
BRANCH   1   2
ATOM      2  C   UNL     1       6.243   6.719  16.986  1.00  0.00     0.042 C 
ATOM      3  O   UNL     1       6.529   7.909  16.691  1.00  0.00    -0.550 OA
ATOM      4  O   UNL     1       5.678   5.888  16.026  1.00  0.00    -0.550 OA
ENDBRANCH   1   2
BRANCH   1   5
ATOM      5  C   UNL     1       6.628   4.688  18.404  1.00  0.00     0.059 C 
BRANCH   5   6
ATOM      6  C   UNL     1       5.877   4.074  19.547  1.00  0.00     0.042 C 
ATOM      7  O   UNL     1       5.426   4.800  20.472  1.00  0.00    -0.550 OA
ATOM      8  O   UNL     1       5.710   2.697  19.611  1.00  0.00    -0.550 OA
ENDBRANCH   5   6
ENDBRANCH   1   5
TORSDOF 3
ENDMDL
MODEL 4
REMARK VINA RESULT:    -2.942      2.242      3.976
REMARK INTER + INTRA:          -3.549
REMARK INTER:                  -3.482
REMARK INTRA:                  -0.068
REMARK UNBOUND:                -0.092
REMARK SMILES O=C([O-])CCC(=O)[O-]
REMARK SMILES IDX 4 1 2 2 1 3 3 4 5 5 6 6 7 7 8 8
REMARK H PARENT
REMARK Flexibility Score: inf
ROOT
ATOM      1  C   UNL     1       6.699   4.594  18.548  1.00  0.00     0.059 C 
ENDROOT
BRANCH   1   2
ATOM      2  C   UNL     1       5.861   3.980  19.628  1.00  0.00     0.042 C 
ATOM      3  O   UNL     1       5.356   4.702  20.527  1.00  0.00    -0.550 OA
ATOM      4  O   UNL     1       5.674   2.604  19.665  1.00  0.00    -0.550 OA
ENDBRANCH   1   2
BRANCH   1   5
ATOM      5  C   UNL     1       6.507   6.114  18.480  1.00  0.00     0.059 C 
BRANCH   5   6
ATOM      6  C   UNL     1       6.201   6.569  17.085  1.00  0.00     0.042 C 
ATOM      7  O   UNL     1       5.704   5.767  16.252  1.00  0.00    -0.550 OA
ATOM      8  O   UNL     1       6.503   7.868  16.695  1.00  0.00    -0.550 OA
ENDBRANCH   5   6
ENDBRANCH   1   5
TORSDOF 3
ENDMDL
MODEL 5
REMARK VINA RESULT:    -2.919      1.395      3.818
REMARK INTER + INTRA:          -3.523
REMARK INTER:                  -3.416
REMARK INTRA:                  -0.107
REMARK UNBOUND:                -0.092
REMARK SMILES O=C([O-])CCC(=O)[O-]
REMARK SMILES IDX 4 1 2 2 1 3 3 4 5 5 6 6 7 7 8 8
REMARK H PARENT
REMARK Flexibility Score: inf
ROOT
ATOM      1  C   UNL     1       6.331   5.848  16.234  1.00  0.00     0.059 C 
ENDROOT
BRANCH   1   2
ATOM      2  C   UNL     1       6.418   7.026  17.155  1.00  0.00     0.042 C 
ATOM      3  O   UNL     1       6.479   8.193  16.688  1.00  0.00    -0.550 OA
ATOM      4  O   UNL     1       6.474   6.831  18.530  1.00  0.00    -0.550 OA
ENDBRANCH   1   2
BRANCH   1   5
ATOM      5  C   UNL     1       7.656   5.080  16.172  1.00  0.00     0.059 C 
BRANCH   5   6
ATOM      6  C   UNL     1       8.583   5.661  15.147  1.00  0.00     0.042 C 
ATOM      7  O   UNL     1       8.655   5.154  13.997  1.00  0.00    -0.550 OA
ATOM      8  O   UNL     1       9.397   6.738  15.476  1.00  0.00    -0.550 OA
ENDBRANCH   5   6
ENDBRANCH   1   5
TORSDOF 3
ENDMDL
MODEL 6
REMARK VINA RESULT:    -2.909      1.571      3.928
REMARK INTER + INTRA:          -3.511
REMARK INTER:                  -3.394
REMARK INTRA:                  -0.116
REMARK UNBOUND:                -0.092
REMARK SMILES O=C([O-])CCC(=O)[O-]
REMARK SMILES IDX 4 1 2 2 1 3 3 4 5 5 6 6 7 7 8 8
REMARK H PARENT
REMARK Flexibility Score: inf
ROOT
ATOM      1  C   UNL     1       7.040   5.672  18.492  1.00  0.00     0.059 C 
ENDROOT
BRANCH   1   2
ATOM      2  C   UNL     1       6.081   4.941  19.382  1.00  0.00     0.042 C 
ATOM      3  O   UNL     1       5.777   3.744  19.139  1.00  0.00    -0.550 OA
ATOM      4  O   UNL     1       5.492   5.597  20.456  1.00  0.00    -0.550 OA
ENDBRANCH   1   2
BRANCH   1   5
ATOM      5  C   UNL     1       6.316   6.375  17.338  1.00  0.00     0.059 C 
BRANCH   5   6
ATOM      6  C   UNL     1       6.300   5.530  16.100  1.00  0.00     0.042 C 
ATOM      7  O   UNL     1       7.331   5.435  15.385  1.00  0.00    -0.550 OA
ATOM      8  O   UNL     1       5.133   4.881  15.715  1.00  0.00    -0.550 OA
ENDBRANCH   5   6
ENDBRANCH   1   5
TORSDOF 3
ENDMDL
MODEL 7
REMARK VINA RESULT:    -2.892      1.564      2.199
REMARK INTER + INTRA:          -3.491
REMARK INTER:                  -3.368
REMARK INTRA:                  -0.124
REMARK UNBOUND:                -0.092
REMARK SMILES O=C([O-])CCC(=O)[O-]
REMARK SMILES IDX 4 1 2 2 1 3 3 4 5 5 6 6 7 7 8 8
REMARK H PARENT
REMARK Flexibility Score: inf
ROOT
ATOM      1  C   UNL     1       6.345   6.511  17.479  1.00  0.00     0.059 C 
ENDROOT
BRANCH   1   2
ATOM      2  C   UNL     1       6.322   5.698  16.221  1.00  0.00     0.042 C 
ATOM      3  O   UNL     1       5.282   5.071  15.891  1.00  0.00    -0.550 OA
ATOM      4  O   UNL     1       7.464   5.599  15.435  1.00  0.00    -0.550 OA
ENDBRANCH   1   2
BRANCH   1   5
ATOM      5  C   UNL     1       7.036   5.761  18.624  1.00  0.00     0.059 C 
BRANCH   5   6
ATOM      6  C   UNL     1       6.049   5.004  19.461  1.00  0.00     0.042 C 
ATOM      7  O   UNL     1       5.496   5.559  20.446  1.00  0.00    -0.550 OA
ATOM      8  O   UNL     1       5.772   3.672  19.177  1.00  0.00    -0.550 OA
ENDBRANCH   5   6
ENDBRANCH   1   5
TORSDOF 3
ENDMDL
MODEL 8
REMARK VINA RESULT:    -2.786      7.262      8.968
REMARK INTER + INTRA:          -3.367
REMARK INTER:                  -3.255
REMARK INTRA:                  -0.112
REMARK UNBOUND:                -0.092
REMARK SMILES O=C([O-])CCC(=O)[O-]
REMARK SMILES IDX 4 1 2 2 1 3 3 4 5 5 6 6 7 7 8 8
REMARK H PARENT
REMARK Flexibility Score: inf
ROOT
ATOM      1  C   UNL     1       6.265  12.443  22.251  1.00  0.00     0.059 C 
ENDROOT
BRANCH   1   2
ATOM      2  C   UNL     1       5.462  13.662  22.588  1.00  0.00     0.042 C 
ATOM      3  O   UNL     1       5.512  14.679  21.847  1.00  0.00    -0.550 OA
ATOM      4  O   UNL     1       4.689  13.689  23.743  1.00  0.00    -0.550 OA
ENDBRANCH   1   2
BRANCH   1   5
ATOM      5  C   UNL     1       6.298  11.449  23.418  1.00  0.00     0.059 C 
BRANCH   5   6
ATOM      6  C   UNL     1       5.362  10.300  23.190  1.00  0.00     0.042 C 
ATOM      7  O   UNL     1       4.172  10.364  23.595  1.00  0.00    -0.550 OA
ATOM      8  O   UNL     1       5.816   9.145  22.568  1.00  0.00    -0.550 OA
ENDBRANCH   5   6
ENDBRANCH   1   5
TORSDOF 3
ENDMDL
MODEL 9
REMARK VINA RESULT:    -2.735      2.036      2.314
REMARK INTER + INTRA:          -3.306
REMARK INTER:                  -3.276
REMARK INTRA:                  -0.030
REMARK UNBOUND:                -0.092
REMARK SMILES O=C([O-])CCC(=O)[O-]
REMARK SMILES IDX 4 1 2 2 1 3 3 4 5 5 6 6 7 7 8 8
REMARK H PARENT
REMARK Flexibility Score: inf
ROOT
ATOM      1  C   UNL     1       6.385   5.295  18.052  1.00  0.00     0.059 C 
ENDROOT
BRANCH   1   2
ATOM      2  C   UNL     1       6.020   6.006  16.785  1.00  0.00     0.042 C 
ATOM      3  O   UNL     1       5.431   5.389  15.859  1.00  0.00    -0.550 OA
ATOM      4  O   UNL     1       6.367   7.340  16.611  1.00  0.00    -0.550 OA
ENDBRANCH   1   2
BRANCH   1   5
ATOM      5  C   UNL     1       6.376   6.245  19.255  1.00  0.00     0.059 C 
BRANCH   5   6
ATOM      6  C   UNL     1       5.878   5.562  20.493  1.00  0.00     0.042 C 
ATOM      7  O   UNL     1       6.480   4.553  20.945  1.00  0.00    -0.550 OA
ATOM      8  O   UNL     1       4.727   6.016  21.123  1.00  0.00    -0.550 OA
ENDBRANCH   5   6
ENDBRANCH   1   5
TORSDOF 3
ENDMDL
