MODEL 1
REMARK VINA RESULT:    -5.305      0.000      0.000
REMARK INTER + INTRA:          -5.305
REMARK INTER:                  -5.305
REMARK INTRA:                   0.000
REMARK UNBOUND:                 0.000
REMARK SMILES O=c1ccc2ccccc2o1
REMARK SMILES IDX 7 1 8 2 9 3 10 4 5 5 6 6 4 7 3 8 2 9 1 10 11 11
REMARK H PARENT
REMARK Flexibility Score: inf
ROOT
ATOM      1  C   UNL     1      72.385  38.856 -10.125  1.00  0.00     0.001 A 
ATOM      2  C   UNL     1      71.260  39.179  -9.359  1.00  0.00     0.004 A 
ATOM      3  C   UNL     1      71.392  39.971  -8.213  1.00  0.00     0.048 A 
ATOM      4  C   UNL     1      72.651  40.444  -7.829  1.00  0.00     0.138 A 
ATOM      5  C   UNL     1      73.788  40.118  -8.602  1.00  0.00     0.018 A 
ATOM      6  C   UNL     1      73.650  39.323  -9.750  1.00  0.00     0.012 A 
ATOM      7  C   UNL     1      75.034  40.604  -8.194  1.00  0.00     0.019 A 
ATOM      8  C   UNL     1      75.118  41.391  -7.046  1.00  0.00     0.094 A 
ATOM      9  C   UNL     1      73.949  41.673  -6.329  1.00  0.00     0.336 A 
ATOM     10  O   UNL     1      74.004  42.381  -5.290  1.00  0.00    -0.246 OA
ATOM     11  O   UNL     1      72.776  41.198  -6.739  1.00  0.00    -0.423 OA
ENDROOT
TORSDOF 0
ENDMDL
MODEL 2
REMARK VINA RESULT:    -5.274     14.420     15.633
REMARK INTER + INTRA:          -5.274
REMARK INTER:                  -5.274
REMARK INTRA:                   0.000
REMARK UNBOUND:                 0.000
REMARK SMILES O=c1ccc2ccccc2o1
REMARK SMILES IDX 7 1 8 2 9 3 10 4 5 5 6 6 4 7 3 8 2 9 1 10 11 11
REMARK H PARENT
REMARK Flexibility Score: inf
ROOT
ATOM      1  C   UNL     1      71.630  47.348   7.069  1.00  0.00     0.001 A 
ATOM      2  C   UNL     1      72.349  46.696   6.062  1.00  0.00     0.004 A 
ATOM      3  C   UNL     1      72.257  47.132   4.736  1.00  0.00     0.048 A 
ATOM      4  C   UNL     1      71.445  48.225   4.413  1.00  0.00     0.138 A 
ATOM      5  C   UNL     1      70.719  48.884   5.430  1.00  0.00     0.018 A 
ATOM      6  C   UNL     1      70.815  48.441   6.758  1.00  0.00     0.012 A 
ATOM      7  C   UNL     1      69.916  49.973   5.078  1.00  0.00     0.019 A 
ATOM      8  C   UNL     1      69.855  50.374   3.744  1.00  0.00     0.094 A 
ATOM      9  C   UNL     1      70.602  49.674   2.790  1.00  0.00     0.336 A 
ATOM     10  O   UNL     1      70.560  50.021   1.580  1.00  0.00    -0.246 OA
ATOM     11  O   UNL     1      71.359  48.641   3.151  1.00  0.00    -0.423 OA
ENDROOT
TORSDOF 0
ENDMDL
MODEL 3
REMARK VINA RESULT:    -5.262     14.814     17.103
REMARK INTER + INTRA:          -5.262
REMARK INTER:                  -5.262
REMARK INTRA:                   0.000
REMARK UNBOUND:                 0.000
REMARK SMILES O=c1ccc2ccccc2o1
REMARK SMILES IDX 7 1 8 2 9 3 10 4 5 5 6 6 4 7 3 8 2 9 1 10 11 11
REMARK H PARENT
REMARK Flexibility Score: inf
ROOT
ATOM      1  C   UNL     1      72.681  49.239   8.953  1.00  0.00     0.001 A 
ATOM      2  C   UNL     1      73.627  48.429   8.317  1.00  0.00     0.004 A 
ATOM      3  C   UNL     1      73.462  48.074   6.974  1.00  0.00     0.048 A 
ATOM      4  C   UNL     1      72.347  48.529   6.261  1.00  0.00     0.138 A 
ATOM      5  C   UNL     1      71.391  49.348   6.903  1.00  0.00     0.018 A 
ATOM      6  C   UNL     1      71.563  49.700   8.250  1.00  0.00     0.012 A 
ATOM      7  C   UNL     1      70.288  49.788   6.166  1.00  0.00     0.019 A 
ATOM      8  C   UNL     1      70.163  49.410   4.829  1.00  0.00     0.094 A 
ATOM      9  C   UNL     1      71.150  48.598   4.259  1.00  0.00     0.336 A 
ATOM     10  O   UNL     1      71.056  48.246   3.054  1.00  0.00    -0.246 OA
ATOM     11  O   UNL     1      72.190  48.192   4.983  1.00  0.00    -0.423 OA
ENDROOT
TORSDOF 0
ENDMDL
MODEL 4
REMARK VINA RESULT:    -5.208     14.186     16.105
REMARK INTER + INTRA:          -5.208
REMARK INTER:                  -5.208
REMARK INTRA:                   0.000
REMARK UNBOUND:                 0.000
REMARK SMILES O=c1ccc2ccccc2o1
REMARK SMILES IDX 7 1 8 2 9 3 10 4 5 5 6 6 4 7 3 8 2 9 1 10 11 11
REMARK H PARENT
REMARK Flexibility Score: inf
ROOT
ATOM      1  C   UNL     1      70.217  50.008   2.801  1.00  0.00     0.001 A 
ATOM      2  C   UNL     1      71.091  48.943   2.561  1.00  0.00     0.004 A 
ATOM      3  C   UNL     1      71.577  48.176   3.625  1.00  0.00     0.048 A 
ATOM      4  C   UNL     1      71.189  48.473   4.937  1.00  0.00     0.138 A 
ATOM      5  C   UNL     1      70.306  49.549   5.181  1.00  0.00     0.018 A 
ATOM      6  C   UNL     1      69.823  50.314   4.108  1.00  0.00     0.012 A 
ATOM      7  C   UNL     1      69.936  49.822   6.500  1.00  0.00     0.019 A 
ATOM      8  C   UNL     1      70.444  49.032   7.531  1.00  0.00     0.094 A 
ATOM      9  C   UNL     1      71.314  47.982   7.215  1.00  0.00     0.336 A 
ATOM     10  O   UNL     1      71.783  47.257   8.130  1.00  0.00    -0.246 OA
ATOM     11  O   UNL     1      71.651  47.743   5.950  1.00  0.00    -0.423 OA
ENDROOT
TORSDOF 0
ENDMDL
MODEL 5
REMARK VINA RESULT:    -5.202     13.951     15.094
REMARK INTER + INTRA:          -5.202
REMARK INTER:                  -5.202
REMARK INTRA:                   0.000
REMARK UNBOUND:                 0.000
REMARK SMILES O=c1ccc2ccccc2o1
REMARK SMILES IDX 7 1 8 2 9 3 10 4 5 5 6 6 4 7 3 8 2 9 1 10 11 11
REMARK H PARENT
REMARK Flexibility Score: inf
ROOT
ATOM      1  C   UNL     1      69.786  50.363   4.308  1.00  0.00     0.001 A 
ATOM      2  C   UNL     1      70.185  50.033   3.008  1.00  0.00     0.004 A 
ATOM      3  C   UNL     1      71.062  48.965   2.790  1.00  0.00     0.048 A 
ATOM      4  C   UNL     1      71.546  48.223   3.874  1.00  0.00     0.138 A 
ATOM      5  C   UNL     1      71.144  48.556   5.186  1.00  0.00     0.018 A 
ATOM      6  C   UNL     1      70.263  49.627   5.398  1.00  0.00     0.012 A 
ATOM      7  C   UNL     1      71.642  47.797   6.249  1.00  0.00     0.019 A 
ATOM      8  C   UNL     1      72.515  46.742   5.986  1.00  0.00     0.094 A 
ATOM      9  C   UNL     1      72.869  46.469   4.659  1.00  0.00     0.336 A 
ATOM     10  O   UNL     1      73.655  45.521   4.401  1.00  0.00    -0.246 OA
ATOM     11  O   UNL     1      72.380  47.207   3.666  1.00  0.00    -0.423 OA
ENDROOT
TORSDOF 0
ENDMDL
MODEL 6
REMARK VINA RESULT:    -5.172     14.325     16.695
REMARK INTER + INTRA:          -5.172
REMARK INTER:                  -5.172
REMARK INTRA:                   0.000
REMARK UNBOUND:                 0.000
REMARK SMILES O=c1ccc2ccccc2o1
REMARK SMILES IDX 7 1 8 2 9 3 10 4 5 5 6 6 4 7 3 8 2 9 1 10 11 11
REMARK H PARENT
REMARK Flexibility Score: inf
ROOT
ATOM      1  C   UNL     1      72.449  49.567   8.751  1.00  0.00     0.001 A 
ATOM      2  C   UNL     1      71.151  49.900   8.351  1.00  0.00     0.004 A 
ATOM      3  C   UNL     1      70.685  49.524   7.087  1.00  0.00     0.048 A 
ATOM      4  C   UNL     1      71.518  48.811   6.216  1.00  0.00     0.138 A 
ATOM      5  C   UNL     1      72.829  48.475   6.620  1.00  0.00     0.018 A 
ATOM      6  C   UNL     1      73.290  48.855   7.889  1.00  0.00     0.012 A 
ATOM      7  C   UNL     1      73.639  47.763   5.730  1.00  0.00     0.019 A 
ATOM      8  C   UNL     1      73.133  47.409   4.480  1.00  0.00     0.094 A 
ATOM      9  C   UNL     1      71.824  47.775   4.148  1.00  0.00     0.336 A 
ATOM     10  O   UNL     1      71.349  47.464   3.025  1.00  0.00    -0.246 OA
ATOM     11  O   UNL     1      71.074  48.453   5.014  1.00  0.00    -0.423 OA
ENDROOT
TORSDOF 0
ENDMDL
MODEL 7
REMARK VINA RESULT:    -5.101     14.538     16.231
REMARK INTER + INTRA:          -5.101
REMARK INTER:                  -5.101
REMARK INTRA:                   0.000
REMARK UNBOUND:                 0.000
REMARK SMILES O=c1ccc2ccccc2o1
REMARK SMILES IDX 7 1 8 2 9 3 10 4 5 5 6 6 4 7 3 8 2 9 1 10 11 11
REMARK H PARENT
REMARK Flexibility Score: inf
ROOT
ATOM      1  C   UNL     1      71.074  48.897   2.635  1.00  0.00     0.001 A 
ATOM      2  C   UNL     1      70.236  49.996   2.849  1.00  0.00     0.004 A 
ATOM      3  C   UNL     1      69.812  50.317   4.143  1.00  0.00     0.048 A 
ATOM      4  C   UNL     1      70.225  49.537   5.230  1.00  0.00     0.138 A 
ATOM      5  C   UNL     1      71.072  48.426   5.014  1.00  0.00     0.018 A 
ATOM      6  C   UNL     1      71.494  48.111   3.713  1.00  0.00     0.012 A 
ATOM      7  C   UNL     1      71.468  47.666   6.117  1.00  0.00     0.019 A 
ATOM      8  C   UNL     1      71.021  48.022   7.389  1.00  0.00     0.094 A 
ATOM      9  C   UNL     1      70.185  49.135   7.528  1.00  0.00     0.336 A 
ATOM     10  O   UNL     1      69.771  49.473   8.668  1.00  0.00    -0.246 OA
ATOM     11  O   UNL     1      69.822  49.842   6.461  1.00  0.00    -0.423 OA
ENDROOT
TORSDOF 0
ENDMDL
MODEL 8
REMARK VINA RESULT:    -5.032     14.691     15.890
REMARK INTER + INTRA:          -5.032
REMARK INTER:                  -5.032
REMARK INTRA:                   0.000
REMARK UNBOUND:                 0.000
REMARK SMILES O=c1ccc2ccccc2o1
REMARK SMILES IDX 7 1 8 2 9 3 10 4 5 5 6 6 4 7 3 8 2 9 1 10 11 11
REMARK H PARENT
REMARK Flexibility Score: inf
ROOT
ATOM      1  C   UNL     1      70.657  49.609   2.960  1.00  0.00     0.001 A 
ATOM      2  C   UNL     1      69.898  50.294   3.915  1.00  0.00     0.004 A 
ATOM      3  C   UNL     1      69.956  49.920   5.261  1.00  0.00     0.048 A 
ATOM      4  C   UNL     1      70.774  48.856   5.659  1.00  0.00     0.138 A 
ATOM      5  C   UNL     1      71.541  48.164   4.695  1.00  0.00     0.018 A 
ATOM      6  C   UNL     1      71.479  48.544   3.346  1.00  0.00     0.012 A 
ATOM      7  C   UNL     1      72.350  47.106   5.120  1.00  0.00     0.019 A 
ATOM      8  C   UNL     1      72.377  46.767   6.473  1.00  0.00     0.094 A 
ATOM      9  C   UNL     1      71.591  47.498   7.371  1.00  0.00     0.336 A 
ATOM     10  O   UNL     1      71.602  47.208   8.596  1.00  0.00    -0.246 OA
ATOM     11  O   UNL     1      70.830  48.501   6.940  1.00  0.00    -0.423 OA
ENDROOT
TORSDOF 0
ENDMDL
MODEL 9
REMARK VINA RESULT:    -4.997     15.121     17.134
REMARK INTER + INTRA:          -4.997
REMARK INTER:                  -4.997
REMARK INTRA:                   0.000
REMARK UNBOUND:                 0.000
REMARK SMILES O=c1ccc2ccccc2o1
REMARK SMILES IDX 7 1 8 2 9 3 10 4 5 5 6 6 4 7 3 8 2 9 1 10 11 11
REMARK H PARENT
REMARK Flexibility Score: inf
ROOT
ATOM      1  C   UNL     1      73.230  47.735   4.526  1.00  0.00     0.001 A 
ATOM      2  C   UNL     1      71.890  47.993   4.217  1.00  0.00     0.004 A 
ATOM      3  C   UNL     1      71.033  48.524   5.186  1.00  0.00     0.048 A 
ATOM      4  C   UNL     1      71.514  48.799   6.472  1.00  0.00     0.138 A 
ATOM      5  C   UNL     1      72.867  48.539   6.784  1.00  0.00     0.018 A 
ATOM      6  C   UNL     1      73.722  48.006   5.807  1.00  0.00     0.012 A 
ATOM      7  C   UNL     1      73.320  48.824   8.075  1.00  0.00     0.019 A 
ATOM      8  C   UNL     1      72.431  49.353   9.010  1.00  0.00     0.094 A 
ATOM      9  C   UNL     1      71.105  49.586   8.630  1.00  0.00     0.336 A 
ATOM     10  O   UNL     1      70.287  50.063   9.459  1.00  0.00    -0.246 OA
ATOM     11  O   UNL     1      70.699  49.305   7.394  1.00  0.00    -0.423 OA
ENDROOT
TORSDOF 0
ENDMDL
