MODEL 1
REMARK VINA RESULT:    -7.719      0.000      0.000
REMARK INTER + INTRA:         -11.378
REMARK INTER:                  -9.749
REMARK INTRA:                  -1.629
REMARK UNBOUND:                -1.629
REMARK SMILES O[C@H]1OC[C@@H](Cc2ccc3c(c2)OCO3)[C@H]1Cc1ccc2c(c1)OCO2
REMARK SMILES IDX 4 1 5 2 16 3 2 4 3 5 6 6 7 7 12 8 8 9 11 10 9 11 10 12 13 13
REMARK SMILES IDX 15 14 14 15 17 16 18 17 23 18 19 19 22 20 20 21 21 22 24 23
REMARK SMILES IDX 26 24 25 25 1 26
REMARK H PARENT 1 27
REMARK Flexibility Score: inf
ROOT
ATOM      1  C   UNL     1      26.128 -23.432  38.267  1.00  0.00     0.168 C 
ATOM      2  C   UNL     1      26.434 -24.919  38.102  1.00  0.00     0.028 C 
ATOM      3  C   UNL     1      26.256 -25.386  39.537  1.00  0.00     0.055 C 
ATOM      4  C   UNL     1      26.716 -24.173  40.346  1.00  0.00     0.250 C 
ATOM      5  O   UNL     1      26.513 -23.017  39.561  1.00  0.00    -0.352 OA
ENDROOT
BRANCH   2   6
ATOM      6  C   UNL     1      27.852 -25.138  37.513  1.00  0.00     0.042 C 
BRANCH   6   7
ATOM      7  C   UNL     1      27.872 -26.271  36.519  1.00  0.00    -0.044 A 
ATOM      8  C   UNL     1      26.665 -26.719  35.937  1.00  0.00     0.054 A 
ATOM      9  C   UNL     1      29.098 -26.890  36.155  1.00  0.00     0.008 A 
ATOM     10  C   UNL     1      26.728 -27.761  35.017  1.00  0.00     0.166 A 
ATOM     11  C   UNL     1      29.116 -27.941  35.220  1.00  0.00     0.051 A 
ATOM     12  C   UNL     1      27.904 -28.346  34.674  1.00  0.00     0.165 A 
ATOM     13  O   UNL     1      25.695 -28.361  34.324  1.00  0.00    -0.454 OA
ATOM     14  O   UNL     1      27.667 -29.344  33.748  1.00  0.00    -0.454 OA
ATOM     15  C   UNL     1      26.256 -29.388  33.493  1.00  0.00     0.468 C 
ENDBRANCH   6   7
ENDBRANCH   2   6
BRANCH   3  16
ATOM     16  C   UNL     1      26.904 -26.734  39.944  1.00  0.00     0.044 C 
BRANCH  16  17
ATOM     17  C   UNL     1      25.967 -27.901  39.736  1.00  0.00    -0.044 A 
ATOM     18  C   UNL     1      24.748 -27.978  40.450  1.00  0.00     0.054 A 
ATOM     19  C   UNL     1      26.292 -28.921  38.802  1.00  0.00     0.008 A 
ATOM     20  C   UNL     1      23.927 -29.081  40.230  1.00  0.00     0.166 A 
ATOM     21  C   UNL     1      25.432 -30.017  38.609  1.00  0.00     0.051 A 
ATOM     22  C   UNL     1      24.256 -30.058  39.350  1.00  0.00     0.165 A 
ATOM     23  O   UNL     1      22.710 -29.375  40.813  1.00  0.00    -0.454 OA
ATOM     24  O   UNL     1      23.263 -31.019  39.337  1.00  0.00    -0.454 OA
ATOM     25  C   UNL     1      22.247 -30.619  40.268  1.00  0.00     0.468 C 
ENDBRANCH  16  17
ENDBRANCH   3  16
BRANCH   4  26
ATOM     26  O   UNL     1      28.080 -24.256  40.674  1.00  0.00    -0.368 OA
ATOM     27  H   UNL     1      28.379 -25.175  40.446  1.00  0.00     0.213 HD
ENDBRANCH   4  26
TORSDOF 5
ENDMDL
MODEL 2
REMARK VINA RESULT:    -7.446      1.507      6.403
REMARK INTER + INTRA:         -11.033
REMARK INTER:                  -9.276
REMARK INTRA:                  -1.757
REMARK UNBOUND:                -1.629
REMARK SMILES O[C@H]1OC[C@@H](Cc2ccc3c(c2)OCO3)[C@H]1Cc1ccc2c(c1)OCO2
REMARK SMILES IDX 4 1 5 2 16 3 2 4 3 5 6 6 7 7 12 8 8 9 11 10 9 11 10 12 13 13
REMARK SMILES IDX 15 14 14 15 17 16 18 17 23 18 19 19 22 20 20 21 21 22 24 23
REMARK SMILES IDX 26 24 25 25 1 26
REMARK H PARENT 1 27
REMARK Flexibility Score: inf
ROOT
ATOM      1  C   UNL     1      23.273 -29.182  39.484  1.00  0.00     0.168 C 
ATOM      2  C   UNL     1      24.460 -28.290  39.129  1.00  0.00     0.028 C 
ATOM      3  C   UNL     1      25.392 -29.321  38.513  1.00  0.00     0.055 C 
ATOM      4  C   UNL     1      25.066 -30.586  39.308  1.00  0.00     0.250 C 
ATOM      5  O   UNL     1      23.738 -30.484  39.776  1.00  0.00    -0.352 OA
ENDROOT
BRANCH   2   6
ATOM      6  C   UNL     1      25.018 -27.572  40.386  1.00  0.00     0.042 C 
BRANCH   6   7
ATOM      7  C   UNL     1      25.457 -26.164  40.073  1.00  0.00    -0.044 A 
ATOM      8  C   UNL     1      24.725 -25.387  39.147  1.00  0.00     0.054 A 
ATOM      9  C   UNL     1      26.598 -25.607  40.709  1.00  0.00     0.008 A 
ATOM     10  C   UNL     1      25.159 -24.090  38.894  1.00  0.00     0.166 A 
ATOM     11  C   UNL     1      27.002 -24.290  40.424  1.00  0.00     0.051 A 
ATOM     12  C   UNL     1      26.250 -23.564  39.506  1.00  0.00     0.165 A 
ATOM     13  O   UNL     1      24.612 -23.152  38.040  1.00  0.00    -0.454 OA
ATOM     14  O   UNL     1      26.443 -22.269  39.067  1.00  0.00    -0.454 OA
ATOM     15  C   UNL     1      25.410 -21.961  38.121  1.00  0.00     0.468 C 
ENDBRANCH   6   7
ENDBRANCH   2   6
BRANCH   3  16
ATOM     16  C   UNL     1      26.898 -28.970  38.420  1.00  0.00     0.044 C 
BRANCH  16  17
ATOM     17  C   UNL     1      27.216 -28.154  37.188  1.00  0.00    -0.044 A 
ATOM     18  C   UNL     1      27.194 -28.752  35.906  1.00  0.00     0.054 A 
ATOM     19  C   UNL     1      27.518 -26.770  37.306  1.00  0.00     0.008 A 
ATOM     20  C   UNL     1      27.507 -27.958  34.806  1.00  0.00     0.166 A 
ATOM     21  C   UNL     1      27.827 -26.005  36.167  1.00  0.00     0.051 A 
ATOM     22  C   UNL     1      27.812 -26.643  34.932  1.00  0.00     0.165 A 
ATOM     23  O   UNL     1      27.561 -28.319  33.474  1.00  0.00    -0.454 OA
ATOM     24  O   UNL     1      28.077 -26.111  33.684  1.00  0.00    -0.454 OA
ATOM     25  C   UNL     1      27.928 -27.158  32.715  1.00  0.00     0.468 C 
ENDBRANCH  16  17
ENDBRANCH   3  16
BRANCH   4  26
ATOM     26  O   UNL     1      25.919 -30.736  40.415  1.00  0.00    -0.368 OA
ATOM     27  H   UNL     1      26.714 -31.243  40.104  1.00  0.00     0.213 HD
ENDBRANCH   4  26
TORSDOF 5
ENDMDL
MODEL 3
REMARK VINA RESULT:    -7.265      6.198     10.775
REMARK INTER + INTRA:         -10.805
REMARK INTER:                 -10.349
REMARK INTRA:                  -0.456
REMARK UNBOUND:                -1.629
REMARK SMILES O[C@H]1OC[C@@H](Cc2ccc3c(c2)OCO3)[C@H]1Cc1ccc2c(c1)OCO2
REMARK SMILES IDX 4 1 5 2 16 3 2 4 3 5 6 6 7 7 12 8 8 9 11 10 9 11 10 12 13 13
REMARK SMILES IDX 15 14 14 15 17 16 18 17 23 18 19 19 22 20 20 21 21 22 24 23
REMARK SMILES IDX 26 24 25 25 1 26
REMARK H PARENT 1 27
REMARK Flexibility Score: inf
ROOT
ATOM      1  C   UNL     1      25.449 -27.358  31.504  1.00  0.00     0.168 C 
ATOM      2  C   UNL     1      26.701 -26.716  30.910  1.00  0.00     0.028 C 
ATOM      3  C   UNL     1      26.435 -26.939  29.430  1.00  0.00     0.055 C 
ATOM      4  C   UNL     1      25.676 -28.266  29.420  1.00  0.00     0.250 C 
ATOM      5  O   UNL     1      25.018 -28.407  30.661  1.00  0.00    -0.352 OA
ENDROOT
BRANCH   2   6
ATOM      6  C   UNL     1      27.988 -27.389  31.453  1.00  0.00     0.042 C 
BRANCH   6   7
ATOM      7  C   UNL     1      28.277 -26.972  32.873  1.00  0.00    -0.044 A 
ATOM      8  C   UNL     1      27.549 -25.909  33.456  1.00  0.00     0.054 A 
ATOM      9  C   UNL     1      29.270 -27.643  33.634  1.00  0.00     0.008 A 
ATOM     10  C   UNL     1      27.840 -25.562  34.772  1.00  0.00     0.166 A 
ATOM     11  C   UNL     1      29.532 -27.259  34.962  1.00  0.00     0.051 A 
ATOM     12  C   UNL     1      28.790 -26.209  35.493  1.00  0.00     0.165 A 
ATOM     13  O   UNL     1      27.269 -24.571  35.546  1.00  0.00    -0.454 OA
ATOM     14  O   UNL     1      28.863 -25.656  36.757  1.00  0.00    -0.454 OA
ATOM     15  C   UNL     1      27.899 -24.598  36.835  1.00  0.00     0.468 C 
ENDBRANCH   6   7
ENDBRANCH   2   6
BRANCH   3  16
ATOM     16  C   UNL     1      27.641 -26.862  28.460  1.00  0.00     0.044 C 
BRANCH  16  17
ATOM     17  C   UNL     1      27.334 -26.032  27.235  1.00  0.00    -0.044 A 
ATOM     18  C   UNL     1      25.995 -25.796  26.846  1.00  0.00     0.054 A 
ATOM     19  C   UNL     1      28.390 -25.460  26.476  1.00  0.00     0.008 A 
ATOM     20  C   UNL     1      25.768 -25.034  25.703  1.00  0.00     0.166 A 
ATOM     21  C   UNL     1      28.116 -24.695  25.328  1.00  0.00     0.051 A 
ATOM     22  C   UNL     1      26.783 -24.510  24.975  1.00  0.00     0.165 A 
ATOM     23  O   UNL     1      24.560 -24.686  25.130  1.00  0.00    -0.454 OA
ATOM     24  O   UNL     1      26.266 -23.806  23.904  1.00  0.00    -0.454 OA
ATOM     25  C   UNL     1      24.836 -23.895  23.964  1.00  0.00     0.468 C 
ENDBRANCH  16  17
ENDBRANCH   3  16
BRANCH   4  26
ATOM     26  O   UNL     1      26.544 -29.358  29.249  1.00  0.00    -0.368 OA
ATOM     27  H   UNL     1      26.012 -30.181  29.410  1.00  0.00     0.213 HD
ENDBRANCH   4  26
TORSDOF 5
ENDMDL
MODEL 4
REMARK VINA RESULT:    -7.119      6.350      9.421
REMARK INTER + INTRA:         -10.620
REMARK INTER:                  -9.775
REMARK INTRA:                  -0.845
REMARK UNBOUND:                -1.629
REMARK SMILES O[C@H]1OC[C@@H](Cc2ccc3c(c2)OCO3)[C@H]1Cc1ccc2c(c1)OCO2
REMARK SMILES IDX 4 1 5 2 16 3 2 4 3 5 6 6 7 7 12 8 8 9 11 10 9 11 10 12 13 13
REMARK SMILES IDX 15 14 14 15 17 16 18 17 23 18 19 19 22 20 20 21 21 22 24 23
REMARK SMILES IDX 26 24 25 25 1 26
REMARK H PARENT 1 27
REMARK Flexibility Score: inf
ROOT
ATOM      1  C   UNL     1      27.646 -27.965  28.380  1.00  0.00     0.168 C 
ATOM      2  C   UNL     1      27.056 -26.773  29.132  1.00  0.00     0.028 C 
ATOM      3  C   UNL     1      27.208 -27.261  30.563  1.00  0.00     0.055 C 
ATOM      4  C   UNL     1      27.025 -28.773  30.424  1.00  0.00     0.250 C 
ATOM      5  O   UNL     1      27.407 -29.146  29.117  1.00  0.00    -0.352 OA
ENDROOT
BRANCH   2   6
ATOM      6  C   UNL     1      25.597 -26.496  28.687  1.00  0.00     0.042 C 
BRANCH   6   7
ATOM      7  C   UNL     1      25.539 -25.498  27.557  1.00  0.00    -0.044 A 
ATOM      8  C   UNL     1      24.692 -25.736  26.451  1.00  0.00     0.054 A 
ATOM      9  C   UNL     1      26.325 -24.316  27.598  1.00  0.00     0.008 A 
ATOM     10  C   UNL     1      24.662 -24.786  25.435  1.00  0.00     0.166 A 
ATOM     11  C   UNL     1      26.263 -23.382  26.548  1.00  0.00     0.051 A 
ATOM     12  C   UNL     1      25.414 -23.658  25.482  1.00  0.00     0.165 A 
ATOM     13  O   UNL     1      23.921 -24.798  24.269  1.00  0.00    -0.454 OA
ATOM     14  O   UNL     1      25.184 -22.904  24.347  1.00  0.00    -0.454 OA
ATOM     15  C   UNL     1      24.227 -23.601  23.538  1.00  0.00     0.468 C 
ENDBRANCH   6   7
ENDBRANCH   2   6
BRANCH   3  16
ATOM     16  C   UNL     1      26.337 -26.588  31.653  1.00  0.00     0.044 C 
BRANCH  16  17
ATOM     17  C   UNL     1      27.108 -26.348  32.930  1.00  0.00    -0.044 A 
ATOM     18  C   UNL     1      26.459 -25.819  34.071  1.00  0.00     0.054 A 
ATOM     19  C   UNL     1      28.489 -26.675  33.004  1.00  0.00     0.008 A 
ATOM     20  C   UNL     1      27.219 -25.605  35.217  1.00  0.00     0.166 A 
ATOM     21  C   UNL     1      29.218 -26.445  34.184  1.00  0.00     0.051 A 
ATOM     22  C   UNL     1      28.540 -25.903  35.271  1.00  0.00     0.165 A 
ATOM     23  O   UNL     1      26.811 -25.093  36.434  1.00  0.00    -0.454 OA
ATOM     24  O   UNL     1      29.032 -25.590  36.524  1.00  0.00    -0.454 OA
ATOM     25  C   UNL     1      27.951 -25.063  37.305  1.00  0.00     0.468 C 
ENDBRANCH  16  17
ENDBRANCH   3  16
BRANCH   4  26
ATOM     26  O   UNL     1      25.687 -29.153  30.624  1.00  0.00    -0.368 OA
ATOM     27  H   UNL     1      25.418 -29.697  29.838  1.00  0.00     0.213 HD
ENDBRANCH   4  26
TORSDOF 5
ENDMDL
MODEL 5
REMARK VINA RESULT:    -7.117      2.839      5.576
REMARK INTER + INTRA:         -10.618
REMARK INTER:                  -9.036
REMARK INTRA:                  -1.582
REMARK UNBOUND:                -1.629
REMARK SMILES O[C@H]1OC[C@@H](Cc2ccc3c(c2)OCO3)[C@H]1Cc1ccc2c(c1)OCO2
REMARK SMILES IDX 4 1 5 2 16 3 2 4 3 5 6 6 7 7 12 8 8 9 11 10 9 11 10 12 13 13
REMARK SMILES IDX 15 14 14 15 17 16 18 17 23 18 19 19 22 20 20 21 21 22 24 23
REMARK SMILES IDX 26 24 25 25 1 26
REMARK H PARENT 1 27
REMARK Flexibility Score: inf
ROOT
ATOM      1  C   UNL     1      26.696 -26.867  32.368  1.00  0.00     0.168 C 
ATOM      2  C   UNL     1      26.382 -27.699  33.610  1.00  0.00     0.028 C 
ATOM      3  C   UNL     1      27.696 -27.558  34.362  1.00  0.00     0.055 C 
ATOM      4  C   UNL     1      28.723 -27.471  33.232  1.00  0.00     0.250 C 
ATOM      5  O   UNL     1      28.079 -26.947  32.090  1.00  0.00    -0.352 OA
ENDROOT
BRANCH   2   6
ATOM      6  C   UNL     1      25.999 -29.153  33.229  1.00  0.00     0.042 C 
BRANCH   6   7
ATOM      7  C   UNL     1      24.714 -29.581  33.891  1.00  0.00    -0.044 A 
ATOM      8  C   UNL     1      23.922 -30.593  33.302  1.00  0.00     0.054 A 
ATOM      9  C   UNL     1      24.296 -28.983  35.109  1.00  0.00     0.008 A 
ATOM     10  C   UNL     1      22.749 -30.966  33.950  1.00  0.00     0.166 A 
ATOM     11  C   UNL     1      23.101 -29.390  35.730  1.00  0.00     0.051 A 
ATOM     12  C   UNL     1      22.356 -30.390  35.114  1.00  0.00     0.165 A 
ATOM     13  O   UNL     1      21.824 -31.919  33.572  1.00  0.00    -0.454 OA
ATOM     14  O   UNL     1      21.163 -30.952  35.525  1.00  0.00    -0.454 OA
ATOM     15  C   UNL     1      20.784 -31.943  34.561  1.00  0.00     0.468 C 
ENDBRANCH   6   7
ENDBRANCH   2   6
BRANCH   3  16
ATOM     16  C   UNL     1      28.014 -28.600  35.463  1.00  0.00     0.044 C 
BRANCH  16  17
ATOM     17  C   UNL     1      27.447 -28.200  36.806  1.00  0.00    -0.044 A 
ATOM     18  C   UNL     1      26.985 -29.184  37.712  1.00  0.00     0.054 A 
ATOM     19  C   UNL     1      27.396 -26.830  37.181  1.00  0.00     0.008 A 
ATOM     20  C   UNL     1      26.462 -28.760  38.930  1.00  0.00     0.166 A 
ATOM     21  C   UNL     1      26.861 -26.446  38.423  1.00  0.00     0.051 A 
ATOM     22  C   UNL     1      26.401 -27.449  39.270  1.00  0.00     0.165 A 
ATOM     23  O   UNL     1      25.946 -29.528  39.956  1.00  0.00    -0.454 OA
ATOM     24  O   UNL     1      25.839 -27.326  40.526  1.00  0.00    -0.454 OA
ATOM     25  C   UNL     1      25.530 -28.642  41.005  1.00  0.00     0.468 C 
ENDBRANCH  16  17
ENDBRANCH   3  16
BRANCH   4  26
ATOM     26  O   UNL     1      29.246 -28.734  32.910  1.00  0.00    -0.368 OA
ATOM     27  H   UNL     1      29.535 -28.696  31.961  1.00  0.00     0.213 HD
ENDBRANCH   4  26
TORSDOF 5
ENDMDL
MODEL 6
REMARK VINA RESULT:    -7.025      8.580     12.161
REMARK INTER + INTRA:         -10.502
REMARK INTER:                  -8.590
REMARK INTRA:                  -1.912
REMARK UNBOUND:                -1.629
REMARK SMILES O[C@H]1OC[C@@H](Cc2ccc3c(c2)OCO3)[C@H]1Cc1ccc2c(c1)OCO2
REMARK SMILES IDX 4 1 5 2 16 3 2 4 3 5 6 6 7 7 12 8 8 9 11 10 9 11 10 12 13 13
REMARK SMILES IDX 15 14 14 15 17 16 18 17 23 18 19 19 22 20 20 21 21 22 24 23
REMARK SMILES IDX 26 24 25 25 1 26
REMARK H PARENT 1 27
REMARK Flexibility Score: inf
ROOT
ATOM      1  C   UNL     1      27.303 -27.866  28.607  1.00  0.00     0.168 C 
ATOM      2  C   UNL     1      26.330 -26.727  28.307  1.00  0.00     0.028 C 
ATOM      3  C   UNL     1      26.170 -26.142  29.701  1.00  0.00     0.055 C 
ATOM      4  C   UNL     1      26.300 -27.373  30.599  1.00  0.00     0.250 C 
ATOM      5  O   UNL     1      27.083 -28.333  29.922  1.00  0.00    -0.352 OA
ENDROOT
BRANCH   2   6
ATOM      6  C   UNL     1      25.023 -27.259  27.666  1.00  0.00     0.042 C 
BRANCH   6   7
ATOM      7  C   UNL     1      24.471 -26.296  26.645  1.00  0.00    -0.044 A 
ATOM      8  C   UNL     1      25.353 -25.507  25.873  1.00  0.00     0.054 A 
ATOM      9  C   UNL     1      23.070 -26.180  26.446  1.00  0.00     0.008 A 
ATOM     10  C   UNL     1      24.804 -24.638  24.935  1.00  0.00     0.166 A 
ATOM     11  C   UNL     1      22.557 -25.288  25.487  1.00  0.00     0.051 A 
ATOM     12  C   UNL     1      23.464 -24.534  24.750  1.00  0.00     0.165 A 
ATOM     13  O   UNL     1      25.457 -23.778  24.074  1.00  0.00    -0.454 OA
ATOM     14  O   UNL     1      23.207 -23.602  23.763  1.00  0.00    -0.454 OA
ATOM     15  C   UNL     1      24.464 -23.090  23.299  1.00  0.00     0.468 C 
ENDBRANCH   6   7
ENDBRANCH   2   6
BRANCH   3  16
ATOM     16  C   UNL     1      24.930 -25.254  29.974  1.00  0.00     0.044 C 
BRANCH  16  17
ATOM     17  C   UNL     1      24.895 -24.036  29.080  1.00  0.00    -0.044 A 
ATOM     18  C   UNL     1      23.659 -23.488  28.664  1.00  0.00     0.054 A 
ATOM     19  C   UNL     1      26.105 -23.415  28.670  1.00  0.00     0.008 A 
ATOM     20  C   UNL     1      23.683 -22.372  27.831  1.00  0.00     0.166 A 
ATOM     21  C   UNL     1      26.083 -22.287  27.830  1.00  0.00     0.051 A 
ATOM     22  C   UNL     1      24.844 -21.799  27.431  1.00  0.00     0.165 A 
ATOM     23  O   UNL     1      22.616 -21.679  27.294  1.00  0.00    -0.454 OA
ATOM     24  O   UNL     1      24.566 -20.717  26.617  1.00  0.00    -0.454 OA
ATOM     25  C   UNL     1      23.141 -20.604  26.501  1.00  0.00     0.468 C 
ENDBRANCH  16  17
ENDBRANCH   3  16
BRANCH   4  26
ATOM     26  O   UNL     1      25.046 -27.940  30.884  1.00  0.00    -0.368 OA
ATOM     27  H   UNL     1      25.185 -28.919  30.982  1.00  0.00     0.213 HD
ENDBRANCH   4  26
TORSDOF 5
ENDMDL
MODEL 7
REMARK VINA RESULT:    -6.997      2.805      6.148
REMARK INTER + INTRA:         -10.466
REMARK INTER:                  -9.027
REMARK INTRA:                  -1.440
REMARK UNBOUND:                -1.629
REMARK SMILES O[C@H]1OC[C@@H](Cc2ccc3c(c2)OCO3)[C@H]1Cc1ccc2c(c1)OCO2
REMARK SMILES IDX 4 1 5 2 16 3 2 4 3 5 6 6 7 7 12 8 8 9 11 10 9 11 10 12 13 13
REMARK SMILES IDX 15 14 14 15 17 16 18 17 23 18 19 19 22 20 20 21 21 22 24 23
REMARK SMILES IDX 26 24 25 25 1 26
REMARK H PARENT 1 27
REMARK Flexibility Score: inf
ROOT
ATOM      1  C   UNL     1      25.653 -30.276  40.130  1.00  0.00     0.168 C 
ATOM      2  C   UNL     1      25.563 -29.806  38.679  1.00  0.00     0.028 C 
ATOM      3  C   UNL     1      26.464 -28.583  38.741  1.00  0.00     0.055 C 
ATOM      4  C   UNL     1      26.234 -28.066  40.161  1.00  0.00     0.250 C 
ATOM      5  O   UNL     1      25.850 -29.157  40.971  1.00  0.00    -0.352 OA
ENDROOT
BRANCH   2   6
ATOM      6  C   UNL     1      24.095 -29.517  38.274  1.00  0.00     0.042 C 
BRANCH   6   7
ATOM      7  C   UNL     1      23.541 -30.599  37.381  1.00  0.00    -0.044 A 
ATOM      8  C   UNL     1      23.211 -30.304  36.039  1.00  0.00     0.054 A 
ATOM      9  C   UNL     1      23.356 -31.918  37.875  1.00  0.00     0.008 A 
ATOM     10  C   UNL     1      22.712 -31.333  35.246  1.00  0.00     0.166 A 
ATOM     11  C   UNL     1      22.848 -32.928  37.038  1.00  0.00     0.051 A 
ATOM     12  C   UNL     1      22.539 -32.590  35.725  1.00  0.00     0.165 A 
ATOM     13  O   UNL     1      22.325 -31.287  33.921  1.00  0.00    -0.454 OA
ATOM     14  O   UNL     1      22.033 -33.398  34.725  1.00  0.00    -0.454 OA
ATOM     15  C   UNL     1      21.881 -32.599  33.544  1.00  0.00     0.468 C 
ENDBRANCH   6   7
ENDBRANCH   2   6
BRANCH   3  16
ATOM     16  C   UNL     1      26.319 -27.522  37.621  1.00  0.00     0.044 C 
BRANCH  16  17
ATOM     17  C   UNL     1      26.826 -28.026  36.290  1.00  0.00    -0.044 A 
ATOM     18  C   UNL     1      26.087 -27.793  35.106  1.00  0.00     0.054 A 
ATOM     19  C   UNL     1      28.065 -28.717  36.212  1.00  0.00     0.008 A 
ATOM     20  C   UNL     1      26.594 -28.289  33.908  1.00  0.00     0.166 A 
ATOM     21  C   UNL     1      28.541 -29.199  34.980  1.00  0.00     0.051 A 
ATOM     22  C   UNL     1      27.768 -28.964  33.848  1.00  0.00     0.165 A 
ATOM     23  O   UNL     1      26.049 -28.197  32.642  1.00  0.00    -0.454 OA
ATOM     24  O   UNL     1      28.019 -29.335  32.541  1.00  0.00    -0.454 OA
ATOM     25  C   UNL     1      26.935 -28.861  31.730  1.00  0.00     0.468 C 
ENDBRANCH  16  17
ENDBRANCH   3  16
BRANCH   4  26
ATOM     26  O   UNL     1      25.215 -27.100  40.202  1.00  0.00    -0.368 OA
ATOM     27  H   UNL     1      25.658 -26.213  40.261  1.00  0.00     0.213 HD
ENDBRANCH   4  26
TORSDOF 5
ENDMDL
MODEL 8
REMARK VINA RESULT:    -6.996      9.111     12.713
REMARK INTER + INTRA:         -10.466
REMARK INTER:                  -9.326
REMARK INTRA:                  -1.140
REMARK UNBOUND:                -1.629
REMARK SMILES O[C@H]1OC[C@@H](Cc2ccc3c(c2)OCO3)[C@H]1Cc1ccc2c(c1)OCO2
REMARK SMILES IDX 4 1 5 2 16 3 2 4 3 5 6 6 7 7 12 8 8 9 11 10 9 11 10 12 13 13
REMARK SMILES IDX 15 14 14 15 17 16 18 17 23 18 19 19 22 20 20 21 21 22 24 23
REMARK SMILES IDX 26 24 25 25 1 26
REMARK H PARENT 1 27
REMARK Flexibility Score: inf
ROOT
ATOM      1  C   UNL     1      25.060 -24.806  23.080  1.00  0.00     0.168 C 
ATOM      2  C   UNL     1      24.831 -24.441  24.546  1.00  0.00     0.028 C 
ATOM      3  C   UNL     1      24.849 -25.827  25.170  1.00  0.00     0.055 C 
ATOM      4  C   UNL     1      24.250 -26.701  24.067  1.00  0.00     0.250 C 
ATOM      5  O   UNL     1      24.505 -26.080  22.825  1.00  0.00    -0.352 OA
ENDROOT
BRANCH   2   6
ATOM      6  C   UNL     1      23.505 -23.659  24.728  1.00  0.00     0.042 C 
BRANCH   6   7
ATOM      7  C   UNL     1      23.650 -22.546  25.736  1.00  0.00    -0.044 A 
ATOM      8  C   UNL     1      22.561 -21.681  25.990  1.00  0.00     0.054 A 
ATOM      9  C   UNL     1      24.869 -22.365  26.440  1.00  0.00     0.008 A 
ATOM     10  C   UNL     1      22.733 -20.673  26.934  1.00  0.00     0.166 A 
ATOM     11  C   UNL     1      24.999 -21.332  27.387  1.00  0.00     0.051 A 
ATOM     12  C   UNL     1      23.901 -20.507  27.603  1.00  0.00     0.165 A 
ATOM     13  O   UNL     1      21.824 -19.719  27.347  1.00  0.00    -0.454 OA
ATOM     14  O   UNL     1      23.785 -19.437  28.471  1.00  0.00    -0.454 OA
ATOM     15  C   UNL     1      22.462 -18.900  28.339  1.00  0.00     0.468 C 
ENDBRANCH   6   7
ENDBRANCH   2   6
BRANCH   3  16
ATOM     16  C   UNL     1      24.207 -25.998  26.569  1.00  0.00     0.044 C 
BRANCH  16  17
ATOM     17  C   UNL     1      25.176 -26.579  27.573  1.00  0.00    -0.044 A 
ATOM     18  C   UNL     1      24.702 -27.315  28.684  1.00  0.00     0.054 A 
ATOM     19  C   UNL     1      26.576 -26.409  27.396  1.00  0.00     0.008 A 
ATOM     20  C   UNL     1      25.637 -27.818  29.585  1.00  0.00     0.166 A 
ATOM     21  C   UNL     1      27.486 -26.936  28.330  1.00  0.00     0.051 A 
ATOM     22  C   UNL     1      26.969 -27.634  29.417  1.00  0.00     0.165 A 
ATOM     23  O   UNL     1      25.413 -28.548  30.736  1.00  0.00    -0.454 OA
ATOM     24  O   UNL     1      27.652 -28.238  30.456  1.00  0.00    -0.454 OA
ATOM     25  C   UNL     1      26.687 -28.838  31.330  1.00  0.00     0.468 C 
ENDBRANCH  16  17
ENDBRANCH   3  16
BRANCH   4  26
ATOM     26  O   UNL     1      22.860 -26.844  24.218  1.00  0.00    -0.368 OA
ATOM     27  H   UNL     1      22.451 -26.658  23.333  1.00  0.00     0.213 HD
ENDBRANCH   4  26
TORSDOF 5
ENDMDL
MODEL 9
REMARK VINA RESULT:    -6.933      9.331     11.891
REMARK INTER + INTRA:         -10.386
REMARK INTER:                  -8.429
REMARK INTRA:                  -1.957
REMARK UNBOUND:                -1.629
REMARK SMILES O[C@H]1OC[C@@H](Cc2ccc3c(c2)OCO3)[C@H]1Cc1ccc2c(c1)OCO2
REMARK SMILES IDX 4 1 5 2 16 3 2 4 3 5 6 6 7 7 12 8 8 9 11 10 9 11 10 12 13 13
REMARK SMILES IDX 15 14 14 15 17 16 18 17 23 18 19 19 22 20 20 21 21 22 24 23
REMARK SMILES IDX 26 24 25 25 1 26
REMARK H PARENT 1 27
REMARK Flexibility Score: inf
ROOT
ATOM      1  C   UNL     1      22.297 -21.102  29.203  1.00  0.00     0.168 C 
ATOM      2  C   UNL     1      23.238 -22.004  28.406  1.00  0.00     0.028 C 
ATOM      3  C   UNL     1      24.567 -21.625  29.038  1.00  0.00     0.055 C 
ATOM      4  C   UNL     1      24.366 -20.150  29.386  1.00  0.00     0.250 C 
ATOM      5  O   UNL     1      22.985 -19.926  29.576  1.00  0.00    -0.352 OA
ENDROOT
BRANCH   2   6
ATOM      6  C   UNL     1      23.131 -21.721  26.885  1.00  0.00     0.042 C 
BRANCH   6   7
ATOM      7  C   UNL     1      23.370 -22.966  26.069  1.00  0.00    -0.044 A 
ATOM      8  C   UNL     1      24.108 -22.889  24.866  1.00  0.00     0.054 A 
ATOM      9  C   UNL     1      22.865 -24.220  26.502  1.00  0.00     0.008 A 
ATOM     10  C   UNL     1      24.314 -24.062  24.148  1.00  0.00     0.166 A 
ATOM     11  C   UNL     1      23.096 -25.383  25.744  1.00  0.00     0.051 A 
ATOM     12  C   UNL     1      23.829 -25.257  24.569  1.00  0.00     0.165 A 
ATOM     13  O   UNL     1      24.996 -24.234  22.960  1.00  0.00    -0.454 OA
ATOM     14  O   UNL     1      24.183 -26.241  23.666  1.00  0.00    -0.454 OA
ATOM     15  C   UNL     1      24.937 -25.626  22.612  1.00  0.00     0.468 C 
ENDBRANCH   6   7
ENDBRANCH   2   6
BRANCH   3  16
ATOM     16  C   UNL     1      25.860 -21.946  28.248  1.00  0.00     0.044 C 
BRANCH  16  17
ATOM     17  C   UNL     1      26.099 -23.434  28.126  1.00  0.00    -0.044 A 
ATOM     18  C   UNL     1      25.565 -24.327  29.085  1.00  0.00     0.054 A 
ATOM     19  C   UNL     1      26.843 -23.952  27.032  1.00  0.00     0.008 A 
ATOM     20  C   UNL     1      25.825 -25.685  28.933  1.00  0.00     0.166 A 
ATOM     21  C   UNL     1      27.080 -25.333  26.915  1.00  0.00     0.051 A 
ATOM     22  C   UNL     1      26.552 -26.167  27.895  1.00  0.00     0.165 A 
ATOM     23  O   UNL     1      25.423 -26.732  29.740  1.00  0.00    -0.454 OA
ATOM     24  O   UNL     1      26.647 -27.542  27.999  1.00  0.00    -0.454 OA
ATOM     25  C   UNL     1      25.935 -27.948  29.176  1.00  0.00     0.468 C 
ENDBRANCH  16  17
ENDBRANCH   3  16
BRANCH   4  26
ATOM     26  O   UNL     1      24.817 -19.309  28.355  1.00  0.00    -0.368 OA
ATOM     27  H   UNL     1      24.336 -18.445  28.452  1.00  0.00     0.213 HD
ENDBRANCH   4  26
TORSDOF 5
ENDMDL
