MODEL 1
REMARK VINA RESULT:    -5.545      0.000      0.000
REMARK INTER + INTRA:          -6.031
REMARK INTER:                  -6.031
REMARK INTRA:                   0.000
REMARK UNBOUND:                 0.000
REMARK SMILES Cc1cc(O)c2c(c1)C(=O)c1cc(O)cc(O)c1C2=O
REMARK SMILES IDX 1 1 2 2 8 3 7 4 6 5 4 6 3 7 19 8 20 9 18 10 11 11 9 12 10 13
REMARK SMILES IDX 12 14 13 15 15 16 16 17 5 18 17 20 14 22
REMARK H PARENT 5 19 17 21 14 23
REMARK Flexibility Score: inf
ROOT
ATOM      1  C   UNL     1       5.044  -4.868  37.098  1.00  0.00     0.044 C 
ATOM      2  C   UNL     1       3.759  -5.263  36.431  1.00  0.00    -0.047 A 
ATOM      3  C   UNL     1       2.980  -6.298  36.960  1.00  0.00     0.016 A 
ATOM      4  C   UNL     1       1.762  -6.657  36.359  1.00  0.00     0.038 A 
ATOM      5  C   UNL     1       1.316  -5.968  35.209  1.00  0.00     0.076 A 
ATOM      6  C   UNL     1       2.068  -4.866  34.728  1.00  0.00     0.127 A 
ATOM      7  C   UNL     1       3.287  -4.540  35.331  1.00  0.00     0.050 A 
ATOM      8  C   UNL     1       0.102  -6.471  34.516  1.00  0.00     0.201 C 
ATOM      9  O   UNL     1      -0.019  -6.315  33.272  1.00  0.00    -0.288 OA
ATOM     10  C   UNL     1      -0.873  -7.316  35.254  1.00  0.00     0.076 A 
ATOM     11  C   UNL     1      -0.424  -8.002  36.406  1.00  0.00     0.041 A 
ATOM     12  C   UNL     1       0.940  -7.750  36.931  1.00  0.00     0.194 C 
ATOM     13  O   UNL     1       1.389  -8.448  37.880  1.00  0.00    -0.289 OA
ATOM     14  C   UNL     1      -1.274  -8.915  37.051  1.00  0.00     0.059 A 
ATOM     15  C   UNL     1      -2.567  -9.142  36.571  1.00  0.00     0.120 A 
ATOM     16  C   UNL     1      -3.027  -8.437  35.459  1.00  0.00     0.093 A 
ATOM     17  C   UNL     1      -2.208  -7.508  34.811  1.00  0.00     0.131 A 
ENDROOT
BRANCH   6  18
ATOM     18  O   UNL     1       1.627  -4.049  33.684  1.00  0.00    -0.507 OA
ATOM     19  H   UNL     1       0.718  -3.607  33.667  1.00  0.00     0.293 HD
ENDBRANCH   6  18
BRANCH  17  20
ATOM     20  O   UNL     1      -2.769  -6.776  33.763  1.00  0.00    -0.507 OA
ATOM     21  H   UNL     1      -2.261  -6.515  32.929  1.00  0.00     0.293 HD
ENDBRANCH  17  20
BRANCH  15  22
ATOM     22  O   UNL     1      -3.408 -10.057  37.201  1.00  0.00    -0.508 OA
ATOM     23  H   UNL     1      -3.884 -10.785  36.680  1.00  0.00     0.293 HD
ENDBRANCH  15  22
TORSDOF 3
ENDMDL
MODEL 2
REMARK VINA RESULT:    -5.254      3.392      6.343
REMARK INTER + INTRA:          -5.715
REMARK INTER:                  -5.715
REMARK INTRA:                   0.000
REMARK UNBOUND:                 0.000
REMARK SMILES Cc1cc(O)c2c(c1)C(=O)c1cc(O)cc(O)c1C2=O
REMARK SMILES IDX 1 1 2 2 8 3 7 4 6 5 4 6 3 7 19 8 20 9 18 10 11 11 9 12 10 13
REMARK SMILES IDX 12 14 13 15 15 16 16 17 5 18 17 20 14 22
REMARK H PARENT 5 19 17 21 14 23
REMARK Flexibility Score: inf
ROOT
ATOM      1  C   UNL     1       3.960 -10.125  41.117  1.00  0.00     0.044 C 
ATOM      2  C   UNL     1       4.333  -8.992  40.205  1.00  0.00    -0.047 A 
ATOM      3  C   UNL     1       3.524  -8.676  39.109  1.00  0.00     0.016 A 
ATOM      4  C   UNL     1       3.850  -7.600  38.266  1.00  0.00     0.038 A 
ATOM      5  C   UNL     1       5.004  -6.828  38.526  1.00  0.00     0.076 A 
ATOM      6  C   UNL     1       5.772  -7.101  39.687  1.00  0.00     0.127 A 
ATOM      7  C   UNL     1       5.440  -8.190  40.499  1.00  0.00     0.050 A 
ATOM      8  C   UNL     1       5.397  -5.795  37.532  1.00  0.00     0.201 C 
ATOM      9  O   UNL     1       6.612  -5.500  37.383  1.00  0.00    -0.288 OA
ATOM     10  C   UNL     1       4.383  -5.252  36.592  1.00  0.00     0.076 A 
ATOM     11  C   UNL     1       3.227  -6.026  36.336  1.00  0.00     0.041 A 
ATOM     12  C   UNL     1       2.983  -7.267  37.110  1.00  0.00     0.194 C 
ATOM     13  O   UNL     1       2.023  -8.024  36.802  1.00  0.00    -0.289 OA
ATOM     14  C   UNL     1       2.313  -5.614  35.352  1.00  0.00     0.059 A 
ATOM     15  C   UNL     1       2.529  -4.435  34.633  1.00  0.00     0.120 A 
ATOM     16  C   UNL     1       3.647  -3.648  34.911  1.00  0.00     0.093 A 
ATOM     17  C   UNL     1       4.561  -4.026  35.899  1.00  0.00     0.131 A 
ENDROOT
BRANCH   6  18
ATOM     18  O   UNL     1       6.844  -6.301  40.089  1.00  0.00    -0.507 OA
ATOM     19  H   UNL     1       7.284  -5.616  39.490  1.00  0.00     0.293 HD
ENDBRANCH   6  18
BRANCH  17  20
ATOM     20  O   UNL     1       5.604  -3.142  36.183  1.00  0.00    -0.507 OA
ATOM     21  H   UNL     1       6.579  -3.366  36.043  1.00  0.00     0.293 HD
ENDBRANCH  17  20
BRANCH  15  22
ATOM     22  O   UNL     1       1.631  -4.029  33.648  1.00  0.00    -0.508 OA
ATOM     23  H   UNL     1       0.646  -3.902  33.848  1.00  0.00     0.293 HD
ENDBRANCH  15  22
TORSDOF 3
ENDMDL
MODEL 3
REMARK VINA RESULT:    -5.091      2.977      6.602
REMARK INTER + INTRA:          -5.538
REMARK INTER:                  -5.538
REMARK INTRA:                   0.000
REMARK UNBOUND:                 0.000
REMARK SMILES Cc1cc(O)c2c(c1)C(=O)c1cc(O)cc(O)c1C2=O
REMARK SMILES IDX 1 1 2 2 8 3 7 4 6 5 4 6 3 7 19 8 20 9 18 10 11 11 9 12 10 13
REMARK SMILES IDX 12 14 13 15 15 16 16 17 5 18 17 20 14 22
REMARK H PARENT 5 19 17 21 14 23
REMARK Flexibility Score: inf
ROOT
ATOM      1  C   UNL     1      -0.316  -7.077  34.011  1.00  0.00     0.044 C 
ATOM      2  C   UNL     1       0.887  -6.315  34.487  1.00  0.00    -0.047 A 
ATOM      3  C   UNL     1       1.632  -6.785  35.574  1.00  0.00     0.016 A 
ATOM      4  C   UNL     1       2.776  -6.095  36.009  1.00  0.00     0.038 A 
ATOM      5  C   UNL     1       3.181  -4.916  35.345  1.00  0.00     0.076 A 
ATOM      6  C   UNL     1       2.471  -4.494  34.192  1.00  0.00     0.127 A 
ATOM      7  C   UNL     1       1.324  -5.185  33.790  1.00  0.00     0.050 A 
ATOM      8  C   UNL     1       4.305  -4.135  35.923  1.00  0.00     0.201 C 
ATOM      9  O   UNL     1       4.344  -2.886  35.768  1.00  0.00    -0.288 OA
ATOM     10  C   UNL     1       5.273  -4.798  36.835  1.00  0.00     0.076 A 
ATOM     11  C   UNL     1       4.865  -5.980  37.496  1.00  0.00     0.041 A 
ATOM     12  C   UNL     1       3.564  -6.604  37.158  1.00  0.00     0.194 C 
ATOM     13  O   UNL     1       3.140  -7.583  37.830  1.00  0.00    -0.289 OA
ATOM     14  C   UNL     1       5.697  -6.559  38.468  1.00  0.00     0.059 A 
ATOM     15  C   UNL     1       6.933  -5.985  38.777  1.00  0.00     0.120 A 
ATOM     16  C   UNL     1       7.356  -4.843  38.098  1.00  0.00     0.093 A 
ATOM     17  C   UNL     1       6.556  -4.258  37.113  1.00  0.00     0.131 A 
ENDROOT
BRANCH   6  18
ATOM     18  O   UNL     1       2.888  -3.420  33.399  1.00  0.00    -0.507 OA
ATOM     19  H   UNL     1       2.707  -2.453  33.630  1.00  0.00     0.293 HD
ENDBRANCH   6  18
BRANCH  17  20
ATOM     20  O   UNL     1       7.086  -3.172  36.413  1.00  0.00    -0.507 OA
ATOM     21  H   UNL     1       6.659  -2.779  35.585  1.00  0.00     0.293 HD
ENDBRANCH  17  20
BRANCH  15  22
ATOM     22  O   UNL     1       7.756  -6.550  39.750  1.00  0.00    -0.508 OA
ATOM     23  H   UNL     1       8.760  -6.607  39.628  1.00  0.00     0.293 HD
ENDBRANCH  15  22
TORSDOF 3
ENDMDL
MODEL 4
REMARK VINA RESULT:    -5.070      2.093      3.839
REMARK INTER + INTRA:          -5.515
REMARK INTER:                  -5.515
REMARK INTRA:                   0.000
REMARK UNBOUND:                 0.000
REMARK SMILES Cc1cc(O)c2c(c1)C(=O)c1cc(O)cc(O)c1C2=O
REMARK SMILES IDX 1 1 2 2 8 3 7 4 6 5 4 6 3 7 19 8 20 9 18 10 11 11 9 12 10 13
REMARK SMILES IDX 12 14 13 15 15 16 16 17 5 18 17 20 14 22
REMARK H PARENT 5 19 17 21 14 23
REMARK Flexibility Score: inf
ROOT
ATOM      1  C   UNL     1       6.778  -6.764  40.211  1.00  0.00     0.044 C 
ATOM      2  C   UNL     1       5.988  -6.345  39.006  1.00  0.00    -0.047 A 
ATOM      3  C   UNL     1       4.960  -7.160  38.520  1.00  0.00     0.016 A 
ATOM      4  C   UNL     1       4.197  -6.763  37.409  1.00  0.00     0.038 A 
ATOM      5  C   UNL     1       4.466  -5.530  36.775  1.00  0.00     0.076 A 
ATOM      6  C   UNL     1       5.453  -4.671  37.325  1.00  0.00     0.127 A 
ATOM      7  C   UNL     1       6.214  -5.097  38.418  1.00  0.00     0.050 A 
ATOM      8  C   UNL     1       3.740  -5.213  35.519  1.00  0.00     0.201 C 
ATOM      9  O   UNL     1       4.288  -4.493  34.643  1.00  0.00    -0.288 OA
ATOM     10  C   UNL     1       2.455  -5.895  35.217  1.00  0.00     0.076 A 
ATOM     11  C   UNL     1       2.186  -7.128  35.855  1.00  0.00     0.041 A 
ATOM     12  C   UNL     1       3.104  -7.630  36.906  1.00  0.00     0.194 C 
ATOM     13  O   UNL     1       2.940  -8.784  37.388  1.00  0.00    -0.289 OA
ATOM     14  C   UNL     1       1.050  -7.869  35.494  1.00  0.00     0.059 A 
ATOM     15  C   UNL     1       0.171  -7.390  34.518  1.00  0.00     0.120 A 
ATOM     16  C   UNL     1       0.411  -6.156  33.915  1.00  0.00     0.093 A 
ATOM     17  C   UNL     1       1.524  -5.390  34.271  1.00  0.00     0.131 A 
ENDROOT
BRANCH   6  18
ATOM     18  O   UNL     1       5.683  -3.380  36.842  1.00  0.00    -0.507 OA
ATOM     19  H   UNL     1       5.002  -2.851  36.316  1.00  0.00     0.293 HD
ENDBRANCH   6  18
BRANCH  17  20
ATOM     20  O   UNL     1       1.648  -4.125  33.692  1.00  0.00    -0.507 OA
ATOM     21  H   UNL     1       1.803  -3.975  32.705  1.00  0.00     0.293 HD
ENDBRANCH  17  20
BRANCH  15  22
ATOM     22  O   UNL     1      -0.951  -8.129  34.148  1.00  0.00    -0.508 OA
ATOM     23  H   UNL     1      -1.283  -8.146  33.191  1.00  0.00     0.293 HD
ENDBRANCH  15  22
TORSDOF 3
ENDMDL
MODEL 5
REMARK VINA RESULT:    -4.904      1.944      6.247
REMARK INTER + INTRA:          -5.334
REMARK INTER:                  -5.334
REMARK INTRA:                   0.000
REMARK UNBOUND:                 0.000
REMARK SMILES Cc1cc(O)c2c(c1)C(=O)c1cc(O)cc(O)c1C2=O
REMARK SMILES IDX 1 1 2 2 8 3 7 4 6 5 4 6 3 7 19 8 20 9 18 10 11 11 9 12 10 13
REMARK SMILES IDX 12 14 13 15 15 16 16 17 5 18 17 20 14 22
REMARK H PARENT 5 19 17 21 14 23
REMARK Flexibility Score: inf
ROOT
ATOM      1  C   UNL     1      -2.003  -9.788  37.451  1.00  0.00     0.044 C 
ATOM      2  C   UNL     1      -0.738  -8.986  37.356  1.00  0.00    -0.047 A 
ATOM      3  C   UNL     1      -0.530  -8.125  36.273  1.00  0.00     0.016 A 
ATOM      4  C   UNL     1       0.638  -7.349  36.189  1.00  0.00     0.038 A 
ATOM      5  C   UNL     1       1.614  -7.434  37.208  1.00  0.00     0.076 A 
ATOM      6  C   UNL     1       1.357  -8.244  38.344  1.00  0.00     0.127 A 
ATOM      7  C   UNL     1       0.197  -9.023  38.395  1.00  0.00     0.050 A 
ATOM      8  C   UNL     1       2.898  -6.713  37.013  1.00  0.00     0.201 C 
ATOM      9  O   UNL     1       3.955  -7.168  37.525  1.00  0.00    -0.288 OA
ATOM     10  C   UNL     1       2.966  -5.571  36.066  1.00  0.00     0.076 A 
ATOM     11  C   UNL     1       1.987  -5.486  35.049  1.00  0.00     0.041 A 
ATOM     12  C   UNL     1       0.847  -6.434  35.041  1.00  0.00     0.194 C 
ATOM     13  O   UNL     1       0.042  -6.445  34.071  1.00  0.00    -0.289 OA
ATOM     14  C   UNL     1       2.096  -4.502  34.053  1.00  0.00     0.059 A 
ATOM     15  C   UNL     1       3.159  -3.594  34.067  1.00  0.00     0.120 A 
ATOM     16  C   UNL     1       4.104  -3.649  35.091  1.00  0.00     0.093 A 
ATOM     17  C   UNL     1       4.007  -4.606  36.105  1.00  0.00     0.131 A 
ENDROOT
BRANCH   6  18
ATOM     18  O   UNL     1       2.204  -8.276  39.455  1.00  0.00    -0.507 OA
ATOM     19  H   UNL     1       3.210  -8.355  39.387  1.00  0.00     0.293 HD
ENDBRANCH   6  18
BRANCH  17  20
ATOM     20  O   UNL     1       4.937  -4.540  37.144  1.00  0.00    -0.507 OA
ATOM     21  H   UNL     1       5.844  -4.984  37.111  1.00  0.00     0.293 HD
ENDBRANCH  17  20
BRANCH  15  22
ATOM     22  O   UNL     1       3.277  -2.624  33.074  1.00  0.00    -0.508 OA
ATOM     23  H   UNL     1       4.002  -1.916  33.107  1.00  0.00     0.293 HD
ENDBRANCH  15  22
TORSDOF 3
ENDMDL
MODEL 6
REMARK VINA RESULT:    -4.883      3.372      6.282
REMARK INTER + INTRA:          -5.311
REMARK INTER:                  -5.311
REMARK INTRA:                   0.000
REMARK UNBOUND:                 0.000
REMARK SMILES Cc1cc(O)c2c(c1)C(=O)c1cc(O)cc(O)c1C2=O
REMARK SMILES IDX 1 1 2 2 8 3 7 4 6 5 4 6 3 7 19 8 20 9 18 10 11 11 9 12 10 13
REMARK SMILES IDX 12 14 13 15 15 16 16 17 5 18 17 20 14 22
REMARK H PARENT 5 19 17 21 14 23
REMARK Flexibility Score: inf
ROOT
ATOM      1  C   UNL     1       5.429  -9.114  39.939  1.00  0.00     0.044 C 
ATOM      2  C   UNL     1       4.715  -8.238  38.950  1.00  0.00    -0.047 A 
ATOM      3  C   UNL     1       5.366  -7.133  38.392  1.00  0.00     0.016 A 
ATOM      4  C   UNL     1       4.717  -6.323  37.444  1.00  0.00     0.038 A 
ATOM      5  C   UNL     1       3.395  -6.626  37.049  1.00  0.00     0.076 A 
ATOM      6  C   UNL     1       2.773  -7.796  37.556  1.00  0.00     0.127 A 
ATOM      7  C   UNL     1       3.431  -8.574  38.513  1.00  0.00     0.050 A 
ATOM      8  C   UNL     1       2.690  -5.666  36.161  1.00  0.00     0.201 C 
ATOM      9  O   UNL     1       1.438  -5.549  36.233  1.00  0.00    -0.288 OA
ATOM     10  C   UNL     1       3.475  -4.718  35.328  1.00  0.00     0.076 A 
ATOM     11  C   UNL     1       4.799  -4.420  35.724  1.00  0.00     0.041 A 
ATOM     12  C   UNL     1       5.417  -5.158  36.852  1.00  0.00     0.194 C 
ATOM     13  O   UNL     1       6.547  -4.811  37.289  1.00  0.00    -0.289 OA
ATOM     14  C   UNL     1       5.525  -3.428  35.045  1.00  0.00     0.059 A 
ATOM     15  C   UNL     1       4.954  -2.742  33.969  1.00  0.00     0.120 A 
ATOM     16  C   UNL     1       3.663  -3.062  33.550  1.00  0.00     0.093 A 
ATOM     17  C   UNL     1       2.927  -4.059  34.196  1.00  0.00     0.131 A 
ENDROOT
BRANCH   6  18
ATOM     18  O   UNL     1       1.524  -8.239  37.112  1.00  0.00    -0.507 OA
ATOM     19  H   UNL     1       1.013  -7.803  36.357  1.00  0.00     0.293 HD
ENDBRANCH   6  18
BRANCH  17  20
ATOM     20  O   UNL     1       1.679  -4.387  33.663  1.00  0.00    -0.507 OA
ATOM     21  H   UNL     1       1.130  -3.755  33.097  1.00  0.00     0.293 HD
ENDBRANCH  17  20
BRANCH  15  22
ATOM     22  O   UNL     1       5.667  -1.748  33.301  1.00  0.00    -0.508 OA
ATOM     23  H   UNL     1       5.283  -1.272  32.493  1.00  0.00     0.293 HD
ENDBRANCH  15  22
TORSDOF 3
ENDMDL
MODEL 7
REMARK VINA RESULT:    -4.804      3.483      7.696
REMARK INTER + INTRA:          -5.226
REMARK INTER:                  -5.226
REMARK INTRA:                   0.000
REMARK UNBOUND:                 0.000
REMARK SMILES Cc1cc(O)c2c(c1)C(=O)c1cc(O)cc(O)c1C2=O
REMARK SMILES IDX 1 1 2 2 8 3 7 4 6 5 4 6 3 7 19 8 20 9 18 10 11 11 9 12 10 13
REMARK SMILES IDX 12 14 13 15 15 16 16 17 5 18 17 20 14 22
REMARK H PARENT 5 19 17 21 14 23
REMARK Flexibility Score: inf
ROOT
ATOM      1  C   UNL     1       1.387  -7.207  37.384  1.00  0.00     0.044 C 
ATOM      2  C   UNL     1       2.175  -6.207  36.588  1.00  0.00    -0.047 A 
ATOM      3  C   UNL     1       3.524  -5.980  36.881  1.00  0.00     0.016 A 
ATOM      4  C   UNL     1       4.277  -5.067  36.123  1.00  0.00     0.038 A 
ATOM      5  C   UNL     1       3.670  -4.371  35.054  1.00  0.00     0.076 A 
ATOM      6  C   UNL     1       2.326  -4.669  34.710  1.00  0.00     0.127 A 
ATOM      7  C   UNL     1       1.591  -5.566  35.491  1.00  0.00     0.050 A 
ATOM      8  C   UNL     1       4.453  -3.309  34.373  1.00  0.00     0.201 C 
ATOM      9  O   UNL     1       3.859  -2.321  33.865  1.00  0.00    -0.288 OA
ATOM     10  C   UNL     1       5.937  -3.317  34.456  1.00  0.00     0.076 A 
ATOM     11  C   UNL     1       6.542  -4.017  35.525  1.00  0.00     0.041 A 
ATOM     12  C   UNL     1       5.708  -4.838  36.436  1.00  0.00     0.194 C 
ATOM     13  O   UNL     1       6.222  -5.361  37.462  1.00  0.00    -0.289 OA
ATOM     14  C   UNL     1       7.931  -3.936  35.717  1.00  0.00     0.059 A 
ATOM     15  C   UNL     1       8.723  -3.179  34.850  1.00  0.00     0.120 A 
ATOM     16  C   UNL     1       8.135  -2.520  33.771  1.00  0.00     0.093 A 
ATOM     17  C   UNL     1       6.758  -2.601  33.546  1.00  0.00     0.131 A 
ENDROOT
BRANCH   6  18
ATOM     18  O   UNL     1       1.697  -4.128  33.586  1.00  0.00    -0.507 OA
ATOM     19  H   UNL     1       2.152  -4.021  32.689  1.00  0.00     0.293 HD
ENDBRANCH   6  18
BRANCH  17  20
ATOM     20  O   UNL     1       6.256  -1.992  32.395  1.00  0.00    -0.507 OA
ATOM     21  H   UNL     1       5.392  -2.266  31.949  1.00  0.00     0.293 HD
ENDBRANCH  17  20
BRANCH  15  22
ATOM     22  O   UNL     1      10.100  -3.085  35.045  1.00  0.00    -0.508 OA
ATOM     23  H   UNL     1      10.590  -2.204  34.949  1.00  0.00     0.293 HD
ENDBRANCH  15  22
TORSDOF 3
ENDMDL
MODEL 8
REMARK VINA RESULT:    -4.779      2.272      3.410
REMARK INTER + INTRA:          -5.198
REMARK INTER:                  -5.198
REMARK INTRA:                   0.000
REMARK UNBOUND:                 0.000
REMARK SMILES Cc1cc(O)c2c(c1)C(=O)c1cc(O)cc(O)c1C2=O
REMARK SMILES IDX 1 1 2 2 8 3 7 4 6 5 4 6 3 7 19 8 20 9 18 10 11 11 9 12 10 13
REMARK SMILES IDX 12 14 13 15 15 16 16 17 5 18 17 20 14 22
REMARK H PARENT 5 19 17 21 14 23
REMARK Flexibility Score: inf
ROOT
ATOM      1  C   UNL     1       6.115  -3.019  34.502  1.00  0.00     0.044 C 
ATOM      2  C   UNL     1       4.956  -3.921  34.812  1.00  0.00    -0.047 A 
ATOM      3  C   UNL     1       5.073  -4.902  35.803  1.00  0.00     0.016 A 
ATOM      4  C   UNL     1       3.984  -5.732  36.120  1.00  0.00     0.038 A 
ATOM      5  C   UNL     1       2.758  -5.576  35.436  1.00  0.00     0.076 A 
ATOM      6  C   UNL     1       2.622  -4.524  34.494  1.00  0.00     0.127 A 
ATOM      7  C   UNL     1       3.725  -3.724  34.179  1.00  0.00     0.050 A 
ATOM      8  C   UNL     1       1.680  -6.565  35.693  1.00  0.00     0.201 C 
ATOM      9  O   UNL     1       0.855  -6.842  34.782  1.00  0.00    -0.288 OA
ATOM     10  C   UNL     1       1.690  -7.358  36.949  1.00  0.00     0.076 A 
ATOM     11  C   UNL     1       2.918  -7.510  37.633  1.00  0.00     0.041 A 
ATOM     12  C   UNL     1       4.115  -6.764  37.176  1.00  0.00     0.194 C 
ATOM     13  O   UNL     1       5.238  -6.991  37.703  1.00  0.00    -0.289 OA
ATOM     14  C   UNL     1       2.997  -8.363  38.746  1.00  0.00     0.059 A 
ATOM     15  C   UNL     1       1.866  -9.053  39.193  1.00  0.00     0.120 A 
ATOM     16  C   UNL     1       0.644  -8.875  38.545  1.00  0.00     0.093 A 
ATOM     17  C   UNL     1       0.535  -8.016  37.447  1.00  0.00     0.131 A 
ENDROOT
BRANCH   6  18
ATOM     18  O   UNL     1       1.406  -4.217  33.877  1.00  0.00    -0.507 OA
ATOM     19  H   UNL     1       1.153  -3.286  33.575  1.00  0.00     0.293 HD
ENDBRANCH   6  18
BRANCH  17  20
ATOM     20  O   UNL     1      -0.738  -7.818  36.909  1.00  0.00    -0.507 OA
ATOM     21  H   UNL     1      -1.441  -8.543  36.854  1.00  0.00     0.293 HD
ENDBRANCH  17  20
BRANCH  15  22
ATOM     22  O   UNL     1       1.944  -9.910  40.289  1.00  0.00    -0.508 OA
ATOM     23  H   UNL     1       2.584  -9.735  41.055  1.00  0.00     0.293 HD
ENDBRANCH  15  22
TORSDOF 3
ENDMDL
