MODEL 1
REMARK VINA RESULT:    -5.032      0.000      0.000
REMARK INTER + INTRA:          -7.488
REMARK INTER:                  -7.091
REMARK INTRA:                  -0.397
REMARK UNBOUND:                -0.397
REMARK SMILES CCCCCCCCC(=O)[O-]
REMARK SMILES IDX 6 1 7 2 8 3 9 4 10 5 11 6 5 7 4 8 3 9 2 10 1 11
REMARK H PARENT
REMARK Flexibility Score: inf
ROOT
ATOM      1  C   UNL     1     101.960 305.796 193.263  1.00  0.00     0.000 C 
ENDROOT
BRANCH   1   2
ATOM      2  C   UNL     1     101.435 305.885 194.705  1.00  0.00     0.006 C 
BRANCH   2   3
ATOM      3  C   UNL     1     102.457 306.568 195.618  1.00  0.00     0.053 C 
BRANCH   3   4
ATOM      4  C   UNL     1     102.055 306.425 197.052  1.00  0.00     0.041 C 
ATOM      5  O   UNL     1     102.052 307.429 197.812  1.00  0.00    -0.550 OA
ATOM      6  O   UNL     1     101.636 305.192 197.538  1.00  0.00    -0.550 OA
ENDBRANCH   3   4
ENDBRANCH   2   3
ENDBRANCH   1   2
BRANCH   1   7
ATOM      7  C   UNL     1     103.432 306.218 193.142  1.00  0.00     0.000 C 
BRANCH   7   8
ATOM      8  C   UNL     1     103.621 307.453 192.242  1.00  0.00    -0.000 C 
BRANCH   8   9
ATOM      9  C   UNL     1     102.290 307.998 191.700  1.00  0.00    -0.000 C 
BRANCH   9  10
ATOM     10  C   UNL     1     102.476 308.878 190.456  1.00  0.00    -0.003 C 
ATOM     11  C   UNL     1     103.904 309.408 190.365  1.00  0.00     0.004 C 
ENDBRANCH   9  10
ENDBRANCH   8   9
ENDBRANCH   7   8
ENDBRANCH   1   7
TORSDOF 7
ENDMDL
MODEL 2
REMARK VINA RESULT:    -4.985      1.440      2.546
REMARK INTER + INTRA:          -7.422
REMARK INTER:                  -7.090
REMARK INTRA:                  -0.332
REMARK UNBOUND:                -0.397
REMARK SMILES CCCCCCCCC(=O)[O-]
REMARK SMILES IDX 6 1 7 2 8 3 9 4 10 5 11 6 5 7 4 8 3 9 2 10 1 11
REMARK H PARENT
REMARK Flexibility Score: inf
ROOT
ATOM      1  C   UNL     1     102.530 306.445 195.651  1.00  0.00     0.000 C 
ENDROOT
BRANCH   1   2
ATOM      2  C   UNL     1     101.966 306.882 197.012  1.00  0.00     0.006 C 
BRANCH   2   3
ATOM      3  C   UNL     1     101.819 305.684 197.954  1.00  0.00     0.053 C 
BRANCH   3   4
ATOM      4  C   UNL     1     101.533 306.145 199.348  1.00  0.00     0.041 C 
ATOM      5  O   UNL     1     100.451 306.735 199.611  1.00  0.00    -0.550 OA
ATOM      6  O   UNL     1     102.439 305.880 200.368  1.00  0.00    -0.550 OA
ENDBRANCH   3   4
ENDBRANCH   2   3
ENDBRANCH   1   2
BRANCH   1   7
ATOM      7  C   UNL     1     101.432 306.027 194.662  1.00  0.00     0.000 C 
BRANCH   7   8
ATOM      8  C   UNL     1     101.959 305.871 193.223  1.00  0.00    -0.000 C 
BRANCH   8   9
ATOM      9  C   UNL     1     103.419 306.327 193.078  1.00  0.00    -0.000 C 
BRANCH   9  10
ATOM     10  C   UNL     1     103.551 307.643 192.298  1.00  0.00    -0.003 C 
ATOM     11  C   UNL     1     102.310 307.905 191.449  1.00  0.00     0.004 C 
ENDBRANCH   9  10
ENDBRANCH   8   9
ENDBRANCH   7   8
ENDBRANCH   1   7
TORSDOF 7
ENDMDL
MODEL 3
REMARK VINA RESULT:    -4.981      1.012      1.320
REMARK INTER + INTRA:          -7.417
REMARK INTER:                  -6.919
REMARK INTRA:                  -0.498
REMARK UNBOUND:                -0.397
REMARK SMILES CCCCCCCCC(=O)[O-]
REMARK SMILES IDX 6 1 7 2 8 3 9 4 10 5 11 6 5 7 4 8 3 9 2 10 1 11
REMARK H PARENT
REMARK Flexibility Score: inf
ROOT
ATOM      1  C   UNL     1     102.128 305.731 193.263  1.00  0.00     0.000 C 
ENDROOT
BRANCH   1   2
ATOM      2  C   UNL     1     101.484 306.081 194.613  1.00  0.00     0.006 C 
BRANCH   2   3
ATOM      3  C   UNL     1     102.548 306.471 195.643  1.00  0.00     0.053 C 
BRANCH   3   4
ATOM      4  C   UNL     1     102.278 307.840 196.182  1.00  0.00     0.041 C 
ATOM      5  O   UNL     1     102.115 308.810 195.396  1.00  0.00    -0.550 OA
ATOM      6  O   UNL     1     102.157 308.036 197.553  1.00  0.00    -0.550 OA
ENDBRANCH   3   4
ENDBRANCH   2   3
ENDBRANCH   1   2
BRANCH   1   7
ATOM      7  C   UNL     1     103.556 306.281 193.128  1.00  0.00     0.000 C 
BRANCH   7   8
ATOM      8  C   UNL     1     103.618 307.568 192.286  1.00  0.00    -0.000 C 
BRANCH   8   9
ATOM      9  C   UNL     1     102.325 307.815 191.491  1.00  0.00    -0.000 C 
BRANCH   9  10
ATOM     10  C   UNL     1     102.450 308.995 190.516  1.00  0.00    -0.003 C 
ATOM     11  C   UNL     1     103.910 309.392 190.317  1.00  0.00     0.004 C 
ENDBRANCH   9  10
ENDBRANCH   8   9
ENDBRANCH   7   8
ENDBRANCH   1   7
TORSDOF 7
ENDMDL
MODEL 4
REMARK VINA RESULT:    -4.980      3.596      5.401
REMARK INTER + INTRA:          -7.414
REMARK INTER:                  -6.726
REMARK INTRA:                  -0.688
REMARK UNBOUND:                -0.397
REMARK SMILES CCCCCCCCC(=O)[O-]
REMARK SMILES IDX 6 1 7 2 8 3 9 4 10 5 11 6 5 7 4 8 3 9 2 10 1 11
REMARK H PARENT
REMARK Flexibility Score: inf
ROOT
ATOM      1  C   UNL     1     103.644 306.232 193.252  1.00  0.00     0.000 C 
ENDROOT
BRANCH   1   2
ATOM      2  C   UNL     1     103.898 307.403 192.290  1.00  0.00     0.006 C 
BRANCH   2   3
ATOM      3  C   UNL     1     102.583 307.923 191.702  1.00  0.00     0.053 C 
BRANCH   3   4
ATOM      4  C   UNL     1     102.851 308.860 190.567  1.00  0.00     0.041 C 
ATOM      5  O   UNL     1     101.916 309.212 189.801  1.00  0.00    -0.550 OA
ATOM      6  O   UNL     1     104.125 309.385 190.385  1.00  0.00    -0.550 OA
ENDBRANCH   3   4
ENDBRANCH   2   3
ENDBRANCH   1   2
BRANCH   1   7
ATOM      7  C   UNL     1     102.184 305.756 193.233  1.00  0.00     0.000 C 
BRANCH   7   8
ATOM      8  C   UNL     1     101.501 305.888 194.607  1.00  0.00    -0.000 C 
BRANCH   8   9
ATOM      9  C   UNL     1     102.398 306.578 195.648  1.00  0.00    -0.000 C 
BRANCH   9  10
ATOM     10  C   UNL     1     101.751 307.837 196.241  1.00  0.00    -0.003 C 
ATOM     11  C   UNL     1     101.734 308.976 195.225  1.00  0.00     0.004 C 
ENDBRANCH   9  10
ENDBRANCH   8   9
ENDBRANCH   7   8
ENDBRANCH   1   7
TORSDOF 7
ENDMDL
MODEL 5
REMARK VINA RESULT:    -4.954      1.014      1.743
REMARK INTER + INTRA:          -7.378
REMARK INTER:                  -7.037
REMARK INTRA:                  -0.341
REMARK UNBOUND:                -0.397
REMARK SMILES CCCCCCCCC(=O)[O-]
REMARK SMILES IDX 6 1 7 2 8 3 9 4 10 5 11 6 5 7 4 8 3 9 2 10 1 11
REMARK H PARENT
REMARK Flexibility Score: inf
ROOT
ATOM      1  C   UNL     1     101.364 306.323 194.950  1.00  0.00     0.000 C 
ENDROOT
BRANCH   1   2
ATOM      2  C   UNL     1     102.420 306.268 196.065  1.00  0.00     0.006 C 
BRANCH   2   3
ATOM      3  C   UNL     1     101.884 305.524 197.291  1.00  0.00     0.053 C 
BRANCH   3   4
ATOM      4  C   UNL     1     101.759 306.454 198.455  1.00  0.00     0.041 C 
ATOM      5  O   UNL     1     101.552 307.682 198.266  1.00  0.00    -0.550 OA
ATOM      6  O   UNL     1     101.821 305.959 199.752  1.00  0.00    -0.550 OA
ENDBRANCH   3   4
ENDBRANCH   2   3
ENDBRANCH   1   2
BRANCH   1   7
ATOM      7  C   UNL     1     101.913 305.863 193.591  1.00  0.00     0.000 C 
BRANCH   7   8
ATOM      8  C   UNL     1     103.399 306.219 193.403  1.00  0.00    -0.000 C 
BRANCH   8   9
ATOM      9  C   UNL     1     103.610 307.351 192.385  1.00  0.00    -0.000 C 
BRANCH   9  10
ATOM     10  C   UNL     1     102.304 308.077 192.032  1.00  0.00    -0.003 C 
ATOM     11  C   UNL     1     102.311 308.546 190.580  1.00  0.00     0.004 C 
ENDBRANCH   9  10
ENDBRANCH   8   9
ENDBRANCH   7   8
ENDBRANCH   1   7
TORSDOF 7
ENDMDL
MODEL 6
REMARK VINA RESULT:    -4.923     20.766     21.687
REMARK INTER + INTRA:          -7.335
REMARK INTER:                  -7.104
REMARK INTRA:                  -0.231
REMARK UNBOUND:                -0.397
REMARK SMILES CCCCCCCCC(=O)[O-]
REMARK SMILES IDX 6 1 7 2 8 3 9 4 10 5 11 6 5 7 4 8 3 9 2 10 1 11
REMARK H PARENT
REMARK Flexibility Score: inf
ROOT
ATOM      1  C   UNL     1      87.386 320.515 195.668  1.00  0.00     0.000 C 
ENDROOT
BRANCH   1   2
ATOM      2  C   UNL     1      86.527 320.898 194.452  1.00  0.00     0.006 C 
BRANCH   2   3
ATOM      3  C   UNL     1      86.367 319.711 193.499  1.00  0.00     0.053 C 
BRANCH   3   4
ATOM      4  C   UNL     1      84.928 319.317 193.390  1.00  0.00     0.041 C 
ATOM      5  O   UNL     1      84.553 318.531 192.480  1.00  0.00    -0.550 OA
ATOM      6  O   UNL     1      84.008 319.780 194.323  1.00  0.00    -0.550 OA
ENDBRANCH   3   4
ENDBRANCH   2   3
ENDBRANCH   1   2
BRANCH   1   7
ATOM      7  C   UNL     1      86.541 320.121 196.888  1.00  0.00     0.000 C 
BRANCH   7   8
ATOM      8  C   UNL     1      86.915 320.921 198.150  1.00  0.00    -0.000 C 
BRANCH   8   9
ATOM      9  C   UNL     1      87.410 320.022 199.294  1.00  0.00    -0.000 C 
BRANCH   9  10
ATOM     10  C   UNL     1      88.052 320.821 200.436  1.00  0.00    -0.003 C 
ATOM     11  C   UNL     1      87.343 320.554 201.761  1.00  0.00     0.004 C 
ENDBRANCH   9  10
ENDBRANCH   8   9
ENDBRANCH   7   8
ENDBRANCH   1   7
TORSDOF 7
ENDMDL
MODEL 7
REMARK VINA RESULT:    -4.914     19.947     20.870
REMARK INTER + INTRA:          -7.321
REMARK INTER:                  -6.634
REMARK INTRA:                  -0.687
REMARK UNBOUND:                -0.397
REMARK SMILES CCCCCCCCC(=O)[O-]
REMARK SMILES IDX 6 1 7 2 8 3 9 4 10 5 11 6 5 7 4 8 3 9 2 10 1 11
REMARK H PARENT
REMARK Flexibility Score: inf
ROOT
ATOM      1  C   UNL     1      85.078 320.474 194.462  1.00  0.00     0.000 C 
ENDROOT
BRANCH   1   2
ATOM      2  C   UNL     1      84.725 319.331 193.496  1.00  0.00     0.006 C 
BRANCH   2   3
ATOM      3  C   UNL     1      85.924 318.966 192.617  1.00  0.00     0.053 C 
BRANCH   3   4
ATOM      4  C   UNL     1      85.557 317.883 191.653  1.00  0.00     0.041 C 
ATOM      5  O   UNL     1      86.454 317.274 191.012  1.00  0.00    -0.550 OA
ATOM      6  O   UNL     1      84.227 317.511 191.499  1.00  0.00    -0.550 OA
ENDBRANCH   3   4
ENDBRANCH   2   3
ENDBRANCH   1   2
BRANCH   1   7
ATOM      7  C   UNL     1      86.549 320.905 194.355  1.00  0.00     0.000 C 
BRANCH   7   8
ATOM      8  C   UNL     1      87.320 320.711 195.674  1.00  0.00    -0.000 C 
BRANCH   8   9
ATOM      9  C   UNL     1      86.682 319.644 196.578  1.00  0.00    -0.000 C 
BRANCH   9  10
ATOM     10  C   UNL     1      87.551 318.385 196.707  1.00  0.00    -0.003 C 
ATOM     11  C   UNL     1      87.182 317.351 195.647  1.00  0.00     0.004 C 
ENDBRANCH   9  10
ENDBRANCH   8   9
ENDBRANCH   7   8
ENDBRANCH   1   7
TORSDOF 7
ENDMDL
MODEL 8
REMARK VINA RESULT:    -4.896     19.963     20.680
REMARK INTER + INTRA:          -7.297
REMARK INTER:                  -6.918
REMARK INTRA:                  -0.379
REMARK UNBOUND:                -0.397
REMARK SMILES CCCCCCCCC(=O)[O-]
REMARK SMILES IDX 6 1 7 2 8 3 9 4 10 5 11 6 5 7 4 8 3 9 2 10 1 11
REMARK H PARENT
REMARK Flexibility Score: inf
ROOT
ATOM      1  C   UNL     1      87.320 320.685 195.607  1.00  0.00     0.000 C 
ENDROOT
BRANCH   1   2
ATOM      2  C   UNL     1      86.505 320.158 196.799  1.00  0.00     0.006 C 
BRANCH   2   3
ATOM      3  C   UNL     1      86.973 320.798 198.109  1.00  0.00     0.053 C 
BRANCH   3   4
ATOM      4  C   UNL     1      87.424 319.747 199.073  1.00  0.00     0.041 C 
ATOM      5  O   UNL     1      87.151 318.535 198.864  1.00  0.00    -0.550 OA
ATOM      6  O   UNL     1      88.188 320.100 200.179  1.00  0.00    -0.550 OA
ENDBRANCH   3   4
ENDBRANCH   2   3
ENDBRANCH   1   2
BRANCH   1   7
ATOM      7  C   UNL     1      86.444 321.009 194.388  1.00  0.00     0.000 C 
BRANCH   7   8
ATOM      8  C   UNL     1      85.052 320.354 194.469  1.00  0.00    -0.000 C 
BRANCH   8   9
ATOM      9  C   UNL     1      84.848 319.269 193.399  1.00  0.00    -0.000 C 
BRANCH   9  10
ATOM     10  C   UNL     1      86.152 318.897 192.680  1.00  0.00    -0.003 C 
ATOM     11  C   UNL     1      85.880 318.004 191.473  1.00  0.00     0.004 C 
ENDBRANCH   9  10
ENDBRANCH   8   9
ENDBRANCH   7   8
ENDBRANCH   1   7
TORSDOF 7
ENDMDL
MODEL 9
REMARK VINA RESULT:    -4.795      4.383      6.406
REMARK INTER + INTRA:          -7.154
REMARK INTER:                  -6.758
REMARK INTRA:                  -0.397
REMARK UNBOUND:                -0.397
REMARK SMILES CCCCCCCCC(=O)[O-]
REMARK SMILES IDX 6 1 7 2 8 3 9 4 10 5 11 6 5 7 4 8 3 9 2 10 1 11
REMARK H PARENT
REMARK Flexibility Score: inf
ROOT
ATOM      1  C   UNL     1     102.257 307.752 191.544  1.00  0.00     0.000 C 
ENDROOT
BRANCH   1   2
ATOM      2  C   UNL     1     102.258 309.190 191.001  1.00  0.00     0.006 C 
BRANCH   2   3
ATOM      3  C   UNL     1     101.828 309.220 189.532  1.00  0.00     0.053 C 
BRANCH   3   4
ATOM      4  C   UNL     1     102.559 310.297 188.795  1.00  0.00     0.041 C 
ATOM      5  O   UNL     1     103.204 311.174 189.429  1.00  0.00    -0.550 OA
ATOM      6  O   UNL     1     102.570 310.305 187.405  1.00  0.00    -0.550 OA
ENDBRANCH   3   4
ENDBRANCH   2   3
ENDBRANCH   1   2
BRANCH   1   7
ATOM      7  C   UNL     1     103.573 307.384 192.246  1.00  0.00     0.000 C 
BRANCH   7   8
ATOM      8  C   UNL     1     103.405 306.229 193.250  1.00  0.00    -0.000 C 
BRANCH   8   9
ATOM      9  C   UNL     1     101.930 305.883 193.511  1.00  0.00    -0.000 C 
BRANCH   9  10
ATOM     10  C   UNL     1     101.532 306.071 194.982  1.00  0.00    -0.003 C 
ATOM     11  C   UNL     1     101.521 307.548 195.363  1.00  0.00     0.004 C 
ENDBRANCH   9  10
ENDBRANCH   8   9
ENDBRANCH   7   8
ENDBRANCH   1   7
TORSDOF 7
ENDMDL
