MODEL 1
REMARK VINA RESULT:    -5.643      0.000      0.000
REMARK INTER + INTRA:          -5.643
REMARK INTER:                  -5.643
REMARK INTRA:                   0.000
REMARK UNBOUND:                 0.000
REMARK SMILES O=c1ccc2ccc3occc3c2o1
REMARK SMILES IDX 6 1 7 2 8 3 12 4 11 5 10 6 9 7 13 8 5 9 4 10 3 11 2 12 1 13
REMARK SMILES IDX 14 14
REMARK H PARENT
REMARK Flexibility Score: inf
ROOT
ATOM      1  C   UNL     1      19.228  24.652  37.424  1.00  0.00     0.016 A 
ATOM      2  C   UNL     1      19.127  26.000  37.822  1.00  0.00     0.048 A 
ATOM      3  C   UNL     1      19.537  26.335  39.111  1.00  0.00     0.137 A 
ATOM      4  C   UNL     1      20.027  25.398  39.982  1.00  0.00     0.064 A 
ATOM      5  C   UNL     1      20.333  26.058  41.149  1.00  0.00     0.054 A 
ATOM      6  C   UNL     1      19.999  27.385  40.899  1.00  0.00     0.196 A 
ATOM      7  O   UNL     1      19.526  27.519  39.673  1.00  0.00    -0.464 OA
ATOM      8  C   UNL     1      20.142  24.056  39.626  1.00  0.00     0.149 A 
ATOM      9  C   UNL     1      19.733  23.680  38.321  1.00  0.00     0.018 A 
ATOM     10  C   UNL     1      19.847  22.335  37.958  1.00  0.00     0.019 A 
ATOM     11  C   UNL     1      20.352  21.417  38.880  1.00  0.00     0.094 A 
ATOM     12  C   UNL     1      20.735  21.866  40.151  1.00  0.00     0.336 A 
ATOM     13  O   UNL     1      21.192  21.049  40.994  1.00  0.00    -0.246 OA
ATOM     14  O   UNL     1      20.619  23.151  40.476  1.00  0.00    -0.422 OA
ENDROOT
TORSDOF 0
ENDMDL
MODEL 2
REMARK VINA RESULT:    -5.638      1.495      2.784
REMARK INTER + INTRA:          -5.638
REMARK INTER:                  -5.638
REMARK INTRA:                   0.000
REMARK UNBOUND:                 0.000
REMARK SMILES O=c1ccc2ccc3occc3c2o1
REMARK SMILES IDX 6 1 7 2 8 3 12 4 11 5 10 6 9 7 13 8 5 9 4 10 3 11 2 12 1 13
REMARK SMILES IDX 14 14
REMARK H PARENT
REMARK Flexibility Score: inf
ROOT
ATOM      1  C   UNL     1      20.057  25.144  40.435  1.00  0.00     0.016 A 
ATOM      2  C   UNL     1      19.573  26.254  39.716  1.00  0.00     0.048 A 
ATOM      3  C   UNL     1      19.188  26.058  38.391  1.00  0.00     0.137 A 
ATOM      4  C   UNL     1      19.268  24.832  37.786  1.00  0.00     0.064 A 
ATOM      5  C   UNL     1      18.814  24.990  36.498  1.00  0.00     0.054 A 
ATOM      6  C   UNL     1      18.481  26.338  36.406  1.00  0.00     0.196 A 
ATOM      7  O   UNL     1      18.715  26.950  37.554  1.00  0.00    -0.464 OA
ATOM      8  C   UNL     1      19.741  23.711  38.465  1.00  0.00     0.149 A 
ATOM      9  C   UNL     1      20.143  23.874  39.815  1.00  0.00     0.018 A 
ATOM     10  C   UNL     1      20.618  22.753  40.501  1.00  0.00     0.019 A 
ATOM     11  C   UNL     1      20.683  21.524  39.842  1.00  0.00     0.094 A 
ATOM     12  C   UNL     1      20.267  21.443  38.507  1.00  0.00     0.336 A 
ATOM     13  O   UNL     1      20.320  20.341  37.899  1.00  0.00    -0.246 OA
ATOM     14  O   UNL     1      19.817  22.522  37.872  1.00  0.00    -0.422 OA
ENDROOT
TORSDOF 0
ENDMDL
MODEL 3
REMARK VINA RESULT:    -5.404      1.828      5.066
REMARK INTER + INTRA:          -5.404
REMARK INTER:                  -5.404
REMARK INTRA:                   0.000
REMARK UNBOUND:                 0.000
REMARK SMILES O=c1ccc2ccc3occc3c2o1
REMARK SMILES IDX 6 1 7 2 8 3 12 4 11 5 10 6 9 7 13 8 5 9 4 10 3 11 2 12 1 13
REMARK SMILES IDX 14 14
REMARK H PARENT
REMARK Flexibility Score: inf
ROOT
ATOM      1  C   UNL     1      20.238  24.237  40.398  1.00  0.00     0.016 A 
ATOM      2  C   UNL     1      20.522  22.858  40.440  1.00  0.00     0.048 A 
ATOM      3  C   UNL     1      20.314  22.111  39.281  1.00  0.00     0.137 A 
ATOM      4  C   UNL     1      19.847  22.680  38.126  1.00  0.00     0.064 A 
ATOM      5  C   UNL     1      19.759  21.675  37.192  1.00  0.00     0.054 A 
ATOM      6  C   UNL     1      20.189  20.534  37.862  1.00  0.00     0.196 A 
ATOM      7  O   UNL     1      20.514  20.827  39.109  1.00  0.00    -0.464 OA
ATOM      8  C   UNL     1      19.555  24.040  38.046  1.00  0.00     0.149 A 
ATOM      9  C   UNL     1      19.755  24.830  39.207  1.00  0.00     0.018 A 
ATOM     10  C   UNL     1      19.464  26.195  39.132  1.00  0.00     0.019 A 
ATOM     11  C   UNL     1      18.990  26.729  37.933  1.00  0.00     0.094 A 
ATOM     12  C   UNL     1      18.818  25.884  36.829  1.00  0.00     0.336 A 
ATOM     13  O   UNL     1      18.391  26.352  35.741  1.00  0.00    -0.246 OA
ATOM     14  O   UNL     1      19.102  24.587  36.921  1.00  0.00    -0.422 OA
ENDROOT
TORSDOF 0
ENDMDL
MODEL 4
REMARK VINA RESULT:    -5.342      3.661      5.210
REMARK INTER + INTRA:          -5.342
REMARK INTER:                  -5.342
REMARK INTRA:                   0.000
REMARK UNBOUND:                 0.000
REMARK SMILES O=c1ccc2ccc3occc3c2o1
REMARK SMILES IDX 6 1 7 2 8 3 12 4 11 5 10 6 9 7 13 8 5 9 4 10 3 11 2 12 1 13
REMARK SMILES IDX 14 14
REMARK H PARENT
REMARK Flexibility Score: inf
ROOT
ATOM      1  C   UNL     1      16.953  25.769  41.433  1.00  0.00     0.016 A 
ATOM      2  C   UNL     1      16.220  25.682  42.633  1.00  0.00     0.048 A 
ATOM      3  C   UNL     1      16.851  26.066  43.815  1.00  0.00     0.137 A 
ATOM      4  C   UNL     1      18.143  26.518  43.833  1.00  0.00     0.064 A 
ATOM      5  C   UNL     1      18.448  26.807  45.143  1.00  0.00     0.054 A 
ATOM      6  C   UNL     1      17.289  26.502  45.848  1.00  0.00     0.196 A 
ATOM      7  O   UNL     1      16.351  26.062  45.027  1.00  0.00    -0.464 OA
ATOM      8  C   UNL     1      18.900  26.618  42.668  1.00  0.00     0.149 A 
ATOM      9  C   UNL     1      18.290  26.235  41.446  1.00  0.00     0.018 A 
ATOM     10  C   UNL     1      19.044  26.334  40.274  1.00  0.00     0.019 A 
ATOM     11  C   UNL     1      20.359  26.799  40.343  1.00  0.00     0.094 A 
ATOM     12  C   UNL     1      20.891  27.159  41.588  1.00  0.00     0.336 A 
ATOM     13  O   UNL     1      22.075  27.580  41.665  1.00  0.00    -0.246 OA
ATOM     14  O   UNL     1      20.156  27.058  42.692  1.00  0.00    -0.422 OA
ENDROOT
TORSDOF 0
ENDMDL
MODEL 5
REMARK VINA RESULT:    -5.191      3.698      5.597
REMARK INTER + INTRA:          -5.191
REMARK INTER:                  -5.191
REMARK INTRA:                   0.000
REMARK UNBOUND:                 0.000
REMARK SMILES O=c1ccc2ccc3occc3c2o1
REMARK SMILES IDX 6 1 7 2 8 3 12 4 11 5 10 6 9 7 13 8 5 9 4 10 3 11 2 12 1 13
REMARK SMILES IDX 14 14
REMARK H PARENT
REMARK Flexibility Score: inf
ROOT
ATOM      1  C   UNL     1      17.663  24.054  42.400  1.00  0.00     0.016 A 
ATOM      2  C   UNL     1      18.591  24.085  41.341  1.00  0.00     0.048 A 
ATOM      3  C   UNL     1      19.442  25.185  41.249  1.00  0.00     0.137 A 
ATOM      4  C   UNL     1      19.395  26.216  42.149  1.00  0.00     0.064 A 
ATOM      5  C   UNL     1      20.356  27.123  41.770  1.00  0.00     0.054 A 
ATOM      6  C   UNL     1      20.936  26.566  40.635  1.00  0.00     0.196 A 
ATOM      7  O   UNL     1      20.368  25.407  40.348  1.00  0.00    -0.464 OA
ATOM      8  C   UNL     1      18.491  26.221  43.210  1.00  0.00     0.149 A 
ATOM      9  C   UNL     1      17.609  25.117  43.334  1.00  0.00     0.018 A 
ATOM     10  C   UNL     1      16.701  25.116  44.396  1.00  0.00     0.019 A 
ATOM     11  C   UNL     1      16.690  26.190  45.289  1.00  0.00     0.094 A 
ATOM     12  C   UNL     1      17.593  27.244  45.099  1.00  0.00     0.336 A 
ATOM     13  O   UNL     1      17.595  28.219  45.896  1.00  0.00    -0.246 OA
ATOM     14  O   UNL     1      18.450  27.225  44.082  1.00  0.00    -0.422 OA
ENDROOT
TORSDOF 0
ENDMDL
MODEL 6
REMARK VINA RESULT:    -5.133      7.053      7.855
REMARK INTER + INTRA:          -5.133
REMARK INTER:                  -5.133
REMARK INTRA:                   0.000
REMARK UNBOUND:                 0.000
REMARK SMILES O=c1ccc2ccc3occc3c2o1
REMARK SMILES IDX 6 1 7 2 8 3 12 4 11 5 10 6 9 7 13 8 5 9 4 10 3 11 2 12 1 13
REMARK SMILES IDX 14 14
REMARK H PARENT
REMARK Flexibility Score: inf
ROOT
ATOM      1  C   UNL     1      16.749  21.079  43.586  1.00  0.00     0.016 A 
ATOM      2  C   UNL     1      16.754  22.483  43.699  1.00  0.00     0.048 A 
ATOM      3  C   UNL     1      16.765  23.037  44.978  1.00  0.00     0.137 A 
ATOM      4  C   UNL     1      16.772  22.259  46.105  1.00  0.00     0.064 A 
ATOM      5  C   UNL     1      16.783  23.114  47.182  1.00  0.00     0.054 A 
ATOM      6  C   UNL     1      16.783  24.387  46.619  1.00  0.00     0.196 A 
ATOM      7  O   UNL     1      16.772  24.308  45.300  1.00  0.00    -0.464 OA
ATOM      8  C   UNL     1      16.767  20.868  46.034  1.00  0.00     0.149 A 
ATOM      9  C   UNL     1      16.755  20.270  44.748  1.00  0.00     0.018 A 
ATOM     10  C   UNL     1      16.750  18.874  44.671  1.00  0.00     0.019 A 
ATOM     11  C   UNL     1      16.757  18.123  45.848  1.00  0.00     0.094 A 
ATOM     12  C   UNL     1      16.769  18.788  47.081  1.00  0.00     0.336 A 
ATOM     13  O   UNL     1      16.774  18.124  48.151  1.00  0.00    -0.246 OA
ATOM     14  O   UNL     1      16.774  20.117  47.133  1.00  0.00    -0.422 OA
ENDROOT
TORSDOF 0
ENDMDL
MODEL 7
REMARK VINA RESULT:    -5.093      3.126      4.254
REMARK INTER + INTRA:          -5.093
REMARK INTER:                  -5.093
REMARK INTRA:                   0.000
REMARK UNBOUND:                 0.000
REMARK SMILES O=c1ccc2ccc3occc3c2o1
REMARK SMILES IDX 6 1 7 2 8 3 12 4 11 5 10 6 9 7 13 8 5 9 4 10 3 11 2 12 1 13
REMARK SMILES IDX 14 14
REMARK H PARENT
REMARK Flexibility Score: inf
ROOT
ATOM      1  C   UNL     1      20.748  26.899  40.602  1.00  0.00     0.016 A 
ATOM      2  C   UNL     1      20.974  27.236  41.951  1.00  0.00     0.048 A 
ATOM      3  C   UNL     1      19.950  26.995  42.867  1.00  0.00     0.137 A 
ATOM      4  C   UNL     1      18.753  26.448  42.488  1.00  0.00     0.064 A 
ATOM      5  C   UNL     1      17.982  26.348  43.623  1.00  0.00     0.054 A 
ATOM      6  C   UNL     1      18.786  26.855  44.639  1.00  0.00     0.196 A 
ATOM      7  O   UNL     1      19.957  27.233  44.156  1.00  0.00    -0.464 OA
ATOM      8  C   UNL     1      18.492  26.103  41.164  1.00  0.00     0.149 A 
ATOM      9  C   UNL     1      19.512  26.334  40.205  1.00  0.00     0.018 A 
ATOM     10  C   UNL     1      19.255  25.989  38.876  1.00  0.00     0.019 A 
ATOM     11  C   UNL     1      18.019  25.435  38.538  1.00  0.00     0.094 A 
ATOM     12  C   UNL     1      17.063  25.237  39.542  1.00  0.00     0.336 A 
ATOM     13  O   UNL     1      15.943  24.738  39.253  1.00  0.00    -0.246 OA
ATOM     14  O   UNL     1      17.327  25.572  40.802  1.00  0.00    -0.422 OA
ENDROOT
TORSDOF 0
ENDMDL
MODEL 8
REMARK VINA RESULT:    -5.078      3.490      5.598
REMARK INTER + INTRA:          -5.078
REMARK INTER:                  -5.078
REMARK INTRA:                   0.000
REMARK UNBOUND:                 0.000
REMARK SMILES O=c1ccc2ccc3occc3c2o1
REMARK SMILES IDX 6 1 7 2 8 3 12 4 11 5 10 6 9 7 13 8 5 9 4 10 3 11 2 12 1 13
REMARK SMILES IDX 14 14
REMARK H PARENT
REMARK Flexibility Score: inf
ROOT
ATOM      1  C   UNL     1      19.733  27.017  44.149  1.00  0.00     0.016 A 
ATOM      2  C   UNL     1      18.631  26.587  44.914  1.00  0.00     0.048 A 
ATOM      3  C   UNL     1      17.524  26.078  44.239  1.00  0.00     0.137 A 
ATOM      4  C   UNL     1      17.486  25.989  42.873  1.00  0.00     0.064 A 
ATOM      5  C   UNL     1      16.266  25.449  42.540  1.00  0.00     0.054 A 
ATOM      6  C   UNL     1      15.630  25.242  43.760  1.00  0.00     0.196 A 
ATOM      7  O   UNL     1      16.407  25.627  44.757  1.00  0.00    -0.464 OA
ATOM      8  C   UNL     1      18.556  26.404  42.082  1.00  0.00     0.149 A 
ATOM      9  C   UNL     1      19.699  26.929  42.737  1.00  0.00     0.018 A 
ATOM     10  C   UNL     1      20.775  27.346  41.949  1.00  0.00     0.019 A 
ATOM     11  C   UNL     1      20.690  27.237  40.560  1.00  0.00     0.094 A 
ATOM     12  C   UNL     1      19.526  26.708  39.987  1.00  0.00     0.336 A 
ATOM     13  O   UNL     1      19.434  26.603  38.735  1.00  0.00    -0.246 OA
ATOM     14  O   UNL     1      18.513  26.315  40.755  1.00  0.00    -0.422 OA
ENDROOT
TORSDOF 0
ENDMDL
MODEL 9
REMARK VINA RESULT:    -5.073      3.087      5.233
REMARK INTER + INTRA:          -5.073
REMARK INTER:                  -5.073
REMARK INTRA:                   0.000
REMARK UNBOUND:                 0.000
REMARK SMILES O=c1ccc2ccc3occc3c2o1
REMARK SMILES IDX 6 1 7 2 8 3 12 4 11 5 10 6 9 7 13 8 5 9 4 10 3 11 2 12 1 13
REMARK SMILES IDX 14 14
REMARK H PARENT
REMARK Flexibility Score: inf
ROOT
ATOM      1  C   UNL     1      20.821  27.141  42.077  1.00  0.00     0.016 A 
ATOM      2  C   UNL     1      20.806  26.862  40.697  1.00  0.00     0.048 A 
ATOM      3  C   UNL     1      19.651  26.301  40.155  1.00  0.00     0.137 A 
ATOM      4  C   UNL     1      18.552  26.021  40.923  1.00  0.00     0.064 A 
ATOM      5  C   UNL     1      17.604  25.483  40.085  1.00  0.00     0.054 A 
ATOM      6  C   UNL     1      18.209  25.473  38.832  1.00  0.00     0.196 A 
ATOM      7  O   UNL     1      19.432  25.968  38.906  1.00  0.00    -0.464 OA
ATOM      8  C   UNL     1      18.529  26.282  42.292  1.00  0.00     0.149 A 
ATOM      9  C   UNL     1      19.689  26.853  42.877  1.00  0.00     0.018 A 
ATOM     10  C   UNL     1      19.671  27.117  44.249  1.00  0.00     0.019 A 
ATOM     11  C   UNL     1      18.528  26.814  44.990  1.00  0.00     0.094 A 
ATOM     12  C   UNL     1      17.422  26.251  44.340  1.00  0.00     0.336 A 
ATOM     13  O   UNL     1      16.384  25.971  44.996  1.00  0.00    -0.246 OA
ATOM     14  O   UNL     1      17.459  26.007  43.033  1.00  0.00    -0.422 OA
ENDROOT
TORSDOF 0
ENDMDL
