MODEL 1
REMARK VINA RESULT:    -7.537      0.000      0.000
REMARK INTER + INTRA:          -9.361
REMARK INTER:                  -9.079
REMARK INTRA:                  -0.281
REMARK UNBOUND:                -0.281
REMARK SMILES Oc1cc(O)c2c(c1)O[C@H](c1ccc(O)c(O)c1)[C@@H](O)C2
REMARK SMILES IDX 21 1 19 2 10 3 9 4 7 5 8 6 2 7 3 8 4 9 6 10 20 11 11 13
REMARK SMILES IDX 18 14 12 15 16 16 13 17 14 18 17 19 15 21 5 23 1 25
REMARK H PARENT 20 12 17 20 15 22 5 24 1 26
REMARK Flexibility Score: inf
ROOT
ATOM      1  C   UNL     1       1.743  15.489  15.247  1.00  0.00     0.079 C 
ATOM      2  C   UNL     1       0.381  16.209  15.251  1.00  0.00     0.164 C 
ATOM      3  C   UNL     1      -0.162  16.319  16.689  1.00  0.00     0.232 C 
ATOM      4  O   UNL     1      -0.246  15.018  17.271  1.00  0.00    -0.482 OA
ATOM      5  C   UNL     1       0.721  14.033  17.046  1.00  0.00     0.131 A 
ATOM      6  C   UNL     1       0.673  12.854  17.794  1.00  0.00     0.093 A 
ATOM      7  C   UNL     1       1.632  11.858  17.604  1.00  0.00     0.122 A 
ATOM      8  C   UNL     1       2.654  12.046  16.666  1.00  0.00     0.092 A 
ATOM      9  C   UNL     1       2.718  13.221  15.907  1.00  0.00     0.126 A 
ATOM     10  C   UNL     1       1.722  14.214  16.065  1.00  0.00     0.039 A 
ENDROOT
BRANCH   2  11
ATOM     11  O   UNL     1       0.488  17.474  14.644  1.00  0.00    -0.389 OA
ATOM     12  H   UNL     1       0.197  18.152  15.308  1.00  0.00     0.211 HD
ENDBRANCH   2  11
BRANCH   3  13
ATOM     13  C   UNL     1      -1.521  16.976  16.711  1.00  0.00    -0.001 A 
ATOM     14  C   UNL     1      -2.678  16.235  16.414  1.00  0.00     0.057 A 
ATOM     15  C   UNL     1      -1.638  18.349  16.979  1.00  0.00     0.012 A 
ATOM     16  C   UNL     1      -3.936  16.849  16.407  1.00  0.00     0.157 A 
ATOM     17  C   UNL     1      -2.892  18.966  16.973  1.00  0.00     0.050 A 
ATOM     18  C   UNL     1      -4.045  18.222  16.689  1.00  0.00     0.157 A 
BRANCH  16  19
ATOM     19  O   UNL     1      -5.063  16.082  16.115  1.00  0.00    -0.504 OA
ATOM     20  H   UNL     1      -5.991  16.485  16.068  1.00  0.00     0.293 HD
ENDBRANCH  16  19
BRANCH  18  21
ATOM     21  O   UNL     1      -5.295  18.839  16.684  1.00  0.00    -0.504 OA
ATOM     22  H   UNL     1      -6.148  18.309  16.817  1.00  0.00     0.293 HD
ENDBRANCH  18  21
ENDBRANCH   3  13
BRANCH   9  23
ATOM     23  O   UNL     1       3.785  13.370  15.019  1.00  0.00    -0.507 OA
ATOM     24  H   UNL     1       4.748  13.191  15.271  1.00  0.00     0.293 HD
ENDBRANCH   9  23
BRANCH   7  25
ATOM     25  O   UNL     1       1.567  10.689  18.359  1.00  0.00    -0.508 OA
ATOM     26  H   UNL     1       1.122   9.851  18.000  1.00  0.00     0.293 HD
ENDBRANCH   7  25
TORSDOF 6
ENDMDL
MODEL 2
REMARK VINA RESULT:    -6.997      1.702      7.194
REMARK INTER + INTRA:          -8.709
REMARK INTER:                  -8.699
REMARK INTRA:                  -0.011
REMARK UNBOUND:                -0.281
REMARK SMILES Oc1cc(O)c2c(c1)O[C@H](c1ccc(O)c(O)c1)[C@@H](O)C2
REMARK SMILES IDX 21 1 19 2 10 3 9 4 7 5 8 6 2 7 3 8 4 9 6 10 20 11 11 13
REMARK SMILES IDX 18 14 12 15 16 16 13 17 14 18 17 19 15 21 5 23 1 25
REMARK H PARENT 20 12 17 20 15 22 5 24 1 26
REMARK Flexibility Score: inf
ROOT
ATOM      1  C   UNL     1      -3.389  14.327  16.115  1.00  0.00     0.079 C 
ATOM      2  C   UNL     1      -2.122  13.509  15.801  1.00  0.00     0.164 C 
ATOM      3  C   UNL     1      -1.056  13.734  16.892  1.00  0.00     0.232 C 
ATOM      4  O   UNL     1      -0.774  15.128  17.007  1.00  0.00    -0.482 OA
ATOM      5  C   UNL     1      -1.770  16.105  16.900  1.00  0.00     0.131 A 
ATOM      6  C   UNL     1      -1.454  17.431  17.210  1.00  0.00     0.093 A 
ATOM      7  C   UNL     1      -2.428  18.426  17.129  1.00  0.00     0.122 A 
ATOM      8  C   UNL     1      -3.733  18.093  16.745  1.00  0.00     0.092 A 
ATOM      9  C   UNL     1      -4.068  16.771  16.431  1.00  0.00     0.126 A 
ATOM     10  C   UNL     1      -3.072  15.766  16.469  1.00  0.00     0.039 A 
ENDROOT
BRANCH   2  11
ATOM     11  O   UNL     1      -2.435  12.145  15.662  1.00  0.00    -0.389 OA
ATOM     12  H   UNL     1      -2.018  11.661  16.423  1.00  0.00     0.211 HD
ENDBRANCH   2  11
BRANCH   3  13
ATOM     13  C   UNL     1       0.214  12.981  16.577  1.00  0.00    -0.001 A 
ATOM     14  C   UNL     1       1.345  13.659  16.088  1.00  0.00     0.057 A 
ATOM     15  C   UNL     1       0.264  11.586  16.723  1.00  0.00     0.012 A 
ATOM     16  C   UNL     1       2.514  12.959  15.770  1.00  0.00     0.157 A 
ATOM     17  C   UNL     1       1.429  10.883  16.407  1.00  0.00     0.050 A 
ATOM     18  C   UNL     1       2.558  11.563  15.931  1.00  0.00     0.157 A 
BRANCH  16  19
ATOM     19  O   UNL     1       3.618  13.665  15.293  1.00  0.00    -0.504 OA
ATOM     20  H   UNL     1       3.928  14.530  15.718  1.00  0.00     0.293 HD
ENDBRANCH  16  19
BRANCH  18  21
ATOM     21  O   UNL     1       3.720  10.860  15.616  1.00  0.00    -0.504 OA
ATOM     22  H   UNL     1       4.108  10.870  14.680  1.00  0.00     0.293 HD
ENDBRANCH  18  21
ENDBRANCH   3  13
BRANCH   9  23
ATOM     23  O   UNL     1      -5.395  16.492  16.097  1.00  0.00    -0.507 OA
ATOM     24  H   UNL     1      -5.733  15.561  15.890  1.00  0.00     0.293 HD
ENDBRANCH   9  23
BRANCH   7  25
ATOM     25  O   UNL     1      -2.094  19.742  17.440  1.00  0.00    -0.508 OA
ATOM     26  H   UNL     1      -1.345  20.227  16.958  1.00  0.00     0.293 HD
ENDBRANCH   7  25
TORSDOF 6
ENDMDL
MODEL 3
REMARK VINA RESULT:    -6.784      1.529      6.938
REMARK INTER + INTRA:          -8.453
REMARK INTER:                  -8.211
REMARK INTRA:                  -0.242
REMARK UNBOUND:                -0.281
REMARK SMILES Oc1cc(O)c2c(c1)O[C@H](c1ccc(O)c(O)c1)[C@@H](O)C2
REMARK SMILES IDX 21 1 19 2 10 3 9 4 7 5 8 6 2 7 3 8 4 9 6 10 20 11 11 13
REMARK SMILES IDX 18 14 12 15 16 16 13 17 14 18 17 19 15 21 5 23 1 25
REMARK H PARENT 20 12 17 20 15 22 5 24 1 26
REMARK Flexibility Score: inf
ROOT
ATOM      1  C   UNL     1      -0.520  17.033  16.839  1.00  0.00     0.079 C 
ATOM      2  C   UNL     1       0.277  15.742  17.107  1.00  0.00     0.164 C 
ATOM      3  C   UNL     1      -0.154  14.634  16.126  1.00  0.00     0.232 C 
ATOM      4  O   UNL     1      -1.562  14.421  16.232  1.00  0.00    -0.482 OA
ATOM      5  C   UNL     1      -2.466  15.472  16.418  1.00  0.00     0.131 A 
ATOM      6  C   UNL     1      -3.835  15.212  16.323  1.00  0.00     0.093 A 
ATOM      7  C   UNL     1      -4.763  16.241  16.488  1.00  0.00     0.122 A 
ATOM      8  C   UNL     1      -4.318  17.544  16.741  1.00  0.00     0.092 A 
ATOM      9  C   UNL     1      -2.950  17.824  16.839  1.00  0.00     0.126 A 
ATOM     10  C   UNL     1      -2.008  16.775  16.716  1.00  0.00     0.039 A 
ENDROOT
BRANCH   2  11
ATOM     11  O   UNL     1       1.660  15.989  17.028  1.00  0.00    -0.389 OA
ATOM     12  H   UNL     1       1.818  16.566  16.235  1.00  0.00     0.211 HD
ENDBRANCH   2  11
BRANCH   3  13
ATOM     13  C   UNL     1       0.578  13.343  16.405  1.00  0.00    -0.001 A 
ATOM     14  C   UNL     1       1.771  13.036  15.726  1.00  0.00     0.057 A 
ATOM     15  C   UNL     1       0.049  12.411  17.312  1.00  0.00     0.012 A 
ATOM     16  C   UNL     1       2.436  11.829  15.964  1.00  0.00     0.157 A 
ATOM     17  C   UNL     1       0.710  11.204  17.552  1.00  0.00     0.050 A 
ATOM     18  C   UNL     1       1.904  10.907  16.882  1.00  0.00     0.157 A 
BRANCH  16  19
ATOM     19  O   UNL     1       3.620  11.560  15.277  1.00  0.00    -0.504 OA
ATOM     20  H   UNL     1       4.156  12.290  14.824  1.00  0.00     0.293 HD
ENDBRANCH  16  19
BRANCH  18  21
ATOM     21  O   UNL     1       2.563   9.702  17.124  1.00  0.00    -0.504 OA
ATOM     22  H   UNL     1       2.889   9.453  18.050  1.00  0.00     0.293 HD
ENDBRANCH  18  21
ENDBRANCH   3  13
BRANCH   9  23
ATOM     23  O   UNL     1      -2.566  19.150  17.049  1.00  0.00    -0.507 OA
ATOM     24  H   UNL     1      -1.602  19.440  17.153  1.00  0.00     0.293 HD
ENDBRANCH   9  23
BRANCH   7  25
ATOM     25  O   UNL     1      -6.124  15.961  16.391  1.00  0.00    -0.508 OA
ATOM     26  H   UNL     1      -6.774  16.626  15.987  1.00  0.00     0.293 HD
ENDBRANCH   7  25
TORSDOF 6
ENDMDL
MODEL 4
REMARK VINA RESULT:    -6.691      4.683      7.101
REMARK INTER + INTRA:          -8.341
REMARK INTER:                  -8.048
REMARK INTRA:                  -0.293
REMARK UNBOUND:                -0.281
REMARK SMILES Oc1cc(O)c2c(c1)O[C@H](c1ccc(O)c(O)c1)[C@@H](O)C2
REMARK SMILES IDX 21 1 19 2 10 3 9 4 7 5 8 6 2 7 3 8 4 9 6 10 20 11 11 13
REMARK SMILES IDX 18 14 12 15 16 16 13 17 14 18 17 19 15 21 5 23 1 25
REMARK H PARENT 20 12 17 20 15 22 5 24 1 26
REMARK Flexibility Score: inf
ROOT
ATOM      1  C   UNL     1      -4.029  13.737  13.846  1.00  0.00     0.079 C 
ATOM      2  C   UNL     1      -3.133  13.513  15.079  1.00  0.00     0.164 C 
ATOM      3  C   UNL     1      -1.670  13.294  14.644  1.00  0.00     0.232 C 
ATOM      4  O   UNL     1      -1.600  12.200  13.729  1.00  0.00    -0.482 OA
ATOM      5  C   UNL     1      -2.578  11.975  12.755  1.00  0.00     0.131 A 
ATOM      6  C   UNL     1      -2.349  11.003  11.778  1.00  0.00     0.093 A 
ATOM      7  C   UNL     1      -3.298  10.765  10.783  1.00  0.00     0.122 A 
ATOM      8  C   UNL     1      -4.481  11.512  10.758  1.00  0.00     0.092 A 
ATOM      9  C   UNL     1      -4.728  12.490  11.728  1.00  0.00     0.126 A 
ATOM     10  C   UNL     1      -3.789  12.704  12.764  1.00  0.00     0.039 A 
ENDROOT
BRANCH   2  11
ATOM     11  O   UNL     1      -3.246  14.590  15.976  1.00  0.00    -0.389 OA
ATOM     12  H   UNL     1      -3.968  14.369  16.622  1.00  0.00     0.211 HD
ENDBRANCH   2  11
BRANCH   3  13
ATOM     13  C   UNL     1      -0.782  13.020  15.834  1.00  0.00    -0.001 A 
ATOM     14  C   UNL     1      -0.011  14.049  16.403  1.00  0.00     0.057 A 
ATOM     15  C   UNL     1      -0.680  11.721  16.356  1.00  0.00     0.012 A 
ATOM     16  C   UNL     1       0.833  13.791  17.489  1.00  0.00     0.157 A 
ATOM     17  C   UNL     1       0.162  11.459  17.440  1.00  0.00     0.050 A 
ATOM     18  C   UNL     1       0.920  12.489  18.012  1.00  0.00     0.157 A 
BRANCH  16  19
ATOM     19  O   UNL     1       1.578  14.837  18.032  1.00  0.00    -0.504 OA
ATOM     20  H   UNL     1       1.787  15.678  17.507  1.00  0.00     0.293 HD
ENDBRANCH  16  19
BRANCH  18  21
ATOM     21  O   UNL     1       1.758  12.225  19.094  1.00  0.00    -0.504 OA
ATOM     22  H   UNL     1       1.391  11.906  19.983  1.00  0.00     0.293 HD
ENDBRANCH  18  21
ENDBRANCH   3  13
BRANCH   9  23
ATOM     23  O   UNL     1      -5.906  13.233  11.625  1.00  0.00    -0.507 OA
ATOM     24  H   UNL     1      -6.780  12.952  12.051  1.00  0.00     0.293 HD
ENDBRANCH   9  23
BRANCH   7  25
ATOM     25  O   UNL     1      -3.052   9.790   9.818  1.00  0.00    -0.508 OA
ATOM     26  H   UNL     1      -3.353   8.831   9.945  1.00  0.00     0.293 HD
ENDBRANCH   7  25
TORSDOF 6
ENDMDL
MODEL 5
REMARK VINA RESULT:    -6.639      5.264      6.622
REMARK INTER + INTRA:          -8.278
REMARK INTER:                  -7.921
REMARK INTRA:                  -0.358
REMARK UNBOUND:                -0.281
REMARK SMILES Oc1cc(O)c2c(c1)O[C@H](c1ccc(O)c(O)c1)[C@@H](O)C2
REMARK SMILES IDX 21 1 19 2 10 3 9 4 7 5 8 6 2 7 3 8 4 9 6 10 20 11 11 13
REMARK SMILES IDX 18 14 12 15 16 16 13 17 14 18 17 19 15 21 5 23 1 25
REMARK H PARENT 20 12 17 20 15 22 5 24 1 26
REMARK Flexibility Score: inf
ROOT
ATOM      1  C   UNL     1      -1.584  14.218  14.821  1.00  0.00     0.079 C 
ATOM      2  C   UNL     1      -1.774  13.246  13.641  1.00  0.00     0.164 C 
ATOM      3  C   UNL     1      -2.181  11.851  14.156  1.00  0.00     0.232 C 
ATOM      4  O   UNL     1      -1.203  11.379  15.083  1.00  0.00    -0.482 OA
ATOM      5  C   UNL     1      -0.574  12.223  16.004  1.00  0.00     0.131 A 
ATOM      6  C   UNL     1       0.228  11.660  17.001  1.00  0.00     0.093 A 
ATOM      7  C   UNL     1       0.856  12.473  17.944  1.00  0.00     0.122 A 
ATOM      8  C   UNL     1       0.673  13.860  17.898  1.00  0.00     0.092 A 
ATOM      9  C   UNL     1      -0.126  14.442  16.908  1.00  0.00     0.126 A 
ATOM     10  C   UNL     1      -0.730  13.625  15.923  1.00  0.00     0.039 A 
ENDROOT
BRANCH   2  11
ATOM     11  O   UNL     1      -2.719  13.753  12.730  1.00  0.00    -0.389 OA
ATOM     12  H   UNL     1      -2.600  13.267  11.871  1.00  0.00     0.211 HD
ENDBRANCH   2  11
BRANCH   3  13
ATOM     13  C   UNL     1      -2.322  10.869  13.019  1.00  0.00    -0.001 A 
ATOM     14  C   UNL     1      -3.590  10.401  12.631  1.00  0.00     0.057 A 
ATOM     15  C   UNL     1      -1.182  10.373  12.367  1.00  0.00     0.012 A 
ATOM     16  C   UNL     1      -3.721   9.470  11.595  1.00  0.00     0.157 A 
ATOM     17  C   UNL     1      -1.308   9.444  11.332  1.00  0.00     0.050 A 
ATOM     18  C   UNL     1      -2.574   8.988  10.940  1.00  0.00     0.157 A 
BRANCH  16  19
ATOM     19  O   UNL     1      -4.994   9.032  11.233  1.00  0.00    -0.504 OA
ATOM     20  H   UNL     1      -5.428   8.225  11.665  1.00  0.00     0.293 HD
ENDBRANCH  16  19
BRANCH  18  21
ATOM     21  O   UNL     1      -2.697   8.061   9.906  1.00  0.00    -0.504 OA
ATOM     22  H   UNL     1      -2.029   7.308   9.788  1.00  0.00     0.293 HD
ENDBRANCH  18  21
ENDBRANCH   3  13
BRANCH   9  23
ATOM     23  O   UNL     1      -0.307  15.826  16.940  1.00  0.00    -0.507 OA
ATOM     24  H   UNL     1      -0.156  16.388  17.769  1.00  0.00     0.293 HD
ENDBRANCH   9  23
BRANCH   7  25
ATOM     25  O   UNL     1       1.653  11.893  18.929  1.00  0.00    -0.508 OA
ATOM     26  H   UNL     1       2.479  11.355  18.693  1.00  0.00     0.293 HD
ENDBRANCH   7  25
TORSDOF 6
ENDMDL
MODEL 6
REMARK VINA RESULT:    -6.364      4.880      6.612
REMARK INTER + INTRA:          -7.948
REMARK INTER:                  -7.791
REMARK INTRA:                  -0.157
REMARK UNBOUND:                -0.281
REMARK SMILES Oc1cc(O)c2c(c1)O[C@H](c1ccc(O)c(O)c1)[C@@H](O)C2
REMARK SMILES IDX 21 1 19 2 10 3 9 4 7 5 8 6 2 7 3 8 4 9 6 10 20 11 11 13
REMARK SMILES IDX 18 14 12 15 16 16 13 17 14 18 17 19 15 21 5 23 1 25
REMARK H PARENT 20 12 17 20 15 22 5 24 1 26
REMARK Flexibility Score: inf
ROOT
ATOM      1  C   UNL     1      -4.191  13.076  13.531  1.00  0.00     0.079 C 
ATOM      2  C   UNL     1      -3.148  13.650  14.509  1.00  0.00     0.164 C 
ATOM      3  C   UNL     1      -1.771  13.750  13.824  1.00  0.00     0.232 C 
ATOM      4  O   UNL     1      -1.388  12.467  13.329  1.00  0.00    -0.482 OA
ATOM      5  C   UNL     1      -2.305  11.581  12.753  1.00  0.00     0.131 A 
ATOM      6  C   UNL     1      -1.829  10.429  12.122  1.00  0.00     0.093 A 
ATOM      7  C   UNL     1      -2.717   9.533  11.525  1.00  0.00     0.122 A 
ATOM      8  C   UNL     1      -4.092   9.796  11.550  1.00  0.00     0.092 A 
ATOM      9  C   UNL     1      -4.587  10.945  12.177  1.00  0.00     0.126 A 
ATOM     10  C   UNL     1      -3.693  11.834  12.822  1.00  0.00     0.039 A 
ENDROOT
BRANCH   2  11
ATOM     11  O   UNL     1      -3.567  14.898  15.004  1.00  0.00    -0.389 OA
ATOM     12  H   UNL     1      -3.531  14.855  15.996  1.00  0.00     0.211 HD
ENDBRANCH   2  11
BRANCH   3  13
ATOM     13  C   UNL     1      -0.721  14.261  14.781  1.00  0.00    -0.001 A 
ATOM     14  C   UNL     1       0.376  15.002  14.309  1.00  0.00     0.057 A 
ATOM     15  C   UNL     1      -0.805  13.959  16.149  1.00  0.00     0.012 A 
ATOM     16  C   UNL     1       1.364  15.454  15.192  1.00  0.00     0.157 A 
ATOM     17  C   UNL     1       0.180  14.407  17.033  1.00  0.00     0.050 A 
ATOM     18  C   UNL     1       1.266  15.156  16.562  1.00  0.00     0.157 A 
BRANCH  16  19
ATOM     19  O   UNL     1       2.436  16.191  14.690  1.00  0.00    -0.504 OA
ATOM     20  H   UNL     1       2.473  17.201  14.758  1.00  0.00     0.293 HD
ENDBRANCH  16  19
BRANCH  18  21
ATOM     21  O   UNL     1       2.246  15.603  17.446  1.00  0.00    -0.504 OA
ATOM     22  H   UNL     1       2.500  16.582  17.505  1.00  0.00     0.293 HD
ENDBRANCH  18  21
ENDBRANCH   3  13
BRANCH   9  23
ATOM     23  O   UNL     1      -5.963  11.176  12.130  1.00  0.00    -0.507 OA
ATOM     24  H   UNL     1      -6.423  11.648  11.362  1.00  0.00     0.293 HD
ENDBRANCH   9  23
BRANCH   7  25
ATOM     25  O   UNL     1      -2.223   8.389  10.902  1.00  0.00    -0.508 OA
ATOM     26  H   UNL     1      -2.646   7.480  11.052  1.00  0.00     0.293 HD
ENDBRANCH   7  25
TORSDOF 6
ENDMDL
MODEL 7
REMARK VINA RESULT:    -6.301      2.207      2.810
REMARK INTER + INTRA:          -7.872
REMARK INTER:                  -7.723
REMARK INTRA:                  -0.148
REMARK UNBOUND:                -0.281
REMARK SMILES Oc1cc(O)c2c(c1)O[C@H](c1ccc(O)c(O)c1)[C@@H](O)C2
REMARK SMILES IDX 21 1 19 2 10 3 9 4 7 5 8 6 2 7 3 8 4 9 6 10 20 11 11 13
REMARK SMILES IDX 18 14 12 15 16 16 13 17 14 18 17 19 15 21 5 23 1 25
REMARK H PARENT 20 12 17 20 15 22 5 24 1 26
REMARK Flexibility Score: inf
ROOT
ATOM      1  C   UNL     1      -1.643  12.962  14.768  1.00  0.00     0.079 C 
ATOM      2  C   UNL     1      -2.721  14.002  15.126  1.00  0.00     0.164 C 
ATOM      3  C   UNL     1      -2.072  15.251  15.754  1.00  0.00     0.232 C 
ATOM      4  O   UNL     1      -1.301  14.869  16.894  1.00  0.00    -0.482 OA
ATOM      5  C   UNL     1      -0.545  13.693  16.926  1.00  0.00     0.131 A 
ATOM      6  C   UNL     1       0.329  13.479  17.995  1.00  0.00     0.093 A 
ATOM      7  C   UNL     1       1.109  12.323  18.049  1.00  0.00     0.122 A 
ATOM      8  C   UNL     1       1.022  11.377  17.021  1.00  0.00     0.092 A 
ATOM      9  C   UNL     1       0.152  11.574  15.943  1.00  0.00     0.126 A 
ATOM     10  C   UNL     1      -0.672  12.723  15.906  1.00  0.00     0.039 A 
ENDROOT
BRANCH   2  11
ATOM     11  O   UNL     1      -3.484  14.335  13.992  1.00  0.00    -0.389 OA
ATOM     12  H   UNL     1      -2.927  14.153  13.190  1.00  0.00     0.211 HD
ENDBRANCH   2  11
BRANCH   3  13
ATOM     13  C   UNL     1      -3.116  16.263  16.161  1.00  0.00    -0.001 A 
ATOM     14  C   UNL     1      -2.814  17.636  16.174  1.00  0.00     0.057 A 
ATOM     15  C   UNL     1      -4.387  15.838  16.580  1.00  0.00     0.012 A 
ATOM     16  C   UNL     1      -3.773  18.573  16.577  1.00  0.00     0.157 A 
ATOM     17  C   UNL     1      -5.346  16.770  16.983  1.00  0.00     0.050 A 
ATOM     18  C   UNL     1      -5.046  18.139  16.983  1.00  0.00     0.157 A 
BRANCH  16  19
ATOM     19  O   UNL     1      -3.441  19.928  16.571  1.00  0.00    -0.504 OA
ATOM     20  H   UNL     1      -3.006  20.372  15.771  1.00  0.00     0.293 HD
ENDBRANCH  16  19
BRANCH  18  21
ATOM     21  O   UNL     1      -6.006  19.067  17.385  1.00  0.00    -0.504 OA
ATOM     22  H   UNL     1      -6.290  19.831  16.782  1.00  0.00     0.293 HD
ENDBRANCH  18  21
ENDBRANCH   3  13
BRANCH   9  23
ATOM     23  O   UNL     1       0.142  10.617  14.926  1.00  0.00    -0.507 OA
ATOM     24  H   UNL     1      -0.477  10.661  14.127  1.00  0.00     0.293 HD
ENDBRANCH   9  23
BRANCH   7  25
ATOM     25  O   UNL     1       1.974  12.128  19.124  1.00  0.00    -0.508 OA
ATOM     26  H   UNL     1       2.734  12.769  19.316  1.00  0.00     0.293 HD
ENDBRANCH   7  25
TORSDOF 6
ENDMDL
MODEL 8
REMARK VINA RESULT:    -6.156      4.001      5.256
REMARK INTER + INTRA:          -7.696
REMARK INTER:                  -7.381
REMARK INTRA:                  -0.315
REMARK UNBOUND:                -0.281
REMARK SMILES Oc1cc(O)c2c(c1)O[C@H](c1ccc(O)c(O)c1)[C@@H](O)C2
REMARK SMILES IDX 21 1 19 2 10 3 9 4 7 5 8 6 2 7 3 8 4 9 6 10 20 11 11 13
REMARK SMILES IDX 18 14 12 15 16 16 13 17 14 18 17 19 15 21 5 23 1 25
REMARK H PARENT 20 12 17 20 15 22 5 24 1 26
REMARK Flexibility Score: inf
ROOT
ATOM      1  C   UNL     1      -2.036  11.949  15.511  1.00  0.00     0.079 C 
ATOM      2  C   UNL     1      -1.698  13.354  16.045  1.00  0.00     0.164 C 
ATOM      3  C   UNL     1      -2.935  14.270  15.959  1.00  0.00     0.232 C 
ATOM      4  O   UNL     1      -3.409  14.312  14.612  1.00  0.00    -0.482 OA
ATOM      5  C   UNL     1      -3.412  13.184  13.784  1.00  0.00     0.131 A 
ATOM      6  C   UNL     1      -4.061  13.253  12.549  1.00  0.00     0.093 A 
ATOM      7  C   UNL     1      -4.096  12.141  11.707  1.00  0.00     0.122 A 
ATOM      8  C   UNL     1      -3.485  10.947  12.107  1.00  0.00     0.092 A 
ATOM      9  C   UNL     1      -2.830  10.859  13.340  1.00  0.00     0.126 A 
ATOM     10  C   UNL     1      -2.755  11.997  14.178  1.00  0.00     0.039 A 
ENDROOT
BRANCH   2  11
ATOM     11  O   UNL     1      -1.205  13.279  17.360  1.00  0.00    -0.389 OA
ATOM     12  H   UNL     1      -0.226  13.442  17.324  1.00  0.00     0.211 HD
ENDBRANCH   2  11
BRANCH   3  13
ATOM     13  C   UNL     1      -2.613  15.668  16.428  1.00  0.00    -0.001 A 
ATOM     14  C   UNL     1      -3.472  16.341  17.315  1.00  0.00     0.057 A 
ATOM     15  C   UNL     1      -1.474  16.331  15.945  1.00  0.00     0.012 A 
ATOM     16  C   UNL     1      -3.189  17.647  17.730  1.00  0.00     0.157 A 
ATOM     17  C   UNL     1      -1.187  17.635  16.357  1.00  0.00     0.050 A 
ATOM     18  C   UNL     1      -2.039  18.298  17.250  1.00  0.00     0.157 A 
BRANCH  16  19
ATOM     19  O   UNL     1      -4.060  18.281  18.615  1.00  0.00    -0.504 OA
ATOM     20  H   UNL     1      -4.636  17.763  19.267  1.00  0.00     0.293 HD
ENDBRANCH  16  19
BRANCH  18  21
ATOM     21  O   UNL     1      -1.751  19.599  17.660  1.00  0.00    -0.504 OA
ATOM     22  H   UNL     1      -1.726  19.853  18.641  1.00  0.00     0.293 HD
ENDBRANCH  18  21
ENDBRANCH   3  13
BRANCH   9  23
ATOM     23  O   UNL     1      -2.278   9.628  13.703  1.00  0.00    -0.507 OA
ATOM     24  H   UNL     1      -1.403   9.280  13.332  1.00  0.00     0.293 HD
ENDBRANCH   9  23
BRANCH   7  25
ATOM     25  O   UNL     1      -4.747  12.230  10.478  1.00  0.00    -0.508 OA
ATOM     26  H   UNL     1      -5.012  13.124  10.083  1.00  0.00     0.293 HD
ENDBRANCH   7  25
TORSDOF 6
ENDMDL
MODEL 9
REMARK VINA RESULT:    -5.826      5.003      6.519
REMARK INTER + INTRA:          -7.299
REMARK INTER:                  -7.160
REMARK INTRA:                  -0.139
REMARK UNBOUND:                -0.281
REMARK SMILES Oc1cc(O)c2c(c1)O[C@H](c1ccc(O)c(O)c1)[C@@H](O)C2
REMARK SMILES IDX 21 1 19 2 10 3 9 4 7 5 8 6 2 7 3 8 4 9 6 10 20 11 11 13
REMARK SMILES IDX 18 14 12 15 16 16 13 17 14 18 17 19 15 21 5 23 1 25
REMARK H PARENT 20 12 17 20 15 22 5 24 1 26
REMARK Flexibility Score: inf
ROOT
ATOM      1  C   UNL     1      -2.395  13.820  16.166  1.00  0.00     0.079 C 
ATOM      2  C   UNL     1      -3.204  13.328  14.951  1.00  0.00     0.164 C 
ATOM      3  C   UNL     1      -2.289  12.567  13.971  1.00  0.00     0.232 C 
ATOM      4  O   UNL     1      -1.201  13.405  13.582  1.00  0.00    -0.482 OA
ATOM      5  C   UNL     1      -0.567  14.274  14.477  1.00  0.00     0.131 A 
ATOM      6  C   UNL     1       0.605  14.921  14.078  1.00  0.00     0.093 A 
ATOM      7  C   UNL     1       1.269  15.782  14.952  1.00  0.00     0.122 A 
ATOM      8  C   UNL     1       0.763  15.991  16.240  1.00  0.00     0.092 A 
ATOM      9  C   UNL     1      -0.410  15.352  16.658  1.00  0.00     0.126 A 
ATOM     10  C   UNL     1      -1.111  14.513  15.760  1.00  0.00     0.039 A 
ENDROOT
BRANCH   2  11
ATOM     11  O   UNL     1      -4.287  12.531  15.366  1.00  0.00    -0.389 OA
ATOM     12  H   UNL     1      -4.063  11.586  15.155  1.00  0.00     0.211 HD
ENDBRANCH   2  11
BRANCH   3  13
ATOM     13  C   UNL     1      -3.050  12.120  12.747  1.00  0.00    -0.001 A 
ATOM     14  C   UNL     1      -2.656  10.970  12.040  1.00  0.00     0.057 A 
ATOM     15  C   UNL     1      -4.134  12.877  12.273  1.00  0.00     0.012 A 
ATOM     16  C   UNL     1      -3.345  10.570  10.889  1.00  0.00     0.157 A 
ATOM     17  C   UNL     1      -4.824  12.480  11.125  1.00  0.00     0.050 A 
ATOM     18  C   UNL     1      -4.436  11.328  10.429  1.00  0.00     0.157 A 
BRANCH  16  19
ATOM     19  O   UNL     1      -2.930   9.422  10.216  1.00  0.00    -0.504 OA
ATOM     20  H   UNL     1      -3.344   9.134   9.337  1.00  0.00     0.293 HD
ENDBRANCH  16  19
BRANCH  18  21
ATOM     21  O   UNL     1      -5.127  10.934   9.283  1.00  0.00    -0.504 OA
ATOM     22  H   UNL     1      -5.623  10.052   9.241  1.00  0.00     0.293 HD
ENDBRANCH  18  21
ENDBRANCH   3  13
BRANCH   9  23
ATOM     23  O   UNL     1      -0.842  15.565  17.969  1.00  0.00    -0.507 OA
ATOM     24  H   UNL     1      -0.477  16.300  18.562  1.00  0.00     0.293 HD
ENDBRANCH   9  23
BRANCH   7  25
ATOM     25  O   UNL     1       2.436  16.419  14.535  1.00  0.00    -0.508 OA
ATOM     26  H   UNL     1       3.018  16.031  13.802  1.00  0.00     0.293 HD
ENDBRANCH   7  25
TORSDOF 6
ENDMDL
