MODEL 1
REMARK VINA RESULT:    -6.133      0.000      0.000
REMARK INTER + INTRA:          -8.324
REMARK INTER:                  -7.925
REMARK INTRA:                  -0.399
REMARK UNBOUND:                -0.399
REMARK SMILES CCO[C@H]1O[C@H](CO)[C@H](O)[C@H](O)[C@@H]1O
REMARK SMILES IDX 4 1 13 2 11 3 9 4 6 5 5 6 3 7 2 8 1 9 14 10 12 12 7 14 8 15
REMARK SMILES IDX 10 17
REMARK H PARENT 14 11 12 13 8 16 10 18
REMARK Flexibility Score: inf
ROOT
ATOM      1  C   UNL     1      11.529 -11.218  35.094  1.00  0.00     0.281 C 
ATOM      2  C   UNL     1      11.331 -10.616  36.503  1.00  0.00     0.202 C 
ATOM      3  C   UNL     1      10.416 -11.522  37.350  1.00  0.00     0.179 C 
ATOM      4  C   UNL     1       9.125 -11.859  36.584  1.00  0.00     0.177 C 
ATOM      5  C   UNL     1       9.497 -12.402  35.185  1.00  0.00     0.178 C 
ATOM      6  O   UNL     1      10.280 -11.462  34.463  1.00  0.00    -0.341 OA
ENDROOT
BRANCH   1   7
ATOM      7  O   UNL     1      12.291 -12.419  35.155  1.00  0.00    -0.350 OA
BRANCH   7   8
ATOM      8  C   UNL     1      13.650 -12.168  35.460  1.00  0.00     0.160 C 
ATOM      9  C   UNL     1      14.252 -11.206  34.443  1.00  0.00     0.035 C 
ENDBRANCH   7   8
ENDBRANCH   1   7
BRANCH   2  10
ATOM     10  O   UNL     1      10.776  -9.330  36.377  1.00  0.00    -0.385 OA
ATOM     11  H   UNL     1      11.104  -8.953  35.520  1.00  0.00     0.211 HD
ENDBRANCH   2  10
BRANCH   3  12
ATOM     12  O   UNL     1      10.117 -10.895  38.571  1.00  0.00    -0.387 OA
ATOM     13  H   UNL     1       9.617 -10.065  38.352  1.00  0.00     0.211 HD
ENDBRANCH   3  12
BRANCH   5  14
ATOM     14  C   UNL     1       8.253 -12.772  34.359  1.00  0.00     0.191 C 
BRANCH  14  15
ATOM     15  O   UNL     1       7.709 -11.650  33.717  1.00  0.00    -0.394 OA
ATOM     16  H   UNL     1       7.802 -10.886  34.343  1.00  0.00     0.210 HD
ENDBRANCH  14  15
ENDBRANCH   5  14
BRANCH   4  17
ATOM     17  O   UNL     1       8.325 -10.707  36.476  1.00  0.00    -0.387 OA
ATOM     18  H   UNL     1       7.416 -11.002  36.208  1.00  0.00     0.211 HD
ENDBRANCH   4  17
TORSDOF 7
ENDMDL
MODEL 2
REMARK VINA RESULT:    -6.021      1.860      4.610
REMARK INTER + INTRA:          -8.180
REMARK INTER:                  -7.804
REMARK INTRA:                  -0.376
REMARK UNBOUND:                -0.399
REMARK SMILES CCO[C@H]1O[C@H](CO)[C@H](O)[C@H](O)[C@@H]1O
REMARK SMILES IDX 4 1 13 2 11 3 9 4 6 5 5 6 3 7 2 8 1 9 14 10 12 12 7 14 8 15
REMARK SMILES IDX 10 17
REMARK H PARENT 14 11 12 13 8 16 10 18
REMARK Flexibility Score: inf
ROOT
ATOM      1  C   UNL     1       9.256 -12.487  37.687  1.00  0.00     0.281 C 
ATOM      2  C   UNL     1       8.903 -12.035  36.253  1.00  0.00     0.202 C 
ATOM      3  C   UNL     1      10.185 -11.790  35.436  1.00  0.00     0.179 C 
ATOM      4  C   UNL     1      11.151 -10.869  36.204  1.00  0.00     0.177 C 
ATOM      5  C   UNL     1      11.360 -11.435  37.627  1.00  0.00     0.178 C 
ATOM      6  O   UNL     1      10.124 -11.556  38.317  1.00  0.00    -0.341 OA
ENDROOT
BRANCH   1   7
ATOM      7  O   UNL     1       9.846 -13.783  37.683  1.00  0.00    -0.350 OA
BRANCH   7   8
ATOM      8  C   UNL     1       9.245 -14.641  38.634  1.00  0.00     0.160 C 
ATOM      9  C   UNL     1       7.787 -14.251  38.853  1.00  0.00     0.035 C 
ENDBRANCH   7   8
ENDBRANCH   1   7
BRANCH   2  10
ATOM     10  O   UNL     1       8.126 -10.865  36.321  1.00  0.00    -0.385 OA
ATOM     11  H   UNL     1       8.261 -10.477  37.224  1.00  0.00     0.211 HD
ENDBRANCH   2  10
BRANCH   3  12
ATOM     12  O   UNL     1       9.861 -11.233  34.188  1.00  0.00    -0.387 OA
ATOM     13  H   UNL     1       9.787 -10.252  34.322  1.00  0.00     0.211 HD
ENDBRANCH   3  12
BRANCH   5  14
ATOM     14  C   UNL     1      12.326 -10.570  38.456  1.00  0.00     0.191 C 
BRANCH  14  15
ATOM     15  O   UNL     1      11.715  -9.381  38.882  1.00  0.00    -0.394 OA
ATOM     16  H   UNL     1      10.739  -9.495  38.747  1.00  0.00     0.210 HD
ENDBRANCH  14  15
ENDBRANCH   5  14
BRANCH   4  17
ATOM     17  O   UNL     1      10.620  -9.568  36.257  1.00  0.00    -0.387 OA
ATOM     18  H   UNL     1      10.476  -9.270  35.321  1.00  0.00     0.211 HD
ENDBRANCH   4  17
TORSDOF 7
ENDMDL
MODEL 3
REMARK VINA RESULT:    -5.898      2.001      2.280
REMARK INTER + INTRA:          -8.021
REMARK INTER:                  -7.646
REMARK INTRA:                  -0.375
REMARK UNBOUND:                -0.399
REMARK SMILES CCO[C@H]1O[C@H](CO)[C@H](O)[C@H](O)[C@@H]1O
REMARK SMILES IDX 4 1 13 2 11 3 9 4 6 5 5 6 3 7 2 8 1 9 14 10 12 12 7 14 8 15
REMARK SMILES IDX 10 17
REMARK H PARENT 14 11 12 13 8 16 10 18
REMARK Flexibility Score: inf
ROOT
ATOM      1  C   UNL     1      10.708 -12.842  36.924  1.00  0.00     0.281 C 
ATOM      2  C   UNL     1      10.216 -11.872  38.022  1.00  0.00     0.202 C 
ATOM      3  C   UNL     1       8.700 -12.033  38.241  1.00  0.00     0.179 C 
ATOM      4  C   UNL     1       7.946 -11.958  36.902  1.00  0.00     0.177 C 
ATOM      5  C   UNL     1       8.588 -12.950  35.906  1.00  0.00     0.178 C 
ATOM      6  O   UNL     1       9.969 -12.671  35.723  1.00  0.00    -0.341 OA
ENDROOT
BRANCH   1   7
ATOM      7  O   UNL     1      10.623 -14.194  37.363  1.00  0.00    -0.350 OA
BRANCH   7   8
ATOM      8  C   UNL     1      11.743 -14.955  36.952  1.00  0.00     0.160 C 
ATOM      9  C   UNL     1      13.035 -14.227  37.305  1.00  0.00     0.035 C 
ENDBRANCH   7   8
ENDBRANCH   1   7
BRANCH   2  10
ATOM     10  O   UNL     1      10.525 -10.555  37.638  1.00  0.00    -0.385 OA
ATOM     11  H   UNL     1      10.121  -9.951  38.315  1.00  0.00     0.211 HD
ENDBRANCH   2  10
BRANCH   3  12
ATOM     12  O   UNL     1       8.236 -11.046  39.125  1.00  0.00    -0.387 OA
ATOM     13  H   UNL     1       8.629 -10.184  38.826  1.00  0.00     0.211 HD
ENDBRANCH   3  12
BRANCH   5  14
ATOM     14  C   UNL     1       7.879 -12.939  34.541  1.00  0.00     0.191 C 
BRANCH  14  15
ATOM     15  O   UNL     1       8.030 -11.705  33.892  1.00  0.00    -0.394 OA
ATOM     16  H   UNL     1       9.005 -11.554  33.783  1.00  0.00     0.210 HD
ENDBRANCH  14  15
ENDBRANCH   5  14
BRANCH   4  17
ATOM     17  O   UNL     1       8.001 -10.644  36.403  1.00  0.00    -0.387 OA
ATOM     18  H   UNL     1       8.008 -10.031  37.184  1.00  0.00     0.211 HD
ENDBRANCH   4  17
TORSDOF 7
ENDMDL
MODEL 4
REMARK VINA RESULT:    -5.682      2.064      4.587
REMARK INTER + INTRA:          -7.742
REMARK INTER:                  -7.556
REMARK INTRA:                  -0.186
REMARK UNBOUND:                -0.399
REMARK SMILES CCO[C@H]1O[C@H](CO)[C@H](O)[C@H](O)[C@@H]1O
REMARK SMILES IDX 4 1 13 2 11 3 9 4 6 5 5 6 3 7 2 8 1 9 14 10 12 12 7 14 8 15
REMARK SMILES IDX 10 17
REMARK H PARENT 14 11 12 13 8 16 10 18
REMARK Flexibility Score: inf
ROOT
ATOM      1  C   UNL     1       9.323 -12.547  37.378  1.00  0.00     0.281 C 
ATOM      2  C   UNL     1       8.658 -12.005  36.093  1.00  0.00     0.202 C 
ATOM      3  C   UNL     1       9.596 -12.186  34.885  1.00  0.00     0.179 C 
ATOM      4  C   UNL     1      10.996 -11.627  35.195  1.00  0.00     0.177 C 
ATOM      5  C   UNL     1      11.495 -12.232  36.528  1.00  0.00     0.178 C 
ATOM      6  O   UNL     1      10.593 -11.947  37.588  1.00  0.00    -0.341 OA
ENDROOT
BRANCH   1   7
ATOM      7  O   UNL     1       9.452 -13.964  37.325  1.00  0.00    -0.350 OA
BRANCH   7   8
ATOM      8  C   UNL     1       9.060 -14.577  38.539  1.00  0.00     0.160 C 
ATOM      9  C   UNL     1       7.605 -14.248  38.852  1.00  0.00     0.035 C 
ENDBRANCH   7   8
ENDBRANCH   1   7
BRANCH   2  10
ATOM     10  O   UNL     1       8.346 -10.646  36.280  1.00  0.00    -0.385 OA
ATOM     11  H   UNL     1       7.383 -10.535  36.065  1.00  0.00     0.211 HD
ENDBRANCH   2  10
BRANCH   3  12
ATOM     12  O   UNL     1       9.051 -11.553  33.756  1.00  0.00    -0.387 OA
ATOM     13  H   UNL     1       8.947 -12.252  33.058  1.00  0.00     0.211 HD
ENDBRANCH   3  12
BRANCH   5  14
ATOM     14  C   UNL     1      12.899 -11.726  36.902  1.00  0.00     0.191 C 
BRANCH  14  15
ATOM     15  O   UNL     1      13.148 -11.868  38.275  1.00  0.00    -0.394 OA
ATOM     16  H   UNL     1      14.115 -12.069  38.372  1.00  0.00     0.210 HD
ENDBRANCH  14  15
ENDBRANCH   5  14
BRANCH   4  17
ATOM     17  O   UNL     1      10.938 -10.224  35.274  1.00  0.00    -0.387 OA
ATOM     18  H   UNL     1      10.126  -9.992  35.797  1.00  0.00     0.211 HD
ENDBRANCH   4  17
TORSDOF 7
ENDMDL
MODEL 5
REMARK VINA RESULT:    -5.664      1.907      2.249
REMARK INTER + INTRA:          -7.719
REMARK INTER:                  -7.366
REMARK INTRA:                  -0.352
REMARK UNBOUND:                -0.399
REMARK SMILES CCO[C@H]1O[C@H](CO)[C@H](O)[C@H](O)[C@@H]1O
REMARK SMILES IDX 4 1 13 2 11 3 9 4 6 5 5 6 3 7 2 8 1 9 14 10 12 12 7 14 8 15
REMARK SMILES IDX 10 17
REMARK H PARENT 14 11 12 13 8 16 10 18
REMARK Flexibility Score: inf
ROOT
ATOM      1  C   UNL     1      11.836 -11.659  35.807  1.00  0.00     0.281 C 
ATOM      2  C   UNL     1      11.719 -10.414  36.714  1.00  0.00     0.202 C 
ATOM      3  C   UNL     1      11.542 -10.835  38.185  1.00  0.00     0.179 C 
ATOM      4  C   UNL     1      10.408 -11.865  38.323  1.00  0.00     0.177 C 
ATOM      5  C   UNL     1      10.649 -13.017  37.320  1.00  0.00     0.178 C 
ATOM      6  O   UNL     1      10.727 -12.529  35.989  1.00  0.00    -0.341 OA
ENDROOT
BRANCH   1   7
ATOM      7  O   UNL     1      13.051 -12.357  36.054  1.00  0.00    -0.350 OA
BRANCH   7   8
ATOM      8  C   UNL     1      13.805 -12.543  34.870  1.00  0.00     0.160 C 
ATOM      9  C   UNL     1      14.366 -11.210  34.386  1.00  0.00     0.035 C 
ENDBRANCH   7   8
ENDBRANCH   1   7
BRANCH   2  10
ATOM     10  O   UNL     1      10.627  -9.637  36.285  1.00  0.00    -0.385 OA
ATOM     11  H   UNL     1      10.332  -9.095  37.062  1.00  0.00     0.211 HD
ENDBRANCH   2  10
BRANCH   3  12
ATOM     12  O   UNL     1      11.283  -9.706  38.979  1.00  0.00    -0.387 OA
ATOM     13  H   UNL     1      10.751 -10.018  39.757  1.00  0.00     0.211 HD
ENDBRANCH   3  12
BRANCH   5  14
ATOM     14  C   UNL     1       9.557 -14.096  37.406  1.00  0.00     0.191 C 
BRANCH  14  15
ATOM     15  O   UNL     1       8.892 -14.059  38.641  1.00  0.00    -0.394 OA
ATOM     16  H   UNL     1       8.001 -14.471  38.501  1.00  0.00     0.210 HD
ENDBRANCH  14  15
ENDBRANCH   5  14
BRANCH   4  17
ATOM     17  O   UNL     1       9.171 -11.241  38.079  1.00  0.00    -0.387 OA
ATOM     18  H   UNL     1       9.364 -10.333  37.726  1.00  0.00     0.211 HD
ENDBRANCH   4  17
TORSDOF 7
ENDMDL
MODEL 6
REMARK VINA RESULT:    -5.640      1.913      4.434
REMARK INTER + INTRA:          -7.688
REMARK INTER:                  -7.275
REMARK INTRA:                  -0.412
REMARK UNBOUND:                -0.399
REMARK SMILES CCO[C@H]1O[C@H](CO)[C@H](O)[C@H](O)[C@@H]1O
REMARK SMILES IDX 4 1 13 2 11 3 9 4 6 5 5 6 3 7 2 8 1 9 14 10 12 12 7 14 8 15
REMARK SMILES IDX 10 17
REMARK H PARENT 14 11 12 13 8 16 10 18
REMARK Flexibility Score: inf
ROOT
ATOM      1  C   UNL     1      10.686 -12.075  36.265  1.00  0.00     0.281 C 
ATOM      2  C   UNL     1      11.568 -11.642  35.073  1.00  0.00     0.202 C 
ATOM      3  C   UNL     1      13.038 -11.511  35.512  1.00  0.00     0.179 C 
ATOM      4  C   UNL     1      13.153 -10.638  36.774  1.00  0.00     0.177 C 
ATOM      5  C   UNL     1      12.178 -11.175  37.848  1.00  0.00     0.178 C 
ATOM      6  O   UNL     1      10.842 -11.188  37.365  1.00  0.00    -0.341 OA
ENDROOT
BRANCH   1   7
ATOM      7  O   UNL     1      10.986 -13.408  36.664  1.00  0.00    -0.350 OA
BRANCH   7   8
ATOM      8  C   UNL     1       9.820 -14.133  37.006  1.00  0.00     0.160 C 
ATOM      9  C   UNL     1       8.718 -13.876  35.985  1.00  0.00     0.035 C 
ENDBRANCH   7   8
ENDBRANCH   1   7
BRANCH   2  10
ATOM     10  O   UNL     1      11.089 -10.418  34.571  1.00  0.00    -0.385 OA
ATOM     11  H   UNL     1      10.466 -10.631  33.829  1.00  0.00     0.211 HD
ENDBRANCH   2  10
BRANCH   3  12
ATOM     12  O   UNL     1      13.805 -10.971  34.467  1.00  0.00    -0.387 OA
ATOM     13  H   UNL     1      13.229 -10.311  34.000  1.00  0.00     0.211 HD
ENDBRANCH   3  12
BRANCH   5  14
ATOM     14  C   UNL     1      12.243 -10.356  39.148  1.00  0.00     0.191 C 
BRANCH  14  15
ATOM     15  O   UNL     1      11.412  -9.227  39.087  1.00  0.00    -0.394 OA
ATOM     16  H   UNL     1      10.477  -9.558  39.072  1.00  0.00     0.210 HD
ENDBRANCH  14  15
ENDBRANCH   5  14
BRANCH   4  17
ATOM     17  O   UNL     1      12.856  -9.302  36.453  1.00  0.00    -0.387 OA
ATOM     18  H   UNL     1      11.945  -9.289  36.057  1.00  0.00     0.211 HD
ENDBRANCH   4  17
TORSDOF 7
ENDMDL
MODEL 7
REMARK VINA RESULT:    -5.639      2.015      4.360
REMARK INTER + INTRA:          -7.686
REMARK INTER:                  -7.319
REMARK INTRA:                  -0.368
REMARK UNBOUND:                -0.399
REMARK SMILES CCO[C@H]1O[C@H](CO)[C@H](O)[C@H](O)[C@@H]1O
REMARK SMILES IDX 4 1 13 2 11 3 9 4 6 5 5 6 3 7 2 8 1 9 14 10 12 12 7 14 8 15
REMARK SMILES IDX 10 17
REMARK H PARENT 14 11 12 13 8 16 10 18
REMARK Flexibility Score: inf
ROOT
ATOM      1  C   UNL     1       9.372 -13.344  37.138  1.00  0.00     0.281 C 
ATOM      2  C   UNL     1       9.240 -11.805  37.116  1.00  0.00     0.202 C 
ATOM      3  C   UNL     1      10.270 -11.192  36.149  1.00  0.00     0.179 C 
ATOM      4  C   UNL     1      11.680 -11.734  36.439  1.00  0.00     0.177 C 
ATOM      5  C   UNL     1      11.628 -13.279  36.472  1.00  0.00     0.178 C 
ATOM      6  O   UNL     1      10.701 -13.739  37.445  1.00  0.00    -0.341 OA
ENDROOT
BRANCH   1   7
ATOM      7  O   UNL     1       8.967 -13.907  35.895  1.00  0.00    -0.350 OA
BRANCH   7   8
ATOM      8  C   UNL     1       7.663 -13.497  35.526  1.00  0.00     0.160 C 
ATOM      9  C   UNL     1       7.626 -13.115  34.051  1.00  0.00     0.035 C 
ENDBRANCH   7   8
ENDBRANCH   1   7
BRANCH   2  10
ATOM     10  O   UNL     1       9.431 -11.312  38.420  1.00  0.00    -0.385 OA
ATOM     11  H   UNL     1       8.531 -11.135  38.800  1.00  0.00     0.211 HD
ENDBRANCH   2  10
BRANCH   3  12
ATOM     12  O   UNL     1      10.249  -9.791  36.250  1.00  0.00    -0.387 OA
ATOM     13  H   UNL     1      10.507  -9.567  37.183  1.00  0.00     0.211 HD
ENDBRANCH   3  12
BRANCH   5  14
ATOM     14  C   UNL     1      13.009 -13.898  36.749  1.00  0.00     0.191 C 
BRANCH  14  15
ATOM     15  O   UNL     1      13.250 -14.024  38.125  1.00  0.00    -0.394 OA
ATOM     16  H   UNL     1      14.234 -14.011  38.247  1.00  0.00     0.210 HD
ENDBRANCH  14  15
ENDBRANCH   5  14
BRANCH   4  17
ATOM     17  O   UNL     1      12.139 -11.224  37.667  1.00  0.00    -0.387 OA
ATOM     18  H   UNL     1      13.131 -11.239  37.640  1.00  0.00     0.211 HD
ENDBRANCH   4  17
TORSDOF 7
ENDMDL
MODEL 8
REMARK VINA RESULT:    -5.626      2.152      3.387
REMARK INTER + INTRA:          -7.670
REMARK INTER:                  -7.323
REMARK INTRA:                  -0.346
REMARK UNBOUND:                -0.399
REMARK SMILES CCO[C@H]1O[C@H](CO)[C@H](O)[C@H](O)[C@@H]1O
REMARK SMILES IDX 4 1 13 2 11 3 9 4 6 5 5 6 3 7 2 8 1 9 14 10 12 12 7 14 8 15
REMARK SMILES IDX 10 17
REMARK H PARENT 14 11 12 13 8 16 10 18
REMARK Flexibility Score: inf
ROOT
ATOM      1  C   UNL     1      11.593 -11.475  36.918  1.00  0.00     0.281 C 
ATOM      2  C   UNL     1      10.375 -10.861  36.192  1.00  0.00     0.202 C 
ATOM      3  C   UNL     1       9.075 -11.553  36.645  1.00  0.00     0.179 C 
ATOM      4  C   UNL     1       9.209 -13.083  36.541  1.00  0.00     0.177 C 
ATOM      5  C   UNL     1      10.496 -13.526  37.274  1.00  0.00     0.178 C 
ATOM      6  O   UNL     1      11.641 -12.883  36.734  1.00  0.00    -0.341 OA
ENDROOT
BRANCH   1   7
ATOM      7  O   UNL     1      11.569 -11.162  38.307  1.00  0.00    -0.350 OA
BRANCH   7   8
ATOM      8  C   UNL     1      12.432 -10.085  38.621  1.00  0.00     0.160 C 
ATOM      9  C   UNL     1      13.214 -10.387  39.895  1.00  0.00     0.035 C 
ENDBRANCH   7   8
ENDBRANCH   1   7
BRANCH   2  10
ATOM     10  O   UNL     1      10.553 -10.999  34.804  1.00  0.00    -0.385 OA
ATOM     11  H   UNL     1      10.907 -11.913  34.644  1.00  0.00     0.211 HD
ENDBRANCH   2  10
BRANCH   3  12
ATOM     12  O   UNL     1       7.995 -11.099  35.871  1.00  0.00    -0.387 OA
ATOM     13  H   UNL     1       7.170 -11.455  36.294  1.00  0.00     0.211 HD
ENDBRANCH   3  12
BRANCH   5  14
ATOM     14  C   UNL     1      10.694 -15.051  37.222  1.00  0.00     0.191 C 
BRANCH  14  15
ATOM     15  O   UNL     1      11.044 -15.481  35.933  1.00  0.00    -0.394 OA
ATOM     16  H   UNL     1      10.786 -14.755  35.308  1.00  0.00     0.210 HD
ENDBRANCH  14  15
ENDBRANCH   5  14
BRANCH   4  17
ATOM     17  O   UNL     1       9.251 -13.462  35.187  1.00  0.00    -0.387 OA
ATOM     18  H   UNL     1      10.074 -13.069  34.795  1.00  0.00     0.211 HD
ENDBRANCH   4  17
TORSDOF 7
ENDMDL
MODEL 9
REMARK VINA RESULT:    -5.541      2.218      4.671
REMARK INTER + INTRA:          -7.559
REMARK INTER:                  -7.197
REMARK INTRA:                  -0.363
REMARK UNBOUND:                -0.399
REMARK SMILES CCO[C@H]1O[C@H](CO)[C@H](O)[C@H](O)[C@@H]1O
REMARK SMILES IDX 4 1 13 2 11 3 9 4 6 5 5 6 3 7 2 8 1 9 14 10 12 12 7 14 8 15
REMARK SMILES IDX 10 17
REMARK H PARENT 14 11 12 13 8 16 10 18
REMARK Flexibility Score: inf
ROOT
ATOM      1  C   UNL     1       9.802 -13.439  36.571  1.00  0.00     0.281 C 
ATOM      2  C   UNL     1      10.891 -14.439  37.021  1.00  0.00     0.202 C 
ATOM      3  C   UNL     1      12.196 -13.694  37.361  1.00  0.00     0.179 C 
ATOM      4  C   UNL     1      12.596 -12.747  36.216  1.00  0.00     0.177 C 
ATOM      5  C   UNL     1      11.387 -11.852  35.858  1.00  0.00     0.178 C 
ATOM      6  O   UNL     1      10.260 -12.636  35.492  1.00  0.00    -0.341 OA
ENDROOT
BRANCH   1   7
ATOM      7  O   UNL     1       9.388 -12.615  37.655  1.00  0.00    -0.350 OA
BRANCH   7   8
ATOM      8  C   UNL     1       8.108 -12.978  38.138  1.00  0.00     0.160 C 
ATOM      9  C   UNL     1       7.264 -13.562  37.010  1.00  0.00     0.035 C 
ENDBRANCH   7   8
ENDBRANCH   1   7
BRANCH   2  10
ATOM     10  O   UNL     1      11.107 -15.373  35.992  1.00  0.00    -0.385 OA
ATOM     11  H   UNL     1      11.027 -14.884  35.132  1.00  0.00     0.211 HD
ENDBRANCH   2  10
BRANCH   3  12
ATOM     12  O   UNL     1      13.222 -14.617  37.619  1.00  0.00    -0.387 OA
ATOM     13  H   UNL     1      13.441 -15.052  36.754  1.00  0.00     0.211 HD
ENDBRANCH   3  12
BRANCH   5  14
ATOM     14  C   UNL     1      11.713 -10.867  34.722  1.00  0.00     0.191 C 
BRANCH  14  15
ATOM     15  O   UNL     1      13.081 -10.880  34.407  1.00  0.00    -0.394 OA
ATOM     16  H   UNL     1      13.211 -10.236  33.664  1.00  0.00     0.210 HD
ENDBRANCH  14  15
ENDBRANCH   5  14
BRANCH   4  17
ATOM     17  O   UNL     1      13.007 -13.501  35.102  1.00  0.00    -0.387 OA
ATOM     18  H   UNL     1      13.193 -12.861  34.366  1.00  0.00     0.211 HD
ENDBRANCH   4  17
TORSDOF 7
ENDMDL
