MODEL 1
REMARK VINA RESULT:    -6.050      0.000      0.000
REMARK INTER + INTRA:          -6.814
REMARK INTER:                  -6.580
REMARK INTRA:                  -0.234
REMARK UNBOUND:                -0.234
REMARK SMILES O=C([O-])c1ccccc1O
REMARK SMILES IDX 4 1 9 2 5 3 8 4 6 5 7 6 2 7 1 8 3 9 10 10
REMARK H PARENT 10 11
REMARK Flexibility Score: inf
ROOT
ATOM      1  C   UNL     1      12.459 -12.160  28.399  1.00  0.00     0.039 A 
ATOM      2  C   UNL     1      11.917 -13.220  27.632  1.00  0.00     0.124 A 
ATOM      3  C   UNL     1      13.860 -12.045  28.499  1.00  0.00     0.014 A 
ATOM      4  C   UNL     1      12.773 -14.129  26.991  1.00  0.00     0.047 A 
ATOM      5  C   UNL     1      14.700 -12.957  27.856  1.00  0.00     0.001 A 
ATOM      6  C   UNL     1      14.158 -13.997  27.104  1.00  0.00     0.004 A 
ENDROOT
BRANCH   1   7
ATOM      7  C   UNL     1      11.591 -11.176  29.094  1.00  0.00     0.075 C 
ATOM      8  O   UNL     1      11.970 -10.643  30.172  1.00  0.00    -0.545 OA
ATOM      9  O   UNL     1      10.351 -10.820  28.578  1.00  0.00    -0.545 OA
ENDBRANCH   1   7
BRANCH   2  10
ATOM     10  O   UNL     1      10.537 -13.374  27.504  1.00  0.00    -0.507 OA
ATOM     11  H   UNL     1      10.043 -14.136  27.954  1.00  0.00     0.293 HD
ENDBRANCH   2  10
TORSDOF 2
ENDMDL
MODEL 2
REMARK VINA RESULT:    -6.028      1.480      2.282
REMARK INTER + INTRA:          -6.790
REMARK INTER:                  -6.573
REMARK INTRA:                  -0.218
REMARK UNBOUND:                -0.234
REMARK SMILES O=C([O-])c1ccccc1O
REMARK SMILES IDX 4 1 9 2 5 3 8 4 6 5 7 6 2 7 1 8 3 9 10 10
REMARK H PARENT 10 11
REMARK Flexibility Score: inf
ROOT
ATOM      1  C   UNL     1      11.757 -11.693  28.553  1.00  0.00     0.039 A 
ATOM      2  C   UNL     1      13.040 -12.199  28.872  1.00  0.00     0.124 A 
ATOM      3  C   UNL     1      11.011 -12.329  27.540  1.00  0.00     0.014 A 
ATOM      4  C   UNL     1      13.545 -13.312  28.182  1.00  0.00     0.047 A 
ATOM      5  C   UNL     1      11.526 -13.436  26.862  1.00  0.00     0.001 A 
ATOM      6  C   UNL     1      12.791 -13.926  27.182  1.00  0.00     0.004 A 
ENDROOT
BRANCH   1   7
ATOM      7  C   UNL     1      11.184 -10.517  29.257  1.00  0.00     0.075 C 
ATOM      8  O   UNL     1      11.942  -9.626  29.727  1.00  0.00    -0.545 OA
ATOM      9  O   UNL     1       9.811 -10.371  29.412  1.00  0.00    -0.545 OA
ENDBRANCH   1   7
BRANCH   2  10
ATOM     10  O   UNL     1      13.815 -11.603  29.867  1.00  0.00    -0.507 OA
ATOM     11  H   UNL     1      13.701 -11.842  30.845  1.00  0.00     0.293 HD
ENDBRANCH   2  10
TORSDOF 2
ENDMDL
MODEL 3
REMARK VINA RESULT:    -5.833      2.493      4.030
REMARK INTER + INTRA:          -6.578
REMARK INTER:                  -6.340
REMARK INTRA:                  -0.238
REMARK UNBOUND:                -0.234
REMARK SMILES O=C([O-])c1ccccc1O
REMARK SMILES IDX 4 1 9 2 5 3 8 4 6 5 7 6 2 7 1 8 3 9 10 10
REMARK H PARENT 10 11
REMARK Flexibility Score: inf
ROOT
ATOM      1  C   UNL     1      13.313 -13.415  27.877  1.00  0.00     0.039 A 
ATOM      2  C   UNL     1      13.277 -12.209  28.619  1.00  0.00     0.124 A 
ATOM      3  C   UNL     1      12.196 -13.760  27.090  1.00  0.00     0.014 A 
ATOM      4  C   UNL     1      12.142 -11.386  28.560  1.00  0.00     0.047 A 
ATOM      5  C   UNL     1      11.073 -12.930  27.041  1.00  0.00     0.001 A 
ATOM      6  C   UNL     1      11.046 -11.745  27.774  1.00  0.00     0.004 A 
ENDROOT
BRANCH   1   7
ATOM      7  C   UNL     1      14.493 -14.317  27.911  1.00  0.00     0.075 C 
ATOM      8  O   UNL     1      14.871 -14.830  28.999  1.00  0.00    -0.545 OA
ATOM      9  O   UNL     1      15.202 -14.616  26.754  1.00  0.00    -0.545 OA
ENDBRANCH   1   7
BRANCH   2  10
ATOM     10  O   UNL     1      14.358 -11.826  29.411  1.00  0.00    -0.507 OA
ATOM     11  H   UNL     1      14.282 -11.759  30.420  1.00  0.00     0.293 HD
ENDBRANCH   2  10
TORSDOF 2
ENDMDL
MODEL 4
REMARK VINA RESULT:    -5.689      2.331      3.481
REMARK INTER + INTRA:          -6.422
REMARK INTER:                  -6.185
REMARK INTRA:                  -0.236
REMARK UNBOUND:                -0.234
REMARK SMILES O=C([O-])c1ccccc1O
REMARK SMILES IDX 4 1 9 2 5 3 8 4 6 5 7 6 2 7 1 8 3 9 10 10
REMARK H PARENT 10 11
REMARK Flexibility Score: inf
ROOT
ATOM      1  C   UNL     1      13.412 -12.963  28.207  1.00  0.00     0.039 A 
ATOM      2  C   UNL     1      12.188 -13.098  27.509  1.00  0.00     0.124 A 
ATOM      3  C   UNL     1      13.591 -11.848  29.051  1.00  0.00     0.014 A 
ATOM      4  C   UNL     1      11.183 -12.131  27.664  1.00  0.00     0.047 A 
ATOM      5  C   UNL     1      12.581 -10.893  29.196  1.00  0.00     0.001 A 
ATOM      6  C   UNL     1      11.380 -11.034  28.504  1.00  0.00     0.004 A 
ENDROOT
BRANCH   1   7
ATOM      7  C   UNL     1      14.503 -13.962  28.072  1.00  0.00     0.075 C 
ATOM      8  O   UNL     1      14.943 -14.564  29.089  1.00  0.00    -0.545 OA
ATOM      9  O   UNL     1      15.059 -14.256  26.833  1.00  0.00    -0.545 OA
ENDBRANCH   1   7
BRANCH   2  10
ATOM     10  O   UNL     1      11.966 -14.184  26.663  1.00  0.00    -0.507 OA
ATOM     11  H   UNL     1      11.038 -14.566  26.520  1.00  0.00     0.293 HD
ENDBRANCH   2  10
TORSDOF 2
ENDMDL
MODEL 5
REMARK VINA RESULT:    -5.646      1.318      2.244
REMARK INTER + INTRA:          -6.375
REMARK INTER:                  -6.165
REMARK INTRA:                  -0.210
REMARK UNBOUND:                -0.234
REMARK SMILES O=C([O-])c1ccccc1O
REMARK SMILES IDX 4 1 9 2 5 3 8 4 6 5 7 6 2 7 1 8 3 9 10 10
REMARK H PARENT 10 11
REMARK Flexibility Score: inf
ROOT
ATOM      1  C   UNL     1      12.807 -12.469  28.602  1.00  0.00     0.039 A 
ATOM      2  C   UNL     1      11.482 -12.193  28.186  1.00  0.00     0.124 A 
ATOM      3  C   UNL     1      13.544 -13.453  27.911  1.00  0.00     0.014 A 
ATOM      4  C   UNL     1      10.929 -12.895  27.103  1.00  0.00     0.047 A 
ATOM      5  C   UNL     1      12.979 -14.143  26.835  1.00  0.00     0.001 A 
ATOM      6  C   UNL     1      11.675 -13.865  26.432  1.00  0.00     0.004 A 
ENDROOT
BRANCH   1   7
ATOM      7  C   UNL     1      13.432 -11.752  29.742  1.00  0.00     0.075 C 
ATOM      8  O   UNL     1      14.687 -11.696  29.848  1.00  0.00    -0.545 OA
ATOM      9  O   UNL     1      12.656 -11.129  30.712  1.00  0.00    -0.545 OA
ENDBRANCH   1   7
BRANCH   2  10
ATOM     10  O   UNL     1      10.715 -11.230  28.839  1.00  0.00    -0.507 OA
ATOM     11  H   UNL     1      11.139 -10.426  29.287  1.00  0.00     0.293 HD
ENDBRANCH   2  10
TORSDOF 2
ENDMDL
MODEL 6
REMARK VINA RESULT:    -5.570      1.294      2.554
REMARK INTER + INTRA:          -6.292
REMARK INTER:                  -6.051
REMARK INTRA:                  -0.241
REMARK UNBOUND:                -0.234
REMARK SMILES O=C([O-])c1ccccc1O
REMARK SMILES IDX 4 1 9 2 5 3 8 4 6 5 7 6 2 7 1 8 3 9 10 10
REMARK H PARENT 10 11
REMARK Flexibility Score: inf
ROOT
ATOM      1  C   UNL     1      12.505 -13.208  27.949  1.00  0.00     0.039 A 
ATOM      2  C   UNL     1      13.065 -13.043  29.239  1.00  0.00     0.124 A 
ATOM      3  C   UNL     1      13.135 -14.087  27.045  1.00  0.00     0.014 A 
ATOM      4  C   UNL     1      14.226 -13.748  29.594  1.00  0.00     0.047 A 
ATOM      5  C   UNL     1      14.290 -14.782  27.412  1.00  0.00     0.001 A 
ATOM      6  C   UNL     1      14.834 -14.613  28.684  1.00  0.00     0.004 A 
ENDROOT
BRANCH   1   7
ATOM      7  C   UNL     1      11.279 -12.482  27.531  1.00  0.00     0.075 C 
ATOM      8  O   UNL     1      10.450 -13.029  26.754  1.00  0.00    -0.545 OA
ATOM      9  O   UNL     1      11.016 -11.195  27.984  1.00  0.00    -0.545 OA
ENDBRANCH   1   7
BRANCH   2  10
ATOM     10  O   UNL     1      12.477 -12.184  30.167  1.00  0.00    -0.507 OA
ATOM     11  H   UNL     1      12.454 -12.404  31.156  1.00  0.00     0.293 HD
ENDBRANCH   2  10
TORSDOF 2
ENDMDL
MODEL 7
REMARK VINA RESULT:    -5.338      1.974      2.748
REMARK INTER + INTRA:          -6.039
REMARK INTER:                  -5.818
REMARK INTRA:                  -0.221
REMARK UNBOUND:                -0.234
REMARK SMILES O=C([O-])c1ccccc1O
REMARK SMILES IDX 4 1 9 2 5 3 8 4 6 5 7 6 2 7 1 8 3 9 10 10
REMARK H PARENT 10 11
REMARK Flexibility Score: inf
ROOT
ATOM      1  C   UNL     1      12.817 -12.304  28.763  1.00  0.00     0.039 A 
ATOM      2  C   UNL     1      13.307 -13.433  28.064  1.00  0.00     0.124 A 
ATOM      3  C   UNL     1      11.577 -11.755  28.378  1.00  0.00     0.014 A 
ATOM      4  C   UNL     1      12.560 -13.983  27.011  1.00  0.00     0.047 A 
ATOM      5  C   UNL     1      10.844 -12.312  27.328  1.00  0.00     0.001 A 
ATOM      6  C   UNL     1      11.334 -13.424  26.645  1.00  0.00     0.004 A 
ENDROOT
BRANCH   1   7
ATOM      7  C   UNL     1      13.575 -11.689  29.883  1.00  0.00     0.075 C 
ATOM      8  O   UNL     1      14.835 -11.732  29.898  1.00  0.00    -0.545 OA
ATOM      9  O   UNL     1      12.919 -11.057  30.932  1.00  0.00    -0.545 OA
ENDBRANCH   1   7
BRANCH   2  10
ATOM     10  O   UNL     1      14.529 -14.011  28.408  1.00  0.00    -0.507 OA
ATOM     11  H   UNL     1      14.664 -15.015  28.401  1.00  0.00     0.293 HD
ENDBRANCH   2  10
TORSDOF 2
ENDMDL
MODEL 8
REMARK VINA RESULT:    -5.314      1.727      3.521
REMARK INTER + INTRA:          -6.013
REMARK INTER:                  -5.806
REMARK INTRA:                  -0.207
REMARK UNBOUND:                -0.234
REMARK SMILES O=C([O-])c1ccccc1O
REMARK SMILES IDX 4 1 9 2 5 3 8 4 6 5 7 6 2 7 1 8 3 9 10 10
REMARK H PARENT 10 11
REMARK Flexibility Score: inf
ROOT
ATOM      1  C   UNL     1      12.872 -12.957  28.343  1.00  0.00     0.039 A 
ATOM      2  C   UNL     1      11.621 -12.296  28.293  1.00  0.00     0.124 A 
ATOM      3  C   UNL     1      13.848 -12.491  29.246  1.00  0.00     0.014 A 
ATOM      4  C   UNL     1      11.375 -11.199  29.134  1.00  0.00     0.047 A 
ATOM      5  C   UNL     1      13.590 -11.398  30.077  1.00  0.00     0.001 A 
ATOM      6  C   UNL     1      12.355 -10.754  30.021  1.00  0.00     0.004 A 
ENDROOT
BRANCH   1   7
ATOM      7  C   UNL     1      13.175 -14.120  27.471  1.00  0.00     0.075 C 
ATOM      8  O   UNL     1      12.578 -14.263  26.370  1.00  0.00    -0.545 OA
ATOM      9  O   UNL     1      14.118 -15.071  27.844  1.00  0.00    -0.545 OA
ENDBRANCH   1   7
BRANCH   2  10
ATOM     10  O   UNL     1      10.624 -12.720  27.415  1.00  0.00    -0.507 OA
ATOM     11  H   UNL     1      10.738 -12.660  26.410  1.00  0.00     0.293 HD
ENDBRANCH   2  10
TORSDOF 2
ENDMDL
MODEL 9
REMARK VINA RESULT:    -5.302      2.039      4.139
REMARK INTER + INTRA:          -6.001
REMARK INTER:                  -5.775
REMARK INTRA:                  -0.226
REMARK UNBOUND:                -0.234
REMARK SMILES O=C([O-])c1ccccc1O
REMARK SMILES IDX 4 1 9 2 5 3 8 4 6 5 7 6 2 7 1 8 3 9 10 10
REMARK H PARENT 10 11
REMARK Flexibility Score: inf
ROOT
ATOM      1  C   UNL     1      12.529 -12.177  28.298  1.00  0.00     0.039 A 
ATOM      2  C   UNL     1      13.124 -11.509  29.395  1.00  0.00     0.124 A 
ATOM      3  C   UNL     1      11.225 -11.811  27.907  1.00  0.00     0.014 A 
ATOM      4  C   UNL     1      12.413 -10.504  30.070  1.00  0.00     0.047 A 
ATOM      5  C   UNL     1      10.530 -10.809  28.588  1.00  0.00     0.001 A 
ATOM      6  C   UNL     1      11.123 -10.157  29.667  1.00  0.00     0.004 A 
ENDROOT
BRANCH   1   7
ATOM      7  C   UNL     1      13.244 -13.247  27.555  1.00  0.00     0.075 C 
ATOM      8  O   UNL     1      12.596 -14.161  26.976  1.00  0.00    -0.545 OA
ATOM      9  O   UNL     1      14.632 -13.267  27.481  1.00  0.00    -0.545 OA
ENDBRANCH   1   7
BRANCH   2  10
ATOM     10  O   UNL     1      14.411 -11.837  29.818  1.00  0.00    -0.507 OA
ATOM     11  H   UNL     1      14.602 -12.690  30.332  1.00  0.00     0.293 HD
ENDBRANCH   2  10
TORSDOF 2
ENDMDL
