MODEL 1
REMARK VINA RESULT:    -4.367      0.000      0.000
REMARK INTER + INTRA:          -9.090
REMARK INTER:                  -8.069
REMARK INTRA:                  -1.021
REMARK UNBOUND:                -1.021
REMARK SMILES CCCCCCCCCCCCCCCCO
REMARK SMILES IDX 9 1 8 2 7 3 6 4 5 5 4 6 3 7 2 8 1 9 10 10 11 11 12 12 13 13
REMARK SMILES IDX 14 14 15 15 16 16 17 17
REMARK H PARENT 17 18
REMARK Flexibility Score: inf
ROOT
ATOM      1  C   UNL     1      -1.806   3.718 -23.703  1.00  0.00     0.000 C 
ENDROOT
BRANCH   1   2
ATOM      2  C   UNL     1      -1.480   2.864 -24.938  1.00  0.00    -0.000 C 
BRANCH   2   3
ATOM      3  C   UNL     1      -0.635   1.642 -24.552  1.00  0.00    -0.000 C 
BRANCH   3   4
ATOM      4  C   UNL     1      -0.923   1.150 -23.125  1.00  0.00    -0.000 C 
BRANCH   4   5
ATOM      5  C   UNL     1       0.191   0.241 -22.577  1.00  0.00    -0.000 C 
BRANCH   5   6
ATOM      6  C   UNL     1       1.523   0.425 -23.323  1.00  0.00    -0.000 C 
BRANCH   6   7
ATOM      7  C   UNL     1       2.516  -0.714 -23.045  1.00  0.00    -0.000 C 
BRANCH   7   8
ATOM      8  C   UNL     1       1.912  -1.747 -22.087  1.00  0.00    -0.003 C 
ATOM      9  C   UNL     1       2.837  -2.948 -21.914  1.00  0.00     0.004 C 
ENDBRANCH   7   8
ENDBRANCH   6   7
ENDBRANCH   5   6
ENDBRANCH   4   5
ENDBRANCH   3   4
ENDBRANCH   2   3
ENDBRANCH   1   2
BRANCH   1  10
ATOM     10  C   UNL     1      -2.958   4.708 -23.948  1.00  0.00     0.000 C 
BRANCH  10  11
ATOM     11  C   UNL     1      -4.359   4.069 -24.028  1.00  0.00     0.000 C 
BRANCH  11  12
ATOM     12  C   UNL     1      -5.483   4.859 -23.328  1.00  0.00     0.000 C 
BRANCH  12  13
ATOM     13  C   UNL     1      -6.106   4.163 -22.105  1.00  0.00     0.000 C 
BRANCH  13  14
ATOM     14  C   UNL     1      -6.125   2.630 -22.235  1.00  0.00     0.002 C 
BRANCH  14  15
ATOM     15  C   UNL     1      -5.529   1.924 -21.004  1.00  0.00     0.028 C 
BRANCH  15  16
ATOM     16  C   UNL     1      -4.756   2.865 -20.068  1.00  0.00     0.156 C 
BRANCH  16  17
ATOM     17  O   UNL     1      -3.408   2.954 -20.442  1.00  0.00    -0.396 OA
ATOM     18  H   UNL     1      -3.256   2.250 -21.125  1.00  0.00     0.210 HD
ENDBRANCH  16  17
ENDBRANCH  15  16
ENDBRANCH  14  15
ENDBRANCH  13  14
ENDBRANCH  12  13
ENDBRANCH  11  12
ENDBRANCH  10  11
ENDBRANCH   1  10
TORSDOF 15
ENDMDL
MODEL 2
REMARK VINA RESULT:    -4.273      1.753      6.871
REMARK INTER + INTRA:          -8.916
REMARK INTER:                  -7.917
REMARK INTRA:                  -0.998
REMARK UNBOUND:                -1.021
REMARK SMILES CCCCCCCCCCCCCCCCO
REMARK SMILES IDX 9 1 8 2 7 3 6 4 5 5 4 6 3 7 2 8 1 9 10 10 11 11 12 12 13 13
REMARK SMILES IDX 14 14 15 15 16 16 17 17
REMARK H PARENT 17 18
REMARK Flexibility Score: inf
ROOT
ATOM      1  C   UNL     1      -2.826   4.203 -23.635  1.00  0.00     0.000 C 
ENDROOT
BRANCH   1   2
ATOM      2  C   UNL     1      -4.060   4.155 -24.548  1.00  0.00    -0.000 C 
BRANCH   2   3
ATOM      3  C   UNL     1      -5.039   5.287 -24.207  1.00  0.00    -0.000 C 
BRANCH   3   4
ATOM      4  C   UNL     1      -6.280   4.788 -23.450  1.00  0.00    -0.000 C 
BRANCH   4   5
ATOM      5  C   UNL     1      -5.925   4.110 -22.114  1.00  0.00    -0.000 C 
BRANCH   5   6
ATOM      6  C   UNL     1      -6.149   2.590 -22.145  1.00  0.00    -0.000 C 
BRANCH   6   7
ATOM      7  C   UNL     1      -5.329   1.851 -21.078  1.00  0.00    -0.000 C 
BRANCH   7   8
ATOM      8  C   UNL     1      -4.874   2.812 -19.973  1.00  0.00    -0.003 C 
ATOM      9  C   UNL     1      -5.109   2.213 -18.590  1.00  0.00     0.004 C 
ENDBRANCH   7   8
ENDBRANCH   6   7
ENDBRANCH   5   6
ENDBRANCH   4   5
ENDBRANCH   3   4
ENDBRANCH   2   3
ENDBRANCH   1   2
BRANCH   1  10
ATOM     10  C   UNL     1      -1.867   3.021 -23.864  1.00  0.00     0.000 C 
BRANCH  10  11
ATOM     11  C   UNL     1      -1.584   2.163 -22.615  1.00  0.00     0.000 C 
BRANCH  11  12
ATOM     12  C   UNL     1      -0.970   0.776 -22.895  1.00  0.00     0.000 C 
BRANCH  12  13
ATOM     13  C   UNL     1       0.495   0.794 -23.368  1.00  0.00     0.000 C 
BRANCH  13  14
ATOM     14  C   UNL     1       1.473   0.275 -22.301  1.00  0.00     0.002 C 
BRANCH  14  15
ATOM     15  C   UNL     1       2.102  -1.076 -22.682  1.00  0.00     0.028 C 
BRANCH  15  16
ATOM     16  C   UNL     1       1.803  -2.201 -21.680  1.00  0.00     0.156 C 
BRANCH  16  17
ATOM     17  O   UNL     1       0.569  -1.997 -21.045  1.00  0.00    -0.396 OA
ATOM     18  H   UNL     1       0.758  -1.475 -20.222  1.00  0.00     0.210 HD
ENDBRANCH  16  17
ENDBRANCH  15  16
ENDBRANCH  14  15
ENDBRANCH  13  14
ENDBRANCH  12  13
ENDBRANCH  11  12
ENDBRANCH  10  11
ENDBRANCH   1  10
TORSDOF 15
ENDMDL
MODEL 3
REMARK VINA RESULT:    -4.218      1.025      2.197
REMARK INTER + INTRA:          -8.814
REMARK INTER:                  -7.936
REMARK INTRA:                  -0.879
REMARK UNBOUND:                -1.021
REMARK SMILES CCCCCCCCCCCCCCCCO
REMARK SMILES IDX 9 1 8 2 7 3 6 4 5 5 4 6 3 7 2 8 1 9 10 10 11 11 12 12 13 13
REMARK SMILES IDX 14 14 15 15 16 16 17 17
REMARK H PARENT 17 18
REMARK Flexibility Score: inf
ROOT
ATOM      1  C   UNL     1      -0.460   1.991 -24.373  1.00  0.00     0.000 C 
ENDROOT
BRANCH   1   2
ATOM      2  C   UNL     1      -0.972   1.006 -23.311  1.00  0.00    -0.000 C 
BRANCH   2   3
ATOM      3  C   UNL     1       0.197   0.378 -22.538  1.00  0.00    -0.000 C 
BRANCH   3   4
ATOM      4  C   UNL     1       1.496   0.339 -23.358  1.00  0.00    -0.000 C 
BRANCH   4   5
ATOM      5  C   UNL     1       2.582  -0.533 -22.703  1.00  0.00    -0.000 C 
BRANCH   5   6
ATOM      6  C   UNL     1       1.998  -1.588 -21.751  1.00  0.00    -0.000 C 
BRANCH   6   7
ATOM      7  C   UNL     1       2.346  -3.023 -22.175  1.00  0.00    -0.000 C 
BRANCH   7   8
ATOM      8  C   UNL     1       3.774  -3.387 -21.754  1.00  0.00    -0.003 C 
ATOM      9  C   UNL     1       4.047  -4.874 -21.958  1.00  0.00     0.004 C 
ENDBRANCH   7   8
ENDBRANCH   6   7
ENDBRANCH   5   6
ENDBRANCH   4   5
ENDBRANCH   3   4
ENDBRANCH   2   3
ENDBRANCH   1   2
BRANCH   1  10
ATOM     10  C   UNL     1      -1.492   3.077 -24.727  1.00  0.00     0.000 C 
BRANCH  10  11
ATOM     11  C   UNL     1      -2.164   3.754 -23.516  1.00  0.00     0.000 C 
BRANCH  11  12
ATOM     12  C   UNL     1      -3.611   4.233 -23.750  1.00  0.00     0.000 C 
BRANCH  12  13
ATOM     13  C   UNL     1      -4.646   3.702 -22.742  1.00  0.00     0.000 C 
BRANCH  13  14
ATOM     14  C   UNL     1      -4.029   2.763 -21.691  1.00  0.00     0.002 C 
BRANCH  14  15
ATOM     15  C   UNL     1      -5.092   2.028 -20.857  1.00  0.00     0.028 C 
BRANCH  15  16
ATOM     16  C   UNL     1      -5.113   2.443 -19.379  1.00  0.00     0.156 C 
BRANCH  16  17
ATOM     17  O   UNL     1      -3.894   2.144 -18.753  1.00  0.00    -0.396 OA
ATOM     18  H   UNL     1      -3.178   2.413 -19.385  1.00  0.00     0.210 HD
ENDBRANCH  16  17
ENDBRANCH  15  16
ENDBRANCH  14  15
ENDBRANCH  13  14
ENDBRANCH  12  13
ENDBRANCH  11  12
ENDBRANCH  10  11
ENDBRANCH   1  10
TORSDOF 15
ENDMDL
MODEL 4
REMARK VINA RESULT:    -4.180      2.985      8.115
REMARK INTER + INTRA:          -8.743
REMARK INTER:                  -7.836
REMARK INTRA:                  -0.907
REMARK UNBOUND:                -1.021
REMARK SMILES CCCCCCCCCCCCCCCCO
REMARK SMILES IDX 9 1 8 2 7 3 6 4 5 5 4 6 3 7 2 8 1 9 10 10 11 11 12 12 13 13
REMARK SMILES IDX 14 14 15 15 16 16 17 17
REMARK H PARENT 17 18
REMARK Flexibility Score: inf
ROOT
ATOM      1  C   UNL     1      -0.996   1.026 -23.168  1.00  0.00     0.000 C 
ENDROOT
BRANCH   1   2
ATOM      2  C   UNL     1      -0.364   1.674 -24.410  1.00  0.00    -0.000 C 
BRANCH   2   3
ATOM      3  C   UNL     1      -1.112   2.957 -24.799  1.00  0.00    -0.000 C 
BRANCH   3   4
ATOM      4  C   UNL     1      -1.745   3.663 -23.590  1.00  0.00    -0.000 C 
BRANCH   4   5
ATOM      5  C   UNL     1      -3.151   4.211 -23.895  1.00  0.00    -0.000 C 
BRANCH   5   6
ATOM      6  C   UNL     1      -4.216   3.677 -22.923  1.00  0.00    -0.000 C 
BRANCH   6   7
ATOM      7  C   UNL     1      -3.602   2.982 -21.699  1.00  0.00    -0.000 C 
BRANCH   7   8
ATOM      8  C   UNL     1      -4.683   2.284 -20.865  1.00  0.00    -0.003 C 
ATOM      9  C   UNL     1      -5.978   2.134 -21.657  1.00  0.00     0.004 C 
ENDBRANCH   7   8
ENDBRANCH   6   7
ENDBRANCH   5   6
ENDBRANCH   4   5
ENDBRANCH   3   4
ENDBRANCH   2   3
ENDBRANCH   1   2
BRANCH   1  10
ATOM     10  C   UNL     1      -0.069  -0.000 -22.493  1.00  0.00     0.000 C 
BRANCH  10  11
ATOM     11  C   UNL     1       1.428   0.370 -22.505  1.00  0.00     0.000 C 
BRANCH  11  12
ATOM     12  C   UNL     1       2.392  -0.804 -22.769  1.00  0.00     0.000 C 
BRANCH  12  13
ATOM     13  C   UNL     1       2.178  -2.039 -21.877  1.00  0.00     0.000 C 
BRANCH  13  14
ATOM     14  C   UNL     1       2.801  -3.317 -22.465  1.00  0.00     0.002 C 
BRANCH  14  15
ATOM     15  C   UNL     1       3.908  -3.902 -21.570  1.00  0.00     0.028 C 
BRANCH  15  16
ATOM     16  C   UNL     1       4.456  -5.247 -22.068  1.00  0.00     0.156 C 
BRANCH  16  17
ATOM     17  O   UNL     1       3.495  -5.938 -22.820  1.00  0.00    -0.396 OA
ATOM     18  H   UNL     1       3.918  -6.149 -23.693  1.00  0.00     0.210 HD
ENDBRANCH  16  17
ENDBRANCH  15  16
ENDBRANCH  14  15
ENDBRANCH  13  14
ENDBRANCH  12  13
ENDBRANCH  11  12
ENDBRANCH  10  11
ENDBRANCH   1  10
TORSDOF 15
ENDMDL
MODEL 5
REMARK VINA RESULT:    -4.099      1.434      3.272
REMARK INTER + INTRA:          -8.595
REMARK INTER:                  -7.883
REMARK INTRA:                  -0.712
REMARK UNBOUND:                -1.021
REMARK SMILES CCCCCCCCCCCCCCCCO
REMARK SMILES IDX 9 1 8 2 7 3 6 4 5 5 4 6 3 7 2 8 1 9 10 10 11 11 12 12 13 13
REMARK SMILES IDX 14 14 15 15 16 16 17 17
REMARK H PARENT 17 18
REMARK Flexibility Score: inf
ROOT
ATOM      1  C   UNL     1       0.583   1.102 -24.016  1.00  0.00     0.000 C 
ENDROOT
BRANCH   1   2
ATOM      2  C   UNL     1       1.975   0.725 -24.546  1.00  0.00    -0.000 C 
BRANCH   2   3
ATOM      3  C   UNL     1       2.797   0.006 -23.467  1.00  0.00    -0.000 C 
BRANCH   3   4
ATOM      4  C   UNL     1       2.055  -0.091 -22.125  1.00  0.00    -0.000 C 
BRANCH   4   5
ATOM      5  C   UNL     1       1.580  -1.522 -21.814  1.00  0.00    -0.000 C 
BRANCH   5   6
ATOM      6  C   UNL     1       2.408  -2.591 -22.544  1.00  0.00    -0.000 C 
BRANCH   6   7
ATOM      7  C   UNL     1       3.547  -3.150 -21.677  1.00  0.00    -0.000 C 
BRANCH   7   8
ATOM      8  C   UNL     1       3.888  -4.588 -22.081  1.00  0.00    -0.003 C 
ATOM      9  C   UNL     1       4.620  -5.318 -20.959  1.00  0.00     0.004 C 
ENDBRANCH   7   8
ENDBRANCH   6   7
ENDBRANCH   5   6
ENDBRANCH   4   5
ENDBRANCH   3   4
ENDBRANCH   2   3
ENDBRANCH   1   2
BRANCH   1  10
ATOM     10  C   UNL     1      -0.342   1.662 -25.110  1.00  0.00     0.000 C 
BRANCH  10  11
ATOM     11  C   UNL     1      -0.520   3.194 -25.089  1.00  0.00     0.000 C 
BRANCH  11  12
ATOM     12  C   UNL     1      -1.946   3.685 -24.768  1.00  0.00     0.000 C 
BRANCH  12  13
ATOM     13  C   UNL     1      -2.246   3.886 -23.272  1.00  0.00     0.000 C 
BRANCH  13  14
ATOM     14  C   UNL     1      -3.718   3.615 -22.917  1.00  0.00     0.002 C 
BRANCH  14  15
ATOM     15  C   UNL     1      -3.877   2.510 -21.858  1.00  0.00     0.028 C 
BRANCH  15  16
ATOM     16  C   UNL     1      -4.508   2.999 -20.546  1.00  0.00     0.156 C 
BRANCH  16  17
ATOM     17  O   UNL     1      -3.731   2.623 -19.441  1.00  0.00    -0.396 OA
ATOM     18  H   UNL     1      -3.641   3.431 -18.871  1.00  0.00     0.210 HD
ENDBRANCH  16  17
ENDBRANCH  15  16
ENDBRANCH  14  15
ENDBRANCH  13  14
ENDBRANCH  12  13
ENDBRANCH  11  12
ENDBRANCH  10  11
ENDBRANCH   1  10
TORSDOF 15
ENDMDL
MODEL 6
REMARK VINA RESULT:    -4.007      2.013      7.874
REMARK INTER + INTRA:          -8.425
REMARK INTER:                  -7.592
REMARK INTRA:                  -0.833
REMARK UNBOUND:                -1.021
REMARK SMILES CCCCCCCCCCCCCCCCO
REMARK SMILES IDX 9 1 8 2 7 3 6 4 5 5 4 6 3 7 2 8 1 9 10 10 11 11 12 12 13 13
REMARK SMILES IDX 14 14 15 15 16 16 17 17
REMARK H PARENT 17 18
REMARK Flexibility Score: inf
ROOT
ATOM      1  C   UNL     1      -1.860   2.691 -22.880  1.00  0.00     0.000 C 
ENDROOT
BRANCH   1   2
ATOM      2  C   UNL     1      -3.206   3.349 -22.541  1.00  0.00    -0.000 C 
BRANCH   2   3
ATOM      3  C   UNL     1      -3.856   2.673 -21.326  1.00  0.00    -0.000 C 
BRANCH   3   4
ATOM      4  C   UNL     1      -5.316   3.106 -21.119  1.00  0.00    -0.000 C 
BRANCH   4   5
ATOM      5  C   UNL     1      -6.231   2.676 -22.280  1.00  0.00    -0.000 C 
BRANCH   5   6
ATOM      6  C   UNL     1      -7.118   3.823 -22.788  1.00  0.00    -0.000 C 
BRANCH   6   7
ATOM      7  C   UNL     1      -6.772   5.170 -22.137  1.00  0.00    -0.000 C 
BRANCH   7   8
ATOM      8  C   UNL     1      -6.200   6.147 -23.170  1.00  0.00    -0.003 C 
ATOM      9  C   UNL     1      -6.584   7.587 -22.840  1.00  0.00     0.004 C 
ENDBRANCH   7   8
ENDBRANCH   6   7
ENDBRANCH   5   6
ENDBRANCH   4   5
ENDBRANCH   3   4
ENDBRANCH   2   3
ENDBRANCH   1   2
BRANCH   1  10
ATOM     10  C   UNL     1      -1.365   3.037 -24.296  1.00  0.00     0.000 C 
BRANCH  10  11
ATOM     11  C   UNL     1      -0.539   1.932 -24.984  1.00  0.00     0.000 C 
BRANCH  11  12
ATOM     12  C   UNL     1       0.385   1.125 -24.049  1.00  0.00     0.000 C 
BRANCH  12  13
ATOM     13  C   UNL     1       1.749   0.743 -24.651  1.00  0.00     0.000 C 
BRANCH  13  14
ATOM     14  C   UNL     1       2.707   0.130 -23.616  1.00  0.00     0.002 C 
BRANCH  14  15
ATOM     15  C   UNL     1       2.033  -0.108 -22.253  1.00  0.00     0.028 C 
BRANCH  15  16
ATOM     16  C   UNL     1       1.809  -1.591 -21.926  1.00  0.00     0.156 C 
BRANCH  16  17
ATOM     17  O   UNL     1       0.591  -1.783 -21.258  1.00  0.00    -0.396 OA
ATOM     18  H   UNL     1       0.281  -0.885 -20.971  1.00  0.00     0.210 HD
ENDBRANCH  16  17
ENDBRANCH  15  16
ENDBRANCH  14  15
ENDBRANCH  13  14
ENDBRANCH  12  13
ENDBRANCH  11  12
ENDBRANCH  10  11
ENDBRANCH   1  10
TORSDOF 15
ENDMDL
MODEL 7
REMARK VINA RESULT:    -3.968      3.612      5.851
REMARK INTER + INTRA:          -8.352
REMARK INTER:                  -6.596
REMARK INTRA:                  -1.757
REMARK UNBOUND:                -1.021
REMARK SMILES CCCCCCCCCCCCCCCCO
REMARK SMILES IDX 9 1 8 2 7 3 6 4 5 5 4 6 3 7 2 8 1 9 10 10 11 11 12 12 13 13
REMARK SMILES IDX 14 14 15 15 16 16 17 17
REMARK H PARENT 17 18
REMARK Flexibility Score: inf
ROOT
ATOM      1  C   UNL     1      -3.793   4.740 -24.227  1.00  0.00     0.000 C 
ENDROOT
BRANCH   1   2
ATOM      2  C   UNL     1      -2.826   3.811 -24.978  1.00  0.00    -0.000 C 
BRANCH   2   3
ATOM      3  C   UNL     1      -1.429   3.846 -24.342  1.00  0.00    -0.000 C 
BRANCH   3   4
ATOM      4  C   UNL     1      -0.579   5.023 -24.845  1.00  0.00    -0.000 C 
BRANCH   4   5
ATOM      5  C   UNL     1      -0.423   6.133 -23.790  1.00  0.00    -0.000 C 
BRANCH   5   6
ATOM      6  C   UNL     1      -0.637   7.538 -24.374  1.00  0.00    -0.000 C 
BRANCH   6   7
ATOM      7  C   UNL     1      -2.022   7.705 -25.017  1.00  0.00    -0.000 C 
BRANCH   7   8
ATOM      8  C   UNL     1      -2.578   9.111 -24.762  1.00  0.00    -0.003 C 
ATOM      9  C   UNL     1      -4.024   9.053 -24.278  1.00  0.00     0.004 C 
ENDBRANCH   7   8
ENDBRANCH   6   7
ENDBRANCH   5   6
ENDBRANCH   4   5
ENDBRANCH   3   4
ENDBRANCH   2   3
ENDBRANCH   1   2
BRANCH   1  10
ATOM     10  C   UNL     1      -4.918   5.283 -25.125  1.00  0.00     0.000 C 
BRANCH  10  11
ATOM     11  C   UNL     1      -6.089   5.946 -24.371  1.00  0.00     0.000 C 
BRANCH  11  12
ATOM     12  C   UNL     1      -6.359   5.389 -22.958  1.00  0.00     0.000 C 
BRANCH  12  13
ATOM     13  C   UNL     1      -7.244   4.132 -22.909  1.00  0.00     0.000 C 
BRANCH  13  14
ATOM     14  C   UNL     1      -6.464   2.868 -22.510  1.00  0.00     0.002 C 
BRANCH  14  15
ATOM     15  C   UNL     1      -5.477   3.121 -21.357  1.00  0.00     0.028 C 
BRANCH  15  16
ATOM     16  C   UNL     1      -4.198   2.275 -21.443  1.00  0.00     0.156 C 
BRANCH  16  17
ATOM     17  O   UNL     1      -3.062   3.045 -21.151  1.00  0.00    -0.396 OA
ATOM     18  H   UNL     1      -2.834   2.864 -20.202  1.00  0.00     0.210 HD
ENDBRANCH  16  17
ENDBRANCH  15  16
ENDBRANCH  14  15
ENDBRANCH  13  14
ENDBRANCH  12  13
ENDBRANCH  11  12
ENDBRANCH  10  11
ENDBRANCH   1  10
TORSDOF 15
ENDMDL
MODEL 8
REMARK VINA RESULT:    -3.936      2.414      7.370
REMARK INTER + INTRA:          -8.294
REMARK INTER:                  -7.142
REMARK INTRA:                  -1.152
REMARK UNBOUND:                -1.021
REMARK SMILES CCCCCCCCCCCCCCCCO
REMARK SMILES IDX 9 1 8 2 7 3 6 4 5 5 4 6 3 7 2 8 1 9 10 10 11 11 12 12 13 13
REMARK SMILES IDX 14 14 15 15 16 16 17 17
REMARK H PARENT 17 18
REMARK Flexibility Score: inf
ROOT
ATOM      1  C   UNL     1      -1.768   3.877 -23.453  1.00  0.00     0.000 C 
ENDROOT
BRANCH   1   2
ATOM      2  C   UNL     1      -2.707   4.010 -24.662  1.00  0.00    -0.000 C 
BRANCH   2   3
ATOM      3  C   UNL     1      -3.634   5.225 -24.505  1.00  0.00    -0.000 C 
BRANCH   3   4
ATOM      4  C   UNL     1      -5.121   4.836 -24.490  1.00  0.00    -0.000 C 
BRANCH   4   5
ATOM      5  C   UNL     1      -5.926   5.620 -23.438  1.00  0.00    -0.000 C 
BRANCH   5   6
ATOM      6  C   UNL     1      -6.632   4.700 -22.428  1.00  0.00    -0.000 C 
BRANCH   6   7
ATOM      7  C   UNL     1      -5.656   3.758 -21.706  1.00  0.00    -0.000 C 
BRANCH   7   8
ATOM      8  C   UNL     1      -6.058   2.293 -21.909  1.00  0.00    -0.003 C 
ATOM      9  C   UNL     1      -7.295   2.178 -22.795  1.00  0.00     0.004 C 
ENDBRANCH   7   8
ENDBRANCH   6   7
ENDBRANCH   5   6
ENDBRANCH   4   5
ENDBRANCH   3   4
ENDBRANCH   2   3
ENDBRANCH   1   2
BRANCH   1  10
ATOM     10  C   UNL     1      -2.111   2.672 -22.560  1.00  0.00     0.000 C 
BRANCH  10  11
ATOM     11  C   UNL     1      -1.390   1.361 -22.934  1.00  0.00     0.000 C 
BRANCH  11  12
ATOM     12  C   UNL     1      -0.364   1.479 -24.080  1.00  0.00     0.000 C 
BRANCH  12  13
ATOM     13  C   UNL     1       0.961   0.731 -23.850  1.00  0.00     0.000 C 
BRANCH  13  14
ATOM     14  C   UNL     1       1.023   0.035 -22.479  1.00  0.00     0.002 C 
BRANCH  14  15
ATOM     15  C   UNL     1       2.319  -0.772 -22.284  1.00  0.00     0.028 C 
BRANCH  15  16
ATOM     16  C   UNL     1       2.080  -2.261 -21.996  1.00  0.00     0.156 C 
BRANCH  16  17
ATOM     17  O   UNL     1       3.051  -3.059 -22.619  1.00  0.00    -0.396 OA
ATOM     18  H   UNL     1       3.932  -2.676 -22.373  1.00  0.00     0.210 HD
ENDBRANCH  16  17
ENDBRANCH  15  16
ENDBRANCH  14  15
ENDBRANCH  13  14
ENDBRANCH  12  13
ENDBRANCH  11  12
ENDBRANCH  10  11
ENDBRANCH   1  10
TORSDOF 15
ENDMDL
MODEL 9
REMARK VINA RESULT:    -3.900      3.731      7.149
REMARK INTER + INTRA:          -8.227
REMARK INTER:                  -6.787
REMARK INTRA:                  -1.439
REMARK UNBOUND:                -1.021
REMARK SMILES CCCCCCCCCCCCCCCCO
REMARK SMILES IDX 9 1 8 2 7 3 6 4 5 5 4 6 3 7 2 8 1 9 10 10 11 11 12 12 13 13
REMARK SMILES IDX 14 14 15 15 16 16 17 17
REMARK H PARENT 17 18
REMARK Flexibility Score: inf
ROOT
ATOM      1  C   UNL     1      -1.038   6.193 -23.897  1.00  0.00     0.000 C 
ENDROOT
BRANCH   1   2
ATOM      2  C   UNL     1      -0.356   7.350 -24.642  1.00  0.00    -0.000 C 
BRANCH   2   3
ATOM      3  C   UNL     1      -1.386   8.399 -25.086  1.00  0.00    -0.000 C 
BRANCH   3   4
ATOM      4  C   UNL     1      -2.818   7.842 -25.125  1.00  0.00    -0.000 C 
BRANCH   4   5
ATOM      5  C   UNL     1      -3.818   8.727 -24.360  1.00  0.00    -0.000 C 
BRANCH   5   6
ATOM      6  C   UNL     1      -5.213   8.090 -24.257  1.00  0.00    -0.000 C 
BRANCH   6   7
ATOM      7  C   UNL     1      -5.983   8.554 -23.011  1.00  0.00    -0.000 C 
BRANCH   7   8
ATOM      8  C   UNL     1      -7.240   7.704 -22.796  1.00  0.00    -0.003 C 
ATOM      9  C   UNL     1      -6.891   6.345 -22.196  1.00  0.00     0.004 C 
ENDBRANCH   7   8
ENDBRANCH   6   7
ENDBRANCH   5   6
ENDBRANCH   4   5
ENDBRANCH   3   4
ENDBRANCH   2   3
ENDBRANCH   1   2
BRANCH   1  10
ATOM     10  C   UNL     1      -0.709   4.817 -24.503  1.00  0.00     0.000 C 
BRANCH  10  11
ATOM     11  C   UNL     1      -1.862   3.793 -24.453  1.00  0.00     0.000 C 
BRANCH  11  12
ATOM     12  C   UNL     1      -3.253   4.353 -24.811  1.00  0.00     0.000 C 
BRANCH  12  13
ATOM     13  C   UNL     1      -4.269   4.366 -23.656  1.00  0.00     0.000 C 
BRANCH  13  14
ATOM     14  C   UNL     1      -3.920   3.363 -22.543  1.00  0.00     0.002 C 
BRANCH  14  15
ATOM     15  C   UNL     1      -5.165   2.842 -21.804  1.00  0.00     0.028 C 
BRANCH  15  16
ATOM     16  C   UNL     1      -4.898   2.454 -20.342  1.00  0.00     0.156 C 
BRANCH  16  17
ATOM     17  O   UNL     1      -3.657   2.943 -19.909  1.00  0.00    -0.396 OA
ATOM     18  H   UNL     1      -3.315   3.530 -20.633  1.00  0.00     0.210 HD
ENDBRANCH  16  17
ENDBRANCH  15  16
ENDBRANCH  14  15
ENDBRANCH  13  14
ENDBRANCH  12  13
ENDBRANCH  11  12
ENDBRANCH  10  11
ENDBRANCH   1  10
TORSDOF 15
ENDMDL
