MODEL 1
REMARK VINA RESULT:    -4.103      0.000      0.000
REMARK INTER + INTRA:          -9.561
REMARK INTER:                  -7.702
REMARK INTRA:                  -1.860
REMARK UNBOUND:                -1.860
REMARK SMILES O=C([O-])CCCCCCCCCCCCCCC(=O)[O-]
REMARK SMILES IDX 10 1 9 2 8 3 7 4 6 5 5 6 4 7 2 8 1 9 3 10 11 11 12 12 13 13
REMARK SMILES IDX 14 14 15 15 16 16 17 17 18 18 19 19 20 20
REMARK H PARENT
REMARK Flexibility Score: inf
ROOT
ATOM      1  C   UNL     1     186.463 180.807 199.129  1.00  0.00     0.000 C 
ENDROOT
BRANCH   1   2
ATOM      2  C   UNL     1     187.052 181.876 200.068  1.00  0.00     0.000 C 
BRANCH   2   3
ATOM      3  C   UNL     1     186.217 183.167 200.195  1.00  0.00     0.000 C 
BRANCH   3   4
ATOM      4  C   UNL     1     185.169 183.384 199.085  1.00  0.00     0.000 C 
BRANCH   4   5
ATOM      5  C   UNL     1     185.032 184.837 198.596  1.00  0.00     0.000 C 
BRANCH   5   6
ATOM      6  C   UNL     1     186.232 185.299 197.755  1.00  0.00     0.006 C 
BRANCH   6   7
ATOM      7  C   UNL     1     186.541 186.777 198.007  1.00  0.00     0.053 C 
BRANCH   7   8
ATOM      8  C   UNL     1     186.882 187.004 199.445  1.00  0.00     0.041 C 
ATOM      9  O   UNL     1     186.203 187.809 200.138  1.00  0.00    -0.550 OA
ATOM     10  O   UNL     1     187.917 186.291 200.036  1.00  0.00    -0.550 OA
ENDBRANCH   7   8
ENDBRANCH   6   7
ENDBRANCH   5   6
ENDBRANCH   4   5
ENDBRANCH   3   4
ENDBRANCH   2   3
ENDBRANCH   1   2
BRANCH   1  11
ATOM     11  C   UNL     1     185.570 179.794 199.865  1.00  0.00     0.000 C 
BRANCH  11  12
ATOM     12  C   UNL     1     185.723 179.872 201.391  1.00  0.00     0.000 C 
BRANCH  12  13
ATOM     13  C   UNL     1     184.403 180.216 202.105  1.00  0.00     0.000 C 
BRANCH  13  14
ATOM     14  C   UNL     1     183.374 180.861 201.164  1.00  0.00     0.000 C 
BRANCH  14  15
ATOM     15  C   UNL     1     182.523 181.930 201.866  1.00  0.00     0.000 C 
BRANCH  15  16
ATOM     16  C   UNL     1     181.155 182.075 201.187  1.00  0.00     0.006 C 
BRANCH  16  17
ATOM     17  C   UNL     1     180.668 183.526 201.238  1.00  0.00     0.053 C 
BRANCH  17  18
ATOM     18  C   UNL     1     181.542 184.402 200.396  1.00  0.00     0.041 C 
ATOM     19  O   UNL     1     181.611 184.221 199.152  1.00  0.00    -0.550 OA
ATOM     20  O   UNL     1     182.243 185.449 200.979  1.00  0.00    -0.550 OA
ENDBRANCH  17  18
ENDBRANCH  16  17
ENDBRANCH  15  16
ENDBRANCH  14  15
ENDBRANCH  13  14
ENDBRANCH  12  13
ENDBRANCH  11  12
ENDBRANCH   1  11
TORSDOF 15
ENDMDL
MODEL 2
REMARK VINA RESULT:    -4.019      1.696      2.197
REMARK INTER + INTRA:          -9.404
REMARK INTER:                  -7.518
REMARK INTRA:                  -1.886
REMARK UNBOUND:                -1.860
REMARK SMILES O=C([O-])CCCCCCCCCCCCCCC(=O)[O-]
REMARK SMILES IDX 10 1 9 2 8 3 7 4 6 5 5 6 4 7 2 8 1 9 3 10 11 11 12 12 13 13
REMARK SMILES IDX 14 14 15 15 16 16 17 17 18 18 19 19 20 20
REMARK H PARENT
REMARK Flexibility Score: inf
ROOT
ATOM      1  C   UNL     1     186.309 182.354 198.839  1.00  0.00     0.000 C 
ENDROOT
BRANCH   1   2
ATOM      2  C   UNL     1     186.298 183.357 200.007  1.00  0.00     0.000 C 
BRANCH   2   3
ATOM      3  C   UNL     1     184.993 184.165 200.163  1.00  0.00     0.000 C 
BRANCH   3   4
ATOM      4  C   UNL     1     183.998 184.038 198.993  1.00  0.00     0.000 C 
BRANCH   4   5
ATOM      5  C   UNL     1     183.656 185.360 198.283  1.00  0.00     0.000 C 
BRANCH   5   6
ATOM      6  C   UNL     1     184.794 186.389 198.362  1.00  0.00     0.006 C 
BRANCH   6   7
ATOM      7  C   UNL     1     184.313 187.689 199.013  1.00  0.00     0.053 C 
BRANCH   7   8
ATOM      8  C   UNL     1     184.624 188.861 198.136  1.00  0.00     0.041 C 
ATOM      9  O   UNL     1     185.123 189.907 198.630  1.00  0.00    -0.550 OA
ATOM     10  O   UNL     1     184.411 188.781 196.766  1.00  0.00    -0.550 OA
ENDBRANCH   7   8
ENDBRANCH   6   7
ENDBRANCH   5   6
ENDBRANCH   4   5
ENDBRANCH   3   4
ENDBRANCH   2   3
ENDBRANCH   1   2
BRANCH   1  11
ATOM     11  C   UNL     1     186.382 180.891 199.309  1.00  0.00     0.000 C 
BRANCH  11  12
ATOM     12  C   UNL     1     186.348 180.762 200.839  1.00  0.00     0.000 C 
BRANCH  12  13
ATOM     13  C   UNL     1     185.340 179.705 201.324  1.00  0.00     0.000 C 
BRANCH  13  14
ATOM     14  C   UNL     1     184.159 180.322 202.090  1.00  0.00     0.000 C 
BRANCH  14  15
ATOM     15  C   UNL     1     183.210 181.109 201.174  1.00  0.00     0.000 C 
BRANCH  15  16
ATOM     16  C   UNL     1     182.302 182.037 201.992  1.00  0.00     0.006 C 
BRANCH  16  17
ATOM     17  C   UNL     1     181.027 182.381 201.216  1.00  0.00     0.053 C 
BRANCH  17  18
ATOM     18  C   UNL     1     180.920 183.859 201.014  1.00  0.00     0.041 C 
ATOM     19  O   UNL     1     181.258 184.651 201.932  1.00  0.00    -0.550 OA
ATOM     20  O   UNL     1     180.492 184.364 199.792  1.00  0.00    -0.550 OA
ENDBRANCH  17  18
ENDBRANCH  16  17
ENDBRANCH  15  16
ENDBRANCH  14  15
ENDBRANCH  13  14
ENDBRANCH  12  13
ENDBRANCH  11  12
ENDBRANCH   1  11
TORSDOF 15
ENDMDL
MODEL 3
REMARK VINA RESULT:    -3.991      1.933      5.360
REMARK INTER + INTRA:          -9.351
REMARK INTER:                  -7.408
REMARK INTRA:                  -1.943
REMARK UNBOUND:                -1.860
REMARK SMILES O=C([O-])CCCCCCCCCCCCCCC(=O)[O-]
REMARK SMILES IDX 10 1 9 2 8 3 7 4 6 5 5 6 4 7 2 8 1 9 3 10 11 11 12 12 13 13
REMARK SMILES IDX 14 14 15 15 16 16 17 17 18 18 19 19 20 20
REMARK H PARENT
REMARK Flexibility Score: inf
ROOT
ATOM      1  C   UNL     1     187.039 181.127 199.191  1.00  0.00     0.000 C 
ENDROOT
BRANCH   1   2
ATOM      2  C   UNL     1     185.907 180.161 199.583  1.00  0.00     0.000 C 
BRANCH   2   3
ATOM      3  C   UNL     1     185.576 180.116 201.089  1.00  0.00     0.000 C 
BRANCH   3   4
ATOM      4  C   UNL     1     184.073 180.109 201.432  1.00  0.00     0.000 C 
BRANCH   4   5
ATOM      5  C   UNL     1     183.525 181.440 201.978  1.00  0.00     0.000 C 
BRANCH   5   6
ATOM      6  C   UNL     1     182.669 182.198 200.952  1.00  0.00     0.006 C 
BRANCH   6   7
ATOM      7  C   UNL     1     181.227 182.345 201.444  1.00  0.00     0.053 C 
BRANCH   7   8
ATOM      8  C   UNL     1     180.798 183.777 201.390  1.00  0.00     0.041 C 
ATOM      9  O   UNL     1     179.674 184.083 200.912  1.00  0.00    -0.550 OA
ATOM     10  O   UNL     1     181.617 184.769 201.913  1.00  0.00    -0.550 OA
ENDBRANCH   7   8
ENDBRANCH   6   7
ENDBRANCH   5   6
ENDBRANCH   4   5
ENDBRANCH   3   4
ENDBRANCH   2   3
ENDBRANCH   1   2
BRANCH   1  11
ATOM     11  C   UNL     1     186.575 182.232 198.227  1.00  0.00     0.000 C 
BRANCH  11  12
ATOM     12  C   UNL     1     185.374 183.022 198.770  1.00  0.00     0.000 C 
BRANCH  12  13
ATOM     13  C   UNL     1     185.727 183.864 200.009  1.00  0.00     0.000 C 
BRANCH  13  14
ATOM     14  C   UNL     1     185.002 185.219 200.028  1.00  0.00     0.000 C 
BRANCH  14  15
ATOM     15  C   UNL     1     183.905 185.316 198.958  1.00  0.00     0.000 C 
BRANCH  15  16
ATOM     16  C   UNL     1     183.850 186.725 198.355  1.00  0.00     0.006 C 
BRANCH  16  17
ATOM     17  C   UNL     1     185.085 187.003 197.494  1.00  0.00     0.053 C 
BRANCH  17  18
ATOM     18  C   UNL     1     185.115 186.089 196.310  1.00  0.00     0.041 C 
ATOM     19  O   UNL     1     186.059 185.269 196.164  1.00  0.00    -0.550 OA
ATOM     20  O   UNL     1     184.073 186.109 195.391  1.00  0.00    -0.550 OA
ENDBRANCH  17  18
ENDBRANCH  16  17
ENDBRANCH  15  16
ENDBRANCH  14  15
ENDBRANCH  13  14
ENDBRANCH  12  13
ENDBRANCH  11  12
ENDBRANCH   1  11
TORSDOF 15
ENDMDL
MODEL 4
REMARK VINA RESULT:    -3.949     13.291     16.070
REMARK INTER + INTRA:          -9.271
REMARK INTER:                  -7.265
REMARK INTRA:                  -2.007
REMARK UNBOUND:                -1.860
REMARK SMILES O=C([O-])CCCCCCCCCCCCCCC(=O)[O-]
REMARK SMILES IDX 10 1 9 2 8 3 7 4 6 5 5 6 4 7 2 8 1 9 3 10 11 11 12 12 13 13
REMARK SMILES IDX 14 14 15 15 16 16 17 17 18 18 19 19 20 20
REMARK H PARENT
REMARK Flexibility Score: inf
ROOT
ATOM      1  C   UNL     1     196.347 193.591 201.062  1.00  0.00     0.000 C 
ENDROOT
BRANCH   1   2
ATOM      2  C   UNL     1     197.266 194.543 201.847  1.00  0.00     0.000 C 
BRANCH   2   3
ATOM      3  C   UNL     1     198.068 195.538 200.984  1.00  0.00     0.000 C 
BRANCH   3   4
ATOM      4  C   UNL     1     197.666 197.018 201.140  1.00  0.00     0.000 C 
BRANCH   4   5
ATOM      5  C   UNL     1     196.484 197.272 202.093  1.00  0.00     0.000 C 
BRANCH   5   6
ATOM      6  C   UNL     1     195.355 198.083 201.439  1.00  0.00     0.006 C 
BRANCH   6   7
ATOM      7  C   UNL     1     193.983 197.588 201.907  1.00  0.00     0.053 C 
BRANCH   7   8
ATOM      8  C   UNL     1     193.022 197.547 200.761  1.00  0.00     0.041 C 
ATOM      9  O   UNL     1     191.798 197.332 200.969  1.00  0.00    -0.550 OA
ATOM     10  O   UNL     1     193.468 197.796 199.470  1.00  0.00    -0.550 OA
ENDBRANCH   7   8
ENDBRANCH   6   7
ENDBRANCH   5   6
ENDBRANCH   4   5
ENDBRANCH   3   4
ENDBRANCH   2   3
ENDBRANCH   1   2
BRANCH   1  11
ATOM     11  C   UNL     1     195.024 194.251 200.638  1.00  0.00     0.000 C 
BRANCH  11  12
ATOM     12  C   UNL     1     194.937 194.474 199.121  1.00  0.00     0.000 C 
BRANCH  12  13
ATOM     13  C   UNL     1     196.074 193.779 198.351  1.00  0.00     0.000 C 
BRANCH  13  14
ATOM     14  C   UNL     1     195.556 192.752 197.333  1.00  0.00     0.000 C 
BRANCH  14  15
ATOM     15  C   UNL     1     194.478 191.829 197.922  1.00  0.00     0.000 C 
BRANCH  15  16
ATOM     16  C   UNL     1     195.056 190.446 198.245  1.00  0.00     0.006 C 
BRANCH  16  17
ATOM     17  C   UNL     1     195.486 190.360 199.712  1.00  0.00     0.053 C 
BRANCH  17  18
ATOM     18  C   UNL     1     196.716 189.519 199.849  1.00  0.00     0.041 C 
ATOM     19  O   UNL     1     196.664 188.411 200.445  1.00  0.00    -0.550 OA
ATOM     20  O   UNL     1     197.911 189.936 199.276  1.00  0.00    -0.550 OA
ENDBRANCH  17  18
ENDBRANCH  16  17
ENDBRANCH  15  16
ENDBRANCH  14  15
ENDBRANCH  13  14
ENDBRANCH  12  13
ENDBRANCH  11  12
ENDBRANCH   1  11
TORSDOF 15
ENDMDL
MODEL 5
REMARK VINA RESULT:    -3.938      2.088      5.609
REMARK INTER + INTRA:          -9.250
REMARK INTER:                  -7.246
REMARK INTRA:                  -2.004
REMARK UNBOUND:                -1.860
REMARK SMILES O=C([O-])CCCCCCCCCCCCCCC(=O)[O-]
REMARK SMILES IDX 10 1 9 2 8 3 7 4 6 5 5 6 4 7 2 8 1 9 3 10 11 11 12 12 13 13
REMARK SMILES IDX 14 14 15 15 16 16 17 17 18 18 19 19 20 20
REMARK H PARENT
REMARK Flexibility Score: inf
ROOT
ATOM      1  C   UNL     1     180.901 183.056 200.252  1.00  0.00     0.000 C 
ENDROOT
BRANCH   1   2
ATOM      2  C   UNL     1     181.264 181.749 200.979  1.00  0.00     0.000 C 
BRANCH   2   3
ATOM      3  C   UNL     1     182.286 181.900 202.125  1.00  0.00     0.000 C 
BRANCH   3   4
ATOM      4  C   UNL     1     183.694 181.346 201.827  1.00  0.00     0.000 C 
BRANCH   4   5
ATOM      5  C   UNL     1     183.751 180.280 200.718  1.00  0.00     0.000 C 
BRANCH   5   6
ATOM      6  C   UNL     1     185.186 179.969 200.265  1.00  0.00     0.006 C 
BRANCH   6   7
ATOM      7  C   UNL     1     186.207 180.719 201.124  1.00  0.00     0.053 C 
BRANCH   7   8
ATOM      8  C   UNL     1     187.141 181.507 200.261  1.00  0.00     0.041 C 
ATOM      9  O   UNL     1     187.974 182.294 200.783  1.00  0.00    -0.550 OA
ATOM     10  O   UNL     1     187.126 181.336 198.883  1.00  0.00    -0.550 OA
ENDBRANCH   7   8
ENDBRANCH   6   7
ENDBRANCH   5   6
ENDBRANCH   4   5
ENDBRANCH   3   4
ENDBRANCH   2   3
ENDBRANCH   1   2
BRANCH   1  11
ATOM     11  C   UNL     1     181.221 184.310 201.083  1.00  0.00     0.000 C 
BRANCH  11  12
ATOM     12  C   UNL     1     181.367 185.570 200.215  1.00  0.00     0.000 C 
BRANCH  12  13
ATOM     13  C   UNL     1     182.835 185.987 200.015  1.00  0.00     0.000 C 
BRANCH  13  14
ATOM     14  C   UNL     1     183.825 184.927 200.519  1.00  0.00     0.000 C 
BRANCH  14  15
ATOM     15  C   UNL     1     184.443 184.106 199.378  1.00  0.00     0.000 C 
BRANCH  15  16
ATOM     16  C   UNL     1     185.865 184.585 199.064  1.00  0.00     0.006 C 
BRANCH  16  17
ATOM     17  C   UNL     1     186.019 184.914 197.576  1.00  0.00     0.053 C 
BRANCH  17  18
ATOM     18  C   UNL     1     185.268 186.162 197.235  1.00  0.00     0.041 C 
ATOM     19  O   UNL     1     185.711 187.286 197.591  1.00  0.00    -0.550 OA
ATOM     20  O   UNL     1     184.104 186.089 196.481  1.00  0.00    -0.550 OA
ENDBRANCH  17  18
ENDBRANCH  16  17
ENDBRANCH  15  16
ENDBRANCH  14  15
ENDBRANCH  13  14
ENDBRANCH  12  13
ENDBRANCH  11  12
ENDBRANCH   1  11
TORSDOF 15
ENDMDL
MODEL 6
REMARK VINA RESULT:    -3.929      1.812      2.351
REMARK INTER + INTRA:          -9.233
REMARK INTER:                  -7.260
REMARK INTRA:                  -1.973
REMARK UNBOUND:                -1.860
REMARK SMILES O=C([O-])CCCCCCCCCCCCCCC(=O)[O-]
REMARK SMILES IDX 10 1 9 2 8 3 7 4 6 5 5 6 4 7 2 8 1 9 3 10 11 11 12 12 13 13
REMARK SMILES IDX 14 14 15 15 16 16 17 17 18 18 19 19 20 20
REMARK H PARENT
REMARK Flexibility Score: inf
ROOT
ATOM      1  C   UNL     1     186.748 181.066 199.335  1.00  0.00     0.000 C 
ENDROOT
BRANCH   1   2
ATOM      2  C   UNL     1     186.318 182.153 198.332  1.00  0.00     0.000 C 
BRANCH   2   3
ATOM      3  C   UNL     1     185.248 183.135 198.850  1.00  0.00     0.000 C 
BRANCH   3   4
ATOM      4  C   UNL     1     185.637 183.922 200.117  1.00  0.00     0.000 C 
BRANCH   4   5
ATOM      5  C   UNL     1     185.766 185.444 199.922  1.00  0.00     0.000 C 
BRANCH   5   6
ATOM      6  C   UNL     1     184.844 185.983 198.818  1.00  0.00     0.006 C 
BRANCH   6   7
ATOM      7  C   UNL     1     185.659 186.548 197.651  1.00  0.00     0.053 C 
BRANCH   7   8
ATOM      8  C   UNL     1     185.196 185.961 196.356  1.00  0.00     0.041 C 
ATOM      9  O   UNL     1     185.976 185.253 195.666  1.00  0.00    -0.550 OA
ATOM     10  O   UNL     1     183.887 186.155 195.933  1.00  0.00    -0.550 OA
ENDBRANCH   7   8
ENDBRANCH   6   7
ENDBRANCH   5   6
ENDBRANCH   4   5
ENDBRANCH   3   4
ENDBRANCH   2   3
ENDBRANCH   1   2
BRANCH   1  11
ATOM     11  C   UNL     1     185.567 180.224 199.845  1.00  0.00     0.000 C 
BRANCH  11  12
ATOM     12  C   UNL     1     185.670 179.913 201.346  1.00  0.00     0.000 C 
BRANCH  12  13
ATOM     13  C   UNL     1     184.404 180.311 202.125  1.00  0.00     0.000 C 
BRANCH  13  14
ATOM     14  C   UNL     1     183.395 181.082 201.259  1.00  0.00     0.000 C 
BRANCH  14  15
ATOM     15  C   UNL     1     182.845 182.330 201.965  1.00  0.00     0.000 C 
BRANCH  15  16
ATOM     16  C   UNL     1     181.970 183.157 201.015  1.00  0.00     0.006 C 
BRANCH  16  17
ATOM     17  C   UNL     1     181.344 184.350 201.743  1.00  0.00     0.053 C 
BRANCH  17  18
ATOM     18  C   UNL     1     182.046 185.618 201.372  1.00  0.00     0.041 C 
ATOM     19  O   UNL     1     182.948 186.085 202.116  1.00  0.00    -0.550 OA
ATOM     20  O   UNL     1     181.738 186.260 200.179  1.00  0.00    -0.550 OA
ENDBRANCH  17  18
ENDBRANCH  16  17
ENDBRANCH  15  16
ENDBRANCH  14  15
ENDBRANCH  13  14
ENDBRANCH  12  13
ENDBRANCH  11  12
ENDBRANCH   1  11
TORSDOF 15
ENDMDL
MODEL 7
REMARK VINA RESULT:    -3.926      1.652      2.184
REMARK INTER + INTRA:          -9.228
REMARK INTER:                  -7.555
REMARK INTRA:                  -1.674
REMARK UNBOUND:                -1.860
REMARK SMILES O=C([O-])CCCCCCCCCCCCCCC(=O)[O-]
REMARK SMILES IDX 10 1 9 2 8 3 7 4 6 5 5 6 4 7 2 8 1 9 3 10 11 11 12 12 13 13
REMARK SMILES IDX 14 14 15 15 16 16 17 17 18 18 19 19 20 20
REMARK H PARENT
REMARK Flexibility Score: inf
ROOT
ATOM      1  C   UNL     1     186.685 181.820 199.013  1.00  0.00     0.000 C 
ENDROOT
BRANCH   1   2
ATOM      2  C   UNL     1     186.066 183.076 198.373  1.00  0.00     0.000 C 
BRANCH   2   3
ATOM      3  C   UNL     1     184.928 183.730 199.183  1.00  0.00     0.000 C 
BRANCH   3   4
ATOM      4  C   UNL     1     185.277 185.085 199.831  1.00  0.00     0.000 C 
BRANCH   4   5
ATOM      5  C   UNL     1     186.695 185.602 199.531  1.00  0.00     0.000 C 
BRANCH   5   6
ATOM      6  C   UNL     1     186.699 187.022 198.944  1.00  0.00     0.006 C 
BRANCH   6   7
ATOM      7  C   UNL     1     188.020 187.735 199.244  1.00  0.00     0.053 C 
BRANCH   7   8
ATOM      8  C   UNL     1     188.184 188.930 198.359  1.00  0.00     0.041 C 
ATOM      9  O   UNL     1     187.171 189.520 197.898  1.00  0.00    -0.550 OA
ATOM     10  O   UNL     1     189.452 189.424 198.084  1.00  0.00    -0.550 OA
ENDBRANCH   7   8
ENDBRANCH   6   7
ENDBRANCH   5   6
ENDBRANCH   4   5
ENDBRANCH   3   4
ENDBRANCH   2   3
ENDBRANCH   1   2
BRANCH   1  11
ATOM     11  C   UNL     1     187.505 182.136 200.275  1.00  0.00     0.000 C 
BRANCH  11  12
ATOM     12  C   UNL     1     187.075 181.290 201.484  1.00  0.00     0.000 C 
BRANCH  12  13
ATOM     13  C   UNL     1     185.780 180.500 201.226  1.00  0.00     0.000 C 
BRANCH  13  14
ATOM     14  C   UNL     1     184.614 180.975 202.107  1.00  0.00     0.000 C 
BRANCH  14  15
ATOM     15  C   UNL     1     183.294 181.083 201.329  1.00  0.00     0.000 C 
BRANCH  15  16
ATOM     16  C   UNL     1     182.251 181.878 202.125  1.00  0.00     0.006 C 
BRANCH  16  17
ATOM     17  C   UNL     1     182.561 183.378 202.092  1.00  0.00     0.053 C 
BRANCH  17  18
ATOM     18  C   UNL     1     181.516 184.111 201.310  1.00  0.00     0.041 C 
ATOM     19  O   UNL     1     181.840 185.073 200.566  1.00  0.00    -0.550 OA
ATOM     20  O   UNL     1     180.190 183.700 201.366  1.00  0.00    -0.550 OA
ENDBRANCH  17  18
ENDBRANCH  16  17
ENDBRANCH  15  16
ENDBRANCH  14  15
ENDBRANCH  13  14
ENDBRANCH  12  13
ENDBRANCH  11  12
ENDBRANCH   1  11
TORSDOF 15
ENDMDL
MODEL 8
REMARK VINA RESULT:    -3.896     13.713     16.076
REMARK INTER + INTRA:          -9.172
REMARK INTER:                  -7.180
REMARK INTRA:                  -1.992
REMARK UNBOUND:                -1.860
REMARK SMILES O=C([O-])CCCCCCCCCCCCCCC(=O)[O-]
REMARK SMILES IDX 10 1 9 2 8 3 7 4 6 5 5 6 4 7 2 8 1 9 3 10 11 11 12 12 13 13
REMARK SMILES IDX 14 14 15 15 16 16 17 17 18 18 19 19 20 20
REMARK H PARENT
REMARK Flexibility Score: inf
ROOT
ATOM      1  C   UNL     1     196.901 193.460 199.427  1.00  0.00     0.000 C 
ENDROOT
BRANCH   1   2
ATOM      2  C   UNL     1     195.890 192.817 200.394  1.00  0.00     0.000 C 
BRANCH   2   3
ATOM      3  C   UNL     1     194.643 193.672 200.700  1.00  0.00     0.000 C 
BRANCH   3   4
ATOM      4  C   UNL     1     193.382 193.308 199.892  1.00  0.00     0.000 C 
BRANCH   4   5
ATOM      5  C   UNL     1     193.144 194.167 198.637  1.00  0.00     0.000 C 
BRANCH   5   6
ATOM      6  C   UNL     1     192.737 193.333 197.413  1.00  0.00     0.006 C 
BRANCH   6   7
ATOM      7  C   UNL     1     193.971 192.836 196.654  1.00  0.00     0.053 C 
BRANCH   7   8
ATOM      8  C   UNL     1     193.747 192.919 195.177  1.00  0.00     0.041 C 
ATOM      9  O   UNL     1     194.189 192.017 194.418  1.00  0.00    -0.550 OA
ATOM     10  O   UNL     1     193.008 193.967 194.644  1.00  0.00    -0.550 OA
ENDBRANCH   7   8
ENDBRANCH   6   7
ENDBRANCH   5   6
ENDBRANCH   4   5
ENDBRANCH   3   4
ENDBRANCH   2   3
ENDBRANCH   1   2
BRANCH   1  11
ATOM     11  C   UNL     1     196.948 194.992 199.544  1.00  0.00     0.000 C 
BRANCH  11  12
ATOM     12  C   UNL     1     198.156 195.484 200.356  1.00  0.00     0.000 C 
BRANCH  12  13
ATOM     13  C   UNL     1     197.824 196.698 201.242  1.00  0.00     0.000 C 
BRANCH  13  14
ATOM     14  C   UNL     1     196.524 196.509 202.039  1.00  0.00     0.000 C 
BRANCH  14  15
ATOM     15  C   UNL     1     195.559 197.694 201.884  1.00  0.00     0.000 C 
BRANCH  15  16
ATOM     16  C   UNL     1     194.149 197.210 201.525  1.00  0.00     0.006 C 
BRANCH  16  17
ATOM     17  C   UNL     1     193.877 197.374 200.027  1.00  0.00     0.053 C 
BRANCH  17  18
ATOM     18  C   UNL     1     192.497 197.907 199.800  1.00  0.00     0.041 C 
ATOM     19  O   UNL     1     192.299 198.809 198.944  1.00  0.00    -0.550 OA
ATOM     20  O   UNL     1     191.422 197.375 200.500  1.00  0.00    -0.550 OA
ENDBRANCH  17  18
ENDBRANCH  16  17
ENDBRANCH  15  16
ENDBRANCH  14  15
ENDBRANCH  13  14
ENDBRANCH  12  13
ENDBRANCH  11  12
ENDBRANCH   1  11
TORSDOF 15
ENDMDL
MODEL 9
REMARK VINA RESULT:    -3.837      2.666      5.573
REMARK INTER + INTRA:          -9.062
REMARK INTER:                  -6.726
REMARK INTRA:                  -2.335
REMARK UNBOUND:                -1.860
REMARK SMILES O=C([O-])CCCCCCCCCCCCCCC(=O)[O-]
REMARK SMILES IDX 10 1 9 2 8 3 7 4 6 5 5 6 4 7 2 8 1 9 3 10 11 11 12 12 13 13
REMARK SMILES IDX 14 14 15 15 16 16 17 17 18 18 19 19 20 20
REMARK H PARENT
REMARK Flexibility Score: inf
ROOT
ATOM      1  C   UNL     1     180.702 183.216 200.994  1.00  0.00     0.000 C 
ENDROOT
BRANCH   1   2
ATOM      2  C   UNL     1     181.146 181.742 201.000  1.00  0.00     0.000 C 
BRANCH   2   3
ATOM      3  C   UNL     1     182.620 181.504 201.389  1.00  0.00     0.000 C 
BRANCH   3   4
ATOM      4  C   UNL     1     183.303 182.674 202.125  1.00  0.00     0.000 C 
BRANCH   4   5
ATOM      5  C   UNL     1     184.421 183.376 201.332  1.00  0.00     0.000 C 
BRANCH   5   6
ATOM      6  C   UNL     1     184.540 182.863 199.889  1.00  0.00     0.006 C 
BRANCH   6   7
ATOM      7  C   UNL     1     186.007 182.774 199.459  1.00  0.00     0.053 C 
BRANCH   7   8
ATOM      8  C   UNL     1     186.486 181.358 199.517  1.00  0.00     0.041 C 
ATOM      9  O   UNL     1     186.382 180.698 200.585  1.00  0.00    -0.550 OA
ATOM     10  O   UNL     1     187.001 180.750 198.380  1.00  0.00    -0.550 OA
ENDBRANCH   7   8
ENDBRANCH   6   7
ENDBRANCH   5   6
ENDBRANCH   4   5
ENDBRANCH   3   4
ENDBRANCH   2   3
ENDBRANCH   1   2
BRANCH   1  11
ATOM     11  C   UNL     1     180.601 183.802 199.576  1.00  0.00     0.000 C 
BRANCH  11  12
ATOM     12  C   UNL     1     181.538 185.002 199.366  1.00  0.00     0.000 C 
BRANCH  12  13
ATOM     13  C   UNL     1     181.578 185.945 200.581  1.00  0.00     0.000 C 
BRANCH  13  14
ATOM     14  C   UNL     1     182.974 186.540 200.821  1.00  0.00     0.000 C 
BRANCH  14  15
ATOM     15  C   UNL     1     183.124 187.950 200.231  1.00  0.00     0.000 C 
BRANCH  15  16
ATOM     16  C   UNL     1     184.224 187.984 199.163  1.00  0.00     0.006 C 
BRANCH  16  17
ATOM     17  C   UNL     1     185.063 186.703 199.197  1.00  0.00     0.053 C 
BRANCH  17  18
ATOM     18  C   UNL     1     185.154 186.101 197.830  1.00  0.00     0.041 C 
ATOM     19  O   UNL     1     186.239 185.606 197.426  1.00  0.00    -0.550 OA
ATOM     20  O   UNL     1     184.027 186.042 197.020  1.00  0.00    -0.550 OA
ENDBRANCH  17  18
ENDBRANCH  16  17
ENDBRANCH  15  16
ENDBRANCH  14  15
ENDBRANCH  13  14
ENDBRANCH  12  13
ENDBRANCH  11  12
ENDBRANCH   1  11
TORSDOF 15
ENDMDL
