MODEL 1
REMARK VINA RESULT:    -5.653      0.000      0.000
REMARK INTER + INTRA:          -6.779
REMARK INTER:                  -6.810
REMARK INTRA:                   0.031
REMARK UNBOUND:                 0.031
REMARK SMILES O=c1c(O)c(-c2ccc(O)c(O)c2)oc2cc(O)cc(O)c12
REMARK SMILES IDX 5 1 3 2 2 3 1 4 22 5 20 6 19 7 17 8 16 9 15 10 14 11 6 12
REMARK SMILES IDX 7 13 8 14 9 15 13 16 11 17 10 18 12 20 4 22 21 24 18 26
REMARK H PARENT 10 19 12 21 4 23 21 25 18 27
REMARK Flexibility Score: inf
ROOT
ATOM      1  C   UNL     1     -57.725  17.663 -17.637  1.00  0.00     0.180 A 
ATOM      2  C   UNL     1     -57.759  18.912 -16.995  1.00  0.00     0.208 A 
ATOM      3  C   UNL     1     -56.580  19.416 -16.422  1.00  0.00     0.238 A 
ATOM      4  O   UNL     1     -56.604  20.559 -15.896  1.00  0.00    -0.285 OA
ATOM      5  C   UNL     1     -55.386  18.658 -16.487  1.00  0.00     0.111 A 
ATOM      6  C   UNL     1     -54.143  19.053 -15.907  1.00  0.00     0.134 A 
ATOM      7  C   UNL     1     -52.996  18.287 -16.145  1.00  0.00     0.093 A 
ATOM      8  C   UNL     1     -53.060  17.104 -16.887  1.00  0.00     0.123 A 
ATOM      9  C   UNL     1     -54.280  16.679 -17.406  1.00  0.00     0.094 A 
ATOM     10  C   UNL     1     -55.435  17.442 -17.217  1.00  0.00     0.146 A 
ATOM     11  O   UNL     1     -56.575  17.006 -17.738  1.00  0.00    -0.452 OA
ENDROOT
BRANCH   1  12
ATOM     12  C   UNL     1     -58.933  17.054 -18.242  1.00  0.00     0.025 A 
ATOM     13  C   UNL     1     -58.928  16.584 -19.566  1.00  0.00     0.016 A 
ATOM     14  C   UNL     1     -60.087  16.035 -20.124  1.00  0.00     0.051 A 
ATOM     15  C   UNL     1     -61.266  15.959 -19.373  1.00  0.00     0.157 A 
ATOM     16  C   UNL     1     -60.123  16.995 -17.500  1.00  0.00     0.062 A 
ATOM     17  C   UNL     1     -61.285  16.446 -18.055  1.00  0.00     0.158 A 
BRANCH  15  18
ATOM     18  O   UNL     1     -62.419  15.410 -19.931  1.00  0.00    -0.504 OA
ATOM     19  H   UNL     1     -63.053  14.837 -19.385  1.00  0.00     0.293 HD
ENDBRANCH  15  18
BRANCH  17  20
ATOM     20  O   UNL     1     -62.445  16.392 -17.283  1.00  0.00    -0.504 OA
ATOM     21  H   UNL     1     -62.820  17.210 -16.817  1.00  0.00     0.293 HD
ENDBRANCH  17  20
ENDBRANCH   1  12
BRANCH   2  22
ATOM     22  O   UNL     1     -58.943  19.653 -16.961  1.00  0.00    -0.502 OA
ATOM     23  H   UNL     1     -59.591  19.680 -17.739  1.00  0.00     0.293 HD
ENDBRANCH   2  22
BRANCH   6  24
ATOM     24  O   UNL     1     -53.989  20.165 -15.073  1.00  0.00    -0.507 OA
ATOM     25  H   UNL     1     -54.548  21.003 -15.124  1.00  0.00     0.293 HD
ENDBRANCH   6  24
BRANCH   8  26
ATOM     26  O   UNL     1     -51.916  16.339 -17.105  1.00  0.00    -0.508 OA
ATOM     27  H   UNL     1     -51.169  16.663 -17.708  1.00  0.00     0.293 HD
ENDBRANCH   8  26
TORSDOF 6
ENDMDL
MODEL 2
REMARK VINA RESULT:    -5.400      1.427      2.990
REMARK INTER + INTRA:          -6.474
REMARK INTER:                  -6.181
REMARK INTRA:                  -0.292
REMARK UNBOUND:                 0.031
REMARK SMILES O=c1c(O)c(-c2ccc(O)c(O)c2)oc2cc(O)cc(O)c12
REMARK SMILES IDX 5 1 3 2 2 3 1 4 22 5 20 6 19 7 17 8 16 9 15 10 14 11 6 12
REMARK SMILES IDX 7 13 8 14 9 15 13 16 11 17 10 18 12 20 4 22 21 24 18 26
REMARK H PARENT 10 19 12 21 4 23 21 25 18 27
REMARK Flexibility Score: inf
ROOT
ATOM      1  C   UNL     1     -57.433  18.026 -17.477  1.00  0.00     0.180 A 
ATOM      2  C   UNL     1     -56.294  17.208 -17.567  1.00  0.00     0.208 A 
ATOM      3  C   UNL     1     -55.109  17.618 -16.933  1.00  0.00     0.238 A 
ATOM      4  O   UNL     1     -54.108  16.855 -16.973  1.00  0.00    -0.285 OA
ATOM      5  C   UNL     1     -55.075  18.845 -16.230  1.00  0.00     0.111 A 
ATOM      6  C   UNL     1     -53.918  19.377 -15.585  1.00  0.00     0.134 A 
ATOM      7  C   UNL     1     -54.033  20.536 -14.808  1.00  0.00     0.093 A 
ATOM      8  C   UNL     1     -55.248  21.219 -14.707  1.00  0.00     0.123 A 
ATOM      9  C   UNL     1     -56.368  20.741 -15.382  1.00  0.00     0.094 A 
ATOM     10  C   UNL     1     -56.293  19.566 -16.135  1.00  0.00     0.146 A 
ATOM     11  O   UNL     1     -57.387  19.140 -16.754  1.00  0.00    -0.452 OA
ENDROOT
BRANCH   1  12
ATOM     12  C   UNL     1     -58.711  17.675 -18.139  1.00  0.00     0.025 A 
ATOM     13  C   UNL     1     -58.889  17.850 -19.522  1.00  0.00     0.016 A 
ATOM     14  C   UNL     1     -60.111  17.534 -20.121  1.00  0.00     0.051 A 
ATOM     15  C   UNL     1     -61.175  17.052 -19.348  1.00  0.00     0.157 A 
ATOM     16  C   UNL     1     -59.786  17.210 -17.365  1.00  0.00     0.062 A 
ATOM     17  C   UNL     1     -61.011  16.893 -17.961  1.00  0.00     0.158 A 
BRANCH  15  18
ATOM     18  O   UNL     1     -62.393  16.736 -19.948  1.00  0.00    -0.504 OA
ATOM     19  H   UNL     1     -62.767  15.794 -19.926  1.00  0.00     0.293 HD
ENDBRANCH  15  18
BRANCH  17  20
ATOM     20  O   UNL     1     -62.052  16.422 -17.162  1.00  0.00    -0.504 OA
ATOM     21  H   UNL     1     -62.900  16.032 -17.556  1.00  0.00     0.293 HD
ENDBRANCH  17  20
ENDBRANCH   1  12
BRANCH   2  22
ATOM     22  O   UNL     1     -56.355  15.990 -18.249  1.00  0.00    -0.502 OA
ATOM     23  H   UNL     1     -56.060  15.889 -19.212  1.00  0.00     0.293 HD
ENDBRANCH   2  22
BRANCH   6  24
ATOM     24  O   UNL     1     -52.638  18.825 -15.697  1.00  0.00    -0.507 OA
ATOM     25  H   UNL     1     -52.260  18.418 -16.538  1.00  0.00     0.293 HD
ENDBRANCH   6  24
BRANCH   8  26
ATOM     26  O   UNL     1     -55.350  22.381 -13.945  1.00  0.00    -0.508 OA
ATOM     27  H   UNL     1     -56.095  23.050 -14.096  1.00  0.00     0.293 HD
ENDBRANCH   8  26
TORSDOF 6
ENDMDL
MODEL 3
REMARK VINA RESULT:    -5.333      8.090      9.736
REMARK INTER + INTRA:          -6.393
REMARK INTER:                  -6.221
REMARK INTRA:                  -0.172
REMARK UNBOUND:                 0.031
REMARK SMILES O=c1c(O)c(-c2ccc(O)c(O)c2)oc2cc(O)cc(O)c12
REMARK SMILES IDX 5 1 3 2 2 3 1 4 22 5 20 6 19 7 17 8 16 9 15 10 14 11 6 12
REMARK SMILES IDX 7 13 8 14 9 15 13 16 11 17 10 18 12 20 4 22 21 24 18 26
REMARK H PARENT 10 19 12 21 4 23 21 25 18 27
REMARK Flexibility Score: inf
ROOT
ATOM      1  C   UNL     1     -58.087  24.657 -12.827  1.00  0.00     0.180 A 
ATOM      2  C   UNL     1     -58.741  25.465 -11.881  1.00  0.00     0.208 A 
ATOM      3  C   UNL     1     -59.275  24.866 -10.728  1.00  0.00     0.238 A 
ATOM      4  O   UNL     1     -59.812  25.602  -9.859  1.00  0.00    -0.285 OA
ATOM      5  C   UNL     1     -59.161  23.468 -10.543  1.00  0.00     0.111 A 
ATOM      6  C   UNL     1     -59.700  22.751  -9.433  1.00  0.00     0.134 A 
ATOM      7  C   UNL     1     -59.415  21.388  -9.287  1.00  0.00     0.093 A 
ATOM      8  C   UNL     1     -58.665  20.702 -10.246  1.00  0.00     0.123 A 
ATOM      9  C   UNL     1     -58.186  21.380 -11.364  1.00  0.00     0.094 A 
ATOM     10  C   UNL     1     -58.424  22.748 -11.518  1.00  0.00     0.146 A 
ATOM     11  O   UNL     1     -57.939  23.358 -12.593  1.00  0.00    -0.452 OA
ENDROOT
BRANCH   1  12
ATOM     12  C   UNL     1     -57.521  25.210 -14.079  1.00  0.00     0.025 A 
ATOM     13  C   UNL     1     -56.134  25.237 -14.304  1.00  0.00     0.016 A 
ATOM     14  C   UNL     1     -55.621  25.786 -15.483  1.00  0.00     0.051 A 
ATOM     15  C   UNL     1     -56.482  26.326 -16.446  1.00  0.00     0.157 A 
ATOM     16  C   UNL     1     -58.379  25.771 -15.038  1.00  0.00     0.062 A 
ATOM     17  C   UNL     1     -57.869  26.322 -16.219  1.00  0.00     0.158 A 
BRANCH  15  18
ATOM     18  O   UNL     1     -55.968  26.871 -17.621  1.00  0.00    -0.504 OA
ATOM     19  H   UNL     1     -56.449  26.771 -18.508  1.00  0.00     0.293 HD
ENDBRANCH  15  18
BRANCH  17  20
ATOM     20  O   UNL     1     -58.754  26.857 -17.155  1.00  0.00    -0.504 OA
ATOM     21  H   UNL     1     -58.500  26.979 -18.128  1.00  0.00     0.293 HD
ENDBRANCH  17  20
ENDBRANCH   1  12
BRANCH   2  22
ATOM     22  O   UNL     1     -58.823  26.846 -12.073  1.00  0.00    -0.502 OA
ATOM     23  H   UNL     1     -59.699  27.319 -12.260  1.00  0.00     0.293 HD
ENDBRANCH   2  22
BRANCH   6  24
ATOM     24  O   UNL     1     -60.537  23.320  -8.468  1.00  0.00    -0.507 OA
ATOM     25  H   UNL     1     -60.714  24.308  -8.372  1.00  0.00     0.293 HD
ENDBRANCH   6  24
BRANCH   8  26
ATOM     26  O   UNL     1     -58.400  19.342 -10.101  1.00  0.00    -0.508 OA
ATOM     27  H   UNL     1     -57.606  18.906 -10.555  1.00  0.00     0.293 HD
ENDBRANCH   8  26
TORSDOF 6
ENDMDL
MODEL 4
REMARK VINA RESULT:    -5.272      5.928      9.359
REMARK INTER + INTRA:          -6.319
REMARK INTER:                  -6.019
REMARK INTRA:                  -0.300
REMARK UNBOUND:                 0.031
REMARK SMILES O=c1c(O)c(-c2ccc(O)c(O)c2)oc2cc(O)cc(O)c12
REMARK SMILES IDX 5 1 3 2 2 3 1 4 22 5 20 6 19 7 17 8 16 9 15 10 14 11 6 12
REMARK SMILES IDX 7 13 8 14 9 15 13 16 11 17 10 18 12 20 4 22 21 24 18 26
REMARK H PARENT 10 19 12 21 4 23 21 25 18 27
REMARK Flexibility Score: inf
ROOT
ATOM      1  C   UNL     1     -56.551  24.033 -14.319  1.00  0.00     0.180 A 
ATOM      2  C   UNL     1     -57.443  24.174 -13.242  1.00  0.00     0.208 A 
ATOM      3  C   UNL     1     -58.405  25.196 -13.285  1.00  0.00     0.238 A 
ATOM      4  O   UNL     1     -59.235  25.284 -12.343  1.00  0.00    -0.285 OA
ATOM      5  C   UNL     1     -58.454  26.071 -14.396  1.00  0.00     0.111 A 
ATOM      6  C   UNL     1     -59.361  27.166 -14.526  1.00  0.00     0.134 A 
ATOM      7  C   UNL     1     -59.408  27.885 -15.726  1.00  0.00     0.093 A 
ATOM      8  C   UNL     1     -58.534  27.592 -16.776  1.00  0.00     0.123 A 
ATOM      9  C   UNL     1     -57.605  26.565 -16.636  1.00  0.00     0.094 A 
ATOM     10  C   UNL     1     -57.560  25.805 -15.464  1.00  0.00     0.146 A 
ATOM     11  O   UNL     1     -56.665  24.828 -15.377  1.00  0.00    -0.452 OA
ENDROOT
BRANCH   1  12
ATOM     12  C   UNL     1     -55.493  22.996 -14.336  1.00  0.00     0.025 A 
ATOM     13  C   UNL     1     -54.160  23.308 -14.018  1.00  0.00     0.016 A 
ATOM     14  C   UNL     1     -53.174  22.318 -14.064  1.00  0.00     0.051 A 
ATOM     15  C   UNL     1     -53.501  21.009 -14.438  1.00  0.00     0.157 A 
ATOM     16  C   UNL     1     -55.813  21.687 -14.730  1.00  0.00     0.062 A 
ATOM     17  C   UNL     1     -54.828  20.694 -14.777  1.00  0.00     0.158 A 
BRANCH  15  18
ATOM     18  O   UNL     1     -52.516  20.024 -14.481  1.00  0.00    -0.504 OA
ATOM     19  H   UNL     1     -51.561  20.216 -14.202  1.00  0.00     0.293 HD
ENDBRANCH  15  18
BRANCH  17  20
ATOM     20  O   UNL     1     -55.187  19.402 -15.161  1.00  0.00    -0.504 OA
ATOM     21  H   UNL     1     -56.124  19.173 -15.471  1.00  0.00     0.293 HD
ENDBRANCH  17  20
ENDBRANCH   1  12
BRANCH   2  22
ATOM     22  O   UNL     1     -57.391  23.286 -12.165  1.00  0.00    -0.502 OA
ATOM     23  H   UNL     1     -56.553  22.771 -11.924  1.00  0.00     0.293 HD
ENDBRANCH   2  22
BRANCH   6  24
ATOM     24  O   UNL     1     -60.211  27.601 -13.504  1.00  0.00    -0.507 OA
ATOM     25  H   UNL     1     -61.213  27.686 -13.588  1.00  0.00     0.293 HD
ENDBRANCH   6  24
BRANCH   8  26
ATOM     26  O   UNL     1     -58.576  28.323 -17.961  1.00  0.00    -0.508 OA
ATOM     27  H   UNL     1     -58.440  29.327 -17.970  1.00  0.00     0.293 HD
ENDBRANCH   8  26
TORSDOF 6
ENDMDL
MODEL 5
REMARK VINA RESULT:    -5.178      7.520      8.924
REMARK INTER + INTRA:          -6.207
REMARK INTER:                  -5.932
REMARK INTRA:                  -0.275
REMARK UNBOUND:                 0.031
REMARK SMILES O=c1c(O)c(-c2ccc(O)c(O)c2)oc2cc(O)cc(O)c12
REMARK SMILES IDX 5 1 3 2 2 3 1 4 22 5 20 6 19 7 17 8 16 9 15 10 14 11 6 12
REMARK SMILES IDX 7 13 8 14 9 15 13 16 11 17 10 18 12 20 4 22 21 24 18 26
REMARK H PARENT 10 19 12 21 4 23 21 25 18 27
REMARK Flexibility Score: inf
ROOT
ATOM      1  C   UNL     1     -53.612  14.134 -11.910  1.00  0.00     0.180 A 
ATOM      2  C   UNL     1     -53.945  12.990 -12.655  1.00  0.00     0.208 A 
ATOM      3  C   UNL     1     -52.959  12.386 -13.453  1.00  0.00     0.238 A 
ATOM      4  O   UNL     1     -53.249  11.331 -14.076  1.00  0.00    -0.285 OA
ATOM      5  C   UNL     1     -51.659  12.942 -13.506  1.00  0.00     0.111 A 
ATOM      6  C   UNL     1     -50.594  12.436 -14.311  1.00  0.00     0.134 A 
ATOM      7  C   UNL     1     -49.312  12.986 -14.186  1.00  0.00     0.093 A 
ATOM      8  C   UNL     1     -49.072  14.067 -13.333  1.00  0.00     0.123 A 
ATOM      9  C   UNL     1     -50.118  14.606 -12.589  1.00  0.00     0.094 A 
ATOM     10  C   UNL     1     -51.400  14.054 -12.665  1.00  0.00     0.146 A 
ATOM     11  O   UNL     1     -52.365  14.592 -11.929  1.00  0.00    -0.452 OA
ENDROOT
BRANCH   1  12
ATOM     12  C   UNL     1     -54.603  14.841 -11.065  1.00  0.00     0.025 A 
ATOM     13  C   UNL     1     -55.610  15.639 -11.634  1.00  0.00     0.016 A 
ATOM     14  C   UNL     1     -56.519  16.316 -10.817  1.00  0.00     0.051 A 
ATOM     15  C   UNL     1     -56.429  16.216  -9.423  1.00  0.00     0.157 A 
ATOM     16  C   UNL     1     -54.503  14.760  -9.667  1.00  0.00     0.062 A 
ATOM     17  C   UNL     1     -55.412  15.437  -8.846  1.00  0.00     0.158 A 
BRANCH  15  18
ATOM     18  O   UNL     1     -57.338  16.892  -8.611  1.00  0.00    -0.504 OA
ATOM     19  H   UNL     1     -58.093  16.405  -8.140  1.00  0.00     0.293 HD
ENDBRANCH  15  18
BRANCH  17  20
ATOM     20  O   UNL     1     -55.290  15.322  -7.461  1.00  0.00    -0.504 OA
ATOM     21  H   UNL     1     -55.182  16.131  -6.861  1.00  0.00     0.293 HD
ENDBRANCH  17  20
ENDBRANCH   1  12
BRANCH   2  22
ATOM     22  O   UNL     1     -55.229  12.445 -12.572  1.00  0.00    -0.502 OA
ATOM     23  H   UNL     1     -56.049  13.011 -12.390  1.00  0.00     0.293 HD
ENDBRANCH   2  22
BRANCH   6  24
ATOM     24  O   UNL     1     -50.747  11.422 -15.262  1.00  0.00    -0.507 OA
ATOM     25  H   UNL     1     -51.456  11.410 -15.979  1.00  0.00     0.293 HD
ENDBRANCH   6  24
BRANCH   8  26
ATOM     26  O   UNL     1     -47.797  14.618 -13.226  1.00  0.00    -0.508 OA
ATOM     27  H   UNL     1     -47.657  15.572 -12.915  1.00  0.00     0.293 HD
ENDBRANCH   8  26
TORSDOF 6
ENDMDL
MODEL 6
REMARK VINA RESULT:    -5.109      9.388     11.158
REMARK INTER + INTRA:          -6.123
REMARK INTER:                  -6.647
REMARK INTRA:                   0.524
REMARK UNBOUND:                 0.031
REMARK SMILES O=c1c(O)c(-c2ccc(O)c(O)c2)oc2cc(O)cc(O)c12
REMARK SMILES IDX 5 1 3 2 2 3 1 4 22 5 20 6 19 7 17 8 16 9 15 10 14 11 6 12
REMARK SMILES IDX 7 13 8 14 9 15 13 16 11 17 10 18 12 20 4 22 21 24 18 26
REMARK H PARENT 10 19 12 21 4 23 21 25 18 27
REMARK Flexibility Score: inf
ROOT
ATOM      1  C   UNL     1     -59.413  26.178 -13.341  1.00  0.00     0.180 A 
ATOM      2  C   UNL     1     -60.569  26.960 -13.175  1.00  0.00     0.208 A 
ATOM      3  C   UNL     1     -61.396  26.723 -12.065  1.00  0.00     0.238 A 
ATOM      4  O   UNL     1     -62.401  27.462 -11.893  1.00  0.00    -0.285 OA
ATOM      5  C   UNL     1     -61.065  25.700 -11.145  1.00  0.00     0.111 A 
ATOM      6  C   UNL     1     -61.853  25.347 -10.008  1.00  0.00     0.134 A 
ATOM      7  C   UNL     1     -61.363  24.407  -9.094  1.00  0.00     0.093 A 
ATOM      8  C   UNL     1     -60.144  23.758  -9.311  1.00  0.00     0.123 A 
ATOM      9  C   UNL     1     -59.398  24.052 -10.448  1.00  0.00     0.094 A 
ATOM     10  C   UNL     1     -59.843  25.013 -11.359  1.00  0.00     0.146 A 
ATOM     11  O   UNL     1     -59.095  25.270 -12.426  1.00  0.00    -0.452 OA
ENDROOT
BRANCH   1  12
ATOM     12  C   UNL     1     -58.504  26.351 -14.499  1.00  0.00     0.025 A 
ATOM     13  C   UNL     1     -57.243  25.732 -14.536  1.00  0.00     0.016 A 
ATOM     14  C   UNL     1     -56.393  25.928 -15.628  1.00  0.00     0.051 A 
ATOM     15  C   UNL     1     -56.783  26.754 -16.689  1.00  0.00     0.157 A 
ATOM     16  C   UNL     1     -58.883  27.194 -15.556  1.00  0.00     0.062 A 
ATOM     17  C   UNL     1     -58.034  27.393 -16.650  1.00  0.00     0.158 A 
BRANCH  15  18
ATOM     18  O   UNL     1     -55.934  26.947 -17.778  1.00  0.00    -0.504 OA
ATOM     19  H   UNL     1     -56.067  27.715 -18.425  1.00  0.00     0.293 HD
ENDBRANCH  15  18
BRANCH  17  20
ATOM     20  O   UNL     1     -58.450  28.227 -17.688  1.00  0.00    -0.504 OA
ATOM     21  H   UNL     1     -58.220  28.037 -18.656  1.00  0.00     0.293 HD
ENDBRANCH  17  20
ENDBRANCH   1  12
BRANCH   2  22
ATOM     22  O   UNL     1     -60.865  27.979 -14.083  1.00  0.00    -0.502 OA
ATOM     23  H   UNL     1     -61.795  28.370 -14.179  1.00  0.00     0.293 HD
ENDBRANCH   2  22
BRANCH   6  24
ATOM     24  O   UNL     1     -63.125  25.866  -9.748  1.00  0.00    -0.507 OA
ATOM     25  H   UNL     1     -63.665  26.417 -10.398  1.00  0.00     0.293 HD
ENDBRANCH   6  24
BRANCH   8  26
ATOM     26  O   UNL     1     -59.672  22.812  -8.404  1.00  0.00    -0.508 OA
ATOM     27  H   UNL     1     -59.456  21.864  -8.691  1.00  0.00     0.293 HD
ENDBRANCH   8  26
TORSDOF 6
ENDMDL
MODEL 7
REMARK VINA RESULT:    -5.063      6.253      9.785
REMARK INTER + INTRA:          -6.068
REMARK INTER:                  -5.745
REMARK INTRA:                  -0.323
REMARK UNBOUND:                 0.031
REMARK SMILES O=c1c(O)c(-c2ccc(O)c(O)c2)oc2cc(O)cc(O)c12
REMARK SMILES IDX 5 1 3 2 2 3 1 4 22 5 20 6 19 7 17 8 16 9 15 10 14 11 6 12
REMARK SMILES IDX 7 13 8 14 9 15 13 16 11 17 10 18 12 20 4 22 21 24 18 26
REMARK H PARENT 10 19 12 21 4 23 21 25 18 27
REMARK Flexibility Score: inf
ROOT
ATOM      1  C   UNL     1     -56.334  24.573 -14.738  1.00  0.00     0.180 A 
ATOM      2  C   UNL     1     -55.858  25.408 -15.764  1.00  0.00     0.208 A 
ATOM      3  C   UNL     1     -56.660  26.476 -16.200  1.00  0.00     0.238 A 
ATOM      4  O   UNL     1     -56.206  27.252 -17.080  1.00  0.00    -0.285 OA
ATOM      5  C   UNL     1     -57.932  26.686 -15.615  1.00  0.00     0.111 A 
ATOM      6  C   UNL     1     -58.844  27.711 -16.007  1.00  0.00     0.134 A 
ATOM      7  C   UNL     1     -60.019  27.908 -15.272  1.00  0.00     0.093 A 
ATOM      8  C   UNL     1     -60.347  27.073 -14.200  1.00  0.00     0.123 A 
ATOM      9  C   UNL     1     -59.492  26.031 -13.849  1.00  0.00     0.094 A 
ATOM     10  C   UNL     1     -58.294  25.834 -14.540  1.00  0.00     0.146 A 
ATOM     11  O   UNL     1     -57.503  24.836 -14.165  1.00  0.00    -0.452 OA
ENDROOT
BRANCH   1  12
ATOM     12  C   UNL     1     -55.558  23.413 -14.243  1.00  0.00     0.025 A 
ATOM     13  C   UNL     1     -54.613  23.553 -13.211  1.00  0.00     0.016 A 
ATOM     14  C   UNL     1     -53.875  22.448 -12.776  1.00  0.00     0.051 A 
ATOM     15  C   UNL     1     -54.061  21.195 -13.371  1.00  0.00     0.157 A 
ATOM     16  C   UNL     1     -55.726  22.158 -14.850  1.00  0.00     0.062 A 
ATOM     17  C   UNL     1     -54.988  21.051 -14.417  1.00  0.00     0.158 A 
BRANCH  15  18
ATOM     18  O   UNL     1     -53.324  20.094 -12.934  1.00  0.00    -0.504 OA
ATOM     19  H   UNL     1     -52.743  19.559 -13.569  1.00  0.00     0.293 HD
ENDBRANCH  15  18
BRANCH  17  20
ATOM     20  O   UNL     1     -55.192  19.817 -15.035  1.00  0.00    -0.504 OA
ATOM     21  H   UNL     1     -55.599  19.740 -15.960  1.00  0.00     0.293 HD
ENDBRANCH  17  20
ENDBRANCH   1  12
BRANCH   2  22
ATOM     22  O   UNL     1     -54.590  25.197 -16.312  1.00  0.00    -0.502 OA
ATOM     23  H   UNL     1     -53.741  25.269 -15.764  1.00  0.00     0.293 HD
ENDBRANCH   2  22
BRANCH   6  24
ATOM     24  O   UNL     1     -58.657  28.540 -17.118  1.00  0.00    -0.507 OA
ATOM     25  H   UNL     1     -59.157  28.453 -17.990  1.00  0.00     0.293 HD
ENDBRANCH   6  24
BRANCH   8  26
ATOM     26  O   UNL     1     -61.527  27.265 -13.484  1.00  0.00    -0.508 OA
ATOM     27  H   UNL     1     -61.516  27.565 -12.517  1.00  0.00     0.293 HD
ENDBRANCH   8  26
TORSDOF 6
ENDMDL
MODEL 8
REMARK VINA RESULT:    -5.048      7.980      9.237
REMARK INTER + INTRA:          -6.049
REMARK INTER:                  -6.174
REMARK INTRA:                   0.125
REMARK UNBOUND:                 0.031
REMARK SMILES O=c1c(O)c(-c2ccc(O)c(O)c2)oc2cc(O)cc(O)c12
REMARK SMILES IDX 5 1 3 2 2 3 1 4 22 5 20 6 19 7 17 8 16 9 15 10 14 11 6 12
REMARK SMILES IDX 7 13 8 14 9 15 13 16 11 17 10 18 12 20 4 22 21 24 18 26
REMARK H PARENT 10 19 12 21 4 23 21 25 18 27
REMARK Flexibility Score: inf
ROOT
ATOM      1  C   UNL     1     -56.788  24.577 -13.400  1.00  0.00     0.180 A 
ATOM      2  C   UNL     1     -55.513  24.687 -12.818  1.00  0.00     0.208 A 
ATOM      3  C   UNL     1     -55.163  23.814 -11.775  1.00  0.00     0.238 A 
ATOM      4  O   UNL     1     -54.001  23.882 -11.295  1.00  0.00    -0.285 OA
ATOM      5  C   UNL     1     -56.096  22.852 -11.319  1.00  0.00     0.111 A 
ATOM      6  C   UNL     1     -55.862  21.944 -10.243  1.00  0.00     0.134 A 
ATOM      7  C   UNL     1     -56.806  20.948  -9.962  1.00  0.00     0.093 A 
ATOM      8  C   UNL     1     -58.005  20.871 -10.676  1.00  0.00     0.123 A 
ATOM      9  C   UNL     1     -58.268  21.790 -11.688  1.00  0.00     0.094 A 
ATOM     10  C   UNL     1     -57.329  22.772 -12.015  1.00  0.00     0.146 A 
ATOM     11  O   UNL     1     -57.616  23.622 -12.994  1.00  0.00    -0.452 OA
ENDROOT
BRANCH   1  12
ATOM     12  C   UNL     1     -57.239  25.478 -14.486  1.00  0.00     0.025 A 
ATOM     13  C   UNL     1     -58.536  26.021 -14.493  1.00  0.00     0.016 A 
ATOM     14  C   UNL     1     -58.948  26.849 -15.541  1.00  0.00     0.051 A 
ATOM     15  C   UNL     1     -58.078  27.137 -16.600  1.00  0.00     0.157 A 
ATOM     16  C   UNL     1     -56.377  25.753 -15.560  1.00  0.00     0.062 A 
ATOM     17  C   UNL     1     -56.787  26.581 -16.610  1.00  0.00     0.158 A 
BRANCH  15  18
ATOM     18  O   UNL     1     -58.491  27.965 -17.642  1.00  0.00    -0.504 OA
ATOM     19  H   UNL     1     -59.455  27.984 -17.955  1.00  0.00     0.293 HD
ENDBRANCH  15  18
BRANCH  17  20
ATOM     20  O   UNL     1     -55.898  26.842 -17.653  1.00  0.00    -0.504 OA
ATOM     21  H   UNL     1     -55.969  26.377 -18.550  1.00  0.00     0.293 HD
ENDBRANCH  17  20
ENDBRANCH   1  12
BRANCH   2  22
ATOM     22  O   UNL     1     -54.600  25.629 -13.298  1.00  0.00    -0.502 OA
ATOM     23  H   UNL     1     -53.792  25.371 -13.852  1.00  0.00     0.293 HD
ENDBRANCH   2  22
BRANCH   6  24
ATOM     24  O   UNL     1     -54.741  21.994  -9.408  1.00  0.00    -0.507 OA
ATOM     25  H   UNL     1     -54.478  22.790  -8.847  1.00  0.00     0.293 HD
ENDBRANCH   6  24
BRANCH   8  26
ATOM     26  O   UNL     1     -58.946  19.887 -10.380  1.00  0.00    -0.508 OA
ATOM     27  H   UNL     1     -59.358  19.809  -9.458  1.00  0.00     0.293 HD
ENDBRANCH   8  26
TORSDOF 6
ENDMDL
MODEL 9
REMARK VINA RESULT:    -5.007      8.435     10.624
REMARK INTER + INTRA:          -6.000
REMARK INTER:                  -5.677
REMARK INTRA:                  -0.322
REMARK UNBOUND:                 0.031
REMARK SMILES O=c1c(O)c(-c2ccc(O)c(O)c2)oc2cc(O)cc(O)c12
REMARK SMILES IDX 5 1 3 2 2 3 1 4 22 5 20 6 19 7 17 8 16 9 15 10 14 11 6 12
REMARK SMILES IDX 7 13 8 14 9 15 13 16 11 17 10 18 12 20 4 22 21 24 18 26
REMARK H PARENT 10 19 12 21 4 23 21 25 18 27
REMARK Flexibility Score: inf
ROOT
ATOM      1  C   UNL     1     -58.998  27.017 -13.664  1.00  0.00     0.180 A 
ATOM      2  C   UNL     1     -59.143  27.677 -14.896  1.00  0.00     0.208 A 
ATOM      3  C   UNL     1     -58.212  27.425 -15.917  1.00  0.00     0.238 A 
ATOM      4  O   UNL     1     -58.379  27.978 -17.036  1.00  0.00    -0.285 OA
ATOM      5  C   UNL     1     -57.141  26.529 -15.689  1.00  0.00     0.111 A 
ATOM      6  C   UNL     1     -56.119  26.230 -16.638  1.00  0.00     0.134 A 
ATOM      7  C   UNL     1     -55.182  25.230 -16.353  1.00  0.00     0.093 A 
ATOM      8  C   UNL     1     -55.191  24.564 -15.124  1.00  0.00     0.123 A 
ATOM      9  C   UNL     1     -56.149  24.891 -14.168  1.00  0.00     0.094 A 
ATOM     10  C   UNL     1     -57.119  25.859 -14.439  1.00  0.00     0.146 A 
ATOM     11  O   UNL     1     -58.020  26.132 -13.503  1.00  0.00    -0.452 OA
ENDROOT
BRANCH   1  12
ATOM     12  C   UNL     1     -59.923  27.249 -12.531  1.00  0.00     0.025 A 
ATOM     13  C   UNL     1     -59.630  28.191 -11.529  1.00  0.00     0.016 A 
ATOM     14  C   UNL     1     -60.507  28.376 -10.457  1.00  0.00     0.051 A 
ATOM     15  C   UNL     1     -61.679  27.616 -10.362  1.00  0.00     0.157 A 
ATOM     16  C   UNL     1     -61.090  26.475 -12.420  1.00  0.00     0.062 A 
ATOM     17  C   UNL     1     -61.969  26.658 -11.348  1.00  0.00     0.158 A 
BRANCH  15  18
ATOM     18  O   UNL     1     -62.553  27.804  -9.292  1.00  0.00    -0.504 OA
ATOM     19  H   UNL     1     -62.508  27.223  -8.462  1.00  0.00     0.293 HD
ENDBRANCH  15  18
BRANCH  17  20
ATOM     20  O   UNL     1     -63.125  25.880 -11.279  1.00  0.00    -0.504 OA
ATOM     21  H   UNL     1     -63.213  25.102 -10.636  1.00  0.00     0.293 HD
ENDBRANCH  17  20
ENDBRANCH   1  12
BRANCH   2  22
ATOM     22  O   UNL     1     -60.220  28.542 -15.107  1.00  0.00    -0.502 OA
ATOM     23  H   UNL     1     -60.634  28.682 -16.021  1.00  0.00     0.293 HD
ENDBRANCH   2  22
BRANCH   6  24
ATOM     24  O   UNL     1     -55.963  26.901 -17.856  1.00  0.00    -0.507 OA
ATOM     25  H   UNL     1     -56.723  27.204 -18.446  1.00  0.00     0.293 HD
ENDBRANCH   6  24
BRANCH   8  26
ATOM     26  O   UNL     1     -54.246  23.580 -14.841  1.00  0.00    -0.508 OA
ATOM     27  H   UNL     1     -53.583  23.266 -15.540  1.00  0.00     0.293 HD
ENDBRANCH   8  26
TORSDOF 6
ENDMDL
