MODEL 1
REMARK VINA RESULT:    -4.490      0.000      0.000
REMARK INTER + INTRA:          -8.437
REMARK INTER:                  -7.641
REMARK INTRA:                  -0.796
REMARK UNBOUND:                -0.796
REMARK SMILES CCCCCCCCCCCCCC(=O)[O-]
REMARK SMILES IDX 8 1 9 2 10 3 11 4 12 5 13 6 14 7 15 8 16 9 7 10 6 11 5 12
REMARK SMILES IDX 4 13 3 14 2 15 1 16
REMARK H PARENT
REMARK Flexibility Score: inf
ROOT
ATOM      1  C   UNL     1      33.618  32.965  24.489  1.00  0.00     0.000 C 
ENDROOT
BRANCH   1   2
ATOM      2  C   UNL     1      33.794  32.181  23.177  1.00  0.00     0.000 C 
BRANCH   2   3
ATOM      3  C   UNL     1      34.580  30.874  23.367  1.00  0.00     0.000 C 
BRANCH   3   4
ATOM      4  C   UNL     1      34.262  29.829  22.288  1.00  0.00     0.000 C 
BRANCH   4   5
ATOM      5  C   UNL     1      32.806  29.954  21.816  1.00  0.00     0.006 C 
BRANCH   5   6
ATOM      6  C   UNL     1      32.413  28.835  20.841  1.00  0.00     0.053 C 
BRANCH   6   7
ATOM      7  C   UNL     1      33.090  28.989  19.514  1.00  0.00     0.041 C 
ATOM      8  O   UNL     1      32.869  30.006  18.805  1.00  0.00    -0.550 OA
ATOM      9  O   UNL     1      33.993  28.029  19.077  1.00  0.00    -0.550 OA
ENDBRANCH   6   7
ENDBRANCH   5   6
ENDBRANCH   4   5
ENDBRANCH   3   4
ENDBRANCH   2   3
ENDBRANCH   1   2
BRANCH   1  10
ATOM     10  C   UNL     1      34.468  32.376  25.636  1.00  0.00     0.000 C 
BRANCH  10  11
ATOM     11  C   UNL     1      35.380  33.409  26.329  1.00  0.00    -0.000 C 
BRANCH  11  12
ATOM     12  C   UNL     1      34.906  34.873  26.230  1.00  0.00    -0.000 C 
BRANCH  12  13
ATOM     13  C   UNL     1      35.788  35.875  27.000  1.00  0.00    -0.000 C 
BRANCH  13  14
ATOM     14  C   UNL     1      37.061  35.236  27.600  1.00  0.00    -0.000 C 
BRANCH  14  15
ATOM     15  C   UNL     1      37.137  35.345  29.131  1.00  0.00    -0.003 C 
ATOM     16  C   UNL     1      35.957  36.108  29.730  1.00  0.00     0.004 C 
ENDBRANCH  14  15
ENDBRANCH  13  14
ENDBRANCH  12  13
ENDBRANCH  11  12
ENDBRANCH  10  11
ENDBRANCH   1  10
TORSDOF 12
ENDMDL
MODEL 2
REMARK VINA RESULT:    -4.396      4.377      8.495
REMARK INTER + INTRA:          -8.275
REMARK INTER:                  -7.100
REMARK INTRA:                  -1.175
REMARK UNBOUND:                -0.796
REMARK SMILES CCCCCCCCCCCCCC(=O)[O-]
REMARK SMILES IDX 8 1 9 2 10 3 11 4 12 5 13 6 14 7 15 8 16 9 7 10 6 11 5 12
REMARK SMILES IDX 4 13 3 14 2 15 1 16
REMARK H PARENT
REMARK Flexibility Score: inf
ROOT
ATOM      1  C   UNL     1      34.482  33.191  23.351  1.00  0.00     0.000 C 
ENDROOT
BRANCH   1   2
ATOM      2  C   UNL     1      33.464  32.825  24.445  1.00  0.00     0.000 C 
BRANCH   2   3
ATOM      3  C   UNL     1      34.134  32.450  25.776  1.00  0.00     0.000 C 
BRANCH   3   4
ATOM      4  C   UNL     1      35.665  32.390  25.673  1.00  0.00     0.000 C 
BRANCH   4   5
ATOM      5  C   UNL     1      36.321  33.298  26.724  1.00  0.00     0.006 C 
BRANCH   5   6
ATOM      6  C   UNL     1      35.630  34.665  26.825  1.00  0.00     0.053 C 
BRANCH   6   7
ATOM      7  C   UNL     1      35.969  35.367  28.104  1.00  0.00     0.041 C 
ATOM      8  O   UNL     1      35.233  36.296  28.530  1.00  0.00    -0.550 OA
ATOM      9  O   UNL     1      37.077  34.973  28.843  1.00  0.00    -0.550 OA
ENDBRANCH   6   7
ENDBRANCH   5   6
ENDBRANCH   4   5
ENDBRANCH   3   4
ENDBRANCH   2   3
ENDBRANCH   1   2
BRANCH   1  10
ATOM     10  C   UNL     1      34.383  32.256  22.127  1.00  0.00     0.000 C 
BRANCH  10  11
ATOM     11  C   UNL     1      34.973  30.852  22.366  1.00  0.00    -0.000 C 
BRANCH  11  12
ATOM     12  C   UNL     1      33.935  29.734  22.590  1.00  0.00    -0.000 C 
BRANCH  12  13
ATOM     13  C   UNL     1      32.655  29.883  21.744  1.00  0.00    -0.000 C 
BRANCH  13  14
ATOM     14  C   UNL     1      32.406  28.688  20.794  1.00  0.00    -0.000 C 
BRANCH  14  15
ATOM     15  C   UNL     1      33.184  28.785  19.472  1.00  0.00    -0.003 C 
ATOM     16  C   UNL     1      32.902  30.080  18.712  1.00  0.00     0.004 C 
ENDBRANCH  14  15
ENDBRANCH  13  14
ENDBRANCH  12  13
ENDBRANCH  11  12
ENDBRANCH  10  11
ENDBRANCH   1  10
TORSDOF 12
ENDMDL
MODEL 3
REMARK VINA RESULT:    -4.386      1.887      3.284
REMARK INTER + INTRA:          -8.259
REMARK INTER:                  -6.296
REMARK INTRA:                  -1.963
REMARK UNBOUND:                -0.796
REMARK SMILES CCCCCCCCCCCCCC(=O)[O-]
REMARK SMILES IDX 8 1 9 2 10 3 11 4 12 5 13 6 14 7 15 8 16 9 7 10 6 11 5 12
REMARK SMILES IDX 4 13 3 14 2 15 1 16
REMARK H PARENT
REMARK Flexibility Score: inf
ROOT
ATOM      1  C   UNL     1      35.983  35.312  24.043  1.00  0.00     0.000 C 
ENDROOT
BRANCH   1   2
ATOM      2  C   UNL     1      35.253  34.046  23.561  1.00  0.00     0.000 C 
BRANCH   2   3
ATOM      3  C   UNL     1      34.248  33.512  24.594  1.00  0.00     0.000 C 
BRANCH   3   4
ATOM      4  C   UNL     1      34.505  32.044  24.967  1.00  0.00     0.000 C 
BRANCH   4   5
ATOM      5  C   UNL     1      35.207  31.302  23.820  1.00  0.00     0.006 C 
BRANCH   5   6
ATOM      6  C   UNL     1      34.268  30.324  23.100  1.00  0.00     0.053 C 
BRANCH   6   7
ATOM      7  C   UNL     1      33.551  30.978  21.960  1.00  0.00     0.041 C 
ATOM      8  O   UNL     1      32.443  31.545  22.151  1.00  0.00    -0.550 OA
ATOM      9  O   UNL     1      34.122  30.993  20.694  1.00  0.00    -0.550 OA
ENDBRANCH   6   7
ENDBRANCH   5   6
ENDBRANCH   4   5
ENDBRANCH   3   4
ENDBRANCH   2   3
ENDBRANCH   1   2
BRANCH   1  10
ATOM     10  C   UNL     1      35.061  36.237  24.865  1.00  0.00     0.000 C 
BRANCH  10  11
ATOM     11  C   UNL     1      35.650  36.653  26.227  1.00  0.00    -0.000 C 
BRANCH  11  12
ATOM     12  C   UNL     1      35.223  35.775  27.421  1.00  0.00    -0.000 C 
BRANCH  12  13
ATOM     13  C   UNL     1      36.389  35.051  28.121  1.00  0.00    -0.000 C 
BRANCH  13  14
ATOM     14  C   UNL     1      36.692  33.657  27.525  1.00  0.00    -0.000 C 
BRANCH  14  15
ATOM     15  C   UNL     1      37.984  33.615  26.694  1.00  0.00    -0.003 C 
ATOM     16  C   UNL     1      38.133  32.320  25.897  1.00  0.00     0.004 C 
ENDBRANCH  14  15
ENDBRANCH  13  14
ENDBRANCH  12  13
ENDBRANCH  11  12
ENDBRANCH  10  11
ENDBRANCH   1  10
TORSDOF 12
ENDMDL
MODEL 4
REMARK VINA RESULT:    -4.371      1.391      2.208
REMARK INTER + INTRA:          -8.233
REMARK INTER:                  -7.550
REMARK INTRA:                  -0.683
REMARK UNBOUND:                -0.796
REMARK SMILES CCCCCCCCCCCCCC(=O)[O-]
REMARK SMILES IDX 8 1 9 2 10 3 11 4 12 5 13 6 14 7 15 8 16 9 7 10 6 11 5 12
REMARK SMILES IDX 4 13 3 14 2 15 1 16
REMARK H PARENT
REMARK Flexibility Score: inf
ROOT
ATOM      1  C   UNL     1      35.504  33.411  25.629  1.00  0.00     0.000 C 
ENDROOT
BRANCH   1   2
ATOM      2  C   UNL     1      34.458  32.284  25.551  1.00  0.00     0.000 C 
BRANCH   2   3
ATOM      3  C   UNL     1      34.371  31.652  24.153  1.00  0.00     0.000 C 
BRANCH   3   4
ATOM      4  C   UNL     1      33.556  32.503  23.168  1.00  0.00     0.000 C 
BRANCH   4   5
ATOM      5  C   UNL     1      32.878  31.619  22.110  1.00  0.00     0.006 C 
BRANCH   5   6
ATOM      6  C   UNL     1      33.316  30.152  22.211  1.00  0.00     0.053 C 
BRANCH   6   7
ATOM      7  C   UNL     1      33.703  29.593  20.877  1.00  0.00     0.041 C 
ATOM      8  O   UNL     1      34.772  29.962  20.322  1.00  0.00    -0.550 OA
ATOM      9  O   UNL     1      32.903  28.639  20.263  1.00  0.00    -0.550 OA
ENDBRANCH   6   7
ENDBRANCH   5   6
ENDBRANCH   4   5
ENDBRANCH   3   4
ENDBRANCH   2   3
ENDBRANCH   1   2
BRANCH   1  10
ATOM     10  C   UNL     1      36.565  33.145  26.718  1.00  0.00     0.000 C 
BRANCH  10  11
ATOM     11  C   UNL     1      36.623  34.232  27.809  1.00  0.00    -0.000 C 
BRANCH  11  12
ATOM     12  C   UNL     1      35.893  35.546  27.466  1.00  0.00    -0.000 C 
BRANCH  12  13
ATOM     13  C   UNL     1      35.272  36.259  28.683  1.00  0.00    -0.000 C 
BRANCH  13  14
ATOM     14  C   UNL     1      36.311  36.652  29.758  1.00  0.00    -0.000 C 
BRANCH  14  15
ATOM     15  C   UNL     1      37.388  37.620  29.244  1.00  0.00    -0.003 C 
ATOM     16  C   UNL     1      38.803  37.064  29.389  1.00  0.00     0.004 C 
ENDBRANCH  14  15
ENDBRANCH  13  14
ENDBRANCH  12  13
ENDBRANCH  11  12
ENDBRANCH  10  11
ENDBRANCH   1  10
TORSDOF 12
ENDMDL
MODEL 5
REMARK VINA RESULT:    -4.363      5.322      9.201
REMARK INTER + INTRA:          -8.220
REMARK INTER:                  -7.053
REMARK INTRA:                  -1.166
REMARK UNBOUND:                -0.796
REMARK SMILES CCCCCCCCCCCCCC(=O)[O-]
REMARK SMILES IDX 8 1 9 2 10 3 11 4 12 5 13 6 14 7 15 8 16 9 7 10 6 11 5 12
REMARK SMILES IDX 4 13 3 14 2 15 1 16
REMARK H PARENT
REMARK Flexibility Score: inf
ROOT
ATOM      1  C   UNL     1      36.080  35.233  26.091  1.00  0.00     0.000 C 
ENDROOT
BRANCH   1   2
ATOM      2  C   UNL     1      36.857  34.293  27.029  1.00  0.00     0.000 C 
BRANCH   2   3
ATOM      3  C   UNL     1      36.631  34.617  28.514  1.00  0.00     0.000 C 
BRANCH   3   4
ATOM      4  C   UNL     1      35.747  35.856  28.722  1.00  0.00     0.000 C 
BRANCH   4   5
ATOM      5  C   UNL     1      36.374  36.811  29.748  1.00  0.00     0.006 C 
BRANCH   5   6
ATOM      6  C   UNL     1      37.066  38.008  29.081  1.00  0.00     0.053 C 
BRANCH   6   7
ATOM      7  C   UNL     1      38.558  37.901  29.155  1.00  0.00     0.041 C 
ATOM      8  O   UNL     1      39.169  37.062  28.442  1.00  0.00    -0.550 OA
ATOM      9  O   UNL     1      39.277  38.751  29.986  1.00  0.00    -0.550 OA
ENDBRANCH   6   7
ENDBRANCH   5   6
ENDBRANCH   4   5
ENDBRANCH   3   4
ENDBRANCH   2   3
ENDBRANCH   1   2
BRANCH   1  10
ATOM     10  C   UNL     1      35.143  34.460  25.139  1.00  0.00     0.000 C 
BRANCH  10  11
ATOM     11  C   UNL     1      34.210  33.463  25.856  1.00  0.00    -0.000 C 
BRANCH  11  12
ATOM     12  C   UNL     1      34.297  32.007  25.354  1.00  0.00    -0.000 C 
BRANCH  12  13
ATOM     13  C   UNL     1      34.941  31.857  23.962  1.00  0.00    -0.000 C 
BRANCH  13  14
ATOM     14  C   UNL     1      34.170  30.892  23.032  1.00  0.00    -0.000 C 
BRANCH  14  15
ATOM     15  C   UNL     1      33.045  31.576  22.238  1.00  0.00    -0.003 C 
ATOM     16  C   UNL     1      33.299  33.065  22.013  1.00  0.00     0.004 C 
ENDBRANCH  14  15
ENDBRANCH  13  14
ENDBRANCH  12  13
ENDBRANCH  11  12
ENDBRANCH  10  11
ENDBRANCH   1  10
TORSDOF 12
ENDMDL
MODEL 6
REMARK VINA RESULT:    -4.335      4.876      9.230
REMARK INTER + INTRA:          -8.172
REMARK INTER:                  -7.584
REMARK INTRA:                  -0.588
REMARK UNBOUND:                -0.796
REMARK SMILES CCCCCCCCCCCCCC(=O)[O-]
REMARK SMILES IDX 8 1 9 2 10 3 11 4 12 5 13 6 14 7 15 8 16 9 7 10 6 11 5 12
REMARK SMILES IDX 4 13 3 14 2 15 1 16
REMARK H PARENT
REMARK Flexibility Score: inf
ROOT
ATOM      1  C   UNL     1      35.366  33.646  26.030  1.00  0.00     0.000 C 
ENDROOT
BRANCH   1   2
ATOM      2  C   UNL     1      35.413  35.183  26.087  1.00  0.00     0.000 C 
BRANCH   2   3
ATOM      3  C   UNL     1      35.136  35.733  27.495  1.00  0.00     0.000 C 
BRANCH   3   4
ATOM      4  C   UNL     1      36.204  35.313  28.516  1.00  0.00     0.000 C 
BRANCH   4   5
ATOM      5  C   UNL     1      36.229  36.277  29.711  1.00  0.00     0.006 C 
BRANCH   5   6
ATOM      6  C   UNL     1      37.106  37.509  29.445  1.00  0.00     0.053 C 
BRANCH   6   7
ATOM      7  C   UNL     1      38.424  37.135  28.843  1.00  0.00     0.041 C 
ATOM      8  O   UNL     1      39.310  36.586  29.550  1.00  0.00    -0.550 OA
ATOM      9  O   UNL     1      38.663  37.359  27.494  1.00  0.00    -0.550 OA
ENDBRANCH   6   7
ENDBRANCH   5   6
ENDBRANCH   4   5
ENDBRANCH   3   4
ENDBRANCH   2   3
ENDBRANCH   1   2
BRANCH   1  10
ATOM     10  C   UNL     1      33.995  33.124  25.550  1.00  0.00     0.000 C 
BRANCH  10  11
ATOM     11  C   UNL     1      34.081  32.155  24.354  1.00  0.00    -0.000 C 
BRANCH  11  12
ATOM     12  C   UNL     1      33.214  32.537  23.137  1.00  0.00    -0.000 C 
BRANCH  12  13
ATOM     13  C   UNL     1      33.341  31.571  21.943  1.00  0.00    -0.000 C 
BRANCH  13  14
ATOM     14  C   UNL     1      34.110  30.274  22.284  1.00  0.00    -0.000 C 
BRANCH  14  15
ATOM     15  C   UNL     1      33.234  29.012  22.236  1.00  0.00    -0.003 C 
ATOM     16  C   UNL     1      32.091  29.122  21.228  1.00  0.00     0.004 C 
ENDBRANCH  14  15
ENDBRANCH  13  14
ENDBRANCH  12  13
ENDBRANCH  11  12
ENDBRANCH  10  11
ENDBRANCH   1  10
TORSDOF 12
ENDMDL
MODEL 7
REMARK VINA RESULT:    -4.315      1.930      3.617
REMARK INTER + INTRA:          -8.138
REMARK INTER:                  -6.944
REMARK INTRA:                  -1.193
REMARK UNBOUND:                -0.796
REMARK SMILES CCCCCCCCCCCCCC(=O)[O-]
REMARK SMILES IDX 8 1 9 2 10 3 11 4 12 5 13 6 14 7 15 8 16 9 7 10 6 11 5 12
REMARK SMILES IDX 4 13 3 14 2 15 1 16
REMARK H PARENT
REMARK Flexibility Score: inf
ROOT
ATOM      1  C   UNL     1      36.809  34.663  26.124  1.00  0.00     0.000 C 
ENDROOT
BRANCH   1   2
ATOM      2  C   UNL     1      36.268  33.407  26.829  1.00  0.00     0.000 C 
BRANCH   2   3
ATOM      3  C   UNL     1      35.543  32.453  25.866  1.00  0.00     0.000 C 
BRANCH   3   4
ATOM      4  C   UNL     1      34.071  32.834  25.651  1.00  0.00     0.000 C 
BRANCH   4   5
ATOM      5  C   UNL     1      33.656  32.617  24.189  1.00  0.00     0.006 C 
BRANCH   5   6
ATOM      6  C   UNL     1      34.314  31.373  23.576  1.00  0.00     0.053 C 
BRANCH   6   7
ATOM      7  C   UNL     1      33.645  30.959  22.302  1.00  0.00     0.041 C 
ATOM      8  O   UNL     1      32.485  31.369  22.035  1.00  0.00    -0.550 OA
ATOM      9  O   UNL     1      34.315  30.150  21.394  1.00  0.00    -0.550 OA
ENDBRANCH   6   7
ENDBRANCH   5   6
ENDBRANCH   4   5
ENDBRANCH   3   4
ENDBRANCH   2   3
ENDBRANCH   1   2
BRANCH   1  10
ATOM     10  C   UNL     1      36.009  35.929  26.496  1.00  0.00     0.000 C 
BRANCH  10  11
ATOM     11  C   UNL     1      35.112  35.757  27.738  1.00  0.00    -0.000 C 
BRANCH  11  12
ATOM     12  C   UNL     1      35.630  36.438  29.021  1.00  0.00    -0.000 C 
BRANCH  12  13
ATOM     13  C   UNL     1      37.078  36.064  29.394  1.00  0.00    -0.000 C 
BRANCH  13  14
ATOM     14  C   UNL     1      38.058  37.258  29.320  1.00  0.00    -0.000 C 
BRANCH  14  15
ATOM     15  C   UNL     1      37.372  38.591  28.983  1.00  0.00    -0.003 C 
ATOM     16  C   UNL     1      37.788  39.144  27.621  1.00  0.00     0.004 C 
ENDBRANCH  14  15
ENDBRANCH  13  14
ENDBRANCH  12  13
ENDBRANCH  11  12
ENDBRANCH  10  11
ENDBRANCH   1  10
TORSDOF 12
ENDMDL
MODEL 8
REMARK VINA RESULT:    -4.270      4.231      8.180
REMARK INTER + INTRA:          -8.062
REMARK INTER:                  -6.793
REMARK INTRA:                  -1.268
REMARK UNBOUND:                -0.796
REMARK SMILES CCCCCCCCCCCCCC(=O)[O-]
REMARK SMILES IDX 8 1 9 2 10 3 11 4 12 5 13 6 14 7 15 8 16 9 7 10 6 11 5 12
REMARK SMILES IDX 4 13 3 14 2 15 1 16
REMARK H PARENT
REMARK Flexibility Score: inf
ROOT
ATOM      1  C   UNL     1      33.106  32.474  22.915  1.00  0.00     0.000 C 
ENDROOT
BRANCH   1   2
ATOM      2  C   UNL     1      34.141  31.419  23.342  1.00  0.00     0.000 C 
BRANCH   2   3
ATOM      3  C   UNL     1      34.822  31.763  24.677  1.00  0.00     0.000 C 
BRANCH   3   4
ATOM      4  C   UNL     1      33.971  32.692  25.554  1.00  0.00     0.000 C 
BRANCH   4   5
ATOM      5  C   UNL     1      34.761  33.948  25.950  1.00  0.00     0.006 C 
BRANCH   5   6
ATOM      6  C   UNL     1      36.119  33.607  26.580  1.00  0.00     0.053 C 
BRANCH   6   7
ATOM      7  C   UNL     1      36.589  34.684  27.507  1.00  0.00     0.041 C 
ATOM      8  O   UNL     1      36.731  34.444  28.735  1.00  0.00    -0.550 OA
ATOM      9  O   UNL     1      36.905  35.942  27.011  1.00  0.00    -0.550 OA
ENDBRANCH   6   7
ENDBRANCH   5   6
ENDBRANCH   4   5
ENDBRANCH   3   4
ENDBRANCH   2   3
ENDBRANCH   1   2
BRANCH   1  10
ATOM     10  C   UNL     1      33.529  33.216  21.629  1.00  0.00     0.000 C 
BRANCH  10  11
ATOM     11  C   UNL     1      34.737  32.580  20.912  1.00  0.00    -0.000 C 
BRANCH  11  12
ATOM     12  C   UNL     1      34.508  32.229  19.428  1.00  0.00    -0.000 C 
BRANCH  12  13
ATOM     13  C   UNL     1      33.596  31.007  19.203  1.00  0.00    -0.000 C 
BRANCH  13  14
ATOM     14  C   UNL     1      34.068  29.743  19.958  1.00  0.00    -0.000 C 
BRANCH  14  15
ATOM     15  C   UNL     1      32.946  28.721  20.199  1.00  0.00    -0.003 C 
ATOM     16  C   UNL     1      32.092  29.054  21.421  1.00  0.00     0.004 C 
ENDBRANCH  14  15
ENDBRANCH  13  14
ENDBRANCH  12  13
ENDBRANCH  11  12
ENDBRANCH  10  11
ENDBRANCH   1  10
TORSDOF 12
ENDMDL
MODEL 9
REMARK VINA RESULT:    -4.202      2.161      2.798
REMARK INTER + INTRA:          -7.946
REMARK INTER:                  -6.287
REMARK INTRA:                  -1.659
REMARK UNBOUND:                -0.796
REMARK SMILES CCCCCCCCCCCCCC(=O)[O-]
REMARK SMILES IDX 8 1 9 2 10 3 11 4 12 5 13 6 14 7 15 8 16 9 7 10 6 11 5 12
REMARK SMILES IDX 4 13 3 14 2 15 1 16
REMARK H PARENT
REMARK Flexibility Score: inf
ROOT
ATOM      1  C   UNL     1      34.687  34.608  24.448  1.00  0.00     0.000 C 
ENDROOT
BRANCH   1   2
ATOM      2  C   UNL     1      34.287  34.143  23.037  1.00  0.00     0.000 C 
BRANCH   2   3
ATOM      3  C   UNL     1      33.232  33.026  23.058  1.00  0.00     0.000 C 
BRANCH   3   4
ATOM      4  C   UNL     1      33.342  32.084  21.850  1.00  0.00     0.000 C 
BRANCH   4   5
ATOM      5  C   UNL     1      33.549  30.632  22.303  1.00  0.00     0.006 C 
BRANCH   5   6
ATOM      6  C   UNL     1      34.745  30.485  23.254  1.00  0.00     0.053 C 
BRANCH   6   7
ATOM      7  C   UNL     1      36.049  30.679  22.544  1.00  0.00     0.041 C 
ATOM      8  O   UNL     1      36.805  31.635  22.860  1.00  0.00    -0.550 OA
ATOM      9  O   UNL     1      36.446  29.785  21.559  1.00  0.00    -0.550 OA
ENDBRANCH   6   7
ENDBRANCH   5   6
ENDBRANCH   4   5
ENDBRANCH   3   4
ENDBRANCH   2   3
ENDBRANCH   1   2
BRANCH   1  10
ATOM     10  C   UNL     1      34.403  33.532  25.517  1.00  0.00     0.000 C 
BRANCH  10  11
ATOM     11  C   UNL     1      35.667  32.817  26.034  1.00  0.00    -0.000 C 
BRANCH  11  12
ATOM     12  C   UNL     1      36.996  33.540  25.738  1.00  0.00    -0.000 C 
BRANCH  12  13
ATOM     13  C   UNL     1      37.511  34.416  26.897  1.00  0.00    -0.000 C 
BRANCH  13  14
ATOM     14  C   UNL     1      36.785  34.148  28.235  1.00  0.00    -0.000 C 
BRANCH  14  15
ATOM     15  C   UNL     1      36.313  35.429  28.942  1.00  0.00    -0.003 C 
ATOM     16  C   UNL     1      35.228  36.171  28.164  1.00  0.00     0.004 C 
ENDBRANCH  14  15
ENDBRANCH  13  14
ENDBRANCH  12  13
ENDBRANCH  11  12
ENDBRANCH  10  11
ENDBRANCH   1  10
TORSDOF 12
ENDMDL
