MODEL 1
REMARK VINA RESULT:    -4.979      0.000      0.000
REMARK INTER + INTRA:          -5.802
REMARK INTER:                  -5.561
REMARK INTRA:                  -0.241
REMARK UNBOUND:                -0.241
REMARK SMILES COc1cc(C)ccc1C(C)C
REMARK SMILES IDX 6 1 5 2 4 3 3 4 9 5 8 6 7 7 2 8 1 9 10 10 11 11 12 12
REMARK H PARENT
REMARK Flexibility Score: inf
ROOT
ATOM      1  C   UNL     1       7.521  32.498  54.835  1.00  0.00     0.044 C 
ATOM      2  C   UNL     1       6.705  31.389  54.239  1.00  0.00    -0.047 A 
ATOM      3  C   UNL     1       5.316  31.362  54.414  1.00  0.00     0.050 A 
ATOM      4  C   UNL     1       4.542  30.307  53.890  1.00  0.00     0.122 A 
ATOM      5  C   UNL     1       5.180  29.257  53.189  1.00  0.00    -0.003 A 
ATOM      6  C   UNL     1       6.581  29.288  53.038  1.00  0.00     0.008 A 
ATOM      7  C   UNL     1       7.334  30.338  53.562  1.00  0.00     0.004 A 
ENDROOT
BRANCH   4   8
ATOM      8  O   UNL     1       3.146  30.274  54.052  1.00  0.00    -0.496 OA
ATOM      9  C   UNL     1       2.216  30.992  53.248  1.00  0.00     0.278 C 
ENDBRANCH   4   8
BRANCH   5  10
ATOM     10  C   UNL     1       4.381  28.099  52.607  1.00  0.00     0.017 C 
ATOM     11  C   UNL     1       4.438  26.872  53.525  1.00  0.00     0.012 C 
ATOM     12  C   UNL     1       4.858  27.752  51.192  1.00  0.00     0.012 C 
ENDBRANCH   5  10
TORSDOF 2
ENDMDL
MODEL 2
REMARK VINA RESULT:    -4.834      1.432      3.053
REMARK INTER + INTRA:          -5.640
REMARK INTER:                  -5.416
REMARK INTRA:                  -0.224
REMARK UNBOUND:                -0.241
REMARK SMILES COc1cc(C)ccc1C(C)C
REMARK SMILES IDX 6 1 5 2 4 3 3 4 9 5 8 6 7 7 2 8 1 9 10 10 11 11 12 12
REMARK H PARENT
REMARK Flexibility Score: inf
ROOT
ATOM      1  C   UNL     1       8.172  31.469  54.823  1.00  0.00     0.044 C 
ATOM      2  C   UNL     1       6.789  31.032  54.439  1.00  0.00    -0.047 A 
ATOM      3  C   UNL     1       6.591  29.807  53.790  1.00  0.00     0.050 A 
ATOM      4  C   UNL     1       5.301  29.400  53.392  1.00  0.00     0.122 A 
ATOM      5  C   UNL     1       4.196  30.248  53.644  1.00  0.00    -0.003 A 
ATOM      6  C   UNL     1       4.414  31.486  54.280  1.00  0.00     0.008 A 
ATOM      7  C   UNL     1       5.696  31.875  54.668  1.00  0.00     0.004 A 
ENDROOT
BRANCH   4   8
ATOM      8  O   UNL     1       5.089  28.170  52.747  1.00  0.00    -0.496 OA
ATOM      9  C   UNL     1       5.752  27.749  51.559  1.00  0.00     0.278 C 
ENDBRANCH   4   8
BRANCH   5  10
ATOM     10  C   UNL     1       2.787  29.846  53.230  1.00  0.00     0.017 C 
ATOM     11  C   UNL     1       1.925  31.080  52.934  1.00  0.00     0.012 C 
ATOM     12  C   UNL     1       2.130  28.957  54.293  1.00  0.00     0.012 C 
ENDBRANCH   5  10
TORSDOF 2
ENDMDL
MODEL 3
REMARK VINA RESULT:    -4.817      0.987      3.880
REMARK INTER + INTRA:          -5.622
REMARK INTER:                  -5.399
REMARK INTRA:                  -0.222
REMARK UNBOUND:                -0.241
REMARK SMILES COc1cc(C)ccc1C(C)C
REMARK SMILES IDX 6 1 5 2 4 3 3 4 9 5 8 6 7 7 2 8 1 9 10 10 11 11 12 12
REMARK H PARENT
REMARK Flexibility Score: inf
ROOT
ATOM      1  C   UNL     1       4.857  26.514  52.166  1.00  0.00     0.044 C 
ATOM      2  C   UNL     1       5.106  27.883  52.728  1.00  0.00    -0.047 A 
ATOM      3  C   UNL     1       4.030  28.712  53.069  1.00  0.00     0.050 A 
ATOM      4  C   UNL     1       4.250  30.014  53.564  1.00  0.00     0.122 A 
ATOM      5  C   UNL     1       5.575  30.490  53.705  1.00  0.00    -0.003 A 
ATOM      6  C   UNL     1       6.646  29.651  53.339  1.00  0.00     0.008 A 
ATOM      7  C   UNL     1       6.413  28.365  52.850  1.00  0.00     0.004 A 
ENDROOT
BRANCH   4   8
ATOM      8  O   UNL     1       3.178  30.852  53.917  1.00  0.00    -0.496 OA
ATOM      9  C   UNL     1       2.013  31.060  53.126  1.00  0.00     0.278 C 
ENDBRANCH   4   8
BRANCH   5  10
ATOM     10  C   UNL     1       5.855  31.889  54.236  1.00  0.00     0.017 C 
ATOM     11  C   UNL     1       5.723  32.938  53.125  1.00  0.00     0.012 C 
ATOM     12  C   UNL     1       7.234  31.963  54.903  1.00  0.00     0.012 C 
ENDBRANCH   5  10
TORSDOF 2
ENDMDL
MODEL 4
REMARK VINA RESULT:    -4.744     12.422     13.495
REMARK INTER + INTRA:          -5.540
REMARK INTER:                  -5.290
REMARK INTRA:                  -0.250
REMARK UNBOUND:                -0.241
REMARK SMILES COc1cc(C)ccc1C(C)C
REMARK SMILES IDX 6 1 5 2 4 3 3 4 9 5 8 6 7 7 2 8 1 9 10 10 11 11 12 12
REMARK H PARENT
REMARK Flexibility Score: inf
ROOT
ATOM      1  C   UNL     1      18.051  22.892  60.373  1.00  0.00     0.044 C 
ATOM      2  C   UNL     1      16.613  22.717  59.980  1.00  0.00    -0.047 A 
ATOM      3  C   UNL     1      16.235  22.797  58.634  1.00  0.00     0.050 A 
ATOM      4  C   UNL     1      14.883  22.670  58.255  1.00  0.00     0.122 A 
ATOM      5  C   UNL     1      13.897  22.471  59.250  1.00  0.00    -0.003 A 
ATOM      6  C   UNL     1      14.291  22.413  60.602  1.00  0.00     0.008 A 
ATOM      7  C   UNL     1      15.633  22.540  60.962  1.00  0.00     0.004 A 
ENDROOT
BRANCH   4   8
ATOM      8  O   UNL     1      14.493  22.741  56.906  1.00  0.00    -0.496 OA
ATOM      9  C   UNL     1      14.803  21.764  55.918  1.00  0.00     0.278 C 
ENDBRANCH   4   8
BRANCH   5  10
ATOM     10  C   UNL     1      12.427  22.329  58.882  1.00  0.00     0.017 C 
ATOM     11  C   UNL     1      11.522  22.785  60.034  1.00  0.00     0.012 C 
ATOM     12  C   UNL     1      12.098  20.893  58.458  1.00  0.00     0.012 C 
ENDBRANCH   5  10
TORSDOF 2
ENDMDL
MODEL 5
REMARK VINA RESULT:    -4.721     11.805     13.163
REMARK INTER + INTRA:          -5.515
REMARK INTER:                  -5.234
REMARK INTRA:                  -0.280
REMARK UNBOUND:                -0.241
REMARK SMILES COc1cc(C)ccc1C(C)C
REMARK SMILES IDX 6 1 5 2 4 3 3 4 9 5 8 6 7 7 2 8 1 9 10 10 11 11 12 12
REMARK H PARENT
REMARK Flexibility Score: inf
ROOT
ATOM      1  C   UNL     1       9.993  22.032  58.804  1.00  0.00     0.044 C 
ATOM      2  C   UNL     1      11.478  22.180  58.645  1.00  0.00    -0.047 A 
ATOM      3  C   UNL     1      12.294  22.355  59.770  1.00  0.00     0.050 A 
ATOM      4  C   UNL     1      13.686  22.531  59.633  1.00  0.00     0.122 A 
ATOM      5  C   UNL     1      14.261  22.544  58.340  1.00  0.00    -0.003 A 
ATOM      6  C   UNL     1      13.425  22.388  57.217  1.00  0.00     0.008 A 
ATOM      7  C   UNL     1      12.049  22.214  57.369  1.00  0.00     0.004 A 
ENDROOT
BRANCH   4   8
ATOM      8  O   UNL     1      14.515  22.698  60.756  1.00  0.00    -0.496 OA
ATOM      9  C   UNL     1      14.754  21.703  61.745  1.00  0.00     0.278 C 
ENDBRANCH   4   8
BRANCH   5  10
ATOM     10  C   UNL     1      15.760  22.732  58.149  1.00  0.00     0.017 C 
ATOM     11  C   UNL     1      16.056  23.589  56.913  1.00  0.00     0.012 C 
ATOM     12  C   UNL     1      16.482  21.381  58.069  1.00  0.00     0.012 C 
ENDBRANCH   5  10
TORSDOF 2
ENDMDL
MODEL 6
REMARK VINA RESULT:    -4.611     12.030     13.459
REMARK INTER + INTRA:          -5.391
REMARK INTER:                  -5.281
REMARK INTRA:                  -0.110
REMARK UNBOUND:                -0.241
REMARK SMILES COc1cc(C)ccc1C(C)C
REMARK SMILES IDX 6 1 5 2 4 3 3 4 9 5 8 6 7 7 2 8 1 9 10 10 11 11 12 12
REMARK H PARENT
REMARK Flexibility Score: inf
ROOT
ATOM      1  C   UNL     1       9.994  21.991  58.757  1.00  0.00     0.044 C 
ATOM      2  C   UNL     1      11.491  22.069  58.846  1.00  0.00    -0.047 A 
ATOM      3  C   UNL     1      12.289  21.457  57.872  1.00  0.00     0.050 A 
ATOM      4  C   UNL     1      13.695  21.493  57.964  1.00  0.00     0.122 A 
ATOM      5  C   UNL     1      14.304  22.146  59.061  1.00  0.00    -0.003 A 
ATOM      6  C   UNL     1      13.487  22.740  60.043  1.00  0.00     0.008 A 
ATOM      7  C   UNL     1      12.097  22.697  59.939  1.00  0.00     0.004 A 
ENDROOT
BRANCH   4   8
ATOM      8  O   UNL     1      14.506  20.889  56.987  1.00  0.00    -0.496 OA
ATOM      9  C   UNL     1      14.608  19.486  56.769  1.00  0.00     0.278 C 
ENDBRANCH   4   8
BRANCH   5  10
ATOM     10  C   UNL     1      15.820  22.207  59.197  1.00  0.00     0.017 C 
ATOM     11  C   UNL     1      16.232  22.609  60.618  1.00  0.00     0.012 C 
ATOM     12  C   UNL     1      16.431  23.155  58.157  1.00  0.00     0.012 C 
ENDBRANCH   5  10
TORSDOF 2
ENDMDL
MODEL 7
REMARK VINA RESULT:    -4.593     11.140     12.155
REMARK INTER + INTRA:          -5.371
REMARK INTER:                  -5.143
REMARK INTRA:                  -0.228
REMARK UNBOUND:                -0.241
REMARK SMILES COc1cc(C)ccc1C(C)C
REMARK SMILES IDX 6 1 5 2 4 3 3 4 9 5 8 6 7 7 2 8 1 9 10 10 11 11 12 12
REMARK H PARENT
REMARK Flexibility Score: inf
ROOT
ATOM      1  C   UNL     1      14.769  21.974  61.489  1.00  0.00     0.044 C 
ATOM      2  C   UNL     1      14.356  22.261  60.075  1.00  0.00    -0.047 A 
ATOM      3  C   UNL     1      13.007  22.185  59.705  1.00  0.00     0.050 A 
ATOM      4  C   UNL     1      12.610  22.418  58.372  1.00  0.00     0.122 A 
ATOM      5  C   UNL     1      13.589  22.719  57.397  1.00  0.00    -0.003 A 
ATOM      6  C   UNL     1      14.944  22.771  57.781  1.00  0.00     0.008 A 
ATOM      7  C   UNL     1      15.322  22.539  59.103  1.00  0.00     0.004 A 
ENDROOT
BRANCH   4   8
ATOM      8  O   UNL     1      11.258  22.353  57.991  1.00  0.00    -0.496 OA
ATOM      9  C   UNL     1      10.184  22.005  58.859  1.00  0.00     0.278 C 
ENDBRANCH   4   8
BRANCH   5  10
ATOM     10  C   UNL     1      13.202  22.976  55.947  1.00  0.00     0.017 C 
ATOM     11  C   UNL     1      14.299  22.499  54.988  1.00  0.00     0.012 C 
ATOM     12  C   UNL     1      12.874  24.456  55.716  1.00  0.00     0.012 C 
ENDBRANCH   5  10
TORSDOF 2
ENDMDL
MODEL 8
REMARK VINA RESULT:    -4.563     11.285     12.427
REMARK INTER + INTRA:          -5.337
REMARK INTER:                  -5.075
REMARK INTRA:                  -0.262
REMARK UNBOUND:                -0.241
REMARK SMILES COc1cc(C)ccc1C(C)C
REMARK SMILES IDX 6 1 5 2 4 3 3 4 9 5 8 6 7 7 2 8 1 9 10 10 11 11 12 12
REMARK H PARENT
REMARK Flexibility Score: inf
ROOT
ATOM      1  C   UNL     1      14.994  22.149  61.423  1.00  0.00     0.044 C 
ATOM      2  C   UNL     1      14.326  22.324  60.090  1.00  0.00    -0.047 A 
ATOM      3  C   UNL     1      15.090  22.355  58.917  1.00  0.00     0.050 A 
ATOM      4  C   UNL     1      14.479  22.554  57.662  1.00  0.00     0.122 A 
ATOM      5  C   UNL     1      13.078  22.738  57.592  1.00  0.00    -0.003 A 
ATOM      6  C   UNL     1      12.326  22.725  58.783  1.00  0.00     0.008 A 
ATOM      7  C   UNL     1      12.944  22.527  60.017  1.00  0.00     0.004 A 
ENDROOT
BRANCH   4   8
ATOM      8  O   UNL     1      15.235  22.578  56.477  1.00  0.00    -0.496 OA
ATOM      9  C   UNL     1      16.067  23.657  56.064  1.00  0.00     0.278 C 
ENDBRANCH   4   8
BRANCH   5  10
ATOM     10  C   UNL     1      12.380  22.956  56.256  1.00  0.00     0.017 C 
ATOM     11  C   UNL     1      12.400  24.437  55.858  1.00  0.00     0.012 C 
ATOM     12  C   UNL     1      10.947  22.412  56.285  1.00  0.00     0.012 C 
ENDBRANCH   5  10
TORSDOF 2
ENDMDL
MODEL 9
REMARK VINA RESULT:    -4.447     13.314     14.731
REMARK INTER + INTRA:          -5.208
REMARK INTER:                  -4.932
REMARK INTRA:                  -0.276
REMARK UNBOUND:                -0.241
REMARK SMILES COc1cc(C)ccc1C(C)C
REMARK SMILES IDX 6 1 5 2 4 3 3 4 9 5 8 6 7 7 2 8 1 9 10 10 11 11 12 12
REMARK H PARENT
REMARK Flexibility Score: inf
ROOT
ATOM      1  C   UNL     1      15.503  18.322  56.313  1.00  0.00     0.044 C 
ATOM      2  C   UNL     1      15.098  19.421  57.252  1.00  0.00    -0.047 A 
ATOM      3  C   UNL     1      15.960  20.499  57.491  1.00  0.00     0.050 A 
ATOM      4  C   UNL     1      15.607  21.519  58.398  1.00  0.00     0.122 A 
ATOM      5  C   UNL     1      14.371  21.444  59.082  1.00  0.00    -0.003 A 
ATOM      6  C   UNL     1      13.523  20.343  58.846  1.00  0.00     0.008 A 
ATOM      7  C   UNL     1      13.886  19.341  57.946  1.00  0.00     0.004 A 
ENDROOT
BRANCH   4   8
ATOM      8  O   UNL     1      16.461  22.609  58.639  1.00  0.00    -0.496 OA
ATOM      9  C   UNL     1      17.619  22.567  59.465  1.00  0.00     0.278 C 
ENDBRANCH   4   8
BRANCH   5  10
ATOM     10  C   UNL     1      13.952  22.525  60.070  1.00  0.00     0.017 C 
ATOM     11  C   UNL     1      14.434  22.194  61.488  1.00  0.00     0.012 C 
ATOM     12  C   UNL     1      12.435  22.745  60.040  1.00  0.00     0.012 C 
ENDBRANCH   5  10
TORSDOF 2
ENDMDL
