MODEL 1
REMARK VINA RESULT:    -4.355      0.000      0.000
REMARK INTER + INTRA:          -7.335
REMARK INTER:                  -6.647
REMARK INTRA:                  -0.688
REMARK UNBOUND:                -0.688
REMARK SMILES O=C([O-])CCCCCCCCC(=O)[O-]
REMARK SMILES IDX 7 1 6 2 5 3 4 4 2 5 1 6 3 7 8 8 9 9 10 10 11 11 12 12 13 13
REMARK SMILES IDX 14 14
REMARK H PARENT
REMARK Flexibility Score: inf
ROOT
ATOM      1  C   UNL     1      47.238   6.703 128.671  1.00  0.00     0.000 C 
ENDROOT
BRANCH   1   2
ATOM      2  C   UNL     1      45.971   7.431 129.161  1.00  0.00     0.000 C 
BRANCH   2   3
ATOM      3  C   UNL     1      44.817   7.508 128.143  1.00  0.00     0.006 C 
BRANCH   3   4
ATOM      4  C   UNL     1      43.785   6.375 128.281  1.00  0.00     0.053 C 
BRANCH   4   5
ATOM      5  C   UNL     1      43.888   5.368 127.175  1.00  0.00     0.041 C 
ATOM      6  O   UNL     1      42.992   5.299 126.293  1.00  0.00    -0.550 OA
ATOM      7  O   UNL     1      44.958   4.482 127.137  1.00  0.00    -0.550 OA
ENDBRANCH   4   5
ENDBRANCH   3   4
ENDBRANCH   2   3
ENDBRANCH   1   2
BRANCH   1   8
ATOM      8  C   UNL     1      47.672   5.497 129.525  1.00  0.00     0.000 C 
BRANCH   8   9
ATOM      9  C   UNL     1      46.536   4.940 130.394  1.00  0.00     0.000 C 
BRANCH   9  10
ATOM     10  C   UNL     1      47.093   4.107 131.559  1.00  0.00     0.006 C 
BRANCH  10  11
ATOM     11  C   UNL     1      46.149   4.097 132.768  1.00  0.00     0.053 C 
BRANCH  11  12
ATOM     12  C   UNL     1      44.867   3.385 132.465  1.00  0.00     0.041 C 
ATOM     13  O   UNL     1      44.842   2.128 132.382  1.00  0.00    -0.550 OA
ATOM     14  O   UNL     1      43.691   4.108 132.307  1.00  0.00    -0.550 OA
ENDBRANCH  11  12
ENDBRANCH  10  11
ENDBRANCH   9  10
ENDBRANCH   8   9
ENDBRANCH   1   8
TORSDOF 9
ENDMDL
MODEL 2
REMARK VINA RESULT:    -4.353      2.070      5.677
REMARK INTER + INTRA:          -7.332
REMARK INTER:                  -6.784
REMARK INTRA:                  -0.548
REMARK UNBOUND:                -0.688
REMARK SMILES O=C([O-])CCCCCCCCC(=O)[O-]
REMARK SMILES IDX 7 1 6 2 5 3 4 4 2 5 1 6 3 7 8 8 9 9 10 10 11 11 12 12 13 13
REMARK SMILES IDX 14 14
REMARK H PARENT
REMARK Flexibility Score: inf
ROOT
ATOM      1  C   UNL     1      45.993   4.113 132.723  1.00  0.00     0.000 C 
ENDROOT
BRANCH   1   2
ATOM      2  C   UNL     1      46.158   2.990 133.764  1.00  0.00     0.000 C 
BRANCH   2   3
ATOM      3  C   UNL     1      44.895   2.151 134.039  1.00  0.00     0.006 C 
BRANCH   3   4
ATOM      4  C   UNL     1      43.933   2.059 132.841  1.00  0.00     0.053 C 
BRANCH   4   5
ATOM      5  C   UNL     1      43.930   0.700 132.211  1.00  0.00     0.041 C 
ATOM      6  O   UNL     1      44.937  -0.050 132.311  1.00  0.00    -0.550 OA
ATOM      7  O   UNL     1      42.827   0.271 131.483  1.00  0.00    -0.550 OA
ENDBRANCH   4   5
ENDBRANCH   3   4
ENDBRANCH   2   3
ENDBRANCH   1   2
BRANCH   1   8
ATOM      8  C   UNL     1      47.084   4.166 131.638  1.00  0.00     0.000 C 
BRANCH   8   9
ATOM      9  C   UNL     1      46.674   5.000 130.417  1.00  0.00     0.000 C 
BRANCH   9  10
ATOM     10  C   UNL     1      45.169   4.862 130.137  1.00  0.00     0.006 C 
BRANCH  10  11
ATOM     11  C   UNL     1      44.813   5.221 128.689  1.00  0.00     0.053 C 
BRANCH  11  12
ATOM     12  C   UNL     1      44.158   6.564 128.594  1.00  0.00     0.041 C 
ATOM     13  O   UNL     1      42.913   6.675 128.749  1.00  0.00    -0.550 OA
ATOM     14  O   UNL     1      44.928   7.698 128.367  1.00  0.00    -0.550 OA
ENDBRANCH  11  12
ENDBRANCH  10  11
ENDBRANCH   9  10
ENDBRANCH   8   9
ENDBRANCH   1   8
TORSDOF 9
ENDMDL
MODEL 3
REMARK VINA RESULT:    -4.347      1.694      2.581
REMARK INTER + INTRA:          -7.322
REMARK INTER:                  -6.787
REMARK INTRA:                  -0.535
REMARK UNBOUND:                -0.688
REMARK SMILES O=C([O-])CCCCCCCCC(=O)[O-]
REMARK SMILES IDX 7 1 6 2 5 3 4 4 2 5 1 6 3 7 8 8 9 9 10 10 11 11 12 12 13 13
REMARK SMILES IDX 14 14
REMARK H PARENT
REMARK Flexibility Score: inf
ROOT
ATOM      1  C   UNL     1      46.106   4.863 130.444  1.00  0.00     0.000 C 
ENDROOT
BRANCH   1   2
ATOM      2  C   UNL     1      47.013   5.250 129.260  1.00  0.00     0.000 C 
BRANCH   2   3
ATOM      3  C   UNL     1      46.329   5.264 127.880  1.00  0.00     0.006 C 
BRANCH   3   4
ATOM      4  C   UNL     1      44.921   4.639 127.873  1.00  0.00     0.053 C 
BRANCH   4   5
ATOM      5  C   UNL     1      43.862   5.617 127.463  1.00  0.00     0.041 C 
ATOM      6  O   UNL     1      43.520   6.546 128.241  1.00  0.00    -0.550 OA
ATOM      7  O   UNL     1      43.228   5.484 126.234  1.00  0.00    -0.550 OA
ENDBRANCH   4   5
ENDBRANCH   3   4
ENDBRANCH   2   3
ENDBRANCH   1   2
BRANCH   1   8
ATOM      8  C   UNL     1      46.834   4.239 131.649  1.00  0.00     0.000 C 
BRANCH   8   9
ATOM      9  C   UNL     1      45.872   3.688 132.710  1.00  0.00     0.000 C 
BRANCH   9  10
ATOM     10  C   UNL     1      44.519   3.315 132.084  1.00  0.00     0.006 C 
BRANCH  10  11
ATOM     11  C   UNL     1      43.797   2.217 132.876  1.00  0.00     0.053 C 
BRANCH  11  12
ATOM     12  C   UNL     1      43.946   0.875 132.227  1.00  0.00     0.041 C 
ATOM     13  O   UNL     1      45.013   0.219 132.365  1.00  0.00    -0.550 OA
ATOM     14  O   UNL     1      42.894   0.334 131.498  1.00  0.00    -0.550 OA
ENDBRANCH  11  12
ENDBRANCH  10  11
ENDBRANCH   9  10
ENDBRANCH   8   9
ENDBRANCH   1   8
TORSDOF 9
ENDMDL
MODEL 4
REMARK VINA RESULT:    -4.315      1.762      5.683
REMARK INTER + INTRA:          -7.274
REMARK INTER:                  -6.789
REMARK INTRA:                  -0.485
REMARK UNBOUND:                -0.688
REMARK SMILES O=C([O-])CCCCCCCCC(=O)[O-]
REMARK SMILES IDX 7 1 6 2 5 3 4 4 2 5 1 6 3 7 8 8 9 9 10 10 11 11 12 12 13 13
REMARK SMILES IDX 14 14
REMARK H PARENT
REMARK Flexibility Score: inf
ROOT
ATOM      1  C   UNL     1      46.991   3.061 132.357  1.00  0.00     0.000 C 
ENDROOT
BRANCH   1   2
ATOM      2  C   UNL     1      45.930   3.513 133.379  1.00  0.00     0.000 C 
BRANCH   2   3
ATOM      3  C   UNL     1      44.912   2.434 133.795  1.00  0.00     0.006 C 
BRANCH   3   4
ATOM      4  C   UNL     1      43.813   2.174 132.749  1.00  0.00     0.053 C 
BRANCH   4   5
ATOM      5  C   UNL     1      43.872   0.784 132.190  1.00  0.00     0.041 C 
ATOM      6  O   UNL     1      44.900   0.076 132.354  1.00  0.00    -0.550 OA
ATOM      7  O   UNL     1      42.803   0.282 131.458  1.00  0.00    -0.550 OA
ENDBRANCH   4   5
ENDBRANCH   3   4
ENDBRANCH   2   3
ENDBRANCH   1   2
BRANCH   1   8
ATOM      8  C   UNL     1      47.578   4.185 131.483  1.00  0.00     0.000 C 
BRANCH   8   9
ATOM      9  C   UNL     1      46.526   4.868 130.599  1.00  0.00     0.000 C 
BRANCH   9  10
ATOM     10  C   UNL     1      47.190   5.622 129.437  1.00  0.00     0.006 C 
BRANCH  10  11
ATOM     11  C   UNL     1      46.512   6.969 129.157  1.00  0.00     0.053 C 
BRANCH  11  12
ATOM     12  C   UNL     1      45.346   6.822 128.227  1.00  0.00     0.041 C 
ATOM     13  O   UNL     1      44.334   7.560 128.356  1.00  0.00    -0.550 OA
ATOM     14  O   UNL     1      45.393   5.890 127.198  1.00  0.00    -0.550 OA
ENDBRANCH  11  12
ENDBRANCH  10  11
ENDBRANCH   9  10
ENDBRANCH   8   9
ENDBRANCH   1   8
TORSDOF 9
ENDMDL
MODEL 5
REMARK VINA RESULT:    -4.304      1.599      2.042
REMARK INTER + INTRA:          -7.257
REMARK INTER:                  -6.703
REMARK INTRA:                  -0.555
REMARK UNBOUND:                -0.688
REMARK SMILES O=C([O-])CCCCCCCCC(=O)[O-]
REMARK SMILES IDX 7 1 6 2 5 3 4 4 2 5 1 6 3 7 8 8 9 9 10 10 11 11 12 12 13 13
REMARK SMILES IDX 14 14
REMARK H PARENT
REMARK Flexibility Score: inf
ROOT
ATOM      1  C   UNL     1      47.071   5.458 129.329  1.00  0.00     0.000 C 
ENDROOT
BRANCH   1   2
ATOM      2  C   UNL     1      46.594   5.144 127.898  1.00  0.00     0.000 C 
BRANCH   2   3
ATOM      3  C   UNL     1      45.119   4.716 127.772  1.00  0.00     0.006 C 
BRANCH   3   4
ATOM      4  C   UNL     1      44.209   5.785 127.140  1.00  0.00     0.053 C 
BRANCH   4   5
ATOM      5  C   UNL     1      43.455   6.574 128.167  1.00  0.00     0.041 C 
ATOM      6  O   UNL     1      42.214   6.413 128.308  1.00  0.00    -0.550 OA
ATOM      7  O   UNL     1      44.117   7.515 128.947  1.00  0.00    -0.550 OA
ENDBRANCH   4   5
ENDBRANCH   3   4
ENDBRANCH   2   3
ENDBRANCH   1   2
BRANCH   1   8
ATOM      8  C   UNL     1      46.194   4.878 130.453  1.00  0.00     0.000 C 
BRANCH   8   9
ATOM      9  C   UNL     1      46.998   4.493 131.702  1.00  0.00     0.000 C 
BRANCH   9  10
ATOM     10  C   UNL     1      46.068   4.044 132.839  1.00  0.00     0.006 C 
BRANCH  10  11
ATOM     11  C   UNL     1      46.097   2.525 133.048  1.00  0.00     0.053 C 
BRANCH  11  12
ATOM     12  C   UNL     1      44.778   1.894 132.724  1.00  0.00     0.041 C 
ATOM     13  O   UNL     1      44.710   0.665 132.460  1.00  0.00    -0.550 OA
ATOM     14  O   UNL     1      43.618   2.659 132.747  1.00  0.00    -0.550 OA
ENDBRANCH  11  12
ENDBRANCH  10  11
ENDBRANCH   9  10
ENDBRANCH   8   9
ENDBRANCH   1   8
TORSDOF 9
ENDMDL
MODEL 6
REMARK VINA RESULT:    -4.299      1.426      5.095
REMARK INTER + INTRA:          -7.249
REMARK INTER:                  -6.751
REMARK INTRA:                  -0.498
REMARK UNBOUND:                -0.688
REMARK SMILES O=C([O-])CCCCCCCCC(=O)[O-]
REMARK SMILES IDX 7 1 6 2 5 3 4 4 2 5 1 6 3 7 8 8 9 9 10 10 11 11 12 12 13 13
REMARK SMILES IDX 14 14
REMARK H PARENT
REMARK Flexibility Score: inf
ROOT
ATOM      1  C   UNL     1      46.484   4.870 130.345  1.00  0.00     0.000 C 
ENDROOT
BRANCH   1   2
ATOM      2  C   UNL     1      47.270   4.514 131.622  1.00  0.00     0.000 C 
BRANCH   2   3
ATOM      3  C   UNL     1      46.737   3.303 132.411  1.00  0.00     0.006 C 
BRANCH   3   4
ATOM      4  C   UNL     1      45.476   3.603 133.242  1.00  0.00     0.053 C 
BRANCH   4   5
ATOM      5  C   UNL     1      44.217   3.188 132.543  1.00  0.00     0.041 C 
ATOM      6  O   UNL     1      44.101   2.022 132.080  1.00  0.00    -0.550 OA
ATOM      7  O   UNL     1      43.183   4.100 132.371  1.00  0.00    -0.550 OA
ENDBRANCH   4   5
ENDBRANCH   3   4
ENDBRANCH   2   3
ENDBRANCH   1   2
BRANCH   1   8
ATOM      8  C   UNL     1      47.287   5.628 129.272  1.00  0.00     0.000 C 
BRANCH   8   9
ATOM      9  C   UNL     1      46.640   5.561 127.882  1.00  0.00     0.000 C 
BRANCH   9  10
ATOM     10  C   UNL     1      45.324   4.770 127.926  1.00  0.00     0.006 C 
BRANCH  10  11
ATOM     11  C   UNL     1      44.221   5.433 127.091  1.00  0.00     0.053 C 
BRANCH  11  12
ATOM     12  C   UNL     1      43.195   6.098 127.956  1.00  0.00     0.041 C 
ATOM     13  O   UNL     1      42.041   6.330 127.509  1.00  0.00    -0.550 OA
ATOM     14  O   UNL     1      43.504   6.433 129.269  1.00  0.00    -0.550 OA
ENDBRANCH  11  12
ENDBRANCH  10  11
ENDBRANCH   9  10
ENDBRANCH   8   9
ENDBRANCH   1   8
TORSDOF 9
ENDMDL
MODEL 7
REMARK VINA RESULT:    -4.265      1.651      5.354
REMARK INTER + INTRA:          -7.197
REMARK INTER:                  -6.597
REMARK INTRA:                  -0.600
REMARK UNBOUND:                -0.688
REMARK SMILES O=C([O-])CCCCCCCCC(=O)[O-]
REMARK SMILES IDX 7 1 6 2 5 3 4 4 2 5 1 6 3 7 8 8 9 9 10 10 11 11 12 12 13 13
REMARK SMILES IDX 14 14
REMARK H PARENT
REMARK Flexibility Score: inf
ROOT
ATOM      1  C   UNL     1      46.064   4.819 130.714  1.00  0.00     0.000 C 
ENDROOT
BRANCH   1   2
ATOM      2  C   UNL     1      46.778   4.133 131.894  1.00  0.00     0.000 C 
BRANCH   2   3
ATOM      3  C   UNL     1      45.975   4.069 133.207  1.00  0.00     0.006 C 
BRANCH   3   4
ATOM      4  C   UNL     1      45.683   2.638 133.694  1.00  0.00     0.053 C 
BRANCH   4   5
ATOM      5  C   UNL     1      44.591   1.978 132.908  1.00  0.00     0.041 C 
ATOM      6  O   UNL     1      43.489   2.563 132.735  1.00  0.00    -0.550 OA
ATOM      7  O   UNL     1      44.776   0.700 132.395  1.00  0.00    -0.550 OA
ENDBRANCH   4   5
ENDBRANCH   3   4
ENDBRANCH   2   3
ENDBRANCH   1   2
BRANCH   1   8
ATOM      8  C   UNL     1      46.994   5.503 129.694  1.00  0.00     0.000 C 
BRANCH   8   9
ATOM      9  C   UNL     1      46.664   5.132 128.242  1.00  0.00     0.000 C 
BRANCH   9  10
ATOM     10  C   UNL     1      45.178   4.775 128.089  1.00  0.00     0.006 C 
BRANCH  10  11
ATOM     11  C   UNL     1      44.391   5.866 127.352  1.00  0.00     0.053 C 
BRANCH  11  12
ATOM     12  C   UNL     1      43.533   6.661 128.288  1.00  0.00     0.041 C 
ATOM     13  O   UNL     1      44.059   7.460 129.107  1.00  0.00    -0.550 OA
ATOM     14  O   UNL     1      42.150   6.541 128.233  1.00  0.00    -0.550 OA
ENDBRANCH  11  12
ENDBRANCH  10  11
ENDBRANCH   9  10
ENDBRANCH   8   9
ENDBRANCH   1   8
TORSDOF 9
ENDMDL
MODEL 8
REMARK VINA RESULT:    -4.214      4.468      5.906
REMARK INTER + INTRA:          -7.120
REMARK INTER:                  -6.704
REMARK INTRA:                  -0.416
REMARK UNBOUND:                -0.688
REMARK SMILES O=C([O-])CCCCCCCCC(=O)[O-]
REMARK SMILES IDX 7 1 6 2 5 3 4 4 2 5 1 6 3 7 8 8 9 9 10 10 11 11 12 12 13 13
REMARK SMILES IDX 14 14
REMARK H PARENT
REMARK Flexibility Score: inf
ROOT
ATOM      1  C   UNL     1      47.152   8.208 125.264  1.00  0.00     0.000 C 
ENDROOT
BRANCH   1   2
ATOM      2  C   UNL     1      47.709   8.296 123.830  1.00  0.00     0.000 C 
BRANCH   2   3
ATOM      3  C   UNL     1      47.531   9.659 123.134  1.00  0.00     0.006 C 
BRANCH   3   4
ATOM      4  C   UNL     1      46.073  10.149 123.081  1.00  0.00     0.053 C 
BRANCH   4   5
ATOM      5  C   UNL     1      45.852  11.384 123.901  1.00  0.00     0.041 C 
ATOM      6  O   UNL     1      44.684  11.789 124.138  1.00  0.00    -0.550 OA
ATOM      7  O   UNL     1      46.939  12.107 124.377  1.00  0.00    -0.550 OA
ENDBRANCH   4   5
ENDBRANCH   3   4
ENDBRANCH   2   3
ENDBRANCH   1   2
BRANCH   1   8
ATOM      8  C   UNL     1      48.072   7.511 126.283  1.00  0.00     0.000 C 
BRANCH   8   9
ATOM      9  C   UNL     1      47.300   6.844 127.429  1.00  0.00     0.000 C 
BRANCH   9  10
ATOM     10  C   UNL     1      45.784   6.926 127.191  1.00  0.00     0.006 C 
BRANCH  10  11
ATOM     11  C   UNL     1      45.075   5.603 127.507  1.00  0.00     0.053 C 
BRANCH  11  12
ATOM     12  C   UNL     1      43.585   5.747 127.463  1.00  0.00     0.041 C 
ATOM     13  O   UNL     1      42.946   5.424 126.427  1.00  0.00    -0.550 OA
ATOM     14  O   UNL     1      42.899   6.209 128.579  1.00  0.00    -0.550 OA
ENDBRANCH  11  12
ENDBRANCH  10  11
ENDBRANCH   9  10
ENDBRANCH   8   9
ENDBRANCH   1   8
TORSDOF 9
ENDMDL
MODEL 9
REMARK VINA RESULT:    -4.158      1.919      2.514
REMARK INTER + INTRA:          -7.034
REMARK INTER:                  -6.527
REMARK INTRA:                  -0.507
REMARK UNBOUND:                -0.688
REMARK SMILES O=C([O-])CCCCCCCCC(=O)[O-]
REMARK SMILES IDX 7 1 6 2 5 3 4 4 2 5 1 6 3 7 8 8 9 9 10 10 11 11 12 12 13 13
REMARK SMILES IDX 14 14
REMARK H PARENT
REMARK Flexibility Score: inf
ROOT
ATOM      1  C   UNL     1      46.894   5.151 130.231  1.00  0.00     0.000 C 
ENDROOT
BRANCH   1   2
ATOM      2  C   UNL     1      47.361   5.805 128.916  1.00  0.00     0.000 C 
BRANCH   2   3
ATOM      3  C   UNL     1      46.364   5.719 127.744  1.00  0.00     0.006 C 
BRANCH   3   4
ATOM      4  C   UNL     1      44.936   5.328 128.166  1.00  0.00     0.053 C 
BRANCH   4   5
ATOM      5  C   UNL     1      44.027   6.514 128.282  1.00  0.00     0.041 C 
ATOM      6  O   UNL     1      44.496   7.682 128.227  1.00  0.00    -0.550 OA
ATOM      7  O   UNL     1      42.665   6.331 128.484  1.00  0.00    -0.550 OA
ENDBRANCH   4   5
ENDBRANCH   3   4
ENDBRANCH   2   3
ENDBRANCH   1   2
BRANCH   1   8
ATOM      8  C   UNL     1      47.970   4.344 130.980  1.00  0.00     0.000 C 
BRANCH   8   9
ATOM      9  C   UNL     1      47.381   3.374 132.012  1.00  0.00     0.000 C 
BRANCH   9  10
ATOM     10  C   UNL     1      45.955   3.789 132.405  1.00  0.00     0.006 C 
BRANCH  10  11
ATOM     11  C   UNL     1      45.838   4.121 133.898  1.00  0.00     0.053 C 
BRANCH  11  12
ATOM     12  C   UNL     1      45.706   2.885 134.733  1.00  0.00     0.041 C 
ATOM     13  O   UNL     1      44.800   2.046 134.488  1.00  0.00    -0.550 OA
ATOM     14  O   UNL     1      46.607   2.644 135.764  1.00  0.00    -0.550 OA
ENDBRANCH  11  12
ENDBRANCH  10  11
ENDBRANCH   9  10
ENDBRANCH   8   9
ENDBRANCH   1   8
TORSDOF 9
ENDMDL
