MODEL 1
REMARK VINA RESULT:    -8.228      0.000      0.000
REMARK INTER + INTRA:          -9.952
REMARK INTER:                  -9.671
REMARK INTRA:                  -0.281
REMARK UNBOUND:                -0.281
REMARK SMILES O=c1cc(-c2ccc(O)c(O)c2)oc2cc(O)cc(O)c12
REMARK SMILES IDX 4 1 3 2 2 3 1 4 21 5 19 6 18 7 16 8 15 9 14 10 13 11 5 12
REMARK SMILES IDX 6 13 7 14 8 15 12 16 10 17 9 18 11 20 20 22 17 24
REMARK H PARENT 9 19 11 21 20 23 17 25
REMARK Flexibility Score: inf
ROOT
ATOM      1  C   UNL     1      34.271  26.989  20.610  1.00  0.00     0.138 A 
ATOM      2  C   UNL     1      34.508  25.608  20.611  1.00  0.00     0.100 A 
ATOM      3  C   UNL     1      34.300  24.870  19.445  1.00  0.00     0.197 A 
ATOM      4  O   UNL     1      34.461  23.624  19.494  1.00  0.00    -0.289 OA
ATOM      5  C   UNL     1      33.882  25.528  18.263  1.00  0.00     0.107 A 
ATOM      6  C   UNL     1      33.677  24.885  17.005  1.00  0.00     0.134 A 
ATOM      7  C   UNL     1      33.151  25.617  15.933  1.00  0.00     0.093 A 
ATOM      8  C   UNL     1      32.879  26.980  16.056  1.00  0.00     0.123 A 
ATOM      9  C   UNL     1      33.127  27.630  17.266  1.00  0.00     0.094 A 
ATOM     10  C   UNL     1      33.618  26.920  18.363  1.00  0.00     0.146 A 
ATOM     11  O   UNL     1      33.826  27.572  19.502  1.00  0.00    -0.456 OA
ENDROOT
BRANCH   1  12
ATOM     12  C   UNL     1      34.477  27.820  21.822  1.00  0.00     0.021 A 
ATOM     13  C   UNL     1      34.959  29.141  21.741  1.00  0.00     0.016 A 
ATOM     14  C   UNL     1      35.134  29.904  22.898  1.00  0.00     0.051 A 
ATOM     15  C   UNL     1      34.824  29.366  24.153  1.00  0.00     0.157 A 
ATOM     16  C   UNL     1      34.156  27.293  23.087  1.00  0.00     0.062 A 
ATOM     17  C   UNL     1      34.332  28.059  24.248  1.00  0.00     0.158 A 
BRANCH  15  18
ATOM     18  O   UNL     1      34.999  30.125  25.310  1.00  0.00    -0.504 OA
ATOM     19  H   UNL     1      35.721  29.903  25.985  1.00  0.00     0.293 HD
ENDBRANCH  15  18
BRANCH  17  20
ATOM     20  O   UNL     1      34.022  27.528  25.499  1.00  0.00    -0.504 OA
ATOM     21  H   UNL     1      33.697  28.116  26.258  1.00  0.00     0.293 HD
ENDBRANCH  17  20
ENDBRANCH   1  12
BRANCH   6  22
ATOM     22  O   UNL     1      33.996  23.548  16.750  1.00  0.00    -0.507 OA
ATOM     23  H   UNL     1      34.707  23.238  16.106  1.00  0.00     0.293 HD
ENDBRANCH   6  22
BRANCH   8  24
ATOM     24  O   UNL     1      32.370  27.679  14.964  1.00  0.00    -0.508 OA
ATOM     25  H   UNL     1      31.372  27.775  14.815  1.00  0.00     0.293 HD
ENDBRANCH   8  24
TORSDOF 5
ENDMDL
MODEL 2
REMARK VINA RESULT:    -7.627      1.355      2.195
REMARK INTER + INTRA:          -9.246
REMARK INTER:                  -8.928
REMARK INTRA:                  -0.318
REMARK UNBOUND:                -0.281
REMARK SMILES O=c1cc(-c2ccc(O)c(O)c2)oc2cc(O)cc(O)c12
REMARK SMILES IDX 4 1 3 2 2 3 1 4 21 5 19 6 18 7 16 8 15 9 14 10 13 11 5 12
REMARK SMILES IDX 6 13 7 14 8 15 12 16 10 17 9 18 11 20 20 22 17 24
REMARK H PARENT 9 19 11 21 20 23 17 25
REMARK Flexibility Score: inf
ROOT
ATOM      1  C   UNL     1      33.906  26.473  20.289  1.00  0.00     0.138 A 
ATOM      2  C   UNL     1      34.114  25.304  19.545  1.00  0.00     0.100 A 
ATOM      3  C   UNL     1      33.890  25.312  18.168  1.00  0.00     0.197 A 
ATOM      4  O   UNL     1      34.024  24.232  17.537  1.00  0.00    -0.289 OA
ATOM      5  C   UNL     1      33.486  26.510  17.529  1.00  0.00     0.107 A 
ATOM      6  C   UNL     1      33.268  26.647  16.125  1.00  0.00     0.134 A 
ATOM      7  C   UNL     1      32.757  27.850  15.621  1.00  0.00     0.093 A 
ATOM      8  C   UNL     1      32.515  28.938  16.460  1.00  0.00     0.123 A 
ATOM      9  C   UNL     1      32.776  28.831  17.826  1.00  0.00     0.094 A 
ATOM     10  C   UNL     1      33.252  27.634  18.365  1.00  0.00     0.146 A 
ATOM     11  O   UNL     1      33.474  27.568  19.673  1.00  0.00    -0.456 OA
ENDROOT
BRANCH   1  12
ATOM     12  C   UNL     1      34.130  26.518  21.756  1.00  0.00     0.021 A 
ATOM     13  C   UNL     1      34.523  25.377  22.481  1.00  0.00     0.016 A 
ATOM     14  C   UNL     1      34.737  25.451  23.859  1.00  0.00     0.051 A 
ATOM     15  C   UNL     1      34.570  26.666  24.536  1.00  0.00     0.157 A 
ATOM     16  C   UNL     1      33.979  27.738  22.442  1.00  0.00     0.062 A 
ATOM     17  C   UNL     1      34.193  27.811  23.826  1.00  0.00     0.158 A 
BRANCH  15  18
ATOM     18  O   UNL     1      34.782  26.743  25.912  1.00  0.00    -0.504 OA
ATOM     19  H   UNL     1      34.028  26.598  26.573  1.00  0.00     0.293 HD
ENDBRANCH  15  18
BRANCH  17  20
ATOM     20  O   UNL     1      34.033  29.020  24.502  1.00  0.00    -0.504 OA
ATOM     21  H   UNL     1      34.698  29.778  24.398  1.00  0.00     0.293 HD
ENDBRANCH  17  20
ENDBRANCH   1  12
BRANCH   6  22
ATOM     22  O   UNL     1      33.558  25.651  15.188  1.00  0.00    -0.507 OA
ATOM     23  H   UNL     1      33.013  24.815  15.047  1.00  0.00     0.293 HD
ENDBRANCH   6  22
BRANCH   8  24
ATOM     24  O   UNL     1      32.021  30.124  15.921  1.00  0.00    -0.508 OA
ATOM     25  H   UNL     1      31.945  30.259  14.919  1.00  0.00     0.293 HD
ENDBRANCH   8  24
TORSDOF 5
ENDMDL
MODEL 3
REMARK VINA RESULT:    -7.610      1.526      6.800
REMARK INTER + INTRA:          -9.225
REMARK INTER:                  -8.908
REMARK INTRA:                  -0.317
REMARK UNBOUND:                -0.281
REMARK SMILES O=c1cc(-c2ccc(O)c(O)c2)oc2cc(O)cc(O)c12
REMARK SMILES IDX 4 1 3 2 2 3 1 4 21 5 19 6 18 7 16 8 15 9 14 10 13 11 5 12
REMARK SMILES IDX 6 13 7 14 8 15 12 16 10 17 9 18 11 20 20 22 17 24
REMARK H PARENT 9 19 11 21 20 23 17 25
REMARK Flexibility Score: inf
ROOT
ATOM      1  C   UNL     1      33.955  26.495  19.428  1.00  0.00     0.138 A 
ATOM      2  C   UNL     1      34.334  25.276  20.006  1.00  0.00     0.100 A 
ATOM      3  C   UNL     1      34.684  25.231  21.356  1.00  0.00     0.197 A 
ATOM      4  O   UNL     1      35.079  24.136  21.831  1.00  0.00    -0.289 OA
ATOM      5  C   UNL     1      34.622  26.410  22.137  1.00  0.00     0.107 A 
ATOM      6  C   UNL     1      34.917  26.476  23.532  1.00  0.00     0.134 A 
ATOM      7  C   UNL     1      34.935  27.720  24.176  1.00  0.00     0.093 A 
ATOM      8  C   UNL     1      34.610  28.890  23.490  1.00  0.00     0.123 A 
ATOM      9  C   UNL     1      34.268  28.830  22.139  1.00  0.00     0.094 A 
ATOM     10  C   UNL     1      34.275  27.610  21.461  1.00  0.00     0.146 A 
ATOM     11  O   UNL     1      33.958  27.597  20.170  1.00  0.00    -0.456 OA
ENDROOT
BRANCH   1  12
ATOM     12  C   UNL     1      33.572  26.598  17.997  1.00  0.00     0.021 A 
ATOM     13  C   UNL     1      33.713  25.511  17.113  1.00  0.00     0.016 A 
ATOM     14  C   UNL     1      33.335  25.634  15.773  1.00  0.00     0.051 A 
ATOM     15  C   UNL     1      32.803  26.838  15.296  1.00  0.00     0.157 A 
ATOM     16  C   UNL     1      33.024  27.800  17.512  1.00  0.00     0.062 A 
ATOM     17  C   UNL     1      32.645  27.922  16.167  1.00  0.00     0.158 A 
BRANCH  15  18
ATOM     18  O   UNL     1      32.426  26.964  13.960  1.00  0.00    -0.504 OA
ATOM     19  H   UNL     1      33.094  26.842  13.207  1.00  0.00     0.293 HD
ENDBRANCH  15  18
BRANCH  17  20
ATOM     20  O   UNL     1      32.113  29.118  15.690  1.00  0.00    -0.504 OA
ATOM     21  H   UNL     1      31.734  29.818  16.318  1.00  0.00     0.293 HD
ENDBRANCH  17  20
ENDBRANCH   1  12
BRANCH   6  22
ATOM     22  O   UNL     1      35.171  25.357  24.332  1.00  0.00    -0.507 OA
ATOM     23  H   UNL     1      35.645  24.523  24.022  1.00  0.00     0.293 HD
ENDBRANCH   6  22
BRANCH   8  24
ATOM     24  O   UNL     1      34.624  30.109  24.167  1.00  0.00    -0.508 OA
ATOM     25  H   UNL     1      33.829  30.420  24.712  1.00  0.00     0.293 HD
ENDBRANCH   8  24
TORSDOF 5
ENDMDL
MODEL 4
REMARK VINA RESULT:    -7.508      1.018      2.639
REMARK INTER + INTRA:          -9.105
REMARK INTER:                  -8.801
REMARK INTRA:                  -0.305
REMARK UNBOUND:                -0.281
REMARK SMILES O=c1cc(-c2ccc(O)c(O)c2)oc2cc(O)cc(O)c12
REMARK SMILES IDX 4 1 3 2 2 3 1 4 21 5 19 6 18 7 16 8 15 9 14 10 13 11 5 12
REMARK SMILES IDX 6 13 7 14 8 15 12 16 10 17 9 18 11 20 20 22 17 24
REMARK H PARENT 9 19 11 21 20 23 17 25
REMARK Flexibility Score: inf
ROOT
ATOM      1  C   UNL     1      33.886  27.910  20.283  1.00  0.00     0.138 A 
ATOM      2  C   UNL     1      33.457  28.779  19.270  1.00  0.00     0.100 A 
ATOM      3  C   UNL     1      33.173  28.274  18.001  1.00  0.00     0.197 A 
ATOM      4  O   UNL     1      32.851  29.086  17.097  1.00  0.00    -0.289 OA
ATOM      5  C   UNL     1      33.290  26.884  17.755  1.00  0.00     0.107 A 
ATOM      6  C   UNL     1      32.988  26.252  16.512  1.00  0.00     0.134 A 
ATOM      7  C   UNL     1      33.251  24.885  16.351  1.00  0.00     0.093 A 
ATOM      8  C   UNL     1      33.749  24.119  17.405  1.00  0.00     0.123 A 
ATOM      9  C   UNL     1      33.997  24.717  18.641  1.00  0.00     0.094 A 
ATOM     10  C   UNL     1      33.777  26.083  18.822  1.00  0.00     0.146 A 
ATOM     11  O   UNL     1      34.040  26.618  20.010  1.00  0.00    -0.456 OA
ENDROOT
BRANCH   1  12
ATOM     12  C   UNL     1      34.200  28.394  21.650  1.00  0.00     0.021 A 
ATOM     13  C   UNL     1      34.696  29.692  21.880  1.00  0.00     0.016 A 
ATOM     14  C   UNL     1      34.973  30.125  23.179  1.00  0.00     0.051 A 
ATOM     15  C   UNL     1      34.754  29.274  24.270  1.00  0.00     0.157 A 
ATOM     16  C   UNL     1      33.971  27.551  22.754  1.00  0.00     0.062 A 
ATOM     17  C   UNL     1      34.250  27.986  24.057  1.00  0.00     0.158 A 
BRANCH  15  18
ATOM     18  O   UNL     1      35.032  29.703  25.567  1.00  0.00    -0.504 OA
ATOM     19  H   UNL     1      35.973  29.685  25.941  1.00  0.00     0.293 HD
ENDBRANCH  15  18
BRANCH  17  20
ATOM     20  O   UNL     1      34.030  27.144  25.145  1.00  0.00    -0.504 OA
ATOM     21  H   UNL     1      33.185  26.589  25.223  1.00  0.00     0.293 HD
ENDBRANCH  17  20
ENDBRANCH   1  12
BRANCH   6  22
ATOM     22  O   UNL     1      32.408  26.907  15.422  1.00  0.00    -0.507 OA
ATOM     23  H   UNL     1      31.766  27.682  15.489  1.00  0.00     0.293 HD
ENDBRANCH   6  22
BRANCH   8  24
ATOM     24  O   UNL     1      33.985  22.759  17.212  1.00  0.00    -0.508 OA
ATOM     25  H   UNL     1      34.166  22.137  17.992  1.00  0.00     0.293 HD
ENDBRANCH   8  24
TORSDOF 5
ENDMDL
MODEL 5
REMARK VINA RESULT:    -7.427      3.186      6.175
REMARK INTER + INTRA:          -9.010
REMARK INTER:                  -8.705
REMARK INTRA:                  -0.306
REMARK UNBOUND:                -0.281
REMARK SMILES O=c1cc(-c2ccc(O)c(O)c2)oc2cc(O)cc(O)c12
REMARK SMILES IDX 4 1 3 2 2 3 1 4 21 5 19 6 18 7 16 8 15 9 14 10 13 11 5 12
REMARK SMILES IDX 6 13 7 14 8 15 12 16 10 17 9 18 11 20 20 22 17 24
REMARK H PARENT 9 19 11 21 20 23 17 25
REMARK Flexibility Score: inf
ROOT
ATOM      1  C   UNL     1      33.458  24.587  17.949  1.00  0.00     0.138 A 
ATOM      2  C   UNL     1      33.407  24.865  16.577  1.00  0.00     0.100 A 
ATOM      3  C   UNL     1      33.250  26.181  16.144  1.00  0.00     0.197 A 
ATOM      4  O   UNL     1      33.145  26.392  14.908  1.00  0.00    -0.289 OA
ATOM      5  C   UNL     1      33.176  27.229  17.093  1.00  0.00     0.107 A 
ATOM      6  C   UNL     1      33.057  28.614  16.766  1.00  0.00     0.134 A 
ATOM      7  C   UNL     1      32.875  29.551  17.791  1.00  0.00     0.093 A 
ATOM      8  C   UNL     1      32.869  29.162  19.130  1.00  0.00     0.123 A 
ATOM      9  C   UNL     1      33.039  27.818  19.463  1.00  0.00     0.094 A 
ATOM     10  C   UNL     1      33.187  26.855  18.463  1.00  0.00     0.146 A 
ATOM     11  O   UNL     1      33.331  25.583  18.820  1.00  0.00    -0.456 OA
ENDROOT
BRANCH   1  12
ATOM     12  C   UNL     1      33.625  23.205  18.464  1.00  0.00     0.021 A 
ATOM     13  C   UNL     1      33.159  22.087  17.746  1.00  0.00     0.016 A 
ATOM     14  C   UNL     1      33.339  20.796  18.250  1.00  0.00     0.051 A 
ATOM     15  C   UNL     1      33.992  20.599  19.472  1.00  0.00     0.157 A 
ATOM     16  C   UNL     1      34.293  22.996  19.685  1.00  0.00     0.062 A 
ATOM     17  C   UNL     1      34.472  21.700  20.190  1.00  0.00     0.158 A 
BRANCH  15  18
ATOM     18  O   UNL     1      34.172  19.312  19.978  1.00  0.00    -0.504 OA
ATOM     19  H   UNL     1      33.853  18.494  19.471  1.00  0.00     0.293 HD
ENDBRANCH  15  18
BRANCH  17  20
ATOM     20  O   UNL     1      35.126  21.500  21.405  1.00  0.00    -0.504 OA
ATOM     21  H   UNL     1      35.545  20.607  21.640  1.00  0.00     0.293 HD
ENDBRANCH  17  20
ENDBRANCH   1  12
BRANCH   6  22
ATOM     22  O   UNL     1      33.136  29.120  15.465  1.00  0.00    -0.507 OA
ATOM     23  H   UNL     1      33.974  29.143  14.906  1.00  0.00     0.293 HD
ENDBRANCH   6  22
BRANCH   8  24
ATOM     24  O   UNL     1      32.700  30.125  20.124  1.00  0.00    -0.508 OA
ATOM     25  H   UNL     1      33.422  30.806  20.329  1.00  0.00     0.293 HD
ENDBRANCH   8  24
TORSDOF 5
ENDMDL
MODEL 6
REMARK VINA RESULT:    -6.611      1.850      3.467
REMARK INTER + INTRA:          -8.051
REMARK INTER:                  -7.757
REMARK INTRA:                  -0.294
REMARK UNBOUND:                -0.281
REMARK SMILES O=c1cc(-c2ccc(O)c(O)c2)oc2cc(O)cc(O)c12
REMARK SMILES IDX 4 1 3 2 2 3 1 4 21 5 19 6 18 7 16 8 15 9 14 10 13 11 5 12
REMARK SMILES IDX 6 13 7 14 8 15 12 16 10 17 9 18 11 20 20 22 17 24
REMARK H PARENT 9 19 11 21 20 23 17 25
REMARK Flexibility Score: inf
ROOT
ATOM      1  C   UNL     1      33.469  27.331  20.140  1.00  0.00     0.138 A 
ATOM      2  C   UNL     1      32.734  28.524  20.112  1.00  0.00     0.100 A 
ATOM      3  C   UNL     1      32.269  29.020  18.894  1.00  0.00     0.197 A 
ATOM      4  O   UNL     1      31.667  30.125  18.892  1.00  0.00    -0.289 OA
ATOM      5  C   UNL     1      32.515  28.298  17.701  1.00  0.00     0.107 A 
ATOM      6  C   UNL     1      32.054  28.686  16.407  1.00  0.00     0.134 A 
ATOM      7  C   UNL     1      32.457  27.954  15.282  1.00  0.00     0.093 A 
ATOM      8  C   UNL     1      33.253  26.816  15.411  1.00  0.00     0.123 A 
ATOM      9  C   UNL     1      33.665  26.397  16.677  1.00  0.00     0.094 A 
ATOM     10  C   UNL     1      33.308  27.125  17.814  1.00  0.00     0.146 A 
ATOM     11  O   UNL     1      33.733  26.702  19.000  1.00  0.00    -0.456 OA
ENDROOT
BRANCH   1  12
ATOM     12  C   UNL     1      33.986  26.760  21.409  1.00  0.00     0.021 A 
ATOM     13  C   UNL     1      34.667  25.528  21.442  1.00  0.00     0.016 A 
ATOM     14  C   UNL     1      35.152  25.019  22.650  1.00  0.00     0.051 A 
ATOM     15  C   UNL     1      34.974  25.733  23.841  1.00  0.00     0.157 A 
ATOM     16  C   UNL     1      33.824  27.477  22.609  1.00  0.00     0.062 A 
ATOM     17  C   UNL     1      34.311  26.965  23.820  1.00  0.00     0.158 A 
BRANCH  15  18
ATOM     18  O   UNL     1      35.456  25.226  25.047  1.00  0.00    -0.504 OA
ATOM     19  H   UNL     1      35.797  25.837  25.780  1.00  0.00     0.293 HD
ENDBRANCH  15  18
BRANCH  17  20
ATOM     20  O   UNL     1      34.138  27.675  25.007  1.00  0.00    -0.504 OA
ATOM     21  H   UNL     1      34.128  27.208  25.907  1.00  0.00     0.293 HD
ENDBRANCH  17  20
ENDBRANCH   1  12
BRANCH   6  22
ATOM     22  O   UNL     1      31.185  29.756  16.175  1.00  0.00    -0.507 OA
ATOM     23  H   UNL     1      31.336  30.484  15.494  1.00  0.00     0.293 HD
ENDBRANCH   6  22
BRANCH   8  24
ATOM     24  O   UNL     1      33.623  26.104  14.272  1.00  0.00    -0.508 OA
ATOM     25  H   UNL     1      33.736  26.562  13.375  1.00  0.00     0.293 HD
ENDBRANCH   8  24
TORSDOF 5
ENDMDL
MODEL 7
REMARK VINA RESULT:    -6.555      2.828      4.619
REMARK INTER + INTRA:          -7.985
REMARK INTER:                  -7.700
REMARK INTRA:                  -0.285
REMARK UNBOUND:                -0.281
REMARK SMILES O=c1cc(-c2ccc(O)c(O)c2)oc2cc(O)cc(O)c12
REMARK SMILES IDX 4 1 3 2 2 3 1 4 21 5 19 6 18 7 16 8 15 9 14 10 13 11 5 12
REMARK SMILES IDX 6 13 7 14 8 15 12 16 10 17 9 18 11 20 20 22 17 24
REMARK H PARENT 9 19 11 21 20 23 17 25
REMARK Flexibility Score: inf
ROOT
ATOM      1  C   UNL     1      34.838  25.072  20.408  1.00  0.00     0.138 A 
ATOM      2  C   UNL     1      34.455  24.991  19.063  1.00  0.00     0.100 A 
ATOM      3  C   UNL     1      34.070  23.762  18.526  1.00  0.00     0.197 A 
ATOM      4  O   UNL     1      33.792  23.709  17.301  1.00  0.00    -0.289 OA
ATOM      5  C   UNL     1      34.038  22.613  19.354  1.00  0.00     0.107 A 
ATOM      6  C   UNL     1      33.623  21.316  18.926  1.00  0.00     0.134 A 
ATOM      7  C   UNL     1      33.744  20.230  19.802  1.00  0.00     0.093 A 
ATOM      8  C   UNL     1      34.207  20.404  21.106  1.00  0.00     0.123 A 
ATOM      9  C   UNL     1      34.564  21.677  21.551  1.00  0.00     0.094 A 
ATOM     10  C   UNL     1      34.488  22.774  20.691  1.00  0.00     0.146 A 
ATOM     11  O   UNL     1      34.852  23.968  21.148  1.00  0.00    -0.456 OA
ENDROOT
BRANCH   1  12
ATOM     12  C   UNL     1      35.255  26.354  21.029  1.00  0.00     0.021 A 
ATOM     13  C   UNL     1      34.433  27.497  20.992  1.00  0.00     0.016 A 
ATOM     14  C   UNL     1      34.848  28.688  21.593  1.00  0.00     0.051 A 
ATOM     15  C   UNL     1      36.083  28.756  22.248  1.00  0.00     0.157 A 
ATOM     16  C   UNL     1      36.490  26.429  21.701  1.00  0.00     0.062 A 
ATOM     17  C   UNL     1      36.905  27.625  22.304  1.00  0.00     0.158 A 
BRANCH  15  18
ATOM     18  O   UNL     1      36.500  29.944  22.848  1.00  0.00    -0.504 OA
ATOM     19  H   UNL     1      36.344  30.123  23.833  1.00  0.00     0.293 HD
ENDBRANCH  15  18
BRANCH  17  20
ATOM     20  O   UNL     1      38.133  27.696  22.959  1.00  0.00    -0.504 OA
ATOM     21  H   UNL     1      38.932  27.155  22.647  1.00  0.00     0.293 HD
ENDBRANCH  17  20
ENDBRANCH   1  12
BRANCH   6  22
ATOM     22  O   UNL     1      33.066  21.047  17.672  1.00  0.00    -0.507 OA
ATOM     23  H   UNL     1      32.752  20.140  17.364  1.00  0.00     0.293 HD
ENDBRANCH   6  22
BRANCH   8  24
ATOM     24  O   UNL     1      34.300  19.302  21.955  1.00  0.00    -0.508 OA
ATOM     25  H   UNL     1      33.473  18.819  22.287  1.00  0.00     0.293 HD
ENDBRANCH   8  24
TORSDOF 5
ENDMDL
MODEL 8
REMARK VINA RESULT:    -6.549      2.556      6.027
REMARK INTER + INTRA:          -7.978
REMARK INTER:                  -7.688
REMARK INTRA:                  -0.290
REMARK UNBOUND:                -0.281
REMARK SMILES O=c1cc(-c2ccc(O)c(O)c2)oc2cc(O)cc(O)c12
REMARK SMILES IDX 4 1 3 2 2 3 1 4 21 5 19 6 18 7 16 8 15 9 14 10 13 11 5 12
REMARK SMILES IDX 6 13 7 14 8 15 12 16 10 17 9 18 11 20 20 22 17 24
REMARK H PARENT 9 19 11 21 20 23 17 25
REMARK Flexibility Score: inf
ROOT
ATOM      1  C   UNL     1      34.041  25.190  19.623  1.00  0.00     0.138 A 
ATOM      2  C   UNL     1      34.740  25.778  20.686  1.00  0.00     0.100 A 
ATOM      3  C   UNL     1      34.685  27.159  20.870  1.00  0.00     0.197 A 
ATOM      4  O   UNL     1      35.372  27.664  21.795  1.00  0.00    -0.289 OA
ATOM      5  C   UNL     1      33.898  27.953  20.000  1.00  0.00     0.107 A 
ATOM      6  C   UNL     1      33.735  29.366  20.116  1.00  0.00     0.134 A 
ATOM      7  C   UNL     1      33.025  30.062  19.129  1.00  0.00     0.093 A 
ATOM      8  C   UNL     1      32.424  29.390  18.065  1.00  0.00     0.123 A 
ATOM      9  C   UNL     1      32.532  28.002  17.972  1.00  0.00     0.094 A 
ATOM     10  C   UNL     1      33.262  27.284  18.921  1.00  0.00     0.146 A 
ATOM     11  O   UNL     1      33.355  25.965  18.789  1.00  0.00    -0.456 OA
ENDROOT
BRANCH   1  12
ATOM     12  C   UNL     1      34.065  23.726  19.383  1.00  0.00     0.021 A 
ATOM     13  C   UNL     1      33.767  23.177  18.121  1.00  0.00     0.016 A 
ATOM     14  C   UNL     1      33.807  21.795  17.921  1.00  0.00     0.051 A 
ATOM     15  C   UNL     1      34.153  20.939  18.974  1.00  0.00     0.157 A 
ATOM     16  C   UNL     1      34.425  22.858  20.431  1.00  0.00     0.062 A 
ATOM     17  C   UNL     1      34.464  21.471  20.230  1.00  0.00     0.158 A 
BRANCH  15  18
ATOM     18  O   UNL     1      34.193  19.559  18.778  1.00  0.00    -0.504 OA
ATOM     19  H   UNL     1      35.042  19.090  18.485  1.00  0.00     0.293 HD
ENDBRANCH  15  18
BRANCH  17  20
ATOM     20  O   UNL     1      34.812  20.616  21.275  1.00  0.00    -0.504 OA
ATOM     21  H   UNL     1      35.506  19.887  21.154  1.00  0.00     0.293 HD
ENDBRANCH  17  20
ENDBRANCH   1  12
BRANCH   6  22
ATOM     22  O   UNL     1      34.221  30.125  21.185  1.00  0.00    -0.507 OA
ATOM     23  H   UNL     1      34.039  31.106  21.326  1.00  0.00     0.293 HD
ENDBRANCH   6  22
BRANCH   8  24
ATOM     24  O   UNL     1      31.713  30.113  17.109  1.00  0.00    -0.508 OA
ATOM     25  H   UNL     1      30.950  29.696  16.589  1.00  0.00     0.293 HD
ENDBRANCH   8  24
TORSDOF 5
ENDMDL
MODEL 9
REMARK VINA RESULT:    -6.488      1.648      3.249
REMARK INTER + INTRA:          -7.907
REMARK INTER:                  -7.642
REMARK INTRA:                  -0.264
REMARK UNBOUND:                -0.281
REMARK SMILES O=c1cc(-c2ccc(O)c(O)c2)oc2cc(O)cc(O)c12
REMARK SMILES IDX 4 1 3 2 2 3 1 4 21 5 19 6 18 7 16 8 15 9 14 10 13 11 5 12
REMARK SMILES IDX 6 13 7 14 8 15 12 16 10 17 9 18 11 20 20 22 17 24
REMARK H PARENT 9 19 11 21 20 23 17 25
REMARK Flexibility Score: inf
ROOT
ATOM      1  C   UNL     1      34.481  27.057  20.782  1.00  0.00     0.138 A 
ATOM      2  C   UNL     1      33.854  27.642  19.673  1.00  0.00     0.100 A 
ATOM      3  C   UNL     1      33.454  26.841  18.604  1.00  0.00     0.197 A 
ATOM      4  O   UNL     1      32.950  27.402  17.597  1.00  0.00    -0.289 OA
ATOM      5  C   UNL     1      33.654  25.441  18.661  1.00  0.00     0.107 A 
ATOM      6  C   UNL     1      33.250  24.521  17.648  1.00  0.00     0.134 A 
ATOM      7  C   UNL     1      33.606  23.170  17.760  1.00  0.00     0.093 A 
ATOM      8  C   UNL     1      34.297  22.698  18.875  1.00  0.00     0.123 A 
ATOM      9  C   UNL     1      34.650  23.580  19.897  1.00  0.00     0.094 A 
ATOM     10  C   UNL     1      34.340  24.938  19.798  1.00  0.00     0.146 A 
ATOM     11  O   UNL     1      34.707  25.748  20.786  1.00  0.00    -0.456 OA
ENDROOT
BRANCH   1  12
ATOM     12  C   UNL     1      34.926  27.863  21.947  1.00  0.00     0.021 A 
ATOM     13  C   UNL     1      34.050  28.187  23.000  1.00  0.00     0.016 A 
ATOM     14  C   UNL     1      34.499  28.939  24.089  1.00  0.00     0.051 A 
ATOM     15  C   UNL     1      35.829  29.373  24.149  1.00  0.00     0.157 A 
ATOM     16  C   UNL     1      36.264  28.292  22.021  1.00  0.00     0.062 A 
ATOM     17  C   UNL     1      36.714  29.047  23.114  1.00  0.00     0.158 A 
BRANCH  15  18
ATOM     18  O   UNL     1      36.279  30.124  25.233  1.00  0.00    -0.504 OA
ATOM     19  H   UNL     1      36.210  29.778  26.183  1.00  0.00     0.293 HD
ENDBRANCH  15  18
BRANCH  17  20
ATOM     20  O   UNL     1      38.038  29.477  23.178  1.00  0.00    -0.504 OA
ATOM     21  H   UNL     1      38.505  29.624  24.066  1.00  0.00     0.293 HD
ENDBRANCH  17  20
ENDBRANCH   1  12
BRANCH   6  22
ATOM     22  O   UNL     1      32.482  24.872  16.533  1.00  0.00    -0.507 OA
ATOM     23  H   UNL     1      32.195  25.811  16.304  1.00  0.00     0.293 HD
ENDBRANCH   6  22
BRANCH   8  24
ATOM     24  O   UNL     1      34.621  21.345  18.960  1.00  0.00    -0.508 OA
ATOM     25  H   UNL     1      34.286  20.677  18.275  1.00  0.00     0.293 HD
ENDBRANCH   8  24
TORSDOF 5
ENDMDL
