MODEL 1
REMARK VINA RESULT:    -5.274      0.000      0.000
REMARK INTER + INTRA:          -6.663
REMARK INTER:                  -6.353
REMARK INTRA:                  -0.310
REMARK UNBOUND:                -0.310
REMARK SMILES O=c1c(O)c(-c2ccc(O)c(O)c2)oc2cc(O)cc(O)c12
REMARK SMILES IDX 5 1 3 2 2 3 1 4 22 5 20 6 19 7 17 8 16 9 15 10 14 11 6 12
REMARK SMILES IDX 7 13 8 14 9 15 13 16 11 17 10 18 12 20 4 22 21 24 18 26
REMARK H PARENT 10 19 12 21 4 23 21 25 18 27
REMARK Flexibility Score: inf
ROOT
ATOM      1  C   UNL     1     -10.550  -2.727  23.980  1.00  0.00     0.180 A 
ATOM      2  C   UNL     1     -11.133  -2.773  25.262  1.00  0.00     0.208 A 
ATOM      3  C   UNL     1     -10.722  -1.842  26.227  1.00  0.00     0.238 A 
ATOM      4  O   UNL     1     -11.228  -1.880  27.382  1.00  0.00    -0.285 OA
ATOM      5  C   UNL     1      -9.755  -0.871  25.893  1.00  0.00     0.111 A 
ATOM      6  C   UNL     1      -9.290   0.105  26.807  1.00  0.00     0.134 A 
ATOM      7  C   UNL     1      -8.332   1.044  26.394  1.00  0.00     0.093 A 
ATOM      8  C   UNL     1      -7.832   1.024  25.086  1.00  0.00     0.123 A 
ATOM      9  C   UNL     1      -8.288   0.063  24.183  1.00  0.00     0.094 A 
ATOM     10  C   UNL     1      -9.241  -0.882  24.575  1.00  0.00     0.146 A 
ATOM     11  O   UNL     1      -9.653  -1.788  23.696  1.00  0.00    -0.452 OA
ENDROOT
BRANCH   1  12
ATOM     12  C   UNL     1     -10.917  -3.687  22.914  1.00  0.00     0.025 A 
ATOM     13  C   UNL     1     -11.771  -3.277  21.881  1.00  0.00     0.016 A 
ATOM     14  C   UNL     1     -12.114  -4.159  20.856  1.00  0.00     0.051 A 
ATOM     15  C   UNL     1     -11.600  -5.462  20.832  1.00  0.00     0.157 A 
ATOM     16  C   UNL     1     -10.381  -4.986  22.882  1.00  0.00     0.062 A 
ATOM     17  C   UNL     1     -10.717  -5.877  21.855  1.00  0.00     0.158 A 
BRANCH  15  18
ATOM     18  O   UNL     1     -11.988  -6.297  19.782  1.00  0.00    -0.504 OA
ATOM     19  H   UNL     1     -12.948  -6.527  19.569  1.00  0.00     0.293 HD
ENDBRANCH  15  18
BRANCH  17  20
ATOM     20  O   UNL     1     -10.149  -7.153  21.888  1.00  0.00    -0.504 OA
ATOM     21  H   UNL     1      -9.486  -7.459  22.586  1.00  0.00     0.293 HD
ENDBRANCH  17  20
ENDBRANCH   1  12
BRANCH   2  22
ATOM     22  O   UNL     1     -12.124  -3.714  25.552  1.00  0.00    -0.502 OA
ATOM     23  H   UNL     1     -11.953  -4.518  26.145  1.00  0.00     0.293 HD
ENDBRANCH   2  22
BRANCH   6  24
ATOM     24  O   UNL     1      -9.771   0.151  28.116  1.00  0.00    -0.507 OA
ATOM     25  H   UNL     1     -10.759   0.075  28.324  1.00  0.00     0.293 HD
ENDBRANCH   6  24
BRANCH   8  26
ATOM     26  O   UNL     1      -6.882   1.957  24.676  1.00  0.00    -0.508 OA
ATOM     27  H   UNL     1      -6.935   2.928  24.961  1.00  0.00     0.293 HD
ENDBRANCH   8  26
TORSDOF 6
ENDMDL
MODEL 2
REMARK VINA RESULT:    -5.269      2.027      3.064
REMARK INTER + INTRA:          -6.657
REMARK INTER:                  -6.342
REMARK INTRA:                  -0.315
REMARK UNBOUND:                -0.310
REMARK SMILES O=c1c(O)c(-c2ccc(O)c(O)c2)oc2cc(O)cc(O)c12
REMARK SMILES IDX 5 1 3 2 2 3 1 4 22 5 20 6 19 7 17 8 16 9 15 10 14 11 6 12
REMARK SMILES IDX 7 13 8 14 9 15 13 16 11 17 10 18 12 20 4 22 21 24 18 26
REMARK H PARENT 10 19 12 21 4 23 21 25 18 27
REMARK Flexibility Score: inf
ROOT
ATOM      1  C   UNL     1      -9.604  -2.947  23.745  1.00  0.00     0.180 A 
ATOM      2  C   UNL     1      -9.428  -2.091  22.641  1.00  0.00     0.208 A 
ATOM      3  C   UNL     1      -8.901  -0.808  22.855  1.00  0.00     0.238 A 
ATOM      4  O   UNL     1      -8.750  -0.028  21.875  1.00  0.00    -0.285 OA
ATOM      5  C   UNL     1      -8.539  -0.412  24.158  1.00  0.00     0.111 A 
ATOM      6  C   UNL     1      -7.997   0.862  24.458  1.00  0.00     0.134 A 
ATOM      7  C   UNL     1      -7.654   1.178  25.781  1.00  0.00     0.093 A 
ATOM      8  C   UNL     1      -7.841   0.245  26.808  1.00  0.00     0.123 A 
ATOM      9  C   UNL     1      -8.375  -1.011  26.517  1.00  0.00     0.094 A 
ATOM     10  C   UNL     1      -8.725  -1.345  25.205  1.00  0.00     0.146 A 
ATOM     11  O   UNL     1      -9.237  -2.545  24.958  1.00  0.00    -0.452 OA
ENDROOT
BRANCH   1  12
ATOM     12  C   UNL     1     -10.172  -4.307  23.604  1.00  0.00     0.025 A 
ATOM     13  C   UNL     1     -11.563  -4.474  23.569  1.00  0.00     0.016 A 
ATOM     14  C   UNL     1     -12.119  -5.745  23.416  1.00  0.00     0.051 A 
ATOM     15  C   UNL     1     -11.300  -6.872  23.280  1.00  0.00     0.157 A 
ATOM     16  C   UNL     1      -9.345  -5.433  23.444  1.00  0.00     0.062 A 
ATOM     17  C   UNL     1      -9.894  -6.712  23.287  1.00  0.00     0.158 A 
BRANCH  15  18
ATOM     18  O   UNL     1     -11.918  -8.115  23.138  1.00  0.00    -0.504 OA
ATOM     19  H   UNL     1     -12.743  -8.397  23.648  1.00  0.00     0.293 HD
ENDBRANCH  15  18
BRANCH  17  20
ATOM     20  O   UNL     1      -9.013  -7.785  23.135  1.00  0.00    -0.504 OA
ATOM     21  H   UNL     1      -8.919  -8.324  22.286  1.00  0.00     0.293 HD
ENDBRANCH  17  20
ENDBRANCH   1  12
BRANCH   2  22
ATOM     22  O   UNL     1      -9.749  -2.526  21.353  1.00  0.00    -0.502 OA
ATOM     23  H   UNL     1      -9.045  -2.836  20.693  1.00  0.00     0.293 HD
ENDBRANCH   2  22
BRANCH   6  24
ATOM     24  O   UNL     1      -7.797   1.812  23.456  1.00  0.00    -0.507 OA
ATOM     25  H   UNL     1      -7.965   1.600  22.480  1.00  0.00     0.293 HD
ENDBRANCH   6  24
BRANCH   8  26
ATOM     26  O   UNL     1      -7.498   0.558  28.122  1.00  0.00    -0.508 OA
ATOM     27  H   UNL     1      -7.726  -0.060  28.891  1.00  0.00     0.293 HD
ENDBRANCH   8  26
TORSDOF 6
ENDMDL
MODEL 3
REMARK VINA RESULT:    -5.096     20.311     23.306
REMARK INTER + INTRA:          -6.449
REMARK INTER:                  -6.654
REMARK INTRA:                   0.205
REMARK UNBOUND:                -0.310
REMARK SMILES O=c1c(O)c(-c2ccc(O)c(O)c2)oc2cc(O)cc(O)c12
REMARK SMILES IDX 5 1 3 2 2 3 1 4 22 5 20 6 19 7 17 8 16 9 15 10 14 11 6 12
REMARK SMILES IDX 7 13 8 14 9 15 13 16 11 17 10 18 12 20 4 22 21 24 18 26
REMARK H PARENT 10 19 12 21 4 23 21 25 18 27
REMARK Flexibility Score: inf
ROOT
ATOM      1  C   UNL     1       7.084   8.454  13.198  1.00  0.00     0.180 A 
ATOM      2  C   UNL     1       7.541   9.324  14.207  1.00  0.00     0.208 A 
ATOM      3  C   UNL     1       7.726   8.821  15.504  1.00  0.00     0.238 A 
ATOM      4  O   UNL     1       8.125   9.593  16.418  1.00  0.00    -0.285 OA
ATOM      5  C   UNL     1       7.475   7.459  15.765  1.00  0.00     0.111 A 
ATOM      6  C   UNL     1       7.641   6.872  17.043  1.00  0.00     0.134 A 
ATOM      7  C   UNL     1       7.378   5.505  17.221  1.00  0.00     0.093 A 
ATOM      8  C   UNL     1       6.953   4.715  16.145  1.00  0.00     0.123 A 
ATOM      9  C   UNL     1       6.787   5.290  14.884  1.00  0.00     0.094 A 
ATOM     10  C   UNL     1       7.043   6.651  14.687  1.00  0.00     0.146 A 
ATOM     11  O   UNL     1       6.872   7.172  13.478  1.00  0.00    -0.452 OA
ENDROOT
BRANCH   1  12
ATOM     12  C   UNL     1       6.846   8.914  11.811  1.00  0.00     0.025 A 
ATOM     13  C   UNL     1       6.316  10.192  11.590  1.00  0.00     0.016 A 
ATOM     14  C   UNL     1       6.102  10.654  10.290  1.00  0.00     0.051 A 
ATOM     15  C   UNL     1       6.426   9.856   9.186  1.00  0.00     0.157 A 
ATOM     16  C   UNL     1       7.194   8.119  10.706  1.00  0.00     0.062 A 
ATOM     17  C   UNL     1       6.986   8.574   9.398  1.00  0.00     0.158 A 
BRANCH  15  18
ATOM     18  O   UNL     1       6.181  10.373   7.913  1.00  0.00    -0.504 OA
ATOM     19  H   UNL     1       5.565   9.943   7.238  1.00  0.00     0.293 HD
ENDBRANCH  15  18
BRANCH  17  20
ATOM     20  O   UNL     1       7.353   7.730   8.348  1.00  0.00    -0.504 OA
ATOM     21  H   UNL     1       8.193   7.844   7.798  1.00  0.00     0.293 HD
ENDBRANCH  17  20
ENDBRANCH   1  12
BRANCH   2  22
ATOM     22  O   UNL     1       7.830  10.658  13.910  1.00  0.00    -0.502 OA
ATOM     23  H   UNL     1       7.399  11.431  14.406  1.00  0.00     0.293 HD
ENDBRANCH   2  22
BRANCH   6  24
ATOM     24  O   UNL     1       8.065   7.632  18.134  1.00  0.00    -0.507 OA
ATOM     25  H   UNL     1       8.584   8.493  18.013  1.00  0.00     0.293 HD
ENDBRANCH   6  24
BRANCH   8  26
ATOM     26  O   UNL     1       6.693   3.358  16.321  1.00  0.00    -0.508 OA
ATOM     27  H   UNL     1       5.926   2.899  15.845  1.00  0.00     0.293 HD
ENDBRANCH   8  26
TORSDOF 6
ENDMDL
MODEL 4
REMARK VINA RESULT:    -5.009      1.907      2.502
REMARK INTER + INTRA:          -6.344
REMARK INTER:                  -6.219
REMARK INTRA:                  -0.124
REMARK UNBOUND:                -0.310
REMARK SMILES O=c1c(O)c(-c2ccc(O)c(O)c2)oc2cc(O)cc(O)c12
REMARK SMILES IDX 5 1 3 2 2 3 1 4 22 5 20 6 19 7 17 8 16 9 15 10 14 11 6 12
REMARK SMILES IDX 7 13 8 14 9 15 13 16 11 17 10 18 12 20 4 22 21 24 18 26
REMARK H PARENT 10 19 12 21 4 23 21 25 18 27
REMARK Flexibility Score: inf
ROOT
ATOM      1  C   UNL     1      -9.254  -3.029  23.443  1.00  0.00     0.180 A 
ATOM      2  C   UNL     1      -8.893  -2.761  24.778  1.00  0.00     0.208 A 
ATOM      3  C   UNL     1      -8.467  -1.469  25.120  1.00  0.00     0.238 A 
ATOM      4  O   UNL     1      -8.130  -1.220  26.309  1.00  0.00    -0.285 OA
ATOM      5  C   UNL     1      -8.431  -0.463  24.132  1.00  0.00     0.111 A 
ATOM      6  C   UNL     1      -8.019   0.866  24.395  1.00  0.00     0.134 A 
ATOM      7  C   UNL     1      -8.020   1.812  23.359  1.00  0.00     0.093 A 
ATOM      8  C   UNL     1      -8.425   1.454  22.067  1.00  0.00     0.123 A 
ATOM      9  C   UNL     1      -8.831   0.145  21.804  1.00  0.00     0.094 A 
ATOM     10  C   UNL     1      -8.837  -0.813  22.822  1.00  0.00     0.146 A 
ATOM     11  O   UNL     1      -9.223  -2.052  22.542  1.00  0.00    -0.452 OA
ENDROOT
BRANCH   1  12
ATOM     12  C   UNL     1      -9.695  -4.371  23.001  1.00  0.00     0.025 A 
ATOM     13  C   UNL     1     -10.936  -4.517  22.368  1.00  0.00     0.016 A 
ATOM     14  C   UNL     1     -11.362  -5.770  21.925  1.00  0.00     0.051 A 
ATOM     15  C   UNL     1     -10.553  -6.900  22.092  1.00  0.00     0.157 A 
ATOM     16  C   UNL     1      -8.869  -5.499  23.151  1.00  0.00     0.062 A 
ATOM     17  C   UNL     1      -9.286  -6.760  22.708  1.00  0.00     0.158 A 
BRANCH  15  18
ATOM     18  O   UNL     1     -11.040  -8.125  21.634  1.00  0.00    -0.504 OA
ATOM     19  H   UNL     1     -10.541  -8.999  21.720  1.00  0.00     0.293 HD
ENDBRANCH  15  18
BRANCH  17  20
ATOM     20  O   UNL     1      -8.415  -7.837  22.890  1.00  0.00    -0.504 OA
ATOM     21  H   UNL     1      -7.976  -8.343  22.135  1.00  0.00     0.293 HD
ENDBRANCH  17  20
ENDBRANCH   1  12
BRANCH   2  22
ATOM     22  O   UNL     1      -8.984  -3.763  25.748  1.00  0.00    -0.502 OA
ATOM     23  H   UNL     1      -9.716  -4.464  25.738  1.00  0.00     0.293 HD
ENDBRANCH   2  22
BRANCH   6  24
ATOM     24  O   UNL     1      -7.612   1.253  25.672  1.00  0.00    -0.507 OA
ATOM     25  H   UNL     1      -7.659   0.620  26.461  1.00  0.00     0.293 HD
ENDBRANCH   6  24
BRANCH   8  26
ATOM     26  O   UNL     1      -8.427   2.394  21.039  1.00  0.00    -0.508 OA
ATOM     27  H   UNL     1      -7.762   3.158  21.017  1.00  0.00     0.293 HD
ENDBRANCH   8  26
TORSDOF 6
ENDMDL
MODEL 5
REMARK VINA RESULT:    -4.971      1.642      6.908
REMARK INTER + INTRA:          -6.298
REMARK INTER:                  -5.976
REMARK INTRA:                  -0.322
REMARK UNBOUND:                -0.310
REMARK SMILES O=c1c(O)c(-c2ccc(O)c(O)c2)oc2cc(O)cc(O)c12
REMARK SMILES IDX 5 1 3 2 2 3 1 4 22 5 20 6 19 7 17 8 16 9 15 10 14 11 6 12
REMARK SMILES IDX 7 13 8 14 9 15 13 16 11 17 10 18 12 20 4 22 21 24 18 26
REMARK H PARENT 10 19 12 21 4 23 21 25 18 27
REMARK Flexibility Score: inf
ROOT
ATOM      1  C   UNL     1      -9.626  -2.729  25.033  1.00  0.00     0.180 A 
ATOM      2  C   UNL     1      -9.088  -3.952  25.479  1.00  0.00     0.208 A 
ATOM      3  C   UNL     1      -9.288  -5.104  24.702  1.00  0.00     0.238 A 
ATOM      4  O   UNL     1      -8.821  -6.207  25.096  1.00  0.00    -0.285 OA
ATOM      5  C   UNL     1     -10.000  -5.011  23.489  1.00  0.00     0.111 A 
ATOM      6  C   UNL     1     -10.241  -6.123  22.646  1.00  0.00     0.134 A 
ATOM      7  C   UNL     1     -10.950  -5.947  21.448  1.00  0.00     0.093 A 
ATOM      8  C   UNL     1     -11.422  -4.682  21.078  1.00  0.00     0.123 A 
ATOM      9  C   UNL     1     -11.187  -3.583  21.906  1.00  0.00     0.094 A 
ATOM     10  C   UNL     1     -10.483  -3.738  23.105  1.00  0.00     0.146 A 
ATOM     11  O   UNL     1     -10.278  -2.676  23.876  1.00  0.00    -0.452 OA
ENDROOT
BRANCH   1  12
ATOM     12  C   UNL     1      -9.475  -1.475  25.806  1.00  0.00     0.025 A 
ATOM     13  C   UNL     1     -10.389  -1.178  26.825  1.00  0.00     0.016 A 
ATOM     14  C   UNL     1     -10.253  -0.011  27.579  1.00  0.00     0.051 A 
ATOM     15  C   UNL     1      -9.195   0.874  27.341  1.00  0.00     0.157 A 
ATOM     16  C   UNL     1      -8.398  -0.601  25.579  1.00  0.00     0.062 A 
ATOM     17  C   UNL     1      -8.251   0.571  26.332  1.00  0.00     0.158 A 
BRANCH  15  18
ATOM     18  O   UNL     1      -9.120   2.027  28.125  1.00  0.00    -0.504 OA
ATOM     19  H   UNL     1      -8.294   2.604  28.203  1.00  0.00     0.293 HD
ENDBRANCH  15  18
BRANCH  17  20
ATOM     20  O   UNL     1      -7.159   1.394  26.051  1.00  0.00    -0.504 OA
ATOM     21  H   UNL     1      -6.803   2.098  26.683  1.00  0.00     0.293 HD
ENDBRANCH  17  20
ENDBRANCH   1  12
BRANCH   2  22
ATOM     22  O   UNL     1      -8.345  -4.007  26.661  1.00  0.00    -0.502 OA
ATOM     23  H   UNL     1      -7.998  -3.175  27.123  1.00  0.00     0.293 HD
ENDBRANCH   2  22
BRANCH   6  24
ATOM     24  O   UNL     1      -9.782  -7.396  22.986  1.00  0.00    -0.507 OA
ATOM     25  H   UNL     1      -8.838  -7.696  22.777  1.00  0.00     0.293 HD
ENDBRANCH   6  24
BRANCH   8  26
ATOM     26  O   UNL     1     -12.125  -4.507  19.888  1.00  0.00    -0.508 OA
ATOM     27  H   UNL     1     -13.137  -4.541  19.860  1.00  0.00     0.293 HD
ENDBRANCH   8  26
TORSDOF 6
ENDMDL
MODEL 6
REMARK VINA RESULT:    -4.903      1.638      7.200
REMARK INTER + INTRA:          -6.217
REMARK INTER:                  -6.252
REMARK INTRA:                   0.035
REMARK UNBOUND:                -0.310
REMARK SMILES O=c1c(O)c(-c2ccc(O)c(O)c2)oc2cc(O)cc(O)c12
REMARK SMILES IDX 5 1 3 2 2 3 1 4 22 5 20 6 19 7 17 8 16 9 15 10 14 11 6 12
REMARK SMILES IDX 7 13 8 14 9 15 13 16 11 17 10 18 12 20 4 22 21 24 18 26
REMARK H PARENT 10 19 12 21 4 23 21 25 18 27
REMARK Flexibility Score: inf
ROOT
ATOM      1  C   UNL     1      -9.867  -2.090  24.469  1.00  0.00     0.180 A 
ATOM      2  C   UNL     1      -9.887  -1.921  23.071  1.00  0.00     0.208 A 
ATOM      3  C   UNL     1     -10.225  -3.016  22.261  1.00  0.00     0.238 A 
ATOM      4  O   UNL     1     -10.236  -2.881  21.007  1.00  0.00    -0.285 OA
ATOM      5  C   UNL     1     -10.558  -4.249  22.858  1.00  0.00     0.111 A 
ATOM      6  C   UNL     1     -10.915  -5.399  22.114  1.00  0.00     0.134 A 
ATOM      7  C   UNL     1     -11.241  -6.588  22.784  1.00  0.00     0.093 A 
ATOM      8  C   UNL     1     -11.219  -6.647  24.183  1.00  0.00     0.123 A 
ATOM      9  C   UNL     1     -10.867  -5.516  24.920  1.00  0.00     0.094 A 
ATOM     10  C   UNL     1     -10.537  -4.322  24.271  1.00  0.00     0.146 A 
ATOM     11  O   UNL     1     -10.201  -3.262  24.998  1.00  0.00    -0.452 OA
ENDROOT
BRANCH   1  12
ATOM     12  C   UNL     1      -9.501  -0.988  25.389  1.00  0.00     0.025 A 
ATOM     13  C   UNL     1     -10.254  -0.783  26.552  1.00  0.00     0.016 A 
ATOM     14  C   UNL     1      -9.915   0.237  27.443  1.00  0.00     0.051 A 
ATOM     15  C   UNL     1      -8.811   1.061  27.199  1.00  0.00     0.157 A 
ATOM     16  C   UNL     1      -8.378  -0.178  25.150  1.00  0.00     0.062 A 
ATOM     17  C   UNL     1      -8.028   0.846  26.040  1.00  0.00     0.158 A 
BRANCH  15  18
ATOM     18  O   UNL     1      -8.529   2.067  28.125  1.00  0.00    -0.504 OA
ATOM     19  H   UNL     1      -7.617   2.223  28.530  1.00  0.00     0.293 HD
ENDBRANCH  15  18
BRANCH  17  20
ATOM     20  O   UNL     1      -6.901   1.614  25.740  1.00  0.00    -0.504 OA
ATOM     21  H   UNL     1      -6.790   2.147  24.889  1.00  0.00     0.293 HD
ENDBRANCH  17  20
ENDBRANCH   1  12
BRANCH   2  22
ATOM     22  O   UNL     1      -9.601  -0.676  22.506  1.00  0.00    -0.502 OA
ATOM     23  H   UNL     1     -10.100   0.167  22.768  1.00  0.00     0.293 HD
ENDBRANCH   2  22
BRANCH   6  24
ATOM     24  O   UNL     1     -10.948  -5.371  20.719  1.00  0.00    -0.507 OA
ATOM     25  H   UNL     1     -10.103  -5.289  20.168  1.00  0.00     0.293 HD
ENDBRANCH   6  24
BRANCH   8  26
ATOM     26  O   UNL     1     -11.544  -7.827  24.848  1.00  0.00    -0.508 OA
ATOM     27  H   UNL     1     -10.830  -8.434  25.231  1.00  0.00     0.293 HD
ENDBRANCH   8  26
TORSDOF 6
ENDMDL
MODEL 7
REMARK VINA RESULT:    -4.085      1.702      6.994
REMARK INTER + INTRA:          -5.231
REMARK INTER:                  -4.899
REMARK INTRA:                  -0.333
REMARK UNBOUND:                -0.310
REMARK SMILES O=c1c(O)c(-c2ccc(O)c(O)c2)oc2cc(O)cc(O)c12
REMARK SMILES IDX 5 1 3 2 2 3 1 4 22 5 20 6 19 7 17 8 16 9 15 10 14 11 6 12
REMARK SMILES IDX 7 13 8 14 9 15 13 16 11 17 10 18 12 20 4 22 21 24 18 26
REMARK H PARENT 10 19 12 21 4 23 21 25 18 27
REMARK Flexibility Score: inf
ROOT
ATOM      1  C   UNL     1      -9.666  -2.545  24.616  1.00  0.00     0.180 A 
ATOM      2  C   UNL     1     -10.802  -2.506  23.785  1.00  0.00     0.208 A 
ATOM      3  C   UNL     1     -11.117  -3.635  23.013  1.00  0.00     0.238 A 
ATOM      4  O   UNL     1     -12.125  -3.608  22.256  1.00  0.00    -0.285 OA
ATOM      5  C   UNL     1     -10.308  -4.786  23.100  1.00  0.00     0.111 A 
ATOM      6  C   UNL     1     -10.558  -5.966  22.359  1.00  0.00     0.134 A 
ATOM      7  C   UNL     1      -9.710  -7.074  22.508  1.00  0.00     0.093 A 
ATOM      8  C   UNL     1      -8.619  -7.024  23.384  1.00  0.00     0.123 A 
ATOM      9  C   UNL     1      -8.368  -5.863  24.116  1.00  0.00     0.094 A 
ATOM     10  C   UNL     1      -9.201  -4.747  23.980  1.00  0.00     0.146 A 
ATOM     11  O   UNL     1      -8.935  -3.653  24.685  1.00  0.00    -0.452 OA
ENDROOT
BRANCH   1  12
ATOM     12  C   UNL     1      -9.259  -1.388  25.446  1.00  0.00     0.025 A 
ATOM     13  C   UNL     1      -9.696  -1.304  26.774  1.00  0.00     0.016 A 
ATOM     14  C   UNL     1      -9.307  -0.232  27.580  1.00  0.00     0.051 A 
ATOM     15  C   UNL     1      -8.463   0.767  27.082  1.00  0.00     0.157 A 
ATOM     16  C   UNL     1      -8.393  -0.399  24.948  1.00  0.00     0.062 A 
ATOM     17  C   UNL     1      -7.995   0.679  25.749  1.00  0.00     0.158 A 
BRANCH  15  18
ATOM     18  O   UNL     1      -8.118   1.816  27.936  1.00  0.00    -0.504 OA
ATOM     19  H   UNL     1      -7.966   1.708  28.929  1.00  0.00     0.293 HD
ENDBRANCH  15  18
BRANCH  17  20
ATOM     20  O   UNL     1      -7.135   1.625  25.189  1.00  0.00    -0.504 OA
ATOM     21  H   UNL     1      -7.015   1.763  24.195  1.00  0.00     0.293 HD
ENDBRANCH  17  20
ENDBRANCH   1  12
BRANCH   2  22
ATOM     22  O   UNL     1     -11.615  -1.370  23.754  1.00  0.00    -0.502 OA
ATOM     23  H   UNL     1     -12.512  -1.331  24.225  1.00  0.00     0.293 HD
ENDBRANCH   2  22
BRANCH   6  24
ATOM     24  O   UNL     1     -11.638  -6.047  21.480  1.00  0.00    -0.507 OA
ATOM     25  H   UNL     1     -11.890  -6.916  21.023  1.00  0.00     0.293 HD
ENDBRANCH   6  24
BRANCH   8  26
ATOM     26  O   UNL     1      -7.778  -8.125  23.533  1.00  0.00    -0.508 OA
ATOM     27  H   UNL     1      -6.877  -8.046  23.988  1.00  0.00     0.293 HD
ENDBRANCH   8  26
TORSDOF 6
ENDMDL
