MODEL 1
REMARK VINA RESULT:     6.644      0.000      0.000
REMARK INTER + INTRA:           7.581
REMARK INTER:                   7.227
REMARK INTRA:                   0.354
REMARK UNBOUND:                 0.354
REMARK SMILES C[C@@H]1[C@H](C)CC[C@]2(C(=O)[O-])CC[C@@]3(C)C(=CC[C@H]4[C@@]5(C)CC[C@H](O)C(C)(C)[C@H]5CC[C@@]43C)[C@H]12
REMARK SMILES IDX 7 1 6 2 11 3 33 4 5 5 12 6 15 7 2 8 3 9 13 10 16 11 1 12
REMARK SMILES IDX 4 13 14 14 31 15 17 16 18 17 30 18 32 19 19 20 29 21 28 22
REMARK SMILES IDX 21 23 20 24 25 25 22 26 23 27 26 28 27 29 8 30 9 31 10 32
REMARK SMILES IDX 24 33
REMARK H PARENT 24 34
REMARK Flexibility Score: inf
ROOT
ATOM      1  C   UNL     1     -43.083  28.191   6.568  1.00  0.00     0.017 C 
ATOM      2  C   UNL     1     -43.372  29.736   6.583  1.00  0.00     0.014 C 
ATOM      3  C   UNL     1     -41.917  27.835   5.603  1.00  0.00     0.014 C 
ATOM      4  C   UNL     1     -44.372  27.418   6.143  1.00  0.00     0.030 C 
ATOM      5  C   UNL     1     -44.852  30.125   6.815  1.00  0.00     0.004 C 
ATOM      6  C   UNL     1     -42.234  28.052   4.113  1.00  0.00     0.013 C 
ATOM      7  C   UNL     1     -44.684  27.679   4.644  1.00  0.00    -0.063 C 
ATOM      8  C   UNL     1     -45.499  27.639   7.218  1.00  0.00    -0.003 C 
ATOM      9  C   UNL     1     -45.640  29.132   7.691  1.00  0.00    -0.011 C 
ATOM     10  C   UNL     1     -43.565  27.380   3.610  1.00  0.00    -0.006 C 
ATOM     11  C   UNL     1     -45.913  28.109   4.246  1.00  0.00    -0.027 C 
ATOM     12  C   UNL     1     -46.795  26.819   6.982  1.00  0.00     0.008 C 
ATOM     13  C   UNL     1     -47.086  29.617   7.860  1.00  0.00     0.008 C 
ATOM     14  C   UNL     1     -43.305  25.834   3.603  1.00  0.00     0.017 C 
ATOM     15  C   UNL     1     -43.968  27.937   2.139  1.00  0.00    -0.020 C 
ATOM     16  C   UNL     1     -46.380  28.229   2.819  1.00  0.00     0.032 C 
ATOM     17  C   UNL     1     -45.451  27.495   1.829  1.00  0.00     0.006 C 
ATOM     18  C   UNL     1     -43.044  27.364   1.040  1.00  0.00     0.008 C 
ATOM     19  C   UNL     1     -43.823  29.500   2.116  1.00  0.00     0.012 C 
ATOM     20  C   UNL     1     -45.992  27.456   0.307  1.00  0.00    -0.025 C 
ATOM     21  C   UNL     1     -43.509  27.746  -0.361  1.00  0.00     0.005 C 
ATOM     22  C   UNL     1     -44.846  27.041  -0.717  1.00  0.00     0.003 C 
ATOM     23  C   UNL     1     -46.623  28.822  -0.121  1.00  0.00     0.010 C 
ATOM     24  C   UNL     1     -47.124  26.369   0.287  1.00  0.00     0.012 C 
ATOM     25  C   UNL     1     -45.215  27.199  -2.268  1.00  0.00    -0.006 C 
ATOM     26  C   UNL     1     -47.009  28.917  -1.600  1.00  0.00     0.033 C 
ATOM     27  C   UNL     1     -45.835  28.612  -2.536  1.00  0.00     0.120 C 
ATOM     28  C   UNL     1     -46.177  26.072  -2.742  1.00  0.00     0.014 C 
ATOM     29  C   UNL     1     -43.942  27.031  -3.151  1.00  0.00     0.014 C 
ENDROOT
BRANCH   1  30
ATOM     30  C   UNL     1     -42.616  27.717   7.946  1.00  0.00     0.048 C 
ATOM     31  O   UNL     1     -43.203  26.775   8.551  1.00  0.00    -0.550 OA
ATOM     32  O   UNL     1     -41.607  28.404   8.615  1.00  0.00    -0.550 OA
ENDBRANCH   1  30
BRANCH  27  33
ATOM     33  O   UNL     1     -46.302  28.738  -3.858  1.00  0.00    -0.393 OA
ATOM     34  H   UNL     1     -47.176  28.270  -3.923  1.00  0.00     0.210 HD
ENDBRANCH  27  33
TORSDOF 2
ENDMDL
