MODEL 1
REMARK VINA RESULT:    -2.691      0.000      0.000
REMARK INTER + INTRA:          -3.501
REMARK INTER:                  -3.635
REMARK INTRA:                   0.134
REMARK UNBOUND:                 0.134
REMARK SMILES CCCCCCCC(=O)[O-]
REMARK SMILES IDX 5 1 6 2 7 3 8 4 9 5 10 6 4 7 3 8 2 9 1 10
REMARK H PARENT
REMARK Flexibility Score: inf
ROOT
ATOM      1  C   UNL     1     -28.797  58.458   9.176  1.00  0.00     0.000 C 
ENDROOT
BRANCH   1   2
ATOM      2  C   UNL     1     -29.795  59.367   9.909  1.00  0.00     0.006 C 
BRANCH   2   3
ATOM      3  C   UNL     1     -31.208  58.770   9.946  1.00  0.00     0.053 C 
BRANCH   3   4
ATOM      4  C   UNL     1     -31.269  57.447   9.247  1.00  0.00     0.041 C 
ATOM      5  O   UNL     1     -30.860  56.404   9.823  1.00  0.00    -0.550 OA
ATOM      6  O   UNL     1     -31.747  57.370   7.944  1.00  0.00    -0.550 OA
ENDBRANCH   3   4
ENDBRANCH   2   3
ENDBRANCH   1   2
BRANCH   1   7
ATOM      7  C   UNL     1     -27.652  58.037  10.108  1.00  0.00     0.000 C 
BRANCH   7   8
ATOM      8  C   UNL     1     -26.344  57.758   9.351  1.00  0.00    -0.000 C 
BRANCH   8   9
ATOM      9  C   UNL     1     -25.401  56.823  10.124  1.00  0.00    -0.003 C 
ATOM     10  C   UNL     1     -25.926  55.391  10.124  1.00  0.00     0.004 C 
ENDBRANCH   8   9
ENDBRANCH   7   8
ENDBRANCH   1   7
TORSDOF 6
ENDMDL
MODEL 2
REMARK VINA RESULT:    -1.243     23.694     25.046
REMARK INTER + INTRA:          -1.544
REMARK INTER:                  -1.420
REMARK INTRA:                  -0.124
REMARK UNBOUND:                 0.134
REMARK SMILES CCCCCCCC(=O)[O-]
REMARK SMILES IDX 5 1 6 2 7 3 8 4 9 5 10 6 4 7 3 8 2 9 1 10
REMARK H PARENT
REMARK Flexibility Score: inf
ROOT
ATOM      1  C   UNL     1     -12.363  59.749  -9.023  1.00  0.00     0.000 C 
ENDROOT
BRANCH   1   2
ATOM      2  C   UNL     1     -12.624  60.788 -10.124  1.00  0.00     0.006 C 
BRANCH   2   3
ATOM      3  C   UNL     1     -13.790  61.722  -9.779  1.00  0.00     0.053 C 
BRANCH   3   4
ATOM      4  C   UNL     1     -13.320  63.114  -9.491  1.00  0.00     0.041 C 
ATOM      5  O   UNL     1     -13.801  64.091 -10.125  1.00  0.00    -0.550 OA
ATOM      6  O   UNL     1     -12.324  63.331  -8.546  1.00  0.00    -0.550 OA
ENDBRANCH   3   4
ENDBRANCH   2   3
ENDBRANCH   1   2
BRANCH   1   7
ATOM      7  C   UNL     1     -12.054  58.373  -9.630  1.00  0.00     0.000 C 
BRANCH   7   8
ATOM      8  C   UNL     1     -13.282  57.450  -9.663  1.00  0.00    -0.000 C 
BRANCH   8   9
ATOM      9  C   UNL     1     -14.607  58.225  -9.602  1.00  0.00    -0.003 C 
ATOM     10  C   UNL     1     -15.476  57.736  -8.447  1.00  0.00     0.004 C 
ENDBRANCH   8   9
ENDBRANCH   7   8
ENDBRANCH   1   7
TORSDOF 6
ENDMDL
MODEL 3
REMARK VINA RESULT:    -0.706      2.937      4.574
REMARK INTER + INTRA:          -0.820
REMARK INTER:                  -0.550
REMARK INTRA:                  -0.269
REMARK UNBOUND:                 0.134
REMARK SMILES CCCCCCCC(=O)[O-]
REMARK SMILES IDX 5 1 6 2 7 3 8 4 9 5 10 6 4 7 3 8 2 9 1 10
REMARK H PARENT
REMARK Flexibility Score: inf
ROOT
ATOM      1  C   UNL     1     -31.518  56.545   8.118  1.00  0.00     0.000 C 
ENDROOT
BRANCH   1   2
ATOM      2  C   UNL     1     -32.108  55.141   7.915  1.00  0.00     0.006 C 
BRANCH   2   3
ATOM      3  C   UNL     1     -32.125  54.324   9.213  1.00  0.00     0.053 C 
BRANCH   3   4
ATOM      4  C   UNL     1     -31.973  52.858   8.947  1.00  0.00     0.041 C 
ATOM      5  O   UNL     1     -32.030  52.416   7.769  1.00  0.00    -0.550 OA
ATOM      6  O   UNL     1     -31.803  51.973  10.005  1.00  0.00    -0.550 OA
ENDBRANCH   3   4
ENDBRANCH   2   3
ENDBRANCH   1   2
BRANCH   1   7
ATOM      7  C   UNL     1     -31.245  56.815   9.605  1.00  0.00     0.000 C 
BRANCH   7   8
ATOM      8  C   UNL     1     -31.009  58.304   9.903  1.00  0.00    -0.000 C 
BRANCH   8   9
ATOM      9  C   UNL     1     -29.618  58.782   9.461  1.00  0.00    -0.003 C 
ATOM     10  C   UNL     1     -28.520  57.907  10.058  1.00  0.00     0.004 C 
ENDBRANCH   8   9
ENDBRANCH   7   8
ENDBRANCH   1   7
TORSDOF 6
ENDMDL
MODEL 4
REMARK VINA RESULT:     0.224     14.909     16.034
REMARK INTER + INTRA:           0.438
REMARK INTER:                   0.653
REMARK INTRA:                  -0.215
REMARK UNBOUND:                 0.134
REMARK SMILES CCCCCCCC(=O)[O-]
REMARK SMILES IDX 5 1 6 2 7 3 8 4 9 5 10 6 4 7 3 8 2 9 1 10
REMARK H PARENT
REMARK Flexibility Score: inf
ROOT
ATOM      1  C   UNL     1     -19.631  61.490  -3.000  1.00  0.00     0.000 C 
ENDROOT
BRANCH   1   2
ATOM      2  C   UNL     1     -18.870  62.153  -1.842  1.00  0.00     0.006 C 
BRANCH   2   3
ATOM      3  C   UNL     1     -19.810  62.655  -0.740  1.00  0.00     0.053 C 
BRANCH   3   4
ATOM      4  C   UNL     1     -19.501  64.067  -0.346  1.00  0.00     0.041 C 
ATOM      5  O   UNL     1     -20.428  64.853  -0.017  1.00  0.00    -0.550 OA
ATOM      6  O   UNL     1     -18.189  64.526  -0.376  1.00  0.00    -0.550 OA
ENDBRANCH   3   4
ENDBRANCH   2   3
ENDBRANCH   1   2
BRANCH   1   7
ATOM      7  C   UNL     1     -20.743  60.574  -2.471  1.00  0.00     0.000 C 
BRANCH   7   8
ATOM      8  C   UNL     1     -21.683  60.080  -3.582  1.00  0.00    -0.000 C 
BRANCH   8   9
ATOM      9  C   UNL     1     -20.928  59.658  -4.851  1.00  0.00    -0.003 C 
ATOM     10  C   UNL     1     -21.898  59.273  -5.965  1.00  0.00     0.004 C 
ENDBRANCH   8   9
ENDBRANCH   7   8
ENDBRANCH   1   7
TORSDOF 6
ENDMDL
