MODEL 1
REMARK VINA RESULT:    -3.132      0.000      0.000
REMARK INTER + INTRA:          -4.608
REMARK INTER:                  -4.048
REMARK INTRA:                  -0.561
REMARK UNBOUND:                -0.561
REMARK SMILES C=CC(=O)CCCCC
REMARK SMILES IDX 6 1 7 2 8 3 9 4 5 5 3 6 4 7 2 8 1 9
REMARK H PARENT
REMARK Flexibility Score: inf
ROOT
ATOM      1  C   UNL     1      20.393  28.343  28.674  1.00  0.00     0.008 C 
ENDROOT
BRANCH   1   2
ATOM      2  C   UNL     1      18.863  28.225  28.741  1.00  0.00     0.000 C 
BRANCH   2   3
ATOM      3  C   UNL     1      18.268  27.540  27.501  1.00  0.00    -0.003 C 
ATOM      4  C   UNL     1      17.267  26.441  27.856  1.00  0.00     0.004 C 
ENDBRANCH   2   3
ENDBRANCH   1   2
BRANCH   1   5
ATOM      5  C   UNL     1      21.066  27.269  29.542  1.00  0.00     0.080 C 
BRANCH   5   6
ATOM      6  C   UNL     1      21.676  26.149  28.731  1.00  0.00     0.155 C 
ATOM      7  O   UNL     1      22.885  26.210  28.377  1.00  0.00    -0.295 OA
BRANCH   6   8
ATOM      8  C   UNL     1      20.894  24.961  28.331  1.00  0.00     0.039 C 
ATOM      9  C   UNL     1      20.659  24.624  27.064  1.00  0.00     0.012 C 
ENDBRANCH   6   8
ENDBRANCH   5   6
ENDBRANCH   1   5
TORSDOF 5
ENDMDL
MODEL 2
REMARK VINA RESULT:    -3.112      5.023      6.433
REMARK INTER + INTRA:          -4.583
REMARK INTER:                  -4.029
REMARK INTRA:                  -0.554
REMARK UNBOUND:                -0.561
REMARK SMILES C=CC(=O)CCCCC
REMARK SMILES IDX 6 1 7 2 8 3 9 4 5 5 3 6 4 7 2 8 1 9
REMARK H PARENT
REMARK Flexibility Score: inf
ROOT
ATOM      1  C   UNL     1      15.687  32.522  30.451  1.00  0.00     0.008 C 
ENDROOT
BRANCH   1   2
ATOM      2  C   UNL     1      14.909  31.218  30.683  1.00  0.00     0.000 C 
BRANCH   2   3
ATOM      3  C   UNL     1      14.990  30.261  29.483  1.00  0.00    -0.003 C 
ATOM      4  C   UNL     1      15.487  28.869  29.870  1.00  0.00     0.004 C 
ENDBRANCH   2   3
ENDBRANCH   1   2
BRANCH   1   5
ATOM      5  C   UNL     1      16.403  32.501  29.092  1.00  0.00     0.080 C 
BRANCH   5   6
ATOM      6  C   UNL     1      17.908  32.568  29.217  1.00  0.00     0.155 C 
ATOM      7  O   UNL     1      18.511  33.658  29.023  1.00  0.00    -0.295 OA
BRANCH   6   8
ATOM      8  C   UNL     1      18.714  31.380  29.567  1.00  0.00     0.039 C 
ATOM      9  C   UNL     1      18.795  30.291  28.803  1.00  0.00     0.012 C 
ENDBRANCH   6   8
ENDBRANCH   5   6
ENDBRANCH   1   5
TORSDOF 5
ENDMDL
MODEL 3
REMARK VINA RESULT:    -3.109      1.108      2.714
REMARK INTER + INTRA:          -4.579
REMARK INTER:                  -4.074
REMARK INTRA:                  -0.505
REMARK UNBOUND:                -0.561
REMARK SMILES C=CC(=O)CCCCC
REMARK SMILES IDX 6 1 7 2 8 3 9 4 5 5 3 6 4 7 2 8 1 9
REMARK H PARENT
REMARK Flexibility Score: inf
ROOT
ATOM      1  C   UNL     1      20.456  25.280  28.744  1.00  0.00     0.008 C 
ENDROOT
BRANCH   1   2
ATOM      2  C   UNL     1      19.508  25.453  27.547  1.00  0.00     0.000 C 
BRANCH   2   3
ATOM      3  C   UNL     1      18.243  26.248  27.906  1.00  0.00    -0.003 C 
ATOM      4  C   UNL     1      18.302  27.699  27.431  1.00  0.00     0.004 C 
ENDBRANCH   2   3
ENDBRANCH   1   2
BRANCH   1   5
ATOM      5  C   UNL     1      21.921  25.453  28.315  1.00  0.00     0.080 C 
BRANCH   5   6
ATOM      6  C   UNL     1      22.419  26.872  28.470  1.00  0.00     0.155 C 
ATOM      7  O   UNL     1      23.442  27.256  27.841  1.00  0.00    -0.295 OA
BRANCH   6   8
ATOM      8  C   UNL     1      21.735  27.845  29.347  1.00  0.00     0.039 C 
ATOM      9  C   UNL     1      21.449  29.094  28.980  1.00  0.00     0.012 C 
ENDBRANCH   6   8
ENDBRANCH   5   6
ENDBRANCH   1   5
TORSDOF 5
ENDMDL
MODEL 4
REMARK VINA RESULT:    -3.097      2.150      3.711
REMARK INTER + INTRA:          -4.562
REMARK INTER:                  -4.355
REMARK INTRA:                  -0.207
REMARK UNBOUND:                -0.561
REMARK SMILES C=CC(=O)CCCCC
REMARK SMILES IDX 6 1 7 2 8 3 9 4 5 5 3 6 4 7 2 8 1 9
REMARK H PARENT
REMARK Flexibility Score: inf
ROOT
ATOM      1  C   UNL     1      20.496  25.897  28.567  1.00  0.00     0.008 C 
ENDROOT
BRANCH   1   2
ATOM      2  C   UNL     1      19.931  25.113  27.372  1.00  0.00     0.000 C 
BRANCH   2   3
ATOM      3  C   UNL     1      20.870  23.991  26.905  1.00  0.00    -0.003 C 
ATOM      4  C   UNL     1      21.024  23.943  25.385  1.00  0.00     0.004 C 
ENDBRANCH   2   3
ENDBRANCH   1   2
BRANCH   1   5
ATOM      5  C   UNL     1      22.029  25.794  28.615  1.00  0.00     0.080 C 
BRANCH   5   6
ATOM      6  C   UNL     1      22.715  27.135  28.487  1.00  0.00     0.155 C 
ATOM      7  O   UNL     1      22.082  28.197  28.736  1.00  0.00    -0.295 OA
BRANCH   6   8
ATOM      8  C   UNL     1      24.129  27.249  28.075  1.00  0.00     0.039 C 
ATOM      9  C   UNL     1      25.091  27.728  28.863  1.00  0.00     0.012 C 
ENDBRANCH   6   8
ENDBRANCH   5   6
ENDBRANCH   1   5
TORSDOF 5
ENDMDL
MODEL 5
REMARK VINA RESULT:    -3.066      1.529      2.182
REMARK INTER + INTRA:          -4.523
REMARK INTER:                  -4.184
REMARK INTRA:                  -0.339
REMARK UNBOUND:                -0.561
REMARK SMILES C=CC(=O)CCCCC
REMARK SMILES IDX 6 1 7 2 8 3 9 4 5 5 3 6 4 7 2 8 1 9
REMARK H PARENT
REMARK Flexibility Score: inf
ROOT
ATOM      1  C   UNL     1      18.621  26.816  27.549  1.00  0.00     0.008 C 
ENDROOT
BRANCH   1   2
ATOM      2  C   UNL     1      17.150  26.656  27.964  1.00  0.00     0.000 C 
BRANCH   2   3
ATOM      3  C   UNL     1      16.737  25.184  28.117  1.00  0.00    -0.003 C 
ATOM      4  C   UNL     1      15.636  24.774  27.138  1.00  0.00     0.004 C 
ENDBRANCH   2   3
ENDBRANCH   1   2
BRANCH   1   5
ATOM      5  C   UNL     1      19.549  26.060  28.513  1.00  0.00     0.080 C 
BRANCH   5   6
ATOM      6  C   UNL     1      20.564  25.198  27.800  1.00  0.00     0.155 C 
ATOM      7  O   UNL     1      21.788  25.290  28.091  1.00  0.00    -0.295 OA
BRANCH   6   8
ATOM      8  C   UNL     1      20.168  24.229  26.758  1.00  0.00     0.039 C 
ATOM      9  C   UNL     1      20.943  23.898  25.724  1.00  0.00     0.012 C 
ENDBRANCH   6   8
ENDBRANCH   5   6
ENDBRANCH   1   5
TORSDOF 5
ENDMDL
MODEL 6
REMARK VINA RESULT:    -3.047      2.075      3.915
REMARK INTER + INTRA:          -4.499
REMARK INTER:                  -4.225
REMARK INTRA:                  -0.273
REMARK UNBOUND:                -0.561
REMARK SMILES C=CC(=O)CCCCC
REMARK SMILES IDX 6 1 7 2 8 3 9 4 5 5 3 6 4 7 2 8 1 9
REMARK H PARENT
REMARK Flexibility Score: inf
ROOT
ATOM      1  C   UNL     1      22.209  26.114  28.507  1.00  0.00     0.008 C 
ENDROOT
BRANCH   1   2
ATOM      2  C   UNL     1      22.103  27.639  28.668  1.00  0.00     0.000 C 
BRANCH   2   3
ATOM      3  C   UNL     1      23.466  28.340  28.560  1.00  0.00    -0.003 C 
ATOM      4  C   UNL     1      24.168  28.065  27.231  1.00  0.00     0.004 C 
ENDBRANCH   2   3
ENDBRANCH   1   2
BRANCH   1   5
ATOM      5  C   UNL     1      20.910  25.424  28.947  1.00  0.00     0.080 C 
BRANCH   5   6
ATOM      6  C   UNL     1      19.912  25.269  27.823  1.00  0.00     0.155 C 
ATOM      7  O   UNL     1      20.194  24.561  26.819  1.00  0.00    -0.295 OA
BRANCH   6   8
ATOM      8  C   UNL     1      18.590  25.929  27.859  1.00  0.00     0.039 C 
ATOM      9  C   UNL     1      18.393  27.207  27.536  1.00  0.00     0.012 C 
ENDBRANCH   6   8
ENDBRANCH   5   6
ENDBRANCH   1   5
TORSDOF 5
ENDMDL
MODEL 7
REMARK VINA RESULT:    -3.030      1.765      3.621
REMARK INTER + INTRA:          -4.476
REMARK INTER:                  -4.005
REMARK INTRA:                  -0.471
REMARK UNBOUND:                -0.561
REMARK SMILES C=CC(=O)CCCCC
REMARK SMILES IDX 6 1 7 2 8 3 9 4 5 5 3 6 4 7 2 8 1 9
REMARK H PARENT
REMARK Flexibility Score: inf
ROOT
ATOM      1  C   UNL     1      21.237  26.395  29.373  1.00  0.00     0.008 C 
ENDROOT
BRANCH   1   2
ATOM      2  C   UNL     1      21.722  25.472  28.244  1.00  0.00     0.000 C 
BRANCH   2   3
ATOM      3  C   UNL     1      20.595  24.600  27.669  1.00  0.00    -0.003 C 
ATOM      4  C   UNL     1      20.838  24.202  26.214  1.00  0.00     0.004 C 
ENDBRANCH   2   3
ENDBRANCH   1   2
BRANCH   1   5
ATOM      5  C   UNL     1      20.891  27.790  28.832  1.00  0.00     0.080 C 
BRANCH   5   6
ATOM      6  C   UNL     1      19.411  28.091  28.875  1.00  0.00     0.155 C 
ATOM      7  O   UNL     1      18.906  28.643  29.890  1.00  0.00    -0.295 OA
BRANCH   6   8
ATOM      8  C   UNL     1      18.516  27.757  27.748  1.00  0.00     0.039 C 
ATOM      9  C   UNL     1      17.574  26.816  27.806  1.00  0.00     0.012 C 
ENDBRANCH   6   8
ENDBRANCH   5   6
ENDBRANCH   1   5
TORSDOF 5
ENDMDL
MODEL 8
REMARK VINA RESULT:    -3.005      3.920      5.794
REMARK INTER + INTRA:          -4.444
REMARK INTER:                  -3.951
REMARK INTRA:                  -0.493
REMARK UNBOUND:                -0.561
REMARK SMILES C=CC(=O)CCCCC
REMARK SMILES IDX 6 1 7 2 8 3 9 4 5 5 3 6 4 7 2 8 1 9
REMARK H PARENT
REMARK Flexibility Score: inf
ROOT
ATOM      1  C   UNL     1      15.134  23.440  27.743  1.00  0.00     0.008 C 
ENDROOT
BRANCH   1   2
ATOM      2  C   UNL     1      15.620  22.270  26.874  1.00  0.00     0.000 C 
BRANCH   2   3
ATOM      3  C   UNL     1      16.458  22.735  25.673  1.00  0.00    -0.003 C 
ATOM      4  C   UNL     1      17.835  22.073  25.621  1.00  0.00     0.004 C 
ENDBRANCH   2   3
ENDBRANCH   1   2
BRANCH   1   5
ATOM      5  C   UNL     1      15.588  24.785  27.156  1.00  0.00     0.080 C 
BRANCH   5   6
ATOM      6  C   UNL     1      16.163  25.720  28.195  1.00  0.00     0.155 C 
ATOM      7  O   UNL     1      15.396  26.419  28.912  1.00  0.00    -0.295 OA
BRANCH   6   8
ATOM      8  C   UNL     1      17.619  25.844  28.409  1.00  0.00     0.039 C 
ATOM      9  C   UNL     1      18.533  25.374  27.561  1.00  0.00     0.012 C 
ENDBRANCH   6   8
ENDBRANCH   5   6
ENDBRANCH   1   5
TORSDOF 5
ENDMDL
MODEL 9
REMARK VINA RESULT:    -2.979      4.473      5.662
REMARK INTER + INTRA:          -4.410
REMARK INTER:                  -3.847
REMARK INTRA:                  -0.563
REMARK UNBOUND:                -0.561
REMARK SMILES C=CC(=O)CCCCC
REMARK SMILES IDX 6 1 7 2 8 3 9 4 5 5 3 6 4 7 2 8 1 9
REMARK H PARENT
REMARK Flexibility Score: inf
ROOT
ATOM      1  C   UNL     1      17.851  33.269  28.974  1.00  0.00     0.008 C 
ENDROOT
BRANCH   1   2
ATOM      2  C   UNL     1      16.361  32.895  28.946  1.00  0.00     0.000 C 
BRANCH   2   3
ATOM      3  C   UNL     1      15.967  31.953  30.094  1.00  0.00    -0.003 C 
ATOM      4  C   UNL     1      15.399  30.623  29.599  1.00  0.00     0.004 C 
ENDBRANCH   2   3
ENDBRANCH   1   2
BRANCH   1   5
ATOM      5  C   UNL     1      18.566  32.589  30.152  1.00  0.00     0.080 C 
BRANCH   5   6
ATOM      6  C   UNL     1      19.716  31.710  29.718  1.00  0.00     0.155 C 
ATOM      7  O   UNL     1      20.852  32.214  29.505  1.00  0.00    -0.295 OA
BRANCH   6   8
ATOM      8  C   UNL     1      19.555  30.253  29.533  1.00  0.00     0.039 C 
ATOM      9  C   UNL     1      18.940  29.704  28.486  1.00  0.00     0.012 C 
ENDBRANCH   6   8
ENDBRANCH   5   6
ENDBRANCH   1   5
TORSDOF 5
ENDMDL
