MODEL 1
REMARK VINA RESULT:    -5.000      0.000      0.000
REMARK INTER + INTRA:          -5.435
REMARK INTER:                  -5.439
REMARK INTRA:                   0.004
REMARK UNBOUND:                 0.004
REMARK SMILES C[C@@H]1[C@H]2C3=CC[C@@H]4[C@]5(C)CC[C@H](O)C(C)(C)[C@H]5CC[C@]4(C)[C@]3(C)CC[C@@]2(C(=O)[O-])CC[C@@H]1C
REMARK SMILES IDX 26 1 30 2 25 3 3 4 31 5 24 6 4 7 2 8 32 9 22 10 5 11 1 12
REMARK SMILES IDX 33 13 23 14 20 15 6 16 7 17 19 18 21 19 8 20 18 21 17 22
REMARK SMILES IDX 10 23 9 24 14 25 11 26 12 27 15 28 16 29 27 30 28 31 29 32
REMARK SMILES IDX 13 33
REMARK H PARENT 13 34
REMARK Flexibility Score: inf
ROOT
ATOM      1  C   UNL     1      20.240  -8.854  16.686  1.00  0.00     0.017 C 
ATOM      2  C   UNL     1      21.709  -8.591  17.143  1.00  0.00     0.014 C 
ATOM      3  C   UNL     1      20.222 -10.115  15.756  1.00  0.00     0.014 C 
ATOM      4  C   UNL     1      19.694  -7.567  15.952  1.00  0.00     0.030 C 
ATOM      5  C   UNL     1      21.875  -7.325  17.995  1.00  0.00     0.004 C 
ATOM      6  C   UNL     1      19.533  -9.892  14.402  1.00  0.00     0.013 C 
ATOM      7  C   UNL     1      20.238  -7.479  14.496  1.00  0.00    -0.063 C 
ATOM      8  C   UNL     1      19.865  -6.268  16.827  1.00  0.00    -0.003 C 
ATOM      9  C   UNL     1      21.348  -6.086  17.254  1.00  0.00    -0.011 C 
ATOM     10  C   UNL     1      20.151  -8.708  13.583  1.00  0.00    -0.006 C 
ATOM     11  C   UNL     1      20.527  -6.297  13.910  1.00  0.00    -0.027 C 
ATOM     12  C   UNL     1      18.878  -6.194  18.014  1.00  0.00     0.008 C 
ATOM     13  C   UNL     1      21.577  -4.814  18.082  1.00  0.00     0.008 C 
ATOM     14  C   UNL     1      21.599  -9.140  13.185  1.00  0.00     0.017 C 
ATOM     15  C   UNL     1      19.286  -8.320  12.277  1.00  0.00    -0.020 C 
ATOM     16  C   UNL     1      20.722  -6.117  12.431  1.00  0.00     0.032 C 
ATOM     17  C   UNL     1      20.028  -7.158  11.468  1.00  0.00     0.006 C 
ATOM     18  C   UNL     1      17.856  -7.830  12.703  1.00  0.00     0.008 C 
ATOM     19  C   UNL     1      19.129  -9.587  11.377  1.00  0.00     0.012 C 
ATOM     20  C   UNL     1      19.180  -6.442  10.317  1.00  0.00    -0.025 C 
ATOM     21  C   UNL     1      17.047  -7.113  11.613  1.00  0.00     0.005 C 
ATOM     22  C   UNL     1      17.834  -5.943  10.965  1.00  0.00     0.003 C 
ATOM     23  C   UNL     1      20.011  -5.244   9.684  1.00  0.00     0.010 C 
ATOM     24  C   UNL     1      18.909  -7.416   9.120  1.00  0.00     0.012 C 
ATOM     25  C   UNL     1      16.942  -4.976  10.072  1.00  0.00    -0.006 C 
ATOM     26  C   UNL     1      19.250  -3.917   9.624  1.00  0.00     0.033 C 
ATOM     27  C   UNL     1      17.831  -4.143   9.079  1.00  0.00     0.120 C 
ATOM     28  C   UNL     1      15.879  -5.745   9.246  1.00  0.00     0.014 C 
ATOM     29  C   UNL     1      16.170  -4.013  11.018  1.00  0.00     0.014 C 
ENDROOT
BRANCH   1  30
ATOM     30  C   UNL     1      19.364  -9.204  17.884  1.00  0.00     0.048 C 
ATOM     31  O   UNL     1      18.132  -9.421  17.723  1.00  0.00    -0.550 OA
ATOM     32  O   UNL     1      19.919  -9.408  19.143  1.00  0.00    -0.550 OA
ENDBRANCH   1  30
BRANCH  27  33
ATOM     33  O   UNL     1      17.225  -2.924   8.712  1.00  0.00    -0.393 OA
ATOM     34  H   UNL     1      17.020  -2.414   9.537  1.00  0.00     0.210 HD
ENDBRANCH  27  33
TORSDOF 2
ENDMDL
MODEL 2
REMARK VINA RESULT:    -4.841      2.240      3.858
REMARK INTER + INTRA:          -5.261
REMARK INTER:                  -5.308
REMARK INTRA:                   0.047
REMARK UNBOUND:                 0.004
REMARK SMILES C[C@@H]1[C@H]2C3=CC[C@@H]4[C@]5(C)CC[C@H](O)C(C)(C)[C@H]5CC[C@]4(C)[C@]3(C)CC[C@@]2(C(=O)[O-])CC[C@@H]1C
REMARK SMILES IDX 26 1 30 2 25 3 3 4 31 5 24 6 4 7 2 8 32 9 22 10 5 11 1 12
REMARK SMILES IDX 33 13 23 14 20 15 6 16 7 17 19 18 21 19 8 20 18 21 17 22
REMARK SMILES IDX 10 23 9 24 14 25 11 26 12 27 15 28 16 29 27 30 28 31 29 32
REMARK SMILES IDX 13 33
REMARK H PARENT 13 34
REMARK Flexibility Score: inf
ROOT
ATOM      1  C   UNL     1      19.514  -5.565  17.912  1.00  0.00     0.017 C 
ATOM      2  C   UNL     1      19.618  -6.863  18.773  1.00  0.00     0.014 C 
ATOM      3  C   UNL     1      18.011  -5.130  17.841  1.00  0.00     0.014 C 
ATOM      4  C   UNL     1      20.118  -5.850  16.481  1.00  0.00     0.030 C 
ATOM      5  C   UNL     1      21.037  -7.443  18.849  1.00  0.00     0.004 C 
ATOM      6  C   UNL     1      17.484  -4.906  16.416  1.00  0.00     0.013 C 
ATOM      7  C   UNL     1      19.111  -6.640  15.595  1.00  0.00    -0.063 C 
ATOM      8  C   UNL     1      21.575  -6.446  16.561  1.00  0.00    -0.003 C 
ATOM      9  C   UNL     1      21.598  -7.722  17.446  1.00  0.00    -0.011 C 
ATOM     10  C   UNL     1      17.660  -6.157  15.489  1.00  0.00    -0.006 C 
ATOM     11  C   UNL     1      19.519  -7.563  14.697  1.00  0.00    -0.027 C 
ATOM     12  C   UNL     1      22.641  -5.405  16.969  1.00  0.00     0.008 C 
ATOM     13  C   UNL     1      22.990  -8.364  17.530  1.00  0.00     0.008 C 
ATOM     14  C   UNL     1      16.719  -7.272  16.051  1.00  0.00     0.017 C 
ATOM     15  C   UNL     1      17.329  -5.852  13.940  1.00  0.00    -0.020 C 
ATOM     16  C   UNL     1      18.654  -8.101  13.593  1.00  0.00     0.032 C 
ATOM     17  C   UNL     1      17.463  -7.197  13.087  1.00  0.00     0.006 C 
ATOM     18  C   UNL     1      18.325  -4.774  13.378  1.00  0.00     0.008 C 
ATOM     19  C   UNL     1      15.876  -5.289  13.832  1.00  0.00     0.012 C 
ATOM     20  C   UNL     1      17.465  -7.031  11.497  1.00  0.00    -0.025 C 
ATOM     21  C   UNL     1      18.356  -4.632  11.850  1.00  0.00     0.005 C 
ATOM     22  C   UNL     1      18.587  -5.988  11.133  1.00  0.00     0.003 C 
ATOM     23  C   UNL     1      17.714  -8.437  10.797  1.00  0.00     0.010 C 
ATOM     24  C   UNL     1      16.064  -6.568  10.971  1.00  0.00     0.012 C 
ATOM     25  C   UNL     1      18.947  -5.854   9.590  1.00  0.00    -0.006 C 
ATOM     26  C   UNL     1      18.834  -8.426   9.753  1.00  0.00     0.033 C 
ATOM     27  C   UNL     1      18.687  -7.205   8.830  1.00  0.00     0.120 C 
ATOM     28  C   UNL     1      18.136  -4.736   8.886  1.00  0.00     0.014 C 
ATOM     29  C   UNL     1      20.449  -5.467   9.472  1.00  0.00     0.014 C 
ENDROOT
BRANCH   1  30
ATOM     30  C   UNL     1      20.252  -4.416  18.590  1.00  0.00     0.048 C 
ATOM     31  O   UNL     1      20.488  -3.354  17.951  1.00  0.00    -0.550 OA
ATOM     32  O   UNL     1      20.568  -4.465  19.944  1.00  0.00    -0.550 OA
ENDBRANCH   1  30
BRANCH  27  33
ATOM     33  O   UNL     1      19.493  -7.336   7.680  1.00  0.00    -0.393 OA
ATOM     34  H   UNL     1      18.903  -7.357   6.883  1.00  0.00     0.210 HD
ENDBRANCH  27  33
TORSDOF 2
ENDMDL
MODEL 3
REMARK VINA RESULT:    -4.611      2.904      7.307
REMARK INTER + INTRA:          -5.011
REMARK INTER:                  -5.017
REMARK INTRA:                   0.005
REMARK UNBOUND:                 0.004
REMARK SMILES C[C@@H]1[C@H]2C3=CC[C@@H]4[C@]5(C)CC[C@H](O)C(C)(C)[C@H]5CC[C@]4(C)[C@]3(C)CC[C@@]2(C(=O)[O-])CC[C@@H]1C
REMARK SMILES IDX 26 1 30 2 25 3 3 4 31 5 24 6 4 7 2 8 32 9 22 10 5 11 1 12
REMARK SMILES IDX 33 13 23 14 20 15 6 16 7 17 19 18 21 19 8 20 18 21 17 22
REMARK SMILES IDX 10 23 9 24 14 25 11 26 12 27 15 28 16 29 27 30 28 31 29 32
REMARK SMILES IDX 13 33
REMARK H PARENT 13 34
REMARK Flexibility Score: inf
ROOT
ATOM      1  C   UNL     1      19.637  -8.680  13.500  1.00  0.00     0.017 C 
ATOM      2  C   UNL     1      18.225  -8.711  12.837  1.00  0.00     0.014 C 
ATOM      3  C   UNL     1      19.588  -9.514  14.826  1.00  0.00     0.014 C 
ATOM      4  C   UNL     1      20.047  -7.177  13.760  1.00  0.00     0.030 C 
ATOM      5  C   UNL     1      18.118  -7.856  11.568  1.00  0.00     0.004 C 
ATOM      6  C   UNL     1      20.103  -8.766  16.064  1.00  0.00     0.013 C 
ATOM      7  C   UNL     1      19.331  -6.610  15.021  1.00  0.00    -0.063 C 
ATOM      8  C   UNL     1      19.937  -6.299  12.457  1.00  0.00    -0.003 C 
ATOM      9  C   UNL     1      18.510  -6.396  11.849  1.00  0.00    -0.011 C 
ATOM     10  C   UNL     1      19.352  -7.416  16.325  1.00  0.00    -0.006 C 
ATOM     11  C   UNL     1      18.934  -5.322  15.100  1.00  0.00    -0.027 C 
ATOM     12  C   UNL     1      21.055  -6.584  11.428  1.00  0.00     0.008 C 
ATOM     13  C   UNL     1      18.338  -5.531  10.593  1.00  0.00     0.008 C 
ATOM     14  C   UNL     1      17.882  -7.783  16.710  1.00  0.00     0.017 C 
ATOM     15  C   UNL     1      20.041  -6.518  17.476  1.00  0.00    -0.020 C 
ATOM     16  C   UNL     1      18.559  -4.635  16.382  1.00  0.00     0.032 C 
ATOM     17  C   UNL     1      19.169  -5.202  17.723  1.00  0.00     0.006 C 
ATOM     18  C   UNL     1      21.494  -6.109  17.042  1.00  0.00     0.008 C 
ATOM     19  C   UNL     1      20.133  -7.358  18.789  1.00  0.00     0.012 C 
ATOM     20  C   UNL     1      19.848  -4.056  18.608  1.00  0.00    -0.025 C 
ATOM     21  C   UNL     1      22.142  -4.987  17.866  1.00  0.00     0.005 C 
ATOM     22  C   UNL     1      21.244  -3.725  17.958  1.00  0.00     0.003 C 
ATOM     23  C   UNL     1      18.906  -2.777  18.672  1.00  0.00     0.010 C 
ATOM     24  C   UNL     1      20.008  -4.508  20.099  1.00  0.00     0.012 C 
ATOM     25  C   UNL     1      21.990  -2.436  18.515  1.00  0.00    -0.006 C 
ATOM     26  C   UNL     1      19.609  -1.465  18.314  1.00  0.00     0.033 C 
ATOM     27  C   UNL     1      20.960  -1.370  19.040  1.00  0.00     0.120 C 
ATOM     28  C   UNL     1      22.972  -2.772  19.667  1.00  0.00     0.014 C 
ATOM     29  C   UNL     1      22.835  -1.825  17.362  1.00  0.00     0.014 C 
ENDROOT
BRANCH   1  30
ATOM     30  C   UNL     1      20.661  -9.372  12.607  1.00  0.00     0.048 C 
ATOM     31  O   UNL     1      21.881  -9.372  12.928  1.00  0.00    -0.550 OA
ATOM     32  O   UNL     1      20.262 -10.111  11.499  1.00  0.00    -0.550 OA
ENDBRANCH   1  30
BRANCH  27  33
ATOM     33  O   UNL     1      21.476  -0.059  18.991  1.00  0.00    -0.393 OA
ATOM     34  H   UNL     1      21.440   0.328  19.902  1.00  0.00     0.210 HD
ENDBRANCH  27  33
TORSDOF 2
ENDMDL
MODEL 4
REMARK VINA RESULT:    -4.542      3.302      6.118
REMARK INTER + INTRA:          -4.936
REMARK INTER:                  -4.943
REMARK INTRA:                   0.007
REMARK UNBOUND:                 0.004
REMARK SMILES C[C@@H]1[C@H]2C3=CC[C@@H]4[C@]5(C)CC[C@H](O)C(C)(C)[C@H]5CC[C@]4(C)[C@]3(C)CC[C@@]2(C(=O)[O-])CC[C@@H]1C
REMARK SMILES IDX 26 1 30 2 25 3 3 4 31 5 24 6 4 7 2 8 32 9 22 10 5 11 1 12
REMARK SMILES IDX 33 13 23 14 20 15 6 16 7 17 19 18 21 19 8 20 18 21 17 22
REMARK SMILES IDX 10 23 9 24 14 25 11 26 12 27 15 28 16 29 27 30 28 31 29 32
REMARK SMILES IDX 13 33
REMARK H PARENT 13 34
REMARK Flexibility Score: inf
ROOT
ATOM      1  C   UNL     1      21.119  -2.839  18.891  1.00  0.00     0.017 C 
ATOM      2  C   UNL     1      22.410  -2.899  19.766  1.00  0.00     0.014 C 
ATOM      3  C   UNL     1      19.958  -3.559  19.660  1.00  0.00     0.014 C 
ATOM      4  C   UNL     1      21.416  -3.516  17.496  1.00  0.00     0.030 C 
ATOM      5  C   UNL     1      23.648  -2.300  19.085  1.00  0.00     0.004 C 
ATOM      6  C   UNL     1      19.241  -4.647  18.847  1.00  0.00     0.013 C 
ATOM      7  C   UNL     1      21.390  -5.068  17.608  1.00  0.00    -0.063 C 
ATOM      8  C   UNL     1      22.687  -2.900  16.797  1.00  0.00    -0.003 C 
ATOM      9  C   UNL     1      23.922  -2.982  17.735  1.00  0.00    -0.011 C 
ATOM     10  C   UNL     1      20.211  -5.754  18.308  1.00  0.00    -0.006 C 
ATOM     11  C   UNL     1      22.211  -5.852  16.877  1.00  0.00    -0.027 C 
ATOM     12  C   UNL     1      22.449  -1.482  16.229  1.00  0.00     0.008 C 
ATOM     13  C   UNL     1      25.199  -2.425  17.089  1.00  0.00     0.008 C 
ATOM     14  C   UNL     1      20.750  -6.529  19.553  1.00  0.00     0.017 C 
ATOM     15  C   UNL     1      19.505  -6.762  17.264  1.00  0.00    -0.020 C 
ATOM     16  C   UNL     1      22.011  -7.328  16.681  1.00  0.00     0.032 C 
ATOM     17  C   UNL     1      20.544  -7.894  16.826  1.00  0.00     0.006 C 
ATOM     18  C   UNL     1      19.026  -5.972  15.992  1.00  0.00     0.008 C 
ATOM     19  C   UNL     1      18.258  -7.409  17.945  1.00  0.00     0.012 C 
ATOM     20  C   UNL     1      20.122  -8.801  15.578  1.00  0.00    -0.025 C 
ATOM     21  C   UNL     1      18.649  -6.833  14.779  1.00  0.00     0.005 C 
ATOM     22  C   UNL     1      19.773  -7.830  14.388  1.00  0.00     0.003 C 
ATOM     23  C   UNL     1      21.299  -9.801  15.200  1.00  0.00     0.010 C 
ATOM     24  C   UNL     1      18.910  -9.727  15.931  1.00  0.00     0.012 C 
ATOM     25  C   UNL     1      19.572  -8.508  12.964  1.00  0.00    -0.006 C 
ATOM     26  C   UNL     1      21.687  -9.778  13.719  1.00  0.00     0.033 C 
ATOM     27  C   UNL     1      20.427  -9.822  12.839  1.00  0.00     0.120 C 
ATOM     28  C   UNL     1      18.090  -8.864  12.680  1.00  0.00     0.014 C 
ATOM     29  C   UNL     1      20.012  -7.491  11.873  1.00  0.00     0.014 C 
ENDROOT
BRANCH   1  30
ATOM     30  C   UNL     1      20.667  -1.395  18.706  1.00  0.00     0.048 C 
ATOM     31  O   UNL     1      19.636  -1.139  18.026  1.00  0.00    -0.550 OA
ATOM     32  O   UNL     1      21.302  -0.354  19.375  1.00  0.00    -0.550 OA
ENDBRANCH   1  30
BRANCH  27  33
ATOM     33  O   UNL     1      20.750 -10.125  11.501  1.00  0.00    -0.393 OA
ATOM     34  H   UNL     1      21.729 -10.269  11.437  1.00  0.00     0.210 HD
ENDBRANCH  27  33
TORSDOF 2
ENDMDL
MODEL 5
REMARK VINA RESULT:    -4.512      4.670      8.433
REMARK INTER + INTRA:          -4.903
REMARK INTER:                  -4.921
REMARK INTRA:                   0.018
REMARK UNBOUND:                 0.004
REMARK SMILES C[C@@H]1[C@H]2C3=CC[C@@H]4[C@]5(C)CC[C@H](O)C(C)(C)[C@H]5CC[C@]4(C)[C@]3(C)CC[C@@]2(C(=O)[O-])CC[C@@H]1C
REMARK SMILES IDX 26 1 30 2 25 3 3 4 31 5 24 6 4 7 2 8 32 9 22 10 5 11 1 12
REMARK SMILES IDX 33 13 23 14 20 15 6 16 7 17 19 18 21 19 8 20 18 21 17 22
REMARK SMILES IDX 10 23 9 24 14 25 11 26 12 27 15 28 16 29 27 30 28 31 29 32
REMARK SMILES IDX 13 33
REMARK H PARENT 13 34
REMARK Flexibility Score: inf
ROOT
ATOM      1  C   UNL     1      19.230  -7.766  17.557  1.00  0.00     0.017 C 
ATOM      2  C   UNL     1      19.899  -8.322  16.261  1.00  0.00     0.014 C 
ATOM      3  C   UNL     1      18.096  -6.765  17.147  1.00  0.00     0.014 C 
ATOM      4  C   UNL     1      20.336  -7.077  18.449  1.00  0.00     0.030 C 
ATOM      5  C   UNL     1      21.088  -9.255  16.530  1.00  0.00     0.004 C 
ATOM      6  C   UNL     1      18.194  -5.388  17.820  1.00  0.00     0.013 C 
ATOM      7  C   UNL     1      20.694  -5.663  17.905  1.00  0.00    -0.063 C 
ATOM      8  C   UNL     1      21.556  -8.035  18.724  1.00  0.00    -0.003 C 
ATOM      9  C   UNL     1      22.155  -8.558  17.389  1.00  0.00    -0.011 C 
ATOM     10  C   UNL     1      19.568  -4.677  17.571  1.00  0.00    -0.006 C 
ATOM     11  C   UNL     1      21.947  -5.165  17.978  1.00  0.00    -0.027 C 
ATOM     12  C   UNL     1      21.236  -9.164  19.729  1.00  0.00     0.008 C 
ATOM     13  C   UNL     1      23.371  -9.470  17.599  1.00  0.00     0.008 C 
ATOM     14  C   UNL     1      19.634  -4.339  16.046  1.00  0.00     0.017 C 
ATOM     15  C   UNL     1      19.765  -3.347  18.464  1.00  0.00    -0.020 C 
ATOM     16  C   UNL     1      22.286  -3.713  17.793  1.00  0.00     0.032 C 
ATOM     17  C   UNL     1      21.155  -2.652  18.092  1.00  0.00     0.006 C 
ATOM     18  C   UNL     1      19.757  -3.717  19.991  1.00  0.00     0.008 C 
ATOM     19  C   UNL     1      18.581  -2.367  18.184  1.00  0.00     0.012 C 
ATOM     20  C   UNL     1      21.657  -1.497  19.077  1.00  0.00    -0.025 C 
ATOM     21  C   UNL     1      20.268  -2.625  20.941  1.00  0.00     0.005 C 
ATOM     22  C   UNL     1      21.668  -2.093  20.534  1.00  0.00     0.003 C 
ATOM     23  C   UNL     1      23.096  -0.984  18.637  1.00  0.00     0.010 C 
ATOM     24  C   UNL     1      20.738  -0.232  18.985  1.00  0.00     0.012 C 
ATOM     25  C   UNL     1      22.375  -1.208  21.649  1.00  0.00    -0.006 C 
ATOM     26  C   UNL     1      24.124  -0.957  19.770  1.00  0.00     0.033 C 
ATOM     27  C   UNL     1      23.512  -0.318  21.028  1.00  0.00     0.120 C 
ATOM     28  C   UNL     1      21.379  -0.277  22.388  1.00  0.00     0.014 C 
ATOM     29  C   UNL     1      22.982  -2.161  22.718  1.00  0.00     0.014 C 
ENDROOT
BRANCH   1  30
ATOM     30  C   UNL     1      18.540  -8.888  18.324  1.00  0.00     0.048 C 
ATOM     31  O   UNL     1      18.073  -8.671  19.476  1.00  0.00    -0.550 OA
ATOM     32  O   UNL     1      18.306 -10.125  17.731  1.00  0.00    -0.550 OA
ENDBRANCH   1  30
BRANCH  27  33
ATOM     33  O   UNL     1      24.509   0.012  21.969  1.00  0.00    -0.393 OA
ATOM     34  H   UNL     1      24.068   0.352  22.789  1.00  0.00     0.210 HD
ENDBRANCH  27  33
TORSDOF 2
ENDMDL
MODEL 6
REMARK VINA RESULT:    -4.424      1.738      3.301
REMARK INTER + INTRA:          -4.808
REMARK INTER:                  -4.814
REMARK INTRA:                   0.006
REMARK UNBOUND:                 0.004
REMARK SMILES C[C@@H]1[C@H]2C3=CC[C@@H]4[C@]5(C)CC[C@H](O)C(C)(C)[C@H]5CC[C@]4(C)[C@]3(C)CC[C@@]2(C(=O)[O-])CC[C@@H]1C
REMARK SMILES IDX 26 1 30 2 25 3 3 4 31 5 24 6 4 7 2 8 32 9 22 10 5 11 1 12
REMARK SMILES IDX 33 13 23 14 20 15 6 16 7 17 19 18 21 19 8 20 18 21 17 22
REMARK SMILES IDX 10 23 9 24 14 25 11 26 12 27 15 28 16 29 27 30 28 31 29 32
REMARK SMILES IDX 13 33
REMARK H PARENT 13 34
REMARK Flexibility Score: inf
ROOT
ATOM      1  C   UNL     1      20.102  -7.160  18.874  1.00  0.00     0.017 C 
ATOM      2  C   UNL     1      20.038  -5.842  19.708  1.00  0.00     0.014 C 
ATOM      3  C   UNL     1      21.525  -7.276  18.228  1.00  0.00     0.014 C 
ATOM      4  C   UNL     1      18.958  -7.133  17.787  1.00  0.00     0.030 C 
ATOM      5  C   UNL     1      18.661  -5.568  20.326  1.00  0.00     0.004 C 
ATOM      6  C   UNL     1      21.514  -7.509  16.710  1.00  0.00     0.013 C 
ATOM      7  C   UNL     1      19.350  -6.231  16.581  1.00  0.00    -0.063 C 
ATOM      8  C   UNL     1      17.544  -6.851  18.422  1.00  0.00    -0.003 C 
ATOM      9  C   UNL     1      17.566  -5.535  19.247  1.00  0.00    -0.011 C 
ATOM     10  C   UNL     1      20.724  -6.407  15.923  1.00  0.00    -0.006 C 
ATOM     11  C   UNL     1      18.437  -5.497  15.910  1.00  0.00    -0.027 C 
ATOM     12  C   UNL     1      16.975  -8.052  19.211  1.00  0.00     0.008 C 
ATOM     13  C   UNL     1      16.201  -5.194  19.862  1.00  0.00     0.008 C 
ATOM     14  C   UNL     1      21.528  -5.076  16.078  1.00  0.00     0.017 C 
ATOM     15  C   UNL     1      20.509  -6.772  14.366  1.00  0.00    -0.020 C 
ATOM     16  C   UNL     1      18.677  -4.888  14.557  1.00  0.00     0.032 C 
ATOM     17  C   UNL     1      19.762  -5.565  13.631  1.00  0.00     0.006 C 
ATOM     18  C   UNL     1      19.647  -8.078  14.232  1.00  0.00     0.008 C 
ATOM     19  C   UNL     1      21.901  -7.026  13.706  1.00  0.00     0.012 C 
ATOM     20  C   UNL     1      19.201  -5.865  12.164  1.00  0.00    -0.025 C 
ATOM     21  C   UNL     1      19.077  -8.357  12.834  1.00  0.00     0.005 C 
ATOM     22  C   UNL     1      18.292  -7.147  12.262  1.00  0.00     0.003 C 
ATOM     23  C   UNL     1      18.395  -4.609  11.615  1.00  0.00     0.010 C 
ATOM     24  C   UNL     1      20.367  -6.070  11.139  1.00  0.00     0.012 C 
ATOM     25  C   UNL     1      17.419  -7.488  10.978  1.00  0.00    -0.006 C 
ATOM     26  C   UNL     1      16.999  -4.945  11.084  1.00  0.00     0.033 C 
ATOM     27  C   UNL     1      17.061  -6.184  10.176  1.00  0.00     0.120 C 
ATOM     28  C   UNL     1      18.137  -8.469  10.015  1.00  0.00     0.014 C 
ATOM     29  C   UNL     1      16.113  -8.189  11.448  1.00  0.00     0.014 C 
ENDROOT
BRANCH   1  30
ATOM     30  C   UNL     1      19.955  -8.374  19.784  1.00  0.00     0.048 C 
ATOM     31  O   UNL     1      19.899  -9.532  19.287  1.00  0.00    -0.550 OA
ATOM     32  O   UNL     1      20.001  -8.243  21.168  1.00  0.00    -0.550 OA
ENDBRANCH   1  30
BRANCH  27  33
ATOM     33  O   UNL     1      15.875  -6.326   9.426  1.00  0.00    -0.393 OA
ATOM     34  H   UNL     1      15.287  -5.552   9.617  1.00  0.00     0.210 HD
ENDBRANCH  27  33
TORSDOF 2
ENDMDL
MODEL 7
REMARK VINA RESULT:    -4.354      2.780      7.557
REMARK INTER + INTRA:          -4.732
REMARK INTER:                  -4.735
REMARK INTRA:                   0.003
REMARK UNBOUND:                 0.004
REMARK SMILES C[C@@H]1[C@H]2C3=CC[C@@H]4[C@]5(C)CC[C@H](O)C(C)(C)[C@H]5CC[C@]4(C)[C@]3(C)CC[C@@]2(C(=O)[O-])CC[C@@H]1C
REMARK SMILES IDX 26 1 30 2 25 3 3 4 31 5 24 6 4 7 2 8 32 9 22 10 5 11 1 12
REMARK SMILES IDX 33 13 23 14 20 15 6 16 7 17 19 18 21 19 8 20 18 21 17 22
REMARK SMILES IDX 10 23 9 24 14 25 11 26 12 27 15 28 16 29 27 30 28 31 29 32
REMARK SMILES IDX 13 33
REMARK H PARENT 13 34
REMARK Flexibility Score: inf
ROOT
ATOM      1  C   UNL     1      17.726  -6.753  11.807  1.00  0.00     0.017 C 
ATOM      2  C   UNL     1      16.199  -6.461  11.678  1.00  0.00     0.014 C 
ATOM      3  C   UNL     1      17.923  -7.985  12.756  1.00  0.00     0.014 C 
ATOM      4  C   UNL     1      18.450  -5.461  12.355  1.00  0.00     0.030 C 
ATOM      5  C   UNL     1      15.875  -5.218  10.838  1.00  0.00     0.004 C 
ATOM      6  C   UNL     1      18.901  -7.741  13.914  1.00  0.00     0.013 C 
ATOM      7  C   UNL     1      18.245  -5.311  13.891  1.00  0.00    -0.063 C 
ATOM      8  C   UNL     1      18.117  -4.185  11.492  1.00  0.00    -0.003 C 
ATOM      9  C   UNL     1      16.581  -3.972  11.398  1.00  0.00    -0.011 C 
ATOM     10  C   UNL     1      18.507  -6.513  14.806  1.00  0.00    -0.006 C 
ATOM     11  C   UNL     1      18.120  -4.104  14.482  1.00  0.00    -0.027 C 
ATOM     12  C   UNL     1      18.817  -4.177  10.114  1.00  0.00     0.008 C 
ATOM     13  C   UNL     1      16.201  -2.721  10.594  1.00  0.00     0.008 C 
ATOM     14  C   UNL     1      17.174  -6.890  15.531  1.00  0.00     0.017 C 
ATOM     15  C   UNL     1      19.649  -6.111  15.873  1.00  0.00    -0.020 C 
ATOM     16  C   UNL     1      18.263  -3.873  15.959  1.00  0.00     0.032 C 
ATOM     17  C   UNL     1      19.131  -4.903  16.782  1.00  0.00     0.006 C 
ATOM     18  C   UNL     1      20.959  -5.677  15.123  1.00  0.00     0.008 C 
ATOM     19  C   UNL     1      19.974  -7.354  16.762  1.00  0.00     0.012 C 
ATOM     20  C   UNL     1      20.230  -4.177  17.690  1.00  0.00    -0.025 C 
ATOM     21  C   UNL     1      22.005  -4.951  15.979  1.00  0.00     0.005 C 
ATOM     22  C   UNL     1      21.408  -3.738  16.742  1.00  0.00     0.003 C 
ATOM     23  C   UNL     1      19.586  -2.936  18.447  1.00  0.00     0.010 C 
ATOM     24  C   UNL     1      20.738  -5.121  18.832  1.00  0.00     0.012 C 
ATOM     25  C   UNL     1      22.497  -2.771  17.378  1.00  0.00    -0.006 C 
ATOM     26  C   UNL     1      20.370  -1.631  18.288  1.00  0.00     0.033 C 
ATOM     27  C   UNL     1      21.870  -1.882  18.513  1.00  0.00     0.120 C 
ATOM     28  C   UNL     1      23.701  -3.545  17.977  1.00  0.00     0.014 C 
ATOM     29  C   UNL     1      23.060  -1.861  16.250  1.00  0.00     0.014 C 
ENDROOT
BRANCH   1  30
ATOM     30  C   UNL     1      18.306  -7.166  10.459  1.00  0.00     0.048 C 
ATOM     31  O   UNL     1      19.535  -7.430  10.354  1.00  0.00    -0.550 OA
ATOM     32  O   UNL     1      17.482  -7.375   9.357  1.00  0.00    -0.550 OA
ENDBRANCH   1  30
BRANCH  27  33
ATOM     33  O   UNL     1      22.568  -0.670  18.691  1.00  0.00    -0.393 OA
ATOM     34  H   UNL     1      23.462  -0.757  18.270  1.00  0.00     0.210 HD
ENDBRANCH  27  33
TORSDOF 2
ENDMDL
MODEL 8
REMARK VINA RESULT:    -4.315      1.762      2.538
REMARK INTER + INTRA:          -4.689
REMARK INTER:                  -4.691
REMARK INTRA:                   0.002
REMARK UNBOUND:                 0.004
REMARK SMILES C[C@@H]1[C@H]2C3=CC[C@@H]4[C@]5(C)CC[C@H](O)C(C)(C)[C@H]5CC[C@]4(C)[C@]3(C)CC[C@@]2(C(=O)[O-])CC[C@@H]1C
REMARK SMILES IDX 26 1 30 2 25 3 3 4 31 5 24 6 4 7 2 8 32 9 22 10 5 11 1 12
REMARK SMILES IDX 33 13 23 14 20 15 6 16 7 17 19 18 21 19 8 20 18 21 17 22
REMARK SMILES IDX 10 23 9 24 14 25 11 26 12 27 15 28 16 29 27 30 28 31 29 32
REMARK SMILES IDX 13 33
REMARK H PARENT 13 34
REMARK Flexibility Score: inf
ROOT
ATOM      1  C   UNL     1      19.011  -6.532  18.712  1.00  0.00     0.017 C 
ATOM      2  C   UNL     1      20.368  -5.970  19.237  1.00  0.00     0.014 C 
ATOM      3  C   UNL     1      19.186  -8.058  18.400  1.00  0.00     0.014 C 
ATOM      4  C   UNL     1      18.577  -5.712  17.434  1.00  0.00     0.030 C 
ATOM      5  C   UNL     1      20.352  -4.458  19.500  1.00  0.00     0.004 C 
ATOM      6  C   UNL     1      18.746  -8.469  16.988  1.00  0.00     0.013 C 
ATOM      7  C   UNL     1      19.371  -6.171  16.176  1.00  0.00    -0.063 C 
ATOM      8  C   UNL     1      18.561  -4.159  17.705  1.00  0.00    -0.003 C 
ATOM      9  C   UNL     1      19.939  -3.681  18.239  1.00  0.00    -0.011 C 
ATOM     10  C   UNL     1      19.474  -7.667  15.856  1.00  0.00    -0.006 C 
ATOM     11  C   UNL     1      19.734  -5.308  15.204  1.00  0.00    -0.027 C 
ATOM     12  C   UNL     1      17.376  -3.702  18.586  1.00  0.00     0.008 C 
ATOM     13  C   UNL     1      19.989  -2.167  18.488  1.00  0.00     0.008 C 
ATOM     14  C   UNL     1      20.980  -8.086  15.902  1.00  0.00     0.017 C 
ATOM     15  C   UNL     1      18.849  -7.926  14.391  1.00  0.00    -0.020 C 
ATOM     16  C   UNL     1      20.186  -5.726  13.834  1.00  0.00     0.032 C 
ATOM     17  C   UNL     1      19.698  -7.128  13.297  1.00  0.00     0.006 C 
ATOM     18  C   UNL     1      17.355  -7.442  14.349  1.00  0.00     0.008 C 
ATOM     19  C   UNL     1      18.883  -9.458  14.087  1.00  0.00     0.012 C 
ATOM     20  C   UNL     1      19.054  -7.024  11.837  1.00  0.00    -0.025 C 
ATOM     21  C   UNL     1      16.739  -7.308  12.950  1.00  0.00     0.005 C 
ATOM     22  C   UNL     1      17.604  -6.434  12.003  1.00  0.00     0.003 C 
ATOM     23  C   UNL     1      19.959  -6.114  10.899  1.00  0.00     0.010 C 
ATOM     24  C   UNL     1      19.023  -8.420  11.128  1.00  0.00     0.012 C 
ATOM     25  C   UNL     1      16.865  -6.001  10.664  1.00  0.00    -0.006 C 
ATOM     26  C   UNL     1      19.193  -5.003  10.177  1.00  0.00     0.033 C 
ATOM     27  C   UNL     1      17.899  -5.563   9.563  1.00  0.00     0.120 C 
ATOM     28  C   UNL     1      15.984  -7.135  10.079  1.00  0.00     0.014 C 
ATOM     29  C   UNL     1      15.915  -4.813  10.992  1.00  0.00     0.014 C 
ENDROOT
BRANCH   1  30
ATOM     30  C   UNL     1      17.943  -6.446  19.796  1.00  0.00     0.048 C 
ATOM     31  O   UNL     1      16.765  -6.827  19.554  1.00  0.00    -0.550 OA
ATOM     32  O   UNL     1      18.267  -6.066  21.095  1.00  0.00    -0.550 OA
ENDBRANCH   1  30
BRANCH  27  33
ATOM     33  O   UNL     1      17.342  -4.660   8.635  1.00  0.00    -0.393 OA
ATOM     34  H   UNL     1      18.011  -4.489   7.923  1.00  0.00     0.210 HD
ENDBRANCH  27  33
TORSDOF 2
ENDMDL
MODEL 9
REMARK VINA RESULT:    -4.047      2.136      7.967
REMARK INTER + INTRA:          -4.398
REMARK INTER:                  -4.404
REMARK INTRA:                   0.006
REMARK UNBOUND:                 0.004
REMARK SMILES C[C@@H]1[C@H]2C3=CC[C@@H]4[C@]5(C)CC[C@H](O)C(C)(C)[C@H]5CC[C@]4(C)[C@]3(C)CC[C@@]2(C(=O)[O-])CC[C@@H]1C
REMARK SMILES IDX 26 1 30 2 25 3 3 4 31 5 24 6 4 7 2 8 32 9 22 10 5 11 1 12
REMARK SMILES IDX 33 13 23 14 20 15 6 16 7 17 19 18 21 19 8 20 18 21 17 22
REMARK SMILES IDX 10 23 9 24 14 25 11 26 12 27 15 28 16 29 27 30 28 31 29 32
REMARK SMILES IDX 13 33
REMARK H PARENT 13 34
REMARK Flexibility Score: inf
ROOT
ATOM      1  C   UNL     1      19.729  -7.370  12.194  1.00  0.00     0.017 C 
ATOM      2  C   UNL     1      19.652  -8.685  11.358  1.00  0.00     0.014 C 
ATOM      3  C   UNL     1      21.217  -7.138  12.628  1.00  0.00     0.014 C 
ATOM      4  C   UNL     1      18.762  -7.496  13.436  1.00  0.00     0.030 C 
ATOM      5  C   UNL     1      18.226  -9.072  10.942  1.00  0.00     0.004 C 
ATOM      6  C   UNL     1      21.409  -6.913  14.135  1.00  0.00     0.013 C 
ATOM      7  C   UNL     1      19.400  -8.367  14.558  1.00  0.00    -0.063 C 
ATOM      8  C   UNL     1      17.299  -7.893  13.009  1.00  0.00    -0.003 C 
ATOM      9  C   UNL     1      17.308  -9.200  12.168  1.00  0.00    -0.011 C 
ATOM     10  C   UNL     1      20.836  -8.079  15.011  1.00  0.00    -0.006 C 
ATOM     11  C   UNL     1      18.659  -9.178  15.342  1.00  0.00    -0.027 C 
ATOM     12  C   UNL     1      16.523  -6.741  12.331  1.00  0.00     0.008 C 
ATOM     13  C   UNL     1      15.900  -9.651  11.753  1.00  0.00     0.008 C 
ATOM     14  C   UNL     1      21.715  -9.338  14.719  1.00  0.00     0.017 C 
ATOM     15  C   UNL     1      20.822  -7.740  16.588  1.00  0.00    -0.020 C 
ATOM     16  C   UNL     1      19.143  -9.770  16.635  1.00  0.00     0.032 C 
ATOM     17  C   UNL     1      20.293  -9.009  17.404  1.00  0.00     0.006 C 
ATOM     18  C   UNL     1      19.885  -6.511  16.867  1.00  0.00     0.008 C 
ATOM     19  C   UNL     1      22.270  -7.373  17.043  1.00  0.00     0.012 C 
ATOM     20  C   UNL     1      19.929  -8.762  18.942  1.00  0.00    -0.025 C 
ATOM     21  C   UNL     1      19.504  -6.286  18.337  1.00  0.00     0.005 C 
ATOM     22  C   UNL     1      18.914  -7.559  18.998  1.00  0.00     0.003 C 
ATOM     23  C   UNL     1      19.319 -10.083  19.583  1.00  0.00     0.010 C 
ATOM     24  C   UNL     1      21.212  -8.464  19.790  1.00  0.00     0.012 C 
ATOM     25  C   UNL     1      18.213  -7.298  20.401  1.00  0.00    -0.006 C 
ATOM     26  C   UNL     1      17.993  -9.866  20.317  1.00  0.00     0.033 C 
ATOM     27  C   UNL     1      18.085  -8.630  21.226  1.00  0.00     0.120 C 
ATOM     28  C   UNL     1      18.982  -6.264  21.264  1.00  0.00     0.014 C 
ATOM     29  C   UNL     1      16.799  -6.706  20.138  1.00  0.00     0.014 C 
ENDROOT
BRANCH   1  30
ATOM     30  C   UNL     1      19.351  -6.169  11.335  1.00  0.00     0.048 C 
ATOM     31  O   UNL     1      19.251  -5.025  11.858  1.00  0.00    -0.550 OA
ATOM     32  O   UNL     1      19.229  -6.285   9.954  1.00  0.00    -0.550 OA
ENDBRANCH   1  30
BRANCH  27  33
ATOM     33  O   UNL     1      17.014  -8.590  22.143  1.00  0.00    -0.393 OA
ATOM     34  H   UNL     1      17.368  -8.782  23.049  1.00  0.00     0.210 HD
ENDBRANCH  27  33
TORSDOF 2
ENDMDL
