MODEL 1
REMARK VINA RESULT:    -4.533      0.000      0.000
REMARK INTER + INTRA:          -4.891
REMARK INTER:                  -4.798
REMARK INTRA:                  -0.092
REMARK UNBOUND:                -0.092
REMARK SMILES C=C(C)[C@H]1CC=C(C)C(=O)C1
REMARK SMILES IDX 8 1 7 2 6 3 5 4 4 5 11 6 9 7 10 8 2 9 1 10 3 11
REMARK H PARENT
REMARK Flexibility Score: inf
ROOT
ATOM      1  C   UNL     1      15.927  28.530  43.352  1.00  0.00     0.048 C 
ATOM      2  C   UNL     1      17.379  28.152  43.250  1.00  0.00    -0.012 C 
ATOM      3  C   UNL     1      18.311  28.866  43.905  1.00  0.00    -0.019 C 
ATOM      4  C   UNL     1      19.782  28.577  43.770  1.00  0.00     0.036 C 
ATOM      5  C   UNL     1      20.033  27.079  43.498  1.00  0.00     0.025 C 
ATOM      6  C   UNL     1      19.230  26.618  42.267  1.00  0.00     0.089 C 
ATOM      7  C   UNL     1      17.782  27.003  42.402  1.00  0.00     0.158 C 
ATOM      8  O   UNL     1      16.914  26.363  41.750  1.00  0.00    -0.295 OA
ENDROOT
BRANCH   5   9
ATOM      9  C   UNL     1      21.517  26.776  43.347  1.00  0.00    -0.077 C 
ATOM     10  C   UNL     1      22.019  25.567  43.648  1.00  0.00     0.008 C 
ATOM     11  C   UNL     1      22.458  27.844  42.851  1.00  0.00     0.039 C 
ENDBRANCH   5   9
TORSDOF 1
ENDMDL
MODEL 2
REMARK VINA RESULT:    -4.509      1.003      1.228
REMARK INTER + INTRA:          -4.865
REMARK INTER:                  -4.771
REMARK INTRA:                  -0.093
REMARK UNBOUND:                -0.092
REMARK SMILES C=C(C)[C@H]1CC=C(C)C(=O)C1
REMARK SMILES IDX 8 1 7 2 6 3 5 4 4 5 11 6 9 7 10 8 2 9 1 10 3 11
REMARK H PARENT
REMARK Flexibility Score: inf
ROOT
ATOM      1  C   UNL     1      16.648  29.328  43.982  1.00  0.00     0.048 C 
ATOM      2  C   UNL     1      17.846  28.506  43.591  1.00  0.00    -0.012 C 
ATOM      3  C   UNL     1      19.075  28.869  43.994  1.00  0.00    -0.019 C 
ATOM      4  C   UNL     1      20.311  28.126  43.562  1.00  0.00     0.036 C 
ATOM      5  C   UNL     1      20.007  26.633  43.322  1.00  0.00     0.025 C 
ATOM      6  C   UNL     1      18.850  26.478  42.316  1.00  0.00     0.089 C 
ATOM      7  C   UNL     1      17.666  27.305  42.739  1.00  0.00     0.158 C 
ATOM      8  O   UNL     1      16.520  26.990  42.321  1.00  0.00    -0.295 OA
ENDROOT
BRANCH   5   9
ATOM      9  C   UNL     1      21.247  25.873  42.873  1.00  0.00    -0.077 C 
ATOM     10  C   UNL     1      22.371  25.869  43.609  1.00  0.00     0.008 C 
ATOM     11  C   UNL     1      21.232  25.104  41.576  1.00  0.00     0.039 C 
ENDBRANCH   5   9
TORSDOF 1
ENDMDL
MODEL 3
REMARK VINA RESULT:    -4.462      2.278      4.828
REMARK INTER + INTRA:          -4.815
REMARK INTER:                  -4.719
REMARK INTRA:                  -0.096
REMARK UNBOUND:                -0.092
REMARK SMILES C=C(C)[C@H]1CC=C(C)C(=O)C1
REMARK SMILES IDX 8 1 7 2 6 3 5 4 4 5 11 6 9 7 10 8 2 9 1 10 3 11
REMARK H PARENT
REMARK Flexibility Score: inf
ROOT
ATOM      1  C   UNL     1      24.261  27.404  42.855  1.00  0.00     0.048 C 
ATOM      2  C   UNL     1      22.762  27.528  42.882  1.00  0.00    -0.012 C 
ATOM      3  C   UNL     1      22.013  26.553  43.427  1.00  0.00    -0.019 C 
ATOM      4  C   UNL     1      20.509  26.594  43.406  1.00  0.00     0.036 C 
ATOM      5  C   UNL     1      19.990  28.046  43.432  1.00  0.00     0.025 C 
ATOM      6  C   UNL     1      20.613  28.857  42.279  1.00  0.00     0.089 C 
ATOM      7  C   UNL     1      22.112  28.719  42.283  1.00  0.00     0.158 C 
ATOM      8  O   UNL     1      22.810  29.611  41.729  1.00  0.00    -0.295 OA
ENDROOT
BRANCH   5   9
ATOM      9  C   UNL     1      18.469  28.101  43.398  1.00  0.00    -0.077 C 
ATOM     10  C   UNL     1      17.738  27.029  43.048  1.00  0.00     0.008 C 
ATOM     11  C   UNL     1      17.751  29.375  43.761  1.00  0.00     0.039 C 
ENDBRANCH   5   9
TORSDOF 1
ENDMDL
MODEL 4
REMARK VINA RESULT:    -4.376      1.933      4.607
REMARK INTER + INTRA:          -4.724
REMARK INTER:                  -4.628
REMARK INTRA:                  -0.096
REMARK UNBOUND:                -0.092
REMARK SMILES C=C(C)[C@H]1CC=C(C)C(=O)C1
REMARK SMILES IDX 8 1 7 2 6 3 5 4 4 5 11 6 9 7 10 8 2 9 1 10 3 11
REMARK H PARENT
REMARK Flexibility Score: inf
ROOT
ATOM      1  C   UNL     1      21.226  24.806  41.377  1.00  0.00     0.048 C 
ATOM      2  C   UNL     1      20.233  25.844  41.824  1.00  0.00    -0.012 C 
ATOM      3  C   UNL     1      19.090  26.025  41.140  1.00  0.00    -0.019 C 
ATOM      4  C   UNL     1      18.105  27.105  41.500  1.00  0.00     0.036 C 
ATOM      5  C   UNL     1      18.132  27.401  43.013  1.00  0.00     0.025 C 
ATOM      6  C   UNL     1      19.565  27.743  43.465  1.00  0.00     0.089 C 
ATOM      7  C   UNL     1      20.532  26.684  43.010  1.00  0.00     0.158 C 
ATOM      8  O   UNL     1      21.624  26.547  43.624  1.00  0.00    -0.295 OA
ENDROOT
BRANCH   5   9
ATOM      9  C   UNL     1      17.148  28.501  43.388  1.00  0.00    -0.077 C 
ATOM     10  C   UNL     1      17.565  29.662  43.921  1.00  0.00     0.008 C 
ATOM     11  C   UNL     1      15.671  28.300  43.165  1.00  0.00     0.039 C 
ENDBRANCH   5   9
TORSDOF 1
ENDMDL
MODEL 5
REMARK VINA RESULT:    -4.361      1.582      2.405
REMARK INTER + INTRA:          -4.708
REMARK INTER:                  -4.613
REMARK INTRA:                  -0.095
REMARK UNBOUND:                -0.092
REMARK SMILES C=C(C)[C@H]1CC=C(C)C(=O)C1
REMARK SMILES IDX 8 1 7 2 6 3 5 4 4 5 11 6 9 7 10 8 2 9 1 10 3 11
REMARK H PARENT
REMARK Flexibility Score: inf
ROOT
ATOM      1  C   UNL     1      15.264  28.507  42.957  1.00  0.00     0.048 C 
ATOM      2  C   UNL     1      16.722  28.180  43.125  1.00  0.00    -0.012 C 
ATOM      3  C   UNL     1      17.200  26.992  42.717  1.00  0.00    -0.019 C 
ATOM      4  C   UNL     1      18.633  26.587  42.936  1.00  0.00     0.036 C 
ATOM      5  C   UNL     1      19.565  27.816  42.932  1.00  0.00     0.025 C 
ATOM      6  C   UNL     1      19.086  28.854  43.964  1.00  0.00     0.089 C 
ATOM      7  C   UNL     1      17.628  29.166  43.766  1.00  0.00     0.158 C 
ATOM      8  O   UNL     1      17.172  30.261  44.192  1.00  0.00    -0.295 OA
ENDROOT
BRANCH   5   9
ATOM      9  C   UNL     1      21.017  27.420  43.166  1.00  0.00    -0.077 C 
ATOM     10  C   UNL     1      22.017  28.303  43.006  1.00  0.00     0.008 C 
ATOM     11  C   UNL     1      21.357  26.013  43.584  1.00  0.00     0.039 C 
ENDBRANCH   5   9
TORSDOF 1
ENDMDL
MODEL 6
REMARK VINA RESULT:    -4.077      2.052      4.572
REMARK INTER + INTRA:          -4.407
REMARK INTER:                  -4.314
REMARK INTRA:                  -0.094
REMARK UNBOUND:                -0.092
REMARK SMILES C=C(C)[C@H]1CC=C(C)C(=O)C1
REMARK SMILES IDX 8 1 7 2 6 3 5 4 4 5 11 6 9 7 10 8 2 9 1 10 3 11
REMARK H PARENT
REMARK Flexibility Score: inf
ROOT
ATOM      1  C   UNL     1      24.053  27.871  42.644  1.00  0.00     0.048 C 
ATOM      2  C   UNL     1      22.560  27.828  42.825  1.00  0.00    -0.012 C 
ATOM      3  C   UNL     1      21.806  28.886  42.479  1.00  0.00    -0.019 C 
ATOM      4  C   UNL     1      20.320  28.921  42.715  1.00  0.00     0.036 C 
ATOM      5  C   UNL     1      19.711  27.506  42.642  1.00  0.00     0.025 C 
ATOM      6  C   UNL     1      20.436  26.561  43.620  1.00  0.00     0.089 C 
ATOM      7  C   UNL     1      21.925  26.621  43.409  1.00  0.00     0.158 C 
ATOM      8  O   UNL     1      22.635  25.647  43.779  1.00  0.00    -0.295 OA
ENDROOT
BRANCH   5   9
ATOM      9  C   UNL     1      18.209  27.527  42.892  1.00  0.00    -0.077 C 
ATOM     10  C   UNL     1      17.422  26.506  42.513  1.00  0.00     0.008 C 
ATOM     11  C   UNL     1      17.575  28.711  43.575  1.00  0.00     0.039 C 
ENDBRANCH   5   9
TORSDOF 1
ENDMDL
MODEL 7
REMARK VINA RESULT:    -4.007      1.457      4.288
REMARK INTER + INTRA:          -4.333
REMARK INTER:                  -4.238
REMARK INTRA:                  -0.095
REMARK UNBOUND:                -0.092
REMARK SMILES C=C(C)[C@H]1CC=C(C)C(=O)C1
REMARK SMILES IDX 8 1 7 2 6 3 5 4 4 5 11 6 9 7 10 8 2 9 1 10 3 11
REMARK H PARENT
REMARK Flexibility Score: inf
ROOT
ATOM      1  C   UNL     1      22.630  26.387  42.458  1.00  0.00     0.048 C 
ATOM      2  C   UNL     1      21.243  26.888  42.754  1.00  0.00    -0.012 C 
ATOM      3  C   UNL     1      21.063  27.921  43.595  1.00  0.00    -0.019 C 
ATOM      4  C   UNL     1      19.692  28.406  43.985  1.00  0.00     0.036 C 
ATOM      5  C   UNL     1      18.675  28.173  42.849  1.00  0.00     0.025 C 
ATOM      6  C   UNL     1      18.674  26.691  42.429  1.00  0.00     0.089 C 
ATOM      7  C   UNL     1      20.072  26.222  42.132  1.00  0.00     0.158 C 
ATOM      8  O   UNL     1      20.237  25.223  41.381  1.00  0.00    -0.295 OA
ENDROOT
BRANCH   5   9
ATOM      9  C   UNL     1      17.282  28.648  43.237  1.00  0.00    -0.077 C 
ATOM     10  C   UNL     1      17.097  29.786  43.927  1.00  0.00     0.008 C 
ATOM     11  C   UNL     1      16.072  27.838  42.846  1.00  0.00     0.039 C 
ENDBRANCH   5   9
TORSDOF 1
ENDMDL
MODEL 8
REMARK VINA RESULT:    -3.932      1.623      4.650
REMARK INTER + INTRA:          -4.254
REMARK INTER:                  -4.158
REMARK INTRA:                  -0.096
REMARK UNBOUND:                -0.092
REMARK SMILES C=C(C)[C@H]1CC=C(C)C(=O)C1
REMARK SMILES IDX 8 1 7 2 6 3 5 4 4 5 11 6 9 7 10 8 2 9 1 10 3 11
REMARK H PARENT
REMARK Flexibility Score: inf
ROOT
ATOM      1  C   UNL     1      20.919  28.488  43.215  1.00  0.00     0.048 C 
ATOM      2  C   UNL     1      19.436  28.240  43.249  1.00  0.00    -0.012 C 
ATOM      3  C   UNL     1      18.614  29.137  43.820  1.00  0.00    -0.019 C 
ATOM      4  C   UNL     1      17.133  28.895  43.950  1.00  0.00     0.036 C 
ATOM      5  C   UNL     1      16.608  28.021  42.794  1.00  0.00     0.025 C 
ATOM      6  C   UNL     1      17.409  26.707  42.711  1.00  0.00     0.089 C 
ATOM      7  C   UNL     1      18.887  26.989  42.670  1.00  0.00     0.158 C 
ATOM      8  O   UNL     1      19.662  26.126  42.177  1.00  0.00    -0.295 OA
ENDROOT
BRANCH   5   9
ATOM      9  C   UNL     1      15.114  27.759  42.921  1.00  0.00    -0.077 C 
ATOM     10  C   UNL     1      14.333  28.526  43.701  1.00  0.00     0.008 C 
ATOM     11  C   UNL     1      14.479  26.620  42.165  1.00  0.00     0.039 C 
ENDBRANCH   5   9
TORSDOF 1
ENDMDL
MODEL 9
REMARK VINA RESULT:    -3.893      1.934      5.372
REMARK INTER + INTRA:          -4.213
REMARK INTER:                  -4.119
REMARK INTRA:                  -0.094
REMARK UNBOUND:                -0.092
REMARK SMILES C=C(C)[C@H]1CC=C(C)C(=O)C1
REMARK SMILES IDX 8 1 7 2 6 3 5 4 4 5 11 6 9 7 10 8 2 9 1 10 3 11
REMARK H PARENT
REMARK Flexibility Score: inf
ROOT
ATOM      1  C   UNL     1      19.935  26.600  42.732  1.00  0.00     0.048 C 
ATOM      2  C   UNL     1      18.555  27.198  42.777  1.00  0.00    -0.012 C 
ATOM      3  C   UNL     1      17.568  26.678  42.028  1.00  0.00    -0.019 C 
ATOM      4  C   UNL     1      16.194  27.290  41.978  1.00  0.00     0.036 C 
ATOM      5  C   UNL     1      15.843  27.980  43.312  1.00  0.00     0.025 C 
ATOM      6  C   UNL     1      16.929  29.009  43.683  1.00  0.00     0.089 C 
ATOM      7  C   UNL     1      18.294  28.379  43.636  1.00  0.00     0.158 C 
ATOM      8  O   UNL     1      19.231  28.897  44.302  1.00  0.00    -0.295 OA
ENDROOT
BRANCH   5   9
ATOM      9  C   UNL     1      14.460  28.614  43.270  1.00  0.00    -0.077 C 
ATOM     10  C   UNL     1      13.959  29.126  42.134  1.00  0.00     0.008 C 
ATOM     11  C   UNL     1      13.621  28.678  44.521  1.00  0.00     0.039 C 
ENDBRANCH   5   9
TORSDOF 1
ENDMDL
