MODEL 1
REMARK VINA RESULT:    -4.770      0.000      0.000
REMARK INTER + INTRA:         -10.869
REMARK INTER:                  -8.952
REMARK INTRA:                  -1.917
REMARK UNBOUND:                -1.917
REMARK SMILES CCCCCCCCC=CCCCCCCCC(=O)[O-]
REMARK SMILES IDX 10 1 9 2 11 3 12 4 13 5 14 6 15 7 16 8 17 9 18 10 19 11
REMARK SMILES IDX 20 12 8 13 7 14 6 15 5 16 4 17 3 18 2 19 1 20
REMARK H PARENT
REMARK Flexibility Score: inf
ROOT
ATOM      1  C   UNL     1     -16.385  -0.372   6.000  1.00  0.00    -0.031 C 
ATOM      2  C   UNL     1     -15.781  -1.162   6.907  1.00  0.00    -0.031 C 
ENDROOT
BRANCH   1   3
ATOM      3  C   UNL     1     -16.963  -0.855   4.694  1.00  0.00     0.027 C 
BRANCH   3   4
ATOM      4  C   UNL     1     -16.980   0.274   3.654  1.00  0.00     0.004 C 
BRANCH   4   5
ATOM      5  C   UNL     1     -17.592  -0.160   2.310  1.00  0.00     0.000 C 
BRANCH   5   6
ATOM      6  C   UNL     1     -19.031   0.331   2.067  1.00  0.00     0.000 C 
BRANCH   6   7
ATOM      7  C   UNL     1     -19.782  -0.516   1.025  1.00  0.00     0.000 C 
BRANCH   7   8
ATOM      8  C   UNL     1     -20.756  -1.515   1.668  1.00  0.00     0.006 C 
BRANCH   8   9
ATOM      9  C   UNL     1     -20.981  -1.240   3.161  1.00  0.00     0.053 C 
BRANCH   9  10
ATOM     10  C   UNL     1     -22.444  -1.169   3.464  1.00  0.00     0.041 C 
ATOM     11  O   UNL     1     -23.280  -1.671   2.667  1.00  0.00    -0.550 OA
ATOM     12  O   UNL     1     -22.882  -0.592   4.648  1.00  0.00    -0.550 OA
ENDBRANCH   9  10
ENDBRANCH   8   9
ENDBRANCH   7   8
ENDBRANCH   6   7
ENDBRANCH   5   6
ENDBRANCH   4   5
ENDBRANCH   3   4
ENDBRANCH   1   3
BRANCH   2  13
ATOM     13  C   UNL     1     -15.669  -2.661   6.793  1.00  0.00     0.027 C 
BRANCH  13  14
ATOM     14  C   UNL     1     -14.207  -3.108   6.898  1.00  0.00     0.004 C 
BRANCH  14  15
ATOM     15  C   UNL     1     -13.269  -1.896   7.001  1.00  0.00     0.000 C 
BRANCH  15  16
ATOM     16  C   UNL     1     -12.500  -1.627   5.697  1.00  0.00     0.000 C 
BRANCH  16  17
ATOM     17  C   UNL     1     -12.033  -2.922   5.010  1.00  0.00    -0.000 C 
BRANCH  17  18
ATOM     18  C   UNL     1     -12.386  -2.965   3.512  1.00  0.00    -0.000 C 
BRANCH  18  19
ATOM     19  C   UNL     1     -13.770  -2.395   3.153  1.00  0.00    -0.003 C 
ATOM     20  C   UNL     1     -14.883  -3.441   3.225  1.00  0.00     0.004 C 
ENDBRANCH  18  19
ENDBRANCH  17  18
ENDBRANCH  16  17
ENDBRANCH  15  16
ENDBRANCH  14  15
ENDBRANCH  13  14
ENDBRANCH   2  13
TORSDOF 15
ENDMDL
MODEL 2
REMARK VINA RESULT:    -4.554      2.577      7.350
REMARK INTER + INTRA:         -10.466
REMARK INTER:                  -8.349
REMARK INTRA:                  -2.117
REMARK UNBOUND:                -1.917
REMARK SMILES CCCCCCCCC=CCCCCCCCC(=O)[O-]
REMARK SMILES IDX 10 1 9 2 11 3 12 4 13 5 14 6 15 7 16 8 17 9 18 10 19 11
REMARK SMILES IDX 20 12 8 13 7 14 6 15 5 16 4 17 3 18 2 19 1 20
REMARK H PARENT
REMARK Flexibility Score: inf
ROOT
ATOM      1  C   UNL     1     -15.979  -2.411   3.352  1.00  0.00    -0.031 C 
ATOM      2  C   UNL     1     -17.103  -1.732   3.650  1.00  0.00    -0.031 C 
ENDROOT
BRANCH   1   3
ATOM      3  C   UNL     1     -14.754  -1.801   2.719  1.00  0.00     0.027 C 
BRANCH   3   4
ATOM      4  C   UNL     1     -13.500  -2.621   3.056  1.00  0.00     0.004 C 
BRANCH   4   5
ATOM      5  C   UNL     1     -13.790  -3.786   4.019  1.00  0.00     0.000 C 
BRANCH   5   6
ATOM      6  C   UNL     1     -12.934  -3.795   5.298  1.00  0.00     0.000 C 
BRANCH   6   7
ATOM      7  C   UNL     1     -12.324  -2.419   5.617  1.00  0.00     0.000 C 
BRANCH   7   8
ATOM      8  C   UNL     1     -13.047  -1.707   6.770  1.00  0.00     0.006 C 
BRANCH   8   9
ATOM      9  C   UNL     1     -14.179  -0.794   6.280  1.00  0.00     0.053 C 
BRANCH   9  10
ATOM     10  C   UNL     1     -15.488  -1.230   6.858  1.00  0.00     0.041 C 
ATOM     11  O   UNL     1     -15.664  -2.431   7.194  1.00  0.00    -0.550 OA
ATOM     12  O   UNL     1     -16.498  -0.301   7.071  1.00  0.00    -0.550 OA
ENDBRANCH   9  10
ENDBRANCH   8   9
ENDBRANCH   7   8
ENDBRANCH   6   7
ENDBRANCH   5   6
ENDBRANCH   4   5
ENDBRANCH   3   4
ENDBRANCH   1   3
BRANCH   2  13
ATOM     13  C   UNL     1     -17.273  -0.245   3.475  1.00  0.00     0.027 C 
BRANCH  13  14
ATOM     14  C   UNL     1     -17.774   0.084   2.065  1.00  0.00     0.004 C 
BRANCH  14  15
ATOM     15  C   UNL     1     -19.281   0.379   2.072  1.00  0.00     0.000 C 
BRANCH  15  16
ATOM     16  C   UNL     1     -20.113  -0.758   1.457  1.00  0.00     0.000 C 
BRANCH  16  17
ATOM     17  C   UNL     1     -21.318  -1.147   2.331  1.00  0.00    -0.000 C 
BRANCH  17  18
ATOM     18  C   UNL     1     -20.918  -1.971   3.568  1.00  0.00    -0.000 C 
BRANCH  18  19
ATOM     19  C   UNL     1     -21.910  -1.905   4.744  1.00  0.00    -0.003 C 
ATOM     20  C   UNL     1     -23.188  -1.138   4.404  1.00  0.00     0.004 C 
ENDBRANCH  18  19
ENDBRANCH  17  18
ENDBRANCH  16  17
ENDBRANCH  15  16
ENDBRANCH  14  15
ENDBRANCH  13  14
ENDBRANCH   2  13
TORSDOF 15
ENDMDL
MODEL 3
REMARK VINA RESULT:    -4.531      2.661      6.589
REMARK INTER + INTRA:         -10.421
REMARK INTER:                  -7.981
REMARK INTRA:                  -2.440
REMARK UNBOUND:                -1.917
REMARK SMILES CCCCCCCCC=CCCCCCCCC(=O)[O-]
REMARK SMILES IDX 10 1 9 2 11 3 12 4 13 5 14 6 15 7 16 8 17 9 18 10 19 11
REMARK SMILES IDX 20 12 8 13 7 14 6 15 5 16 4 17 3 18 2 19 1 20
REMARK H PARENT
REMARK Flexibility Score: inf
ROOT
ATOM      1  C   UNL     1     -15.924  -1.176   6.908  1.00  0.00    -0.031 C 
ATOM      2  C   UNL     1     -16.477  -0.352   5.998  1.00  0.00    -0.031 C 
ENDROOT
BRANCH   1   3
ATOM      3  C   UNL     1     -15.841  -2.675   6.765  1.00  0.00     0.027 C 
BRANCH   3   4
ATOM      4  C   UNL     1     -14.388  -3.154   6.887  1.00  0.00     0.004 C 
BRANCH   4   5
ATOM      5  C   UNL     1     -13.374  -1.996   6.882  1.00  0.00     0.000 C 
BRANCH   5   6
ATOM      6  C   UNL     1     -12.499  -1.909   5.619  1.00  0.00     0.000 C 
BRANCH   6   7
ATOM      7  C   UNL     1     -13.301  -1.522   4.363  1.00  0.00     0.000 C 
BRANCH   7   8
ATOM      8  C   UNL     1     -13.358  -2.655   3.328  1.00  0.00     0.006 C 
BRANCH   8   9
ATOM      9  C   UNL     1     -14.777  -3.205   3.136  1.00  0.00     0.053 C 
BRANCH   9  10
ATOM     10  C   UNL     1     -15.296  -2.850   1.779  1.00  0.00     0.041 C 
ATOM     11  O   UNL     1     -16.266  -3.484   1.286  1.00  0.00    -0.550 OA
ATOM     12  O   UNL     1     -14.740  -1.789   1.077  1.00  0.00    -0.550 OA
ENDBRANCH   9  10
ENDBRANCH   8   9
ENDBRANCH   7   8
ENDBRANCH   6   7
ENDBRANCH   5   6
ENDBRANCH   4   5
ENDBRANCH   3   4
ENDBRANCH   1   3
BRANCH   2  13
ATOM     13  C   UNL     1     -17.018  -0.795   4.663  1.00  0.00     0.027 C 
BRANCH  13  14
ATOM     14  C   UNL     1     -16.952   0.348   3.644  1.00  0.00     0.004 C 
BRANCH  14  15
ATOM     15  C   UNL     1     -17.595  -0.066   2.312  1.00  0.00     0.000 C 
BRANCH  15  16
ATOM     16  C   UNL     1     -19.043   0.430   2.171  1.00  0.00     0.000 C 
BRANCH  16  17
ATOM     17  C   UNL     1     -19.946  -0.583   1.446  1.00  0.00    -0.000 C 
BRANCH  17  18
ATOM     18  C   UNL     1     -21.105  -1.087   2.325  1.00  0.00    -0.000 C 
BRANCH  18  19
ATOM     19  C   UNL     1     -20.677  -1.781   3.631  1.00  0.00    -0.003 C 
ATOM     20  C   UNL     1     -19.767  -2.986   3.396  1.00  0.00     0.004 C 
ENDBRANCH  18  19
ENDBRANCH  17  18
ENDBRANCH  16  17
ENDBRANCH  15  16
ENDBRANCH  14  15
ENDBRANCH  13  14
ENDBRANCH   2  13
TORSDOF 15
ENDMDL
MODEL 4
REMARK VINA RESULT:    -4.520      1.350      2.053
REMARK INTER + INTRA:         -10.400
REMARK INTER:                  -7.974
REMARK INTRA:                  -2.427
REMARK UNBOUND:                -1.917
REMARK SMILES CCCCCCCCC=CCCCCCCCC(=O)[O-]
REMARK SMILES IDX 10 1 9 2 11 3 12 4 13 5 14 6 15 7 16 8 17 9 18 10 19 11
REMARK SMILES IDX 20 12 8 13 7 14 6 15 5 16 4 17 3 18 2 19 1 20
REMARK H PARENT
REMARK Flexibility Score: inf
ROOT
ATOM      1  C   UNL     1     -16.550   0.212   3.380  1.00  0.00    -0.031 C 
ATOM      2  C   UNL     1     -17.006  -0.323   4.528  1.00  0.00    -0.031 C 
ENDROOT
BRANCH   1   3
ATOM      3  C   UNL     1     -15.211  -0.103   2.762  1.00  0.00     0.027 C 
BRANCH   3   4
ATOM      4  C   UNL     1     -15.380  -0.600   1.319  1.00  0.00     0.004 C 
BRANCH   4   5
ATOM      5  C   UNL     1     -16.848  -0.889   0.955  1.00  0.00     0.000 C 
BRANCH   5   6
ATOM      6  C   UNL     1     -17.295  -2.344   1.183  1.00  0.00     0.000 C 
BRANCH   6   7
ATOM      7  C   UNL     1     -18.693  -2.446   1.818  1.00  0.00     0.000 C 
BRANCH   7   8
ATOM      8  C   UNL     1     -19.623  -1.302   1.384  1.00  0.00     0.006 C 
BRANCH   8   9
ATOM      9  C   UNL     1     -20.259  -0.576   2.576  1.00  0.00     0.053 C 
BRANCH   9  10
ATOM     10  C   UNL     1     -21.689  -0.986   2.734  1.00  0.00     0.041 C 
ATOM     11  O   UNL     1     -22.392  -0.489   3.653  1.00  0.00    -0.550 OA
ATOM     12  O   UNL     1     -22.260  -1.880   1.839  1.00  0.00    -0.550 OA
ENDBRANCH   9  10
ENDBRANCH   8   9
ENDBRANCH   7   8
ENDBRANCH   6   7
ENDBRANCH   5   6
ENDBRANCH   4   5
ENDBRANCH   3   4
ENDBRANCH   1   3
BRANCH   2  13
ATOM     13  C   UNL     1     -16.284  -1.382   5.322  1.00  0.00     0.027 C 
BRANCH  13  14
ATOM     14  C   UNL     1     -15.611  -0.772   6.556  1.00  0.00     0.004 C 
BRANCH  14  15
ATOM     15  C   UNL     1     -14.306  -1.509   6.890  1.00  0.00     0.000 C 
BRANCH  15  16
ATOM     16  C   UNL     1     -13.223  -1.317   5.815  1.00  0.00     0.000 C 
BRANCH  16  17
ATOM     17  C   UNL     1     -12.192  -2.459   5.806  1.00  0.00    -0.000 C 
BRANCH  17  18
ATOM     18  C   UNL     1     -12.014  -3.093   4.414  1.00  0.00    -0.000 C 
BRANCH  18  19
ATOM     19  C   UNL     1     -13.131  -2.772   3.405  1.00  0.00    -0.003 C 
ATOM     20  C   UNL     1     -14.228  -3.837   3.370  1.00  0.00     0.004 C 
ENDBRANCH  18  19
ENDBRANCH  17  18
ENDBRANCH  16  17
ENDBRANCH  15  16
ENDBRANCH  14  15
ENDBRANCH  13  14
ENDBRANCH   2  13
TORSDOF 15
ENDMDL
MODEL 5
REMARK VINA RESULT:    -4.511      0.927      2.846
REMARK INTER + INTRA:         -10.384
REMARK INTER:                  -8.346
REMARK INTRA:                  -2.039
REMARK UNBOUND:                -1.917
REMARK SMILES CCCCCCCCC=CCCCCCCCC(=O)[O-]
REMARK SMILES IDX 10 1 9 2 11 3 12 4 13 5 14 6 15 7 16 8 17 9 18 10 19 11
REMARK SMILES IDX 20 12 8 13 7 14 6 15 5 16 4 17 3 18 2 19 1 20
REMARK H PARENT
REMARK Flexibility Score: inf
ROOT
ATOM      1  C   UNL     1     -15.487  -2.123   3.052  1.00  0.00    -0.031 C 
ATOM      2  C   UNL     1     -14.505  -3.043   3.035  1.00  0.00    -0.031 C 
ENDROOT
BRANCH   1   3
ATOM      3  C   UNL     1     -15.263  -0.632   3.011  1.00  0.00     0.027 C 
BRANCH   3   4
ATOM      4  C   UNL     1     -16.510   0.119   3.498  1.00  0.00     0.004 C 
BRANCH   4   5
ATOM      5  C   UNL     1     -17.823  -0.535   3.032  1.00  0.00     0.000 C 
BRANCH   5   6
ATOM      6  C   UNL     1     -18.361  -0.016   1.687  1.00  0.00     0.000 C 
BRANCH   6   7
ATOM      7  C   UNL     1     -19.749  -0.584   1.340  1.00  0.00     0.000 C 
BRANCH   7   8
ATOM      8  C   UNL     1     -20.759  -0.413   2.485  1.00  0.00     0.006 C 
BRANCH   8   9
ATOM      9  C   UNL     1     -21.700  -1.617   2.624  1.00  0.00     0.053 C 
BRANCH   9  10
ATOM     10  C   UNL     1     -22.870  -1.268   3.487  1.00  0.00     0.041 C 
ATOM     11  O   UNL     1     -22.697  -0.646   4.569  1.00  0.00    -0.550 OA
ATOM     12  O   UNL     1     -24.158  -1.586   3.076  1.00  0.00    -0.550 OA
ENDBRANCH   9  10
ENDBRANCH   8   9
ENDBRANCH   7   8
ENDBRANCH   6   7
ENDBRANCH   5   6
ENDBRANCH   4   5
ENDBRANCH   3   4
ENDBRANCH   1   3
BRANCH   2  13
ATOM     13  C   UNL     1     -13.039  -2.725   2.886  1.00  0.00     0.027 C 
BRANCH  13  14
ATOM     14  C   UNL     1     -12.189  -3.652   3.762  1.00  0.00     0.004 C 
BRANCH  14  15
ATOM     15  C   UNL     1     -12.559  -3.499   5.244  1.00  0.00     0.000 C 
BRANCH  15  16
ATOM     16  C   UNL     1     -12.185  -2.120   5.812  1.00  0.00     0.000 C 
BRANCH  16  17
ATOM     17  C   UNL     1     -13.413  -1.327   6.292  1.00  0.00    -0.000 C 
BRANCH  17  18
ATOM     18  C   UNL     1     -14.447  -2.207   7.017  1.00  0.00    -0.000 C 
BRANCH  18  19
ATOM     19  C   UNL     1     -15.918  -1.867   6.714  1.00  0.00    -0.003 C 
ATOM     20  C   UNL     1     -16.244  -0.389   6.926  1.00  0.00     0.004 C 
ENDBRANCH  18  19
ENDBRANCH  17  18
ENDBRANCH  16  17
ENDBRANCH  15  16
ENDBRANCH  14  15
ENDBRANCH  13  14
ENDBRANCH   2  13
TORSDOF 15
ENDMDL
MODEL 6
REMARK VINA RESULT:    -4.502      1.096      2.886
REMARK INTER + INTRA:         -10.367
REMARK INTER:                  -8.387
REMARK INTRA:                  -1.980
REMARK UNBOUND:                -1.917
REMARK SMILES CCCCCCCCC=CCCCCCCCC(=O)[O-]
REMARK SMILES IDX 10 1 9 2 11 3 12 4 13 5 14 6 15 7 16 8 17 9 18 10 19 11
REMARK SMILES IDX 20 12 8 13 7 14 6 15 5 16 4 17 3 18 2 19 1 20
REMARK H PARENT
REMARK Flexibility Score: inf
ROOT
ATOM      1  C   UNL     1     -17.151  -1.488   3.453  1.00  0.00    -0.031 C 
ATOM      2  C   UNL     1     -15.982  -2.153   3.393  1.00  0.00    -0.031 C 
ENDROOT
BRANCH   1   3
ATOM      3  C   UNL     1     -17.284   0.013   3.409  1.00  0.00     0.027 C 
BRANCH   3   4
ATOM      4  C   UNL     1     -18.449   0.430   2.500  1.00  0.00     0.004 C 
BRANCH   4   5
ATOM      5  C   UNL     1     -18.774  -0.622   1.425  1.00  0.00     0.000 C 
BRANCH   5   6
ATOM      6  C   UNL     1     -20.244  -1.077   1.390  1.00  0.00     0.000 C 
BRANCH   6   7
ATOM      7  C   UNL     1     -21.072  -0.508   2.555  1.00  0.00     0.000 C 
BRANCH   7   8
ATOM      8  C   UNL     1     -21.553  -1.598   3.525  1.00  0.00     0.006 C 
BRANCH   8   9
ATOM      9  C   UNL     1     -22.606  -1.082   4.514  1.00  0.00     0.053 C 
BRANCH   9  10
ATOM     10  C   UNL     1     -23.968  -1.556   4.121  1.00  0.00     0.041 C 
ATOM     11  O   UNL     1     -24.871  -1.681   4.990  1.00  0.00    -0.550 OA
ATOM     12  O   UNL     1     -24.257  -1.815   2.787  1.00  0.00    -0.550 OA
ENDBRANCH   9  10
ENDBRANCH   8   9
ENDBRANCH   7   8
ENDBRANCH   6   7
ENDBRANCH   5   6
ENDBRANCH   4   5
ENDBRANCH   3   4
ENDBRANCH   1   3
BRANCH   2  13
ATOM     13  C   UNL     1     -14.639  -1.502   3.185  1.00  0.00     0.027 C 
BRANCH  13  14
ATOM     14  C   UNL     1     -13.519  -2.548   3.192  1.00  0.00     0.004 C 
BRANCH  14  15
ATOM     15  C   UNL     1     -13.152  -2.950   4.628  1.00  0.00     0.000 C 
BRANCH  15  16
ATOM     16  C   UNL     1     -12.470  -1.815   5.408  1.00  0.00     0.000 C 
BRANCH  16  17
ATOM     17  C   UNL     1     -13.283  -1.370   6.636  1.00  0.00    -0.000 C 
BRANCH  17  18
ATOM     18  C   UNL     1     -14.261  -2.452   7.129  1.00  0.00    -0.000 C 
BRANCH  18  19
ATOM     19  C   UNL     1     -15.750  -2.065   7.060  1.00  0.00    -0.003 C 
ATOM     20  C   UNL     1     -15.968  -0.565   6.858  1.00  0.00     0.004 C 
ENDBRANCH  18  19
ENDBRANCH  17  18
ENDBRANCH  16  17
ENDBRANCH  15  16
ENDBRANCH  14  15
ENDBRANCH  13  14
ENDBRANCH   2  13
TORSDOF 15
ENDMDL
MODEL 7
REMARK VINA RESULT:    -4.469      1.809      3.255
REMARK INTER + INTRA:         -10.304
REMARK INTER:                  -7.373
REMARK INTRA:                  -2.931
REMARK UNBOUND:                -1.917
REMARK SMILES CCCCCCCCC=CCCCCCCCC(=O)[O-]
REMARK SMILES IDX 10 1 9 2 11 3 12 4 13 5 14 6 15 7 16 8 17 9 18 10 19 11
REMARK SMILES IDX 20 12 8 13 7 14 6 15 5 16 4 17 3 18 2 19 1 20
REMARK H PARENT
REMARK Flexibility Score: inf
ROOT
ATOM      1  C   UNL     1     -15.904  -0.063   3.048  1.00  0.00    -0.031 C 
ATOM      2  C   UNL     1     -16.856   0.063   3.991  1.00  0.00    -0.031 C 
ENDROOT
BRANCH   1   3
ATOM      3  C   UNL     1     -14.830  -1.122   3.053  1.00  0.00     0.027 C 
BRANCH   3   4
ATOM      4  C   UNL     1     -15.133  -2.209   2.012  1.00  0.00     0.004 C 
BRANCH   4   5
ATOM      5  C   UNL     1     -15.944  -3.382   2.591  1.00  0.00     0.000 C 
BRANCH   5   6
ATOM      6  C   UNL     1     -17.349  -3.556   1.986  1.00  0.00     0.000 C 
BRANCH   6   7
ATOM      7  C   UNL     1     -18.473  -3.344   3.016  1.00  0.00     0.000 C 
BRANCH   7   8
ATOM      8  C   UNL     1     -19.685  -2.609   2.423  1.00  0.00     0.006 C 
BRANCH   8   9
ATOM      9  C   UNL     1     -19.280  -1.392   1.580  1.00  0.00     0.053 C 
BRANCH   9  10
ATOM     10  C   UNL     1     -20.000  -0.169   2.051  1.00  0.00     0.041 C 
ATOM     11  O   UNL     1     -19.500   0.972   1.863  1.00  0.00    -0.550 OA
ATOM     12  O   UNL     1     -21.245  -0.283   2.655  1.00  0.00    -0.550 OA
ENDBRANCH   9  10
ENDBRANCH   8   9
ENDBRANCH   7   8
ENDBRANCH   6   7
ENDBRANCH   5   6
ENDBRANCH   4   5
ENDBRANCH   3   4
ENDBRANCH   1   3
BRANCH   2  13
ATOM     13  C   UNL     1     -17.046  -0.887   5.146  1.00  0.00     0.027 C 
BRANCH  13  14
ATOM     14  C   UNL     1     -16.264  -0.411   6.376  1.00  0.00     0.004 C 
BRANCH  14  15
ATOM     15  C   UNL     1     -15.758  -1.604   7.200  1.00  0.00     0.000 C 
BRANCH  15  16
ATOM     16  C   UNL     1     -15.855  -2.937   6.440  1.00  0.00     0.000 C 
BRANCH  16  17
ATOM     17  C   UNL     1     -14.600  -3.810   6.616  1.00  0.00    -0.000 C 
BRANCH  17  18
ATOM     18  C   UNL     1     -13.619  -3.692   5.436  1.00  0.00    -0.000 C 
BRANCH  18  19
ATOM     19  C   UNL     1     -12.305  -2.956   5.752  1.00  0.00    -0.003 C 
ATOM     20  C   UNL     1     -12.494  -1.450   5.939  1.00  0.00     0.004 C 
ENDBRANCH  18  19
ENDBRANCH  17  18
ENDBRANCH  16  17
ENDBRANCH  15  16
ENDBRANCH  14  15
ENDBRANCH  13  14
ENDBRANCH   2  13
TORSDOF 15
ENDMDL
MODEL 8
REMARK VINA RESULT:    -4.422      2.747      7.272
REMARK INTER + INTRA:         -10.218
REMARK INTER:                  -8.195
REMARK INTRA:                  -2.022
REMARK UNBOUND:                -1.917
REMARK SMILES CCCCCCCCC=CCCCCCCCC(=O)[O-]
REMARK SMILES IDX 10 1 9 2 11 3 12 4 13 5 14 6 15 7 16 8 17 9 18 10 19 11
REMARK SMILES IDX 20 12 8 13 7 14 6 15 5 16 4 17 3 18 2 19 1 20
REMARK H PARENT
REMARK Flexibility Score: inf
ROOT
ATOM      1  C   UNL     1     -16.765  -0.373   4.125  1.00  0.00    -0.031 C 
ATOM      2  C   UNL     1     -17.690   0.361   3.479  1.00  0.00    -0.031 C 
ENDROOT
BRANCH   1   3
ATOM      3  C   UNL     1     -16.076  -1.583   3.546  1.00  0.00     0.027 C 
BRANCH   3   4
ATOM      4  C   UNL     1     -14.619  -1.260   3.188  1.00  0.00     0.004 C 
BRANCH   4   5
ATOM      5  C   UNL     1     -13.698  -2.491   3.266  1.00  0.00     0.000 C 
BRANCH   5   6
ATOM      6  C   UNL     1     -12.701  -2.478   4.439  1.00  0.00     0.000 C 
BRANCH   6   7
ATOM      7  C   UNL     1     -12.896  -1.272   5.375  1.00  0.00     0.000 C 
BRANCH   7   8
ATOM      8  C   UNL     1     -13.237  -1.691   6.813  1.00  0.00     0.006 C 
BRANCH   8   9
ATOM      9  C   UNL     1     -14.005  -3.018   6.873  1.00  0.00     0.053 C 
BRANCH   9  10
ATOM     10  C   UNL     1     -15.437  -2.777   7.232  1.00  0.00     0.041 C 
ATOM     11  O   UNL     1     -15.894  -1.604   7.259  1.00  0.00    -0.550 OA
ATOM     12  O   UNL     1     -16.279  -3.850   7.491  1.00  0.00    -0.550 OA
ENDBRANCH   9  10
ENDBRANCH   8   9
ENDBRANCH   7   8
ENDBRANCH   6   7
ENDBRANCH   5   6
ENDBRANCH   4   5
ENDBRANCH   3   4
ENDBRANCH   1   3
BRANCH   2  13
ATOM     13  C   UNL     1     -18.112   0.136   2.049  1.00  0.00     0.027 C 
BRANCH  13  14
ATOM     14  C   UNL     1     -19.630   0.285   1.900  1.00  0.00     0.004 C 
BRANCH  14  15
ATOM     15  C   UNL     1     -20.271  -1.039   1.459  1.00  0.00     0.000 C 
BRANCH  15  16
ATOM     16  C   UNL     1     -19.454  -2.268   1.889  1.00  0.00     0.000 C 
BRANCH  16  17
ATOM     17  C   UNL     1     -19.889  -2.816   3.259  1.00  0.00    -0.000 C 
BRANCH  17  18
ATOM     18  C   UNL     1     -21.418  -2.810   3.447  1.00  0.00    -0.000 C 
BRANCH  18  19
ATOM     19  C   UNL     1     -21.919  -2.025   4.673  1.00  0.00    -0.003 C 
ATOM     20  C   UNL     1     -22.725  -0.782   4.297  1.00  0.00     0.004 C 
ENDBRANCH  18  19
ENDBRANCH  17  18
ENDBRANCH  16  17
ENDBRANCH  15  16
ENDBRANCH  14  15
ENDBRANCH  13  14
ENDBRANCH   2  13
TORSDOF 15
ENDMDL
MODEL 9
REMARK VINA RESULT:    -4.406      1.306      2.814
REMARK INTER + INTRA:         -10.187
REMARK INTER:                  -7.726
REMARK INTRA:                  -2.461
REMARK UNBOUND:                -1.917
REMARK SMILES CCCCCCCCC=CCCCCCCCC(=O)[O-]
REMARK SMILES IDX 10 1 9 2 11 3 12 4 13 5 14 6 15 7 16 8 17 9 18 10 19 11
REMARK SMILES IDX 20 12 8 13 7 14 6 15 5 16 4 17 3 18 2 19 1 20
REMARK H PARENT
REMARK Flexibility Score: inf
ROOT
ATOM      1  C   UNL     1     -15.924  -0.001   3.138  1.00  0.00    -0.031 C 
ATOM      2  C   UNL     1     -15.079  -1.010   2.852  1.00  0.00    -0.031 C 
ENDROOT
BRANCH   1   3
ATOM      3  C   UNL     1     -17.368  -0.181   3.530  1.00  0.00     0.027 C 
BRANCH   3   4
ATOM      4  C   UNL     1     -18.300   0.273   2.397  1.00  0.00     0.004 C 
BRANCH   4   5
ATOM      5  C   UNL     1     -18.169  -0.595   1.132  1.00  0.00     0.000 C 
BRANCH   5   6
ATOM      6  C   UNL     1     -19.259  -1.670   0.971  1.00  0.00     0.000 C 
BRANCH   6   7
ATOM      7  C   UNL     1     -18.981  -2.931   1.808  1.00  0.00     0.000 C 
BRANCH   7   8
ATOM      8  C   UNL     1     -19.861  -3.011   3.065  1.00  0.00     0.006 C 
BRANCH   8   9
ATOM      9  C   UNL     1     -21.328  -2.665   2.778  1.00  0.00     0.053 C 
BRANCH   9  10
ATOM     10  C   UNL     1     -21.809  -1.607   3.719  1.00  0.00     0.041 C 
ATOM     11  O   UNL     1     -22.012  -0.435   3.304  1.00  0.00    -0.550 OA
ATOM     12  O   UNL     1     -22.079  -1.923   5.044  1.00  0.00    -0.550 OA
ENDBRANCH   9  10
ENDBRANCH   8   9
ENDBRANCH   7   8
ENDBRANCH   6   7
ENDBRANCH   5   6
ENDBRANCH   4   5
ENDBRANCH   3   4
ENDBRANCH   1   3
BRANCH   2  13
ATOM     13  C   UNL     1     -15.426  -2.472   2.965  1.00  0.00     0.027 C 
BRANCH  13  14
ATOM     14  C   UNL     1     -14.157  -3.330   3.021  1.00  0.00     0.004 C 
BRANCH  14  15
ATOM     15  C   UNL     1     -13.029  -2.594   3.759  1.00  0.00     0.000 C 
BRANCH  15  16
ATOM     16  C   UNL     1     -12.905  -3.019   5.231  1.00  0.00     0.000 C 
BRANCH  16  17
ATOM     17  C   UNL     1     -12.608  -1.832   6.164  1.00  0.00    -0.000 C 
BRANCH  17  18
ATOM     18  C   UNL     1     -13.796  -0.861   6.292  1.00  0.00    -0.000 C 
BRANCH  18  19
ATOM     19  C   UNL     1     -15.142  -1.521   6.644  1.00  0.00    -0.003 C 
ATOM     20  C   UNL     1     -16.250  -0.506   6.924  1.00  0.00     0.004 C 
ENDBRANCH  18  19
ENDBRANCH  17  18
ENDBRANCH  16  17
ENDBRANCH  15  16
ENDBRANCH  14  15
ENDBRANCH  13  14
ENDBRANCH   2  13
TORSDOF 15
ENDMDL
