MODEL 1
REMARK VINA RESULT:     1.315      0.000      0.000
REMARK INTER + INTRA:           1.847
REMARK INTER:                   3.467
REMARK INTRA:                  -1.620
REMARK UNBOUND:                -1.620
REMARK SMILES CCCCCCCCCCCCCCCCCCCCCCCCCCCCCC(=O)[O-]
REMARK SMILES IDX 16 1 17 2 18 3 19 4 20 5 21 6 22 7 23 8 24 9 25 10 26 11
REMARK SMILES IDX 27 12 28 13 29 14 30 15 31 16 32 17 15 18 14 19 13 20 12 21
REMARK SMILES IDX 11 22 10 23 9 24 8 25 7 26 6 27 5 28 4 29 3 30 2 31 1 32
REMARK H PARENT
REMARK Flexibility Score: inf
ROOT
ATOM      1  C   UNL     1       1.735   3.667  15.335  1.00  0.00     0.000 C 
ENDROOT
BRANCH   1   2
ATOM      2  C   UNL     1       2.404   2.310  15.614  1.00  0.00     0.000 C 
BRANCH   2   3
ATOM      3  C   UNL     1       3.849   2.458  16.133  1.00  0.00     0.000 C 
BRANCH   3   4
ATOM      4  C   UNL     1       4.543   1.118  16.447  1.00  0.00     0.000 C 
BRANCH   4   5
ATOM      5  C   UNL     1       6.080   1.180  16.546  1.00  0.00     0.000 C 
BRANCH   5   6
ATOM      6  C   UNL     1       6.778  -0.167  16.827  1.00  0.00     0.000 C 
BRANCH   6   7
ATOM      7  C   UNL     1       5.853  -1.397  16.805  1.00  0.00     0.000 C 
BRANCH   7   8
ATOM      8  C   UNL     1       5.421  -1.849  18.210  1.00  0.00     0.000 C 
BRANCH   8   9
ATOM      9  C   UNL     1       6.568  -1.775  19.232  1.00  0.00     0.000 C 
BRANCH   9  10
ATOM     10  C   UNL     1       6.379  -0.642  20.256  1.00  0.00     0.000 C 
BRANCH  10  11
ATOM     11  C   UNL     1       4.994   0.018  20.160  1.00  0.00     0.000 C 
BRANCH  11  12
ATOM     12  C   UNL     1       5.062   1.491  19.728  1.00  0.00     0.000 C 
BRANCH  12  13
ATOM     13  C   UNL     1       3.650   2.075  19.564  1.00  0.00     0.006 C 
BRANCH  13  14
ATOM     14  C   UNL     1       2.668   1.514  20.603  1.00  0.00     0.053 C 
BRANCH  14  15
ATOM     15  C   UNL     1       1.261   1.508  20.088  1.00  0.00     0.041 C 
ATOM     16  O   UNL     1       0.369   0.849  20.686  1.00  0.00    -0.550 OA
ATOM     17  O   UNL     1       0.937   2.220  18.940  1.00  0.00    -0.550 OA
ENDBRANCH  14  15
ENDBRANCH  13  14
ENDBRANCH  12  13
ENDBRANCH  11  12
ENDBRANCH  10  11
ENDBRANCH   9  10
ENDBRANCH   8   9
ENDBRANCH   7   8
ENDBRANCH   6   7
ENDBRANCH   5   6
ENDBRANCH   4   5
ENDBRANCH   3   4
ENDBRANCH   2   3
ENDBRANCH   1   2
BRANCH   1  18
ATOM     18  C   UNL     1       2.708   4.711  14.754  1.00  0.00     0.000 C 
BRANCH  18  19
ATOM     19  C   UNL     1       3.159   4.445  13.304  1.00  0.00     0.000 C 
BRANCH  19  20
ATOM     20  C   UNL     1       4.677   4.596  13.111  1.00  0.00     0.000 C 
BRANCH  20  21
ATOM     21  C   UNL     1       5.385   3.245  12.918  1.00  0.00     0.000 C 
BRANCH  21  22
ATOM     22  C   UNL     1       4.398   2.065  12.875  1.00  0.00     0.000 C 
BRANCH  22  23
ATOM     23  C   UNL     1       5.056   0.726  13.248  1.00  0.00     0.000 C 
BRANCH  23  24
ATOM     24  C   UNL     1       6.564   0.633  12.934  1.00  0.00    -0.000 C 
BRANCH  24  25
ATOM     25  C   UNL     1       7.274  -0.610  13.504  1.00  0.00    -0.000 C 
BRANCH  25  26
ATOM     26  C   UNL     1       6.527  -1.942  13.290  1.00  0.00    -0.000 C 
BRANCH  26  27
ATOM     27  C   UNL     1       5.254  -2.123  14.143  1.00  0.00    -0.000 C 
BRANCH  27  28
ATOM     28  C   UNL     1       3.933  -2.109  13.352  1.00  0.00    -0.000 C 
BRANCH  28  29
ATOM     29  C   UNL     1       2.661  -2.052  14.218  1.00  0.00    -0.000 C 
BRANCH  29  30
ATOM     30  C   UNL     1       2.711  -0.976  15.324  1.00  0.00    -0.000 C 
BRANCH  30  31
ATOM     31  C   UNL     1       1.367  -0.258  15.504  1.00  0.00    -0.003 C 
ATOM     32  C   UNL     1       0.532  -0.323  14.227  1.00  0.00     0.004 C 
ENDBRANCH  30  31
ENDBRANCH  29  30
ENDBRANCH  28  29
ENDBRANCH  27  28
ENDBRANCH  26  27
ENDBRANCH  25  26
ENDBRANCH  24  25
ENDBRANCH  23  24
ENDBRANCH  22  23
ENDBRANCH  21  22
ENDBRANCH  20  21
ENDBRANCH  19  20
ENDBRANCH  18  19
ENDBRANCH   1  18
TORSDOF 28
ENDMDL
MODEL 2
REMARK VINA RESULT:     3.350      1.537      5.273
REMARK INTER + INTRA:           7.213
REMARK INTER:                   6.199
REMARK INTRA:                   1.013
REMARK UNBOUND:                -1.620
REMARK SMILES CCCCCCCCCCCCCCCCCCCCCCCCCCCCCC(=O)[O-]
REMARK SMILES IDX 16 1 17 2 18 3 19 4 20 5 21 6 22 7 23 8 24 9 25 10 26 11
REMARK SMILES IDX 27 12 28 13 29 14 30 15 31 16 32 17 15 18 14 19 13 20 12 21
REMARK SMILES IDX 11 22 10 23 9 24 8 25 7 26 6 27 5 28 4 29 3 30 2 31 1 32
REMARK H PARENT
REMARK Flexibility Score: inf
ROOT
ATOM      1  C   UNL     1       2.149   3.414  15.199  1.00  0.00     0.000 C 
ENDROOT
BRANCH   1   2
ATOM      2  C   UNL     1       2.765   3.286  13.795  1.00  0.00     0.000 C 
BRANCH   2   3
ATOM      3  C   UNL     1       4.077   4.086  13.649  1.00  0.00     0.000 C 
BRANCH   3   4
ATOM      4  C   UNL     1       5.183   3.342  12.875  1.00  0.00     0.000 C 
BRANCH   4   5
ATOM      5  C   UNL     1       5.176   1.808  13.029  1.00  0.00     0.000 C 
BRANCH   5   6
ATOM      6  C   UNL     1       6.325   1.225  13.879  1.00  0.00     0.000 C 
BRANCH   6   7
ATOM      7  C   UNL     1       7.153   0.126  13.189  1.00  0.00     0.000 C 
BRANCH   7   8
ATOM      8  C   UNL     1       7.450  -1.070  14.110  1.00  0.00     0.000 C 
BRANCH   8   9
ATOM      9  C   UNL     1       6.331  -2.125  14.086  1.00  0.00     0.000 C 
BRANCH   9  10
ATOM     10  C   UNL     1       5.394  -1.968  12.875  1.00  0.00     0.000 C 
BRANCH  10  11
ATOM     11  C   UNL     1       3.909  -1.979  13.270  1.00  0.00     0.000 C 
BRANCH  11  12
ATOM     12  C   UNL     1       3.694  -2.071  14.788  1.00  0.00     0.000 C 
BRANCH  12  13
ATOM     13  C   UNL     1       2.732  -0.973  15.268  1.00  0.00     0.006 C 
BRANCH  13  14
ATOM     14  C   UNL     1       1.265  -1.419  15.201  1.00  0.00     0.053 C 
BRANCH  14  15
ATOM     15  C   UNL     1       0.358  -0.288  14.826  1.00  0.00     0.041 C 
ATOM     16  O   UNL     1      -0.617   0.016  15.564  1.00  0.00    -0.550 OA
ATOM     17  O   UNL     1       0.582   0.425  13.655  1.00  0.00    -0.550 OA
ENDBRANCH  14  15
ENDBRANCH  13  14
ENDBRANCH  12  13
ENDBRANCH  11  12
ENDBRANCH  10  11
ENDBRANCH   9  10
ENDBRANCH   8   9
ENDBRANCH   7   8
ENDBRANCH   6   7
ENDBRANCH   5   6
ENDBRANCH   4   5
ENDBRANCH   3   4
ENDBRANCH   2   3
ENDBRANCH   1   2
BRANCH   1  18
ATOM     18  C   UNL     1       2.141   2.084  15.978  1.00  0.00     0.000 C 
BRANCH  18  19
ATOM     19  C   UNL     1       3.044   2.056  17.227  1.00  0.00     0.000 C 
BRANCH  19  20
ATOM     20  C   UNL     1       4.426   2.686  16.982  1.00  0.00     0.000 C 
BRANCH  20  21
ATOM     21  C   UNL     1       5.520   1.632  16.747  1.00  0.00     0.000 C 
BRANCH  21  22
ATOM     22  C   UNL     1       5.252   0.324  17.511  1.00  0.00     0.000 C 
BRANCH  22  23
ATOM     23  C   UNL     1       5.467  -0.927  16.643  1.00  0.00     0.000 C 
BRANCH  23  24
ATOM     24  C   UNL     1       6.292  -2.047  17.310  1.00  0.00    -0.000 C 
BRANCH  24  25
ATOM     25  C   UNL     1       6.295  -2.027  18.850  1.00  0.00    -0.000 C 
BRANCH  25  26
ATOM     26  C   UNL     1       6.943  -0.779  19.484  1.00  0.00    -0.000 C 
BRANCH  26  27
ATOM     27  C   UNL     1       6.140  -0.137  20.634  1.00  0.00    -0.000 C 
BRANCH  27  28
ATOM     28  C   UNL     1       4.626  -0.014  20.381  1.00  0.00    -0.000 C 
BRANCH  28  29
ATOM     29  C   UNL     1       4.095   1.430  20.321  1.00  0.00    -0.000 C 
BRANCH  29  30
ATOM     30  C   UNL     1       2.698   1.552  19.676  1.00  0.00    -0.000 C 
BRANCH  30  31
ATOM     31  C   UNL     1       1.573   1.614  20.719  1.00  0.00    -0.003 C 
ATOM     32  C   UNL     1       0.633   2.786  20.446  1.00  0.00     0.004 C 
ENDBRANCH  30  31
ENDBRANCH  29  30
ENDBRANCH  28  29
ENDBRANCH  27  28
ENDBRANCH  26  27
ENDBRANCH  25  26
ENDBRANCH  24  25
ENDBRANCH  23  24
ENDBRANCH  22  23
ENDBRANCH  21  22
ENDBRANCH  20  21
ENDBRANCH  19  20
ENDBRANCH  18  19
ENDBRANCH   1  18
TORSDOF 28
ENDMDL
MODEL 3
REMARK VINA RESULT:     4.000      1.335      2.089
REMARK INTER + INTRA:           8.927
REMARK INTER:                  11.361
REMARK INTRA:                  -2.434
REMARK UNBOUND:                -1.620
REMARK SMILES CCCCCCCCCCCCCCCCCCCCCCCCCCCCCC(=O)[O-]
REMARK SMILES IDX 16 1 17 2 18 3 19 4 20 5 21 6 22 7 23 8 24 9 25 10 26 11
REMARK SMILES IDX 27 12 28 13 29 14 30 15 31 16 32 17 15 18 14 19 13 20 12 21
REMARK SMILES IDX 11 22 10 23 9 24 8 25 7 26 6 27 5 28 4 29 3 30 2 31 1 32
REMARK H PARENT
REMARK Flexibility Score: inf
ROOT
ATOM      1  C   UNL     1       3.669   3.052  16.689  1.00  0.00     0.000 C 
ENDROOT
BRANCH   1   2
ATOM      2  C   UNL     1       5.097   2.496  16.550  1.00  0.00     0.000 C 
BRANCH   2   3
ATOM      3  C   UNL     1       5.116   1.007  16.146  1.00  0.00     0.000 C 
BRANCH   3   4
ATOM      4  C   UNL     1       4.065   0.145  16.874  1.00  0.00     0.000 C 
BRANCH   4   5
ATOM      5  C   UNL     1       4.400  -1.356  16.972  1.00  0.00     0.000 C 
BRANCH   5   6
ATOM      6  C   UNL     1       5.897  -1.689  17.143  1.00  0.00     0.000 C 
BRANCH   6   7
ATOM      7  C   UNL     1       6.351  -1.921  18.596  1.00  0.00     0.000 C 
BRANCH   7   8
ATOM      8  C   UNL     1       6.534  -0.612  19.384  1.00  0.00     0.000 C 
BRANCH   8   9
ATOM      9  C   UNL     1       5.344  -0.309  20.309  1.00  0.00     0.000 C 
BRANCH   9  10
ATOM     10  C   UNL     1       5.069   1.199  20.447  1.00  0.00     0.000 C 
BRANCH  10  11
ATOM     11  C   UNL     1       3.901   1.672  19.567  1.00  0.00     0.000 C 
BRANCH  11  12
ATOM     12  C   UNL     1       2.585   0.943  19.877  1.00  0.00     0.000 C 
BRANCH  12  13
ATOM     13  C   UNL     1       1.498   1.943  20.302  1.00  0.00     0.006 C 
BRANCH  13  14
ATOM     14  C   UNL     1       0.863   2.654  19.099  1.00  0.00     0.053 C 
BRANCH  14  15
ATOM     15  C   UNL     1      -0.008   3.795  19.525  1.00  0.00     0.041 C 
ATOM     16  O   UNL     1       0.019   4.204  20.717  1.00  0.00    -0.550 OA
ATOM     17  O   UNL     1      -0.858   4.402  18.609  1.00  0.00    -0.550 OA
ENDBRANCH  14  15
ENDBRANCH  13  14
ENDBRANCH  12  13
ENDBRANCH  11  12
ENDBRANCH  10  11
ENDBRANCH   9  10
ENDBRANCH   8   9
ENDBRANCH   7   8
ENDBRANCH   6   7
ENDBRANCH   5   6
ENDBRANCH   4   5
ENDBRANCH   3   4
ENDBRANCH   2   3
ENDBRANCH   1   2
BRANCH   1  18
ATOM     18  C   UNL     1       3.098   3.583  15.360  1.00  0.00     0.000 C 
BRANCH  18  19
ATOM     19  C   UNL     1       4.145   3.851  14.262  1.00  0.00     0.000 C 
BRANCH  19  20
ATOM     20  C   UNL     1       3.919   3.002  12.998  1.00  0.00     0.000 C 
BRANCH  20  21
ATOM     21  C   UNL     1       4.926   1.848  12.876  1.00  0.00     0.000 C 
BRANCH  21  22
ATOM     22  C   UNL     1       6.272   2.167  13.551  1.00  0.00     0.000 C 
BRANCH  22  23
ATOM     23  C   UNL     1       7.449   1.404  12.919  1.00  0.00     0.000 C 
BRANCH  23  24
ATOM     24  C   UNL     1       7.359  -0.132  13.023  1.00  0.00    -0.000 C 
BRANCH  24  25
ATOM     25  C   UNL     1       6.244  -0.660  13.945  1.00  0.00    -0.000 C 
BRANCH  25  26
ATOM     26  C   UNL     1       5.733  -2.075  13.606  1.00  0.00    -0.000 C 
BRANCH  26  27
ATOM     27  C   UNL     1       4.376  -2.124  12.875  1.00  0.00    -0.000 C 
BRANCH  27  28
ATOM     28  C   UNL     1       3.183  -1.573  13.678  1.00  0.00    -0.000 C 
BRANCH  28  29
ATOM     29  C   UNL     1       2.771  -0.134  13.320  1.00  0.00    -0.000 C 
BRANCH  29  30
ATOM     30  C   UNL     1       1.396   0.280  13.890  1.00  0.00    -0.000 C 
BRANCH  30  31
ATOM     31  C   UNL     1       1.437   0.516  15.406  1.00  0.00    -0.003 C 
ATOM     32  C   UNL     1       0.044   0.392  16.019  1.00  0.00     0.004 C 
ENDBRANCH  30  31
ENDBRANCH  29  30
ENDBRANCH  28  29
ENDBRANCH  27  28
ENDBRANCH  26  27
ENDBRANCH  25  26
ENDBRANCH  24  25
ENDBRANCH  23  24
ENDBRANCH  22  23
ENDBRANCH  21  22
ENDBRANCH  20  21
ENDBRANCH  19  20
ENDBRANCH  18  19
ENDBRANCH   1  18
TORSDOF 28
ENDMDL
