MODEL 1
REMARK VINA RESULT:    -4.567      0.000      0.000
REMARK INTER + INTRA:          -6.430
REMARK INTER:                  -6.169
REMARK INTRA:                  -0.261
REMARK UNBOUND:                -0.261
REMARK SMILES CCCCCCCC(=O)[O-]
REMARK SMILES IDX 5 1 6 2 7 3 8 4 9 5 10 6 4 7 3 8 2 9 1 10
REMARK H PARENT
REMARK Flexibility Score: inf
ROOT
ATOM      1  C   UNL     1     -13.700  -6.868  36.673  1.00  0.00     0.000 C 
ENDROOT
BRANCH   1   2
ATOM      2  C   UNL     1     -14.922  -6.008  37.031  1.00  0.00     0.006 C 
BRANCH   2   3
ATOM      3  C   UNL     1     -15.243  -6.106  38.525  1.00  0.00     0.053 C 
BRANCH   3   4
ATOM      4  C   UNL     1     -16.719  -6.214  38.738  1.00  0.00     0.041 C 
ATOM      5  O   UNL     1     -17.311  -7.305  38.530  1.00  0.00    -0.550 OA
ATOM      6  O   UNL     1     -17.434  -5.122  39.216  1.00  0.00    -0.550 OA
ENDBRANCH   3   4
ENDBRANCH   2   3
ENDBRANCH   1   2
BRANCH   1   7
ATOM      7  C   UNL     1     -12.900  -7.303  37.912  1.00  0.00     0.000 C 
BRANCH   7   8
ATOM      8  C   UNL     1     -11.806  -8.332  37.577  1.00  0.00    -0.000 C 
BRANCH   8   9
ATOM      9  C   UNL     1     -11.169  -8.943  38.835  1.00  0.00    -0.003 C 
ATOM     10  C   UNL     1     -11.439  -8.117  40.092  1.00  0.00     0.004 C 
ENDBRANCH   8   9
ENDBRANCH   7   8
ENDBRANCH   1   7
TORSDOF 6
ENDMDL
MODEL 2
REMARK VINA RESULT:    -4.485      2.747      4.307
REMARK INTER + INTRA:          -6.319
REMARK INTER:                  -6.023
REMARK INTRA:                  -0.296
REMARK UNBOUND:                -0.261
REMARK SMILES CCCCCCCC(=O)[O-]
REMARK SMILES IDX 5 1 6 2 7 3 8 4 9 5 10 6 4 7 3 8 2 9 1 10
REMARK H PARENT
REMARK Flexibility Score: inf
ROOT
ATOM      1  C   UNL     1     -16.997  -6.772  38.739  1.00  0.00     0.000 C 
ENDROOT
BRANCH   1   2
ATOM      2  C   UNL     1     -17.890  -7.354  39.845  1.00  0.00     0.006 C 
BRANCH   2   3
ATOM      3  C   UNL     1     -17.882  -6.456  41.086  1.00  0.00     0.053 C 
BRANCH   3   4
ATOM      4  C   UNL     1     -17.803  -7.282  42.330  1.00  0.00     0.041 C 
ATOM      5  O   UNL     1     -17.603  -6.731  43.444  1.00  0.00    -0.550 OA
ATOM      6  O   UNL     1     -17.999  -8.656  42.267  1.00  0.00    -0.550 OA
ENDBRANCH   3   4
ENDBRANCH   2   3
ENDBRANCH   1   2
BRANCH   1   7
ATOM      7  C   UNL     1     -16.243  -5.510  39.191  1.00  0.00     0.000 C 
BRANCH   7   8
ATOM      8  C   UNL     1     -14.862  -5.377  38.526  1.00  0.00    -0.000 C 
BRANCH   8   9
ATOM      9  C   UNL     1     -14.823  -5.999  37.122  1.00  0.00    -0.003 C 
ATOM     10  C   UNL     1     -13.605  -6.898  36.910  1.00  0.00     0.004 C 
ENDBRANCH   8   9
ENDBRANCH   7   8
ENDBRANCH   1   7
TORSDOF 6
ENDMDL
MODEL 3
REMARK VINA RESULT:    -4.430      3.051      5.181
REMARK INTER + INTRA:          -6.245
REMARK INTER:                  -5.972
REMARK INTRA:                  -0.273
REMARK UNBOUND:                -0.261
REMARK SMILES CCCCCCCC(=O)[O-]
REMARK SMILES IDX 5 1 6 2 7 3 8 4 9 5 10 6 4 7 3 8 2 9 1 10
REMARK H PARENT
REMARK Flexibility Score: inf
ROOT
ATOM      1  C   UNL     1     -13.999  -6.878  36.932  1.00  0.00     0.000 C 
ENDROOT
BRANCH   1   2
ATOM      2  C   UNL     1     -12.980  -7.183  38.040  1.00  0.00     0.006 C 
BRANCH   2   3
ATOM      3  C   UNL     1     -11.780  -7.955  37.483  1.00  0.00     0.053 C 
BRANCH   3   4
ATOM      4  C   UNL     1     -11.250  -8.909  38.505  1.00  0.00     0.041 C 
ATOM      5  O   UNL     1     -10.670  -9.966  38.143  1.00  0.00    -0.550 OA
ATOM      6  O   UNL     1     -11.354  -8.608  39.857  1.00  0.00    -0.550 OA
ENDBRANCH   3   4
ENDBRANCH   2   3
ENDBRANCH   1   2
BRANCH   1   7
ATOM      7  C   UNL     1     -14.922  -5.699  37.285  1.00  0.00     0.000 C 
BRANCH   7   8
ATOM      8  C   UNL     1     -15.220  -5.612  38.792  1.00  0.00    -0.000 C 
BRANCH   8   9
ATOM      9  C   UNL     1     -16.725  -5.626  39.096  1.00  0.00    -0.003 C 
ATOM     10  C   UNL     1     -17.365  -6.991  38.840  1.00  0.00     0.004 C 
ENDBRANCH   8   9
ENDBRANCH   7   8
ENDBRANCH   1   7
TORSDOF 6
ENDMDL
MODEL 4
REMARK VINA RESULT:    -4.370      3.906      5.702
REMARK INTER + INTRA:          -6.164
REMARK INTER:                  -5.929
REMARK INTRA:                  -0.235
REMARK UNBOUND:                -0.261
REMARK SMILES CCCCCCCC(=O)[O-]
REMARK SMILES IDX 5 1 6 2 7 3 8 4 9 5 10 6 4 7 3 8 2 9 1 10
REMARK H PARENT
REMARK Flexibility Score: inf
ROOT
ATOM      1  C   UNL     1     -12.874  -6.948  38.880  1.00  0.00     0.000 C 
ENDROOT
BRANCH   1   2
ATOM      2  C   UNL     1     -11.795  -8.038  38.807  1.00  0.00     0.006 C 
BRANCH   2   3
ATOM      3  C   UNL     1     -11.786  -8.710  37.431  1.00  0.00     0.053 C 
BRANCH   3   4
ATOM      4  C   UNL     1     -10.442  -9.300  37.144  1.00  0.00     0.041 C 
ATOM      5  O   UNL     1      -9.817  -9.919  38.044  1.00  0.00    -0.550 OA
ATOM      6  O   UNL     1      -9.901  -9.209  35.868  1.00  0.00    -0.550 OA
ENDBRANCH   3   4
ENDBRANCH   2   3
ENDBRANCH   1   2
BRANCH   1   7
ATOM      7  C   UNL     1     -13.628  -6.772  37.551  1.00  0.00     0.000 C 
BRANCH   7   8
ATOM      8  C   UNL     1     -14.805  -5.789  37.664  1.00  0.00    -0.000 C 
BRANCH   8   9
ATOM      9  C   UNL     1     -16.068  -6.446  38.240  1.00  0.00    -0.003 C 
ATOM     10  C   UNL     1     -16.806  -5.542  39.227  1.00  0.00     0.004 C 
ENDBRANCH   8   9
ENDBRANCH   7   8
ENDBRANCH   1   7
TORSDOF 6
ENDMDL
MODEL 5
REMARK VINA RESULT:    -4.334      3.940      5.743
REMARK INTER + INTRA:          -6.115
REMARK INTER:                  -5.917
REMARK INTRA:                  -0.197
REMARK UNBOUND:                -0.261
REMARK SMILES CCCCCCCC(=O)[O-]
REMARK SMILES IDX 5 1 6 2 7 3 8 4 9 5 10 6 4 7 3 8 2 9 1 10
REMARK H PARENT
REMARK Flexibility Score: inf
ROOT
ATOM      1  C   UNL     1     -12.907  -7.224  38.247  1.00  0.00     0.000 C 
ENDROOT
BRANCH   1   2
ATOM      2  C   UNL     1     -11.797  -8.269  38.052  1.00  0.00     0.006 C 
BRANCH   2   3
ATOM      3  C   UNL     1     -11.158  -8.645  39.392  1.00  0.00     0.053 C 
BRANCH   3   4
ATOM      4  C   UNL     1     -10.191  -9.773  39.213  1.00  0.00     0.041 C 
ATOM      5  O   UNL     1      -9.929 -10.540  40.175  1.00  0.00    -0.550 OA
ATOM      6  O   UNL     1      -9.617 -10.005  37.970  1.00  0.00    -0.550 OA
ENDBRANCH   3   4
ENDBRANCH   2   3
ENDBRANCH   1   2
BRANCH   1   7
ATOM      7  C   UNL     1     -13.601  -6.845  36.928  1.00  0.00     0.000 C 
BRANCH   7   8
ATOM      8  C   UNL     1     -14.883  -6.025  37.149  1.00  0.00    -0.000 C 
BRANCH   8   9
ATOM      9  C   UNL     1     -15.233  -5.870  38.637  1.00  0.00    -0.003 C 
ATOM     10  C   UNL     1     -16.740  -5.890  38.893  1.00  0.00     0.004 C 
ENDBRANCH   8   9
ENDBRANCH   7   8
ENDBRANCH   1   7
TORSDOF 6
ENDMDL
MODEL 6
REMARK VINA RESULT:    -4.327      2.679      4.826
REMARK INTER + INTRA:          -6.106
REMARK INTER:                  -5.749
REMARK INTRA:                  -0.357
REMARK UNBOUND:                -0.261
REMARK SMILES CCCCCCCC(=O)[O-]
REMARK SMILES IDX 5 1 6 2 7 3 8 4 9 5 10 6 4 7 3 8 2 9 1 10
REMARK H PARENT
REMARK Flexibility Score: inf
ROOT
ATOM      1  C   UNL     1     -16.137  -5.350  39.235  1.00  0.00     0.000 C 
ENDROOT
BRANCH   1   2
ATOM      2  C   UNL     1     -14.754  -5.163  38.593  1.00  0.00     0.006 C 
BRANCH   2   3
ATOM      3  C   UNL     1     -13.964  -6.475  38.602  1.00  0.00     0.053 C 
BRANCH   3   4
ATOM      4  C   UNL     1     -13.601  -6.879  37.209  1.00  0.00     0.041 C 
ATOM      5  O   UNL     1     -12.714  -7.750  37.012  1.00  0.00    -0.550 OA
ATOM      6  O   UNL     1     -14.278  -6.328  36.127  1.00  0.00    -0.550 OA
ENDBRANCH   3   4
ENDBRANCH   2   3
ENDBRANCH   1   2
BRANCH   1   7
ATOM      7  C   UNL     1     -16.944  -6.485  38.584  1.00  0.00     0.000 C 
BRANCH   7   8
ATOM      8  C   UNL     1     -17.777  -7.280  39.604  1.00  0.00    -0.000 C 
BRANCH   8   9
ATOM      9  C   UNL     1     -17.997  -6.507  40.913  1.00  0.00    -0.003 C 
ATOM     10  C   UNL     1     -17.434  -7.239  42.131  1.00  0.00     0.004 C 
ENDBRANCH   8   9
ENDBRANCH   7   8
ENDBRANCH   1   7
TORSDOF 6
ENDMDL
MODEL 7
REMARK VINA RESULT:    -4.321      2.039      2.832
REMARK INTER + INTRA:          -6.097
REMARK INTER:                  -5.773
REMARK INTRA:                  -0.324
REMARK UNBOUND:                -0.261
REMARK SMILES CCCCCCCC(=O)[O-]
REMARK SMILES IDX 5 1 6 2 7 3 8 4 9 5 10 6 4 7 3 8 2 9 1 10
REMARK H PARENT
REMARK Flexibility Score: inf
ROOT
ATOM      1  C   UNL     1     -15.902  -6.420  38.122  1.00  0.00     0.000 C 
ENDROOT
BRANCH   1   2
ATOM      2  C   UNL     1     -16.268  -5.527  39.318  1.00  0.00     0.006 C 
BRANCH   2   3
ATOM      3  C   UNL     1     -15.354  -5.809  40.513  1.00  0.00     0.053 C 
BRANCH   3   4
ATOM      4  C   UNL     1     -16.157  -6.261  41.692  1.00  0.00     0.041 C 
ATOM      5  O   UNL     1     -17.358  -6.607  41.545  1.00  0.00    -0.550 OA
ATOM      6  O   UNL     1     -15.563  -6.346  42.945  1.00  0.00    -0.550 OA
ENDBRANCH   3   4
ENDBRANCH   2   3
ENDBRANCH   1   2
BRANCH   1   7
ATOM      7  C   UNL     1     -14.778  -5.822  37.260  1.00  0.00     0.000 C 
BRANCH   7   8
ATOM      8  C   UNL     1     -13.701  -6.858  36.891  1.00  0.00    -0.000 C 
BRANCH   8   9
ATOM      9  C   UNL     1     -12.875  -7.305  38.107  1.00  0.00    -0.003 C 
ATOM     10  C   UNL     1     -11.821  -8.352  37.749  1.00  0.00     0.004 C 
ENDBRANCH   8   9
ENDBRANCH   7   8
ENDBRANCH   1   7
TORSDOF 6
ENDMDL
MODEL 8
REMARK VINA RESULT:    -4.263      1.191      1.583
REMARK INTER + INTRA:          -6.019
REMARK INTER:                  -5.725
REMARK INTRA:                  -0.293
REMARK UNBOUND:                -0.261
REMARK SMILES CCCCCCCC(=O)[O-]
REMARK SMILES IDX 5 1 6 2 7 3 8 4 9 5 10 6 4 7 3 8 2 9 1 10
REMARK H PARENT
REMARK Flexibility Score: inf
ROOT
ATOM      1  C   UNL     1     -13.034  -7.293  37.299  1.00  0.00     0.000 C 
ENDROOT
BRANCH   1   2
ATOM      2  C   UNL     1     -14.342  -6.487  37.256  1.00  0.00     0.006 C 
BRANCH   2   3
ATOM      3  C   UNL     1     -14.632  -5.842  38.614  1.00  0.00     0.053 C 
BRANCH   3   4
ATOM      4  C   UNL     1     -16.064  -6.047  38.997  1.00  0.00     0.041 C 
ATOM      5  O   UNL     1     -16.945  -6.172  38.107  1.00  0.00    -0.550 OA
ATOM      6  O   UNL     1     -16.417  -6.149  40.336  1.00  0.00    -0.550 OA
ENDBRANCH   3   4
ENDBRANCH   2   3
ENDBRANCH   1   2
BRANCH   1   7
ATOM      7  C   UNL     1     -12.398  -7.313  38.699  1.00  0.00     0.000 C 
BRANCH   7   8
ATOM      8  C   UNL     1     -11.414  -8.481  38.884  1.00  0.00    -0.000 C 
BRANCH   8   9
ATOM      9  C   UNL     1     -11.373  -9.415  37.665  1.00  0.00    -0.003 C 
ATOM     10  C   UNL     1      -9.947  -9.738  37.218  1.00  0.00     0.004 C 
ENDBRANCH   8   9
ENDBRANCH   7   8
ENDBRANCH   1   7
TORSDOF 6
ENDMDL
MODEL 9
REMARK VINA RESULT:    -3.981      4.275      5.975
REMARK INTER + INTRA:          -5.638
REMARK INTER:                  -5.416
REMARK INTRA:                  -0.222
REMARK UNBOUND:                -0.261
REMARK SMILES CCCCCCCC(=O)[O-]
REMARK SMILES IDX 5 1 6 2 7 3 8 4 9 5 10 6 4 7 3 8 2 9 1 10
REMARK H PARENT
REMARK Flexibility Score: inf
ROOT
ATOM      1  C   UNL     1     -17.012  -6.550  41.472  1.00  0.00     0.000 C 
ENDROOT
BRANCH   1   2
ATOM      2  C   UNL     1     -17.752  -6.803  42.795  1.00  0.00     0.006 C 
BRANCH   2   3
ATOM      3  C   UNL     1     -17.861  -8.304  43.082  1.00  0.00     0.053 C 
BRANCH   3   4
ATOM      4  C   UNL     1     -17.184  -8.641  44.373  1.00  0.00     0.041 C 
ATOM      5  O   UNL     1     -17.833  -9.179  45.306  1.00  0.00    -0.550 OA
ATOM      6  O   UNL     1     -15.823  -8.405  44.526  1.00  0.00    -0.550 OA
ENDBRANCH   3   4
ENDBRANCH   2   3
ENDBRANCH   1   2
BRANCH   1   7
ATOM      7  C   UNL     1     -17.942  -6.631  40.250  1.00  0.00     0.000 C 
BRANCH   7   8
ATOM      8  C   UNL     1     -17.169  -6.710  38.922  1.00  0.00    -0.000 C 
BRANCH   8   9
ATOM      9  C   UNL     1     -15.997  -5.718  38.864  1.00  0.00    -0.003 C 
ATOM     10  C   UNL     1     -14.931  -6.125  37.847  1.00  0.00     0.004 C 
ENDBRANCH   8   9
ENDBRANCH   7   8
ENDBRANCH   1   7
TORSDOF 6
ENDMDL
