MODEL 1
REMARK VINA RESULT:    -5.336      0.000      0.000
REMARK INTER + INTRA:         -18.514
REMARK INTER:                 -13.446
REMARK INTRA:                  -5.069
REMARK UNBOUND:                -5.069
REMARK SMILES CCCCCCCCCCCCCCCCCCCCCCCCCCCC(=O)[O-]
REMARK SMILES IDX 15 1 16 2 17 3 18 4 19 5 20 6 21 7 22 8 23 9 24 10 25 11
REMARK SMILES IDX 26 12 27 13 28 14 29 15 30 16 14 17 13 18 12 19 11 20 10 21
REMARK SMILES IDX 9 22 8 23 7 24 6 25 5 26 4 27 3 28 2 29 1 30
REMARK H PARENT
REMARK Flexibility Score: inf
ROOT
ATOM      1  C   UNL     1      13.349  11.367 -20.872  1.00  0.00     0.000 C 
ENDROOT
BRANCH   1   2
ATOM      2  C   UNL     1      13.761  12.294 -22.027  1.00  0.00     0.000 C 
BRANCH   2   3
ATOM      3  C   UNL     1      13.374  13.762 -21.773  1.00  0.00     0.000 C 
BRANCH   3   4
ATOM      4  C   UNL     1      14.002  14.328 -20.491  1.00  0.00     0.000 C 
BRANCH   4   5
ATOM      5  C   UNL     1      13.252  15.558 -19.955  1.00  0.00     0.000 C 
BRANCH   5   6
ATOM      6  C   UNL     1      14.066  16.841 -20.177  1.00  0.00     0.000 C 
BRANCH   6   7
ATOM      7  C   UNL     1      13.626  17.989 -19.254  1.00  0.00     0.000 C 
BRANCH   7   8
ATOM      8  C   UNL     1      12.621  17.530 -18.180  1.00  0.00     0.000 C 
BRANCH   8   9
ATOM      9  C   UNL     1      13.217  17.593 -16.757  1.00  0.00     0.000 C 
BRANCH   9  10
ATOM     10  C   UNL     1      13.282  16.229 -16.048  1.00  0.00     0.000 C 
BRANCH  10  11
ATOM     11  C   UNL     1      14.409  15.330 -16.574  1.00  0.00     0.000 C 
BRANCH  11  12
ATOM     12  C   UNL     1      15.785  15.956 -16.321  1.00  0.00     0.006 C 
BRANCH  12  13
ATOM     13  C   UNL     1      16.526  16.210 -17.637  1.00  0.00     0.053 C 
BRANCH  13  14
ATOM     14  C   UNL     1      17.230  14.972 -18.090  1.00  0.00     0.041 C 
ATOM     15  O   UNL     1      17.639  14.130 -17.246  1.00  0.00    -0.550 OA
ATOM     16  O   UNL     1      17.403  14.726 -19.448  1.00  0.00    -0.550 OA
ENDBRANCH  13  14
ENDBRANCH  12  13
ENDBRANCH  11  12
ENDBRANCH  10  11
ENDBRANCH   9  10
ENDBRANCH   8   9
ENDBRANCH   7   8
ENDBRANCH   6   7
ENDBRANCH   5   6
ENDBRANCH   4   5
ENDBRANCH   3   4
ENDBRANCH   2   3
ENDBRANCH   1   2
BRANCH   1  17
ATOM     17  C   UNL     1      11.837  11.400 -20.597  1.00  0.00     0.000 C 
BRANCH  17  18
ATOM     18  C   UNL     1      11.550  11.950 -19.192  1.00  0.00     0.000 C 
BRANCH  18  19
ATOM     19  C   UNL     1      10.373  12.943 -19.162  1.00  0.00     0.000 C 
BRANCH  19  20
ATOM     20  C   UNL     1      10.457  14.024 -18.067  1.00  0.00     0.000 C 
BRANCH  20  21
ATOM     21  C   UNL     1       9.735  15.322 -18.454  1.00  0.00     0.000 C 
BRANCH  21  22
ATOM     22  C   UNL     1       9.489  15.386 -19.969  1.00  0.00    -0.000 C 
BRANCH  22  23
ATOM     23  C   UNL     1       8.046  15.790 -20.313  1.00  0.00    -0.000 C 
BRANCH  23  24
ATOM     24  C   UNL     1       7.429  14.903 -21.410  1.00  0.00    -0.000 C 
BRANCH  24  25
ATOM     25  C   UNL     1       7.313  15.628 -22.759  1.00  0.00    -0.000 C 
BRANCH  25  26
ATOM     26  C   UNL     1       7.421  17.158 -22.618  1.00  0.00    -0.000 C 
BRANCH  26  27
ATOM     27  C   UNL     1       8.743  17.715 -23.172  1.00  0.00    -0.000 C 
BRANCH  27  28
ATOM     28  C   UNL     1       9.740  16.616 -23.604  1.00  0.00    -0.000 C 
BRANCH  28  29
ATOM     29  C   UNL     1      11.105  16.721 -22.901  1.00  0.00    -0.003 C 
ATOM     30  C   UNL     1      11.360  18.118 -22.329  1.00  0.00     0.004 C 
ENDBRANCH  28  29
ENDBRANCH  27  28
ENDBRANCH  26  27
ENDBRANCH  25  26
ENDBRANCH  24  25
ENDBRANCH  23  24
ENDBRANCH  22  23
ENDBRANCH  21  22
ENDBRANCH  20  21
ENDBRANCH  19  20
ENDBRANCH  18  19
ENDBRANCH  17  18
ENDBRANCH   1  17
TORSDOF 26
ENDMDL
MODEL 2
REMARK VINA RESULT:    -5.220      2.089      5.363
REMARK INTER + INTRA:         -18.223
REMARK INTER:                 -13.379
REMARK INTRA:                  -4.844
REMARK UNBOUND:                -5.069
REMARK SMILES CCCCCCCCCCCCCCCCCCCCCCCCCCCC(=O)[O-]
REMARK SMILES IDX 15 1 16 2 17 3 18 4 19 5 20 6 21 7 22 8 23 9 24 10 25 11
REMARK SMILES IDX 26 12 27 13 28 14 29 15 30 16 14 17 13 18 12 19 11 20 10 21
REMARK SMILES IDX 9 22 8 23 7 24 6 25 5 26 4 27 3 28 2 29 1 30
REMARK H PARENT
REMARK Flexibility Score: inf
ROOT
ATOM      1  C   UNL     1      17.283  14.740 -18.780  1.00  0.00     0.000 C 
ENDROOT
BRANCH   1   2
ATOM      2  C   UNL     1      16.991  13.442 -19.549  1.00  0.00     0.000 C 
BRANCH   2   3
ATOM      3  C   UNL     1      15.686  13.516 -20.363  1.00  0.00     0.000 C 
BRANCH   3   4
ATOM      4  C   UNL     1      15.545  12.360 -21.364  1.00  0.00     0.000 C 
BRANCH   4   5
ATOM      5  C   UNL     1      14.329  12.520 -22.289  1.00  0.00     0.000 C 
BRANCH   5   6
ATOM      6  C   UNL     1      13.308  11.397 -22.059  1.00  0.00     0.000 C 
BRANCH   6   7
ATOM      7  C   UNL     1      13.102  11.079 -20.568  1.00  0.00     0.000 C 
BRANCH   7   8
ATOM      8  C   UNL     1      11.723  11.533 -20.055  1.00  0.00     0.000 C 
BRANCH   8   9
ATOM      9  C   UNL     1      11.780  12.039 -18.597  1.00  0.00     0.000 C 
BRANCH   9  10
ATOM     10  C   UNL     1      11.608  13.563 -18.459  1.00  0.00     0.000 C 
BRANCH  10  11
ATOM     11  C   UNL     1      12.938  14.305 -18.275  1.00  0.00     0.000 C 
BRANCH  11  12
ATOM     12  C   UNL     1      13.066  15.472 -19.261  1.00  0.00     0.006 C 
BRANCH  12  13
ATOM     13  C   UNL     1      12.447  15.118 -20.617  1.00  0.00     0.053 C 
BRANCH  13  14
ATOM     14  C   UNL     1      12.900  16.082 -21.666  1.00  0.00     0.041 C 
ATOM     15  O   UNL     1      13.687  17.020 -21.369  1.00  0.00    -0.550 OA
ATOM     16  O   UNL     1      12.483  15.924 -22.983  1.00  0.00    -0.550 OA
ENDBRANCH  13  14
ENDBRANCH  12  13
ENDBRANCH  11  12
ENDBRANCH  10  11
ENDBRANCH   9  10
ENDBRANCH   8   9
ENDBRANCH   7   8
ENDBRANCH   6   7
ENDBRANCH   5   6
ENDBRANCH   4   5
ENDBRANCH   3   4
ENDBRANCH   2   3
ENDBRANCH   1   2
BRANCH   1  17
ATOM     17  C   UNL     1      17.156  14.567 -17.257  1.00  0.00     0.000 C 
BRANCH  17  18
ATOM     18  C   UNL     1      16.222  15.630 -16.663  1.00  0.00     0.000 C 
BRANCH  18  19
ATOM     19  C   UNL     1      16.198  16.937 -17.479  1.00  0.00     0.000 C 
BRANCH  19  20
ATOM     20  C   UNL     1      14.994  17.857 -17.206  1.00  0.00     0.000 C 
BRANCH  20  21
ATOM     21  C   UNL     1      14.145  17.392 -16.015  1.00  0.00     0.000 C 
BRANCH  21  22
ATOM     22  C   UNL     1      12.650  17.632 -16.276  1.00  0.00    -0.000 C 
BRANCH  22  23
ATOM     23  C   UNL     1      11.765  16.527 -15.678  1.00  0.00    -0.000 C 
BRANCH  23  24
ATOM     24  C   UNL     1      10.398  16.419 -16.380  1.00  0.00    -0.000 C 
BRANCH  24  25
ATOM     25  C   UNL     1      10.096  17.633 -17.271  1.00  0.00    -0.000 C 
BRANCH  25  26
ATOM     26  C   UNL     1      10.010  17.263 -18.763  1.00  0.00    -0.000 C 
BRANCH  26  27
ATOM     27  C   UNL     1       9.015  16.123 -19.038  1.00  0.00    -0.000 C 
BRANCH  27  28
ATOM     28  C   UNL     1       8.911  15.745 -20.533  1.00  0.00    -0.000 C 
BRANCH  28  29
ATOM     29  C   UNL     1       7.489  15.343 -20.962  1.00  0.00    -0.003 C 
ATOM     30  C   UNL     1       7.243  15.572 -22.455  1.00  0.00     0.004 C 
ENDBRANCH  28  29
ENDBRANCH  27  28
ENDBRANCH  26  27
ENDBRANCH  25  26
ENDBRANCH  24  25
ENDBRANCH  23  24
ENDBRANCH  22  23
ENDBRANCH  21  22
ENDBRANCH  20  21
ENDBRANCH  19  20
ENDBRANCH  18  19
ENDBRANCH  17  18
ENDBRANCH   1  17
TORSDOF 26
ENDMDL
MODEL 3
REMARK VINA RESULT:    -5.196      1.554      3.230
REMARK INTER + INTRA:         -18.161
REMARK INTER:                 -13.520
REMARK INTRA:                  -4.642
REMARK UNBOUND:                -5.069
REMARK SMILES CCCCCCCCCCCCCCCCCCCCCCCCCCCC(=O)[O-]
REMARK SMILES IDX 15 1 16 2 17 3 18 4 19 5 20 6 21 7 22 8 23 9 24 10 25 11
REMARK SMILES IDX 26 12 27 13 28 14 29 15 30 16 14 17 13 18 12 19 11 20 10 21
REMARK SMILES IDX 9 22 8 23 7 24 6 25 5 26 4 27 3 28 2 29 1 30
REMARK H PARENT
REMARK Flexibility Score: inf
ROOT
ATOM      1  C   UNL     1      12.576  11.606 -20.181  1.00  0.00     0.000 C 
ENDROOT
BRANCH   1   2
ATOM      2  C   UNL     1      13.205  11.391 -21.567  1.00  0.00     0.000 C 
BRANCH   2   3
ATOM      3  C   UNL     1      13.898  12.656 -22.105  1.00  0.00     0.000 C 
BRANCH   3   4
ATOM      4  C   UNL     1      13.704  13.873 -21.189  1.00  0.00     0.000 C 
BRANCH   4   5
ATOM      5  C   UNL     1      12.994  15.040 -21.894  1.00  0.00     0.000 C 
BRANCH   5   6
ATOM      6  C   UNL     1      12.006  15.737 -20.948  1.00  0.00     0.000 C 
BRANCH   6   7
ATOM      7  C   UNL     1      12.160  17.267 -20.954  1.00  0.00     0.000 C 
BRANCH   7   8
ATOM      8  C   UNL     1      13.634  17.711 -20.901  1.00  0.00     0.000 C 
BRANCH   8   9
ATOM      9  C   UNL     1      14.127  17.928 -19.454  1.00  0.00     0.000 C 
BRANCH   9  10
ATOM     10  C   UNL     1      15.242  16.958 -19.024  1.00  0.00     0.000 C 
BRANCH  10  11
ATOM     11  C   UNL     1      15.808  17.270 -17.633  1.00  0.00     0.000 C 
BRANCH  11  12
ATOM     12  C   UNL     1      16.694  16.128 -17.122  1.00  0.00     0.006 C 
BRANCH  12  13
ATOM     13  C   UNL     1      15.848  15.003 -16.516  1.00  0.00     0.053 C 
BRANCH  13  14
ATOM     14  C   UNL     1      16.653  13.750 -16.394  1.00  0.00     0.041 C 
ATOM     15  O   UNL     1      17.605  13.527 -17.188  1.00  0.00    -0.550 OA
ATOM     16  O   UNL     1      16.377  12.841 -15.378  1.00  0.00    -0.550 OA
ENDBRANCH  13  14
ENDBRANCH  12  13
ENDBRANCH  11  12
ENDBRANCH  10  11
ENDBRANCH   9  10
ENDBRANCH   8   9
ENDBRANCH   7   8
ENDBRANCH   6   7
ENDBRANCH   5   6
ENDBRANCH   4   5
ENDBRANCH   3   4
ENDBRANCH   2   3
ENDBRANCH   1   2
BRANCH   1  17
ATOM     17  C   UNL     1      11.056  11.374 -20.178  1.00  0.00     0.000 C 
BRANCH  17  18
ATOM     18  C   UNL     1      10.326  12.550 -19.513  1.00  0.00     0.000 C 
BRANCH  18  19
ATOM     19  C   UNL     1      10.765  12.787 -18.056  1.00  0.00     0.000 C 
BRANCH  19  20
ATOM     20  C   UNL     1      10.827  14.263 -17.622  1.00  0.00     0.000 C 
BRANCH  20  21
ATOM     21  C   UNL     1      12.255  14.826 -17.619  1.00  0.00     0.000 C 
BRANCH  21  22
ATOM     22  C   UNL     1      12.343  16.102 -16.769  1.00  0.00    -0.000 C 
BRANCH  22  23
ATOM     23  C   UNL     1      10.962  16.607 -16.324  1.00  0.00    -0.000 C 
BRANCH  23  24
ATOM     24  C   UNL     1      10.413  17.714 -17.244  1.00  0.00    -0.000 C 
BRANCH  24  25
ATOM     25  C   UNL     1       8.915  17.974 -17.026  1.00  0.00    -0.000 C 
BRANCH  25  26
ATOM     26  C   UNL     1       8.112  17.936 -18.339  1.00  0.00    -0.000 C 
BRANCH  26  27
ATOM     27  C   UNL     1       8.916  17.351 -19.512  1.00  0.00    -0.000 C 
BRANCH  27  28
ATOM     28  C   UNL     1       8.377  15.989 -20.006  1.00  0.00    -0.000 C 
BRANCH  28  29
ATOM     29  C   UNL     1       7.616  16.083 -21.341  1.00  0.00    -0.003 C 
ATOM     30  C   UNL     1       6.994  14.747 -21.753  1.00  0.00     0.004 C 
ENDBRANCH  28  29
ENDBRANCH  27  28
ENDBRANCH  26  27
ENDBRANCH  25  26
ENDBRANCH  24  25
ENDBRANCH  23  24
ENDBRANCH  22  23
ENDBRANCH  21  22
ENDBRANCH  20  21
ENDBRANCH  19  20
ENDBRANCH  18  19
ENDBRANCH  17  18
ENDBRANCH   1  17
TORSDOF 26
ENDMDL
MODEL 4
REMARK VINA RESULT:    -5.148      0.994      3.380
REMARK INTER + INTRA:         -18.042
REMARK INTER:                 -12.717
REMARK INTRA:                  -5.325
REMARK UNBOUND:                -5.069
REMARK SMILES CCCCCCCCCCCCCCCCCCCCCCCCCCCC(=O)[O-]
REMARK SMILES IDX 15 1 16 2 17 3 18 4 19 5 20 6 21 7 22 8 23 9 24 10 25 11
REMARK SMILES IDX 26 12 27 13 28 14 29 15 30 16 14 17 13 18 12 19 11 20 10 21
REMARK SMILES IDX 9 22 8 23 7 24 6 25 5 26 4 27 3 28 2 29 1 30
REMARK H PARENT
REMARK Flexibility Score: inf
ROOT
ATOM      1  C   UNL     1      12.248  11.408 -19.104  1.00  0.00     0.000 C 
ENDROOT
BRANCH   1   2
ATOM      2  C   UNL     1      11.596  12.703 -18.593  1.00  0.00     0.000 C 
BRANCH   2   3
ATOM      3  C   UNL     1      10.332  13.082 -19.387  1.00  0.00     0.000 C 
BRANCH   3   4
ATOM      4  C   UNL     1      10.184  14.599 -19.576  1.00  0.00     0.000 C 
BRANCH   4   5
ATOM      5  C   UNL     1      10.476  15.389 -18.291  1.00  0.00     0.000 C 
BRANCH   5   6
ATOM      6  C   UNL     1      10.241  16.892 -18.501  1.00  0.00     0.000 C 
BRANCH   6   7
ATOM      7  C   UNL     1      11.080  17.762 -17.551  1.00  0.00     0.000 C 
BRANCH   7   8
ATOM      8  C   UNL     1      11.595  16.974 -16.332  1.00  0.00     0.000 C 
BRANCH   8   9
ATOM      9  C   UNL     1      12.957  17.502 -15.829  1.00  0.00     0.000 C 
BRANCH   9  10
ATOM     10  C   UNL     1      14.139  16.562 -16.132  1.00  0.00     0.000 C 
BRANCH  10  11
ATOM     11  C   UNL     1      13.699  15.133 -16.474  1.00  0.00     0.000 C 
BRANCH  11  12
ATOM     12  C   UNL     1      14.877  14.294 -16.983  1.00  0.00     0.006 C 
BRANCH  12  13
ATOM     13  C   UNL     1      16.092  15.177 -17.284  1.00  0.00     0.053 C 
BRANCH  13  14
ATOM     14  C   UNL     1      17.198  14.362 -17.873  1.00  0.00     0.041 C 
ATOM     15  O   UNL     1      17.550  14.541 -19.069  1.00  0.00    -0.550 OA
ATOM     16  O   UNL     1      17.868  13.427 -17.091  1.00  0.00    -0.550 OA
ENDBRANCH  13  14
ENDBRANCH  12  13
ENDBRANCH  11  12
ENDBRANCH  10  11
ENDBRANCH   9  10
ENDBRANCH   8   9
ENDBRANCH   7   8
ENDBRANCH   6   7
ENDBRANCH   5   6
ENDBRANCH   4   5
ENDBRANCH   3   4
ENDBRANCH   2   3
ENDBRANCH   1   2
BRANCH   1  17
ATOM     17  C   UNL     1      12.360  11.367 -20.637  1.00  0.00     0.000 C 
BRANCH  17  18
ATOM     18  C   UNL     1      13.818  11.545 -21.083  1.00  0.00     0.000 C 
BRANCH  18  19
ATOM     19  C   UNL     1      14.001  12.679 -22.109  1.00  0.00     0.000 C 
BRANCH  19  20
ATOM     20  C   UNL     1      13.317  14.010 -21.744  1.00  0.00     0.000 C 
BRANCH  20  21
ATOM     21  C   UNL     1      13.905  14.656 -20.481  1.00  0.00     0.000 C 
BRANCH  21  22
ATOM     22  C   UNL     1      13.532  16.143 -20.398  1.00  0.00    -0.000 C 
BRANCH  22  23
ATOM     23  C   UNL     1      12.813  16.640 -21.663  1.00  0.00    -0.000 C 
BRANCH  23  24
ATOM     24  C   UNL     1      12.134  18.007 -21.460  1.00  0.00    -0.000 C 
BRANCH  24  25
ATOM     25  C   UNL     1      10.708  18.048 -22.029  1.00  0.00    -0.000 C 
BRANCH  25  26
ATOM     26  C   UNL     1      10.301  16.723 -22.698  1.00  0.00    -0.000 C 
BRANCH  26  27
ATOM     27  C   UNL     1       8.866  16.750 -23.250  1.00  0.00    -0.000 C 
BRANCH  27  28
ATOM     28  C   UNL     1       7.805  17.108 -22.185  1.00  0.00    -0.000 C 
BRANCH  28  29
ATOM     29  C   UNL     1       7.464  15.937 -21.247  1.00  0.00    -0.003 C 
ATOM     30  C   UNL     1       7.028  14.685 -22.012  1.00  0.00     0.004 C 
ENDBRANCH  28  29
ENDBRANCH  27  28
ENDBRANCH  26  27
ENDBRANCH  25  26
ENDBRANCH  24  25
ENDBRANCH  23  24
ENDBRANCH  22  23
ENDBRANCH  21  22
ENDBRANCH  20  21
ENDBRANCH  19  20
ENDBRANCH  18  19
ENDBRANCH  17  18
ENDBRANCH   1  17
TORSDOF 26
ENDMDL
MODEL 5
REMARK VINA RESULT:    -5.104      1.580      5.111
REMARK INTER + INTRA:         -17.931
REMARK INTER:                 -13.331
REMARK INTRA:                  -4.601
REMARK UNBOUND:                -5.069
REMARK SMILES CCCCCCCCCCCCCCCCCCCCCCCCCCCC(=O)[O-]
REMARK SMILES IDX 15 1 16 2 17 3 18 4 19 5 20 6 21 7 22 8 23 9 24 10 25 11
REMARK SMILES IDX 26 12 27 13 28 14 29 15 30 16 14 17 13 18 12 19 11 20 10 21
REMARK SMILES IDX 9 22 8 23 7 24 6 25 5 26 4 27 3 28 2 29 1 30
REMARK H PARENT
REMARK Flexibility Score: inf
ROOT
ATOM      1  C   UNL     1       8.309  16.188 -22.791  1.00  0.00     0.000 C 
ENDROOT
BRANCH   1   2
ATOM      2  C   UNL     1       7.800  15.866 -21.377  1.00  0.00     0.000 C 
BRANCH   2   3
ATOM      3  C   UNL     1       7.748  17.108 -20.470  1.00  0.00     0.000 C 
BRANCH   3   4
ATOM      4  C   UNL     1       8.414  16.875 -19.106  1.00  0.00     0.000 C 
BRANCH   4   5
ATOM      5  C   UNL     1       7.980  17.902 -18.048  1.00  0.00     0.000 C 
BRANCH   5   6
ATOM      6  C   UNL     1       8.876  17.825 -16.804  1.00  0.00     0.000 C 
BRANCH   6   7
ATOM      7  C   UNL     1      10.325  17.435 -17.140  1.00  0.00     0.000 C 
BRANCH   7   8
ATOM      8  C   UNL     1      10.819  16.236 -16.309  1.00  0.00     0.000 C 
BRANCH   8   9
ATOM      9  C   UNL     1      12.249  16.451 -15.767  1.00  0.00     0.000 C 
BRANCH   9  10
ATOM     10  C   UNL     1      13.152  17.276 -16.701  1.00  0.00     0.000 C 
BRANCH  10  11
ATOM     11  C   UNL     1      14.635  16.897 -16.594  1.00  0.00     0.000 C 
BRANCH  11  12
ATOM     12  C   UNL     1      14.997  15.781 -17.581  1.00  0.00     0.006 C 
BRANCH  12  13
ATOM     13  C   UNL     1      15.694  14.619 -16.867  1.00  0.00     0.053 C 
BRANCH  13  14
ATOM     14  C   UNL     1      17.045  14.374 -17.460  1.00  0.00     0.041 C 
ATOM     15  O   UNL     1      17.824  13.533 -16.938  1.00  0.00    -0.550 OA
ATOM     16  O   UNL     1      17.431  15.048 -18.613  1.00  0.00    -0.550 OA
ENDBRANCH  13  14
ENDBRANCH  12  13
ENDBRANCH  11  12
ENDBRANCH  10  11
ENDBRANCH   9  10
ENDBRANCH   8   9
ENDBRANCH   7   8
ENDBRANCH   6   7
ENDBRANCH   5   6
ENDBRANCH   4   5
ENDBRANCH   3   4
ENDBRANCH   2   3
ENDBRANCH   1   2
BRANCH   1  17
ATOM     17  C   UNL     1       9.483  17.180 -22.786  1.00  0.00     0.000 C 
BRANCH  17  18
ATOM     18  C   UNL     1      10.706  16.583 -23.497  1.00  0.00     0.000 C 
BRANCH  18  19
ATOM     19  C   UNL     1      11.913  16.390 -22.560  1.00  0.00     0.000 C 
BRANCH  19  20
ATOM     20  C   UNL     1      11.722  16.920 -21.127  1.00  0.00     0.000 C 
BRANCH  20  21
ATOM     21  C   UNL     1      12.210  15.934 -20.056  1.00  0.00     0.000 C 
BRANCH  21  22
ATOM     22  C   UNL     1      11.225  14.766 -19.892  1.00  0.00    -0.000 C 
BRANCH  22  23
ATOM     23  C   UNL     1      11.733  13.706 -18.901  1.00  0.00    -0.000 C 
BRANCH  23  24
ATOM     24  C   UNL     1      10.878  12.425 -18.917  1.00  0.00    -0.000 C 
BRANCH  24  25
ATOM     25  C   UNL     1      11.181  11.528 -20.127  1.00  0.00    -0.000 C 
BRANCH  25  26
ATOM     26  C   UNL     1      12.691  11.329 -20.350  1.00  0.00    -0.000 C 
BRANCH  26  27
ATOM     27  C   UNL     1      13.087  11.393 -21.835  1.00  0.00    -0.000 C 
BRANCH  27  28
ATOM     28  C   UNL     1      14.184  12.439 -22.134  1.00  0.00    -0.000 C 
BRANCH  28  29
ATOM     29  C   UNL     1      14.891  12.959 -20.870  1.00  0.00    -0.003 C 
ATOM     30  C   UNL     1      16.368  12.562 -20.822  1.00  0.00     0.004 C 
ENDBRANCH  28  29
ENDBRANCH  27  28
ENDBRANCH  26  27
ENDBRANCH  25  26
ENDBRANCH  24  25
ENDBRANCH  23  24
ENDBRANCH  22  23
ENDBRANCH  21  22
ENDBRANCH  20  21
ENDBRANCH  19  20
ENDBRANCH  18  19
ENDBRANCH  17  18
ENDBRANCH   1  17
TORSDOF 26
ENDMDL
MODEL 6
REMARK VINA RESULT:    -5.061      2.908      7.180
REMARK INTER + INTRA:         -17.822
REMARK INTER:                 -12.731
REMARK INTRA:                  -5.091
REMARK UNBOUND:                -5.069
REMARK SMILES CCCCCCCCCCCCCCCCCCCCCCCCCCCC(=O)[O-]
REMARK SMILES IDX 15 1 16 2 17 3 18 4 19 5 20 6 21 7 22 8 23 9 24 10 25 11
REMARK SMILES IDX 26 12 27 13 28 14 29 15 30 16 14 17 13 18 12 19 11 20 10 21
REMARK SMILES IDX 9 22 8 23 7 24 6 25 5 26 4 27 3 28 2 29 1 30
REMARK H PARENT
REMARK Flexibility Score: inf
ROOT
ATOM      1  C   UNL     1      11.377  13.291 -18.221  1.00  0.00     0.000 C 
ENDROOT
BRANCH   1   2
ATOM      2  C   UNL     1      10.781  14.458 -17.418  1.00  0.00     0.000 C 
BRANCH   2   3
ATOM      3  C   UNL     1       9.858  15.351 -18.268  1.00  0.00     0.000 C 
BRANCH   3   4
ATOM      4  C   UNL     1       9.825  16.806 -17.777  1.00  0.00     0.000 C 
BRANCH   4   5
ATOM      5  C   UNL     1      11.205  17.481 -17.824  1.00  0.00     0.000 C 
BRANCH   5   6
ATOM      6  C   UNL     1      11.664  17.697 -19.273  1.00  0.00     0.000 C 
BRANCH   6   7
ATOM      7  C   UNL     1      13.125  17.278 -19.501  1.00  0.00     0.000 C 
BRANCH   7   8
ATOM      8  C   UNL     1      13.250  15.823 -19.993  1.00  0.00     0.000 C 
BRANCH   8   9
ATOM      9  C   UNL     1      12.203  15.481 -21.075  1.00  0.00     0.000 C 
BRANCH   9  10
ATOM     10  C   UNL     1      12.704  15.692 -22.515  1.00  0.00     0.000 C 
BRANCH  10  11
ATOM     11  C   UNL     1      11.625  16.249 -23.452  1.00  0.00     0.000 C 
BRANCH  11  12
ATOM     12  C   UNL     1      10.579  17.060 -22.678  1.00  0.00     0.006 C 
BRANCH  12  13
ATOM     13  C   UNL     1       9.201  16.955 -23.338  1.00  0.00     0.053 C 
BRANCH  13  14
ATOM     14  C   UNL     1       8.222  16.314 -22.407  1.00  0.00     0.041 C 
ATOM     15  O   UNL     1       8.117  16.719 -21.219  1.00  0.00    -0.550 OA
ATOM     16  O   UNL     1       7.396  15.291 -22.861  1.00  0.00    -0.550 OA
ENDBRANCH  13  14
ENDBRANCH  12  13
ENDBRANCH  11  12
ENDBRANCH  10  11
ENDBRANCH   9  10
ENDBRANCH   8   9
ENDBRANCH   7   8
ENDBRANCH   6   7
ENDBRANCH   5   6
ENDBRANCH   4   5
ENDBRANCH   3   4
ENDBRANCH   2   3
ENDBRANCH   1   2
BRANCH   1  17
ATOM     17  C   UNL     1      10.344  12.614 -19.136  1.00  0.00     0.000 C 
BRANCH  17  18
ATOM     18  C   UNL     1      11.011  11.548 -20.017  1.00  0.00     0.000 C 
BRANCH  18  19
ATOM     19  C   UNL     1      12.497  11.841 -20.299  1.00  0.00     0.000 C 
BRANCH  19  20
ATOM     20  C   UNL     1      12.997  11.408 -21.690  1.00  0.00     0.000 C 
BRANCH  20  21
ATOM     21  C   UNL     1      14.231  12.196 -22.152  1.00  0.00     0.000 C 
BRANCH  21  22
ATOM     22  C   UNL     1      14.972  12.811 -20.956  1.00  0.00    -0.000 C 
BRANCH  22  23
ATOM     23  C   UNL     1      16.489  12.570 -21.017  1.00  0.00    -0.000 C 
BRANCH  23  24
ATOM     24  C   UNL     1      17.262  13.388 -19.966  1.00  0.00    -0.000 C 
BRANCH  24  25
ATOM     25  C   UNL     1      16.334  14.044 -18.932  1.00  0.00    -0.000 C 
BRANCH  25  26
ATOM     26  C   UNL     1      16.743  15.493 -18.607  1.00  0.00    -0.000 C 
BRANCH  26  27
ATOM     27  C   UNL     1      16.624  15.824 -17.110  1.00  0.00    -0.000 C 
BRANCH  27  28
ATOM     28  C   UNL     1      16.070  17.241 -16.837  1.00  0.00    -0.000 C 
BRANCH  28  29
ATOM     29  C   UNL     1      14.658  17.236 -16.225  1.00  0.00    -0.003 C 
ATOM     30  C   UNL     1      14.083  15.823 -16.098  1.00  0.00     0.004 C 
ENDBRANCH  28  29
ENDBRANCH  27  28
ENDBRANCH  26  27
ENDBRANCH  25  26
ENDBRANCH  24  25
ENDBRANCH  23  24
ENDBRANCH  22  23
ENDBRANCH  21  22
ENDBRANCH  20  21
ENDBRANCH  19  20
ENDBRANCH  18  19
ENDBRANCH  17  18
ENDBRANCH   1  17
TORSDOF 26
ENDMDL
MODEL 7
REMARK VINA RESULT:    -5.022      1.741      6.084
REMARK INTER + INTRA:         -17.725
REMARK INTER:                 -12.715
REMARK INTRA:                  -5.010
REMARK UNBOUND:                -5.069
REMARK SMILES CCCCCCCCCCCCCCCCCCCCCCCCCCCC(=O)[O-]
REMARK SMILES IDX 15 1 16 2 17 3 18 4 19 5 20 6 21 7 22 8 23 9 24 10 25 11
REMARK SMILES IDX 26 12 27 13 28 14 29 15 30 16 14 17 13 18 12 19 11 20 10 21
REMARK SMILES IDX 9 22 8 23 7 24 6 25 5 26 4 27 3 28 2 29 1 30
REMARK H PARENT
REMARK Flexibility Score: inf
ROOT
ATOM      1  C   UNL     1       7.605  15.742 -22.524  1.00  0.00     0.000 C 
ENDROOT
BRANCH   1   2
ATOM      2  C   UNL     1       8.432  16.993 -22.860  1.00  0.00     0.000 C 
BRANCH   2   3
ATOM      3  C   UNL     1       9.912  16.668 -23.130  1.00  0.00     0.000 C 
BRANCH   3   4
ATOM      4  C   UNL     1      10.869  17.669 -22.466  1.00  0.00     0.000 C 
BRANCH   4   5
ATOM      5  C   UNL     1      11.087  17.381 -20.972  1.00  0.00     0.000 C 
BRANCH   5   6
ATOM      6  C   UNL     1      12.387  16.597 -20.744  1.00  0.00     0.000 C 
BRANCH   6   7
ATOM      7  C   UNL     1      12.204  15.412 -19.782  1.00  0.00     0.000 C 
BRANCH   7   8
ATOM      8  C   UNL     1      10.831  14.732 -19.940  1.00  0.00     0.000 C 
BRANCH   8   9
ATOM      9  C   UNL     1      10.511  13.782 -18.765  1.00  0.00     0.000 C 
BRANCH   9  10
ATOM     10  C   UNL     1      10.521  12.292 -19.148  1.00  0.00     0.000 C 
BRANCH  10  11
ATOM     11  C   UNL     1      11.936  11.730 -19.344  1.00  0.00     0.000 C 
BRANCH  11  12
ATOM     12  C   UNL     1      12.218  11.435 -20.821  1.00  0.00     0.006 C 
BRANCH  12  13
ATOM     13  C   UNL     1      13.697  11.100 -21.043  1.00  0.00     0.053 C 
BRANCH  13  14
ATOM     14  C   UNL     1      14.427  12.287 -21.585  1.00  0.00     0.041 C 
ATOM     15  O   UNL     1      14.497  12.476 -22.828  1.00  0.00    -0.550 OA
ATOM     16  O   UNL     1      15.001  13.208 -20.715  1.00  0.00    -0.550 OA
ENDBRANCH  13  14
ENDBRANCH  12  13
ENDBRANCH  11  12
ENDBRANCH  10  11
ENDBRANCH   9  10
ENDBRANCH   8   9
ENDBRANCH   7   8
ENDBRANCH   6   7
ENDBRANCH   5   6
ENDBRANCH   4   5
ENDBRANCH   3   4
ENDBRANCH   2   3
ENDBRANCH   1   2
BRANCH   1  17
ATOM     17  C   UNL     1       7.449  15.524 -21.010  1.00  0.00     0.000 C 
BRANCH  17  18
ATOM     18  C   UNL     1       7.719  16.825 -20.241  1.00  0.00     0.000 C 
BRANCH  18  19
ATOM     19  C   UNL     1       8.074  16.589 -18.761  1.00  0.00     0.000 C 
BRANCH  19  20
ATOM     20  C   UNL     1       7.968  17.831 -17.856  1.00  0.00     0.000 C 
BRANCH  20  21
ATOM     21  C   UNL     1       8.999  17.829 -16.718  1.00  0.00     0.000 C 
BRANCH  21  22
ATOM     22  C   UNL     1      10.394  17.450 -17.238  1.00  0.00    -0.000 C 
BRANCH  22  23
ATOM     23  C   UNL     1      11.083  16.398 -16.354  1.00  0.00    -0.000 C 
BRANCH  23  24
ATOM     24  C   UNL     1      12.393  16.916 -15.731  1.00  0.00    -0.000 C 
BRANCH  24  25
ATOM     25  C   UNL     1      13.081  17.977 -16.602  1.00  0.00    -0.000 C 
BRANCH  25  26
ATOM     26  C   UNL     1      14.297  17.418 -17.363  1.00  0.00    -0.000 C 
BRANCH  26  27
ATOM     27  C   UNL     1      15.444  17.000 -16.428  1.00  0.00    -0.000 C 
BRANCH  27  28
ATOM     28  C   UNL     1      15.797  15.498 -16.520  1.00  0.00    -0.000 C 
BRANCH  28  29
ATOM     29  C   UNL     1      14.956  14.739 -17.562  1.00  0.00    -0.003 C 
ATOM     30  C   UNL     1      13.957  13.776 -16.916  1.00  0.00     0.004 C 
ENDBRANCH  28  29
ENDBRANCH  27  28
ENDBRANCH  26  27
ENDBRANCH  25  26
ENDBRANCH  24  25
ENDBRANCH  23  24
ENDBRANCH  22  23
ENDBRANCH  21  22
ENDBRANCH  20  21
ENDBRANCH  19  20
ENDBRANCH  18  19
ENDBRANCH  17  18
ENDBRANCH   1  17
TORSDOF 26
ENDMDL
MODEL 8
REMARK VINA RESULT:    -5.007      1.242      3.092
REMARK INTER + INTRA:         -17.687
REMARK INTER:                 -12.566
REMARK INTRA:                  -5.121
REMARK UNBOUND:                -5.069
REMARK SMILES CCCCCCCCCCCCCCCCCCCCCCCCCCCC(=O)[O-]
REMARK SMILES IDX 15 1 16 2 17 3 18 4 19 5 20 6 21 7 22 8 23 9 24 10 25 11
REMARK SMILES IDX 26 12 27 13 28 14 29 15 30 16 14 17 13 18 12 19 11 20 10 21
REMARK SMILES IDX 9 22 8 23 7 24 6 25 5 26 4 27 3 28 2 29 1 30
REMARK H PARENT
REMARK Flexibility Score: inf
ROOT
ATOM      1  C   UNL     1      12.237  11.463 -19.860  1.00  0.00     0.000 C 
ENDROOT
BRANCH   1   2
ATOM      2  C   UNL     1      10.805  12.003 -19.714  1.00  0.00     0.000 C 
BRANCH   2   3
ATOM      3  C   UNL     1      10.683  13.061 -18.602  1.00  0.00     0.000 C 
BRANCH   3   4
ATOM      4  C   UNL     1      11.958  13.180 -17.754  1.00  0.00     0.000 C 
BRANCH   4   5
ATOM      5  C   UNL     1      12.376  14.639 -17.512  1.00  0.00     0.000 C 
BRANCH   5   6
ATOM      6  C   UNL     1      11.194  15.595 -17.724  1.00  0.00     0.000 C 
BRANCH   6   7
ATOM      7  C   UNL     1      11.463  17.003 -17.168  1.00  0.00     0.000 C 
BRANCH   7   8
ATOM      8  C   UNL     1      12.917  17.179 -16.690  1.00  0.00     0.000 C 
BRANCH   8   9
ATOM      9  C   UNL     1      13.772  17.973 -17.701  1.00  0.00     0.000 C 
BRANCH   9  10
ATOM     10  C   UNL     1      15.150  17.346 -17.980  1.00  0.00     0.000 C 
BRANCH  10  11
ATOM     11  C   UNL     1      15.899  16.947 -16.701  1.00  0.00     0.000 C 
BRANCH  11  12
ATOM     12  C   UNL     1      16.108  15.431 -16.629  1.00  0.00     0.006 C 
BRANCH  12  13
ATOM     13  C   UNL     1      15.824  14.770 -17.981  1.00  0.00     0.053 C 
BRANCH  13  14
ATOM     14  C   UNL     1      17.001  13.963 -18.427  1.00  0.00     0.041 C 
ATOM     15  O   UNL     1      17.643  13.265 -17.598  1.00  0.00    -0.550 OA
ATOM     16  O   UNL     1      17.370  13.952 -19.768  1.00  0.00    -0.550 OA
ENDBRANCH  13  14
ENDBRANCH  12  13
ENDBRANCH  11  12
ENDBRANCH  10  11
ENDBRANCH   9  10
ENDBRANCH   8   9
ENDBRANCH   7   8
ENDBRANCH   6   7
ENDBRANCH   5   6
ENDBRANCH   4   5
ENDBRANCH   3   4
ENDBRANCH   2   3
ENDBRANCH   1   2
BRANCH   1  17
ATOM     17  C   UNL     1      12.676  11.339 -21.328  1.00  0.00     0.000 C 
BRANCH  17  18
ATOM     18  C   UNL     1      13.969  12.128 -21.579  1.00  0.00     0.000 C 
BRANCH  18  19
ATOM     19  C   UNL     1      13.714  13.561 -22.082  1.00  0.00     0.000 C 
BRANCH  19  20
ATOM     20  C   UNL     1      13.363  14.586 -20.988  1.00  0.00     0.000 C 
BRANCH  20  21
ATOM     21  C   UNL     1      12.079  15.370 -21.293  1.00  0.00     0.000 C 
BRANCH  21  22
ATOM     22  C   UNL     1      12.266  16.868 -21.011  1.00  0.00    -0.000 C 
BRANCH  22  23
ATOM     23  C   UNL     1      11.582  17.754 -22.064  1.00  0.00    -0.000 C 
BRANCH  23  24
ATOM     24  C   UNL     1      10.731  16.941 -23.058  1.00  0.00    -0.000 C 
BRANCH  24  25
ATOM     25  C   UNL     1       9.235  17.277 -22.965  1.00  0.00    -0.000 C 
BRANCH  25  26
ATOM     26  C   UNL     1       8.351  16.019 -22.890  1.00  0.00    -0.000 C 
BRANCH  26  27
ATOM     27  C   UNL     1       7.546  15.934 -21.582  1.00  0.00    -0.000 C 
BRANCH  27  28
ATOM     28  C   UNL     1       8.425  15.682 -20.335  1.00  0.00    -0.000 C 
BRANCH  28  29
ATOM     29  C   UNL     1       8.074  16.597 -19.148  1.00  0.00    -0.003 C 
ATOM     30  C   UNL     1       8.037  18.075 -19.541  1.00  0.00     0.004 C 
ENDBRANCH  28  29
ENDBRANCH  27  28
ENDBRANCH  26  27
ENDBRANCH  25  26
ENDBRANCH  24  25
ENDBRANCH  23  24
ENDBRANCH  22  23
ENDBRANCH  21  22
ENDBRANCH  20  21
ENDBRANCH  19  20
ENDBRANCH  18  19
ENDBRANCH  17  18
ENDBRANCH   1  17
TORSDOF 26
ENDMDL
MODEL 9
REMARK VINA RESULT:    -4.995      1.303      4.912
REMARK INTER + INTRA:         -17.655
REMARK INTER:                 -12.829
REMARK INTRA:                  -4.826
REMARK UNBOUND:                -5.069
REMARK SMILES CCCCCCCCCCCCCCCCCCCCCCCCCCCC(=O)[O-]
REMARK SMILES IDX 15 1 16 2 17 3 18 4 19 5 20 6 21 7 22 8 23 9 24 10 25 11
REMARK SMILES IDX 26 12 27 13 28 14 29 15 30 16 14 17 13 18 12 19 11 20 10 21
REMARK SMILES IDX 9 22 8 23 7 24 6 25 5 26 4 27 3 28 2 29 1 30
REMARK H PARENT
REMARK Flexibility Score: inf
ROOT
ATOM      1  C   UNL     1       7.724  15.449 -20.833  1.00  0.00     0.000 C 
ENDROOT
BRANCH   1   2
ATOM      2  C   UNL     1       7.509  15.540 -22.352  1.00  0.00     0.000 C 
BRANCH   2   3
ATOM      3  C   UNL     1       8.058  16.848 -22.950  1.00  0.00     0.000 C 
BRANCH   3   4
ATOM      4  C   UNL     1       9.539  16.747 -23.340  1.00  0.00     0.000 C 
BRANCH   4   5
ATOM      5  C   UNL     1      10.447  17.623 -22.462  1.00  0.00     0.000 C 
BRANCH   5   6
ATOM      6  C   UNL     1      11.846  17.006 -22.326  1.00  0.00     0.000 C 
BRANCH   6   7
ATOM      7  C   UNL     1      11.854  15.739 -21.455  1.00  0.00     0.000 C 
BRANCH   7   8
ATOM      8  C   UNL     1      13.185  15.550 -20.703  1.00  0.00     0.000 C 
BRANCH   8   9
ATOM      9  C   UNL     1      13.825  16.896 -20.301  1.00  0.00     0.000 C 
BRANCH   9  10
ATOM     10  C   UNL     1      15.056  16.753 -19.388  1.00  0.00     0.000 C 
BRANCH  10  11
ATOM     11  C   UNL     1      14.890  17.462 -18.038  1.00  0.00     0.000 C 
BRANCH  11  12
ATOM     12  C   UNL     1      15.397  16.590 -16.884  1.00  0.00     0.006 C 
BRANCH  12  13
ATOM     13  C   UNL     1      16.722  15.913 -17.247  1.00  0.00     0.053 C 
BRANCH  13  14
ATOM     14  C   UNL     1      16.682  14.460 -16.896  1.00  0.00     0.041 C 
ATOM     15  O   UNL     1      17.610  13.692 -17.265  1.00  0.00    -0.550 OA
ATOM     16  O   UNL     1      15.636  13.958 -16.129  1.00  0.00    -0.550 OA
ENDBRANCH  13  14
ENDBRANCH  12  13
ENDBRANCH  11  12
ENDBRANCH  10  11
ENDBRANCH   9  10
ENDBRANCH   8   9
ENDBRANCH   7   8
ENDBRANCH   6   7
ENDBRANCH   5   6
ENDBRANCH   4   5
ENDBRANCH   3   4
ENDBRANCH   2   3
ENDBRANCH   1   2
BRANCH   1  17
ATOM     17  C   UNL     1       7.739  16.829 -20.154  1.00  0.00     0.000 C 
BRANCH  17  18
ATOM     18  C   UNL     1       8.306  16.730 -18.730  1.00  0.00     0.000 C 
BRANCH  18  19
ATOM     19  C   UNL     1       9.179  17.938 -18.343  1.00  0.00     0.000 C 
BRANCH  19  20
ATOM     20  C   UNL     1      10.699  17.702 -18.430  1.00  0.00     0.000 C 
BRANCH  20  21
ATOM     21  C   UNL     1      11.354  17.521 -17.054  1.00  0.00     0.000 C 
BRANCH  21  22
ATOM     22  C   UNL     1      11.213  16.072 -16.562  1.00  0.00    -0.000 C 
BRANCH  22  23
ATOM     23  C   UNL     1      11.632  15.047 -17.629  1.00  0.00    -0.000 C 
BRANCH  23  24
ATOM     24  C   UNL     1      10.704  13.818 -17.663  1.00  0.00    -0.000 C 
BRANCH  24  25
ATOM     25  C   UNL     1      10.194  13.503 -19.077  1.00  0.00    -0.000 C 
BRANCH  25  26
ATOM     26  C   UNL     1      10.787  12.198 -19.641  1.00  0.00    -0.000 C 
BRANCH  26  27
ATOM     27  C   UNL     1      12.308  12.099 -19.439  1.00  0.00    -0.000 C 
BRANCH  27  28
ATOM     28  C   UNL     1      12.982  11.053 -20.357  1.00  0.00    -0.000 C 
BRANCH  28  29
ATOM     29  C   UNL     1      13.007  11.469 -21.838  1.00  0.00    -0.003 C 
ATOM     30  C   UNL     1      14.258  12.274 -22.197  1.00  0.00     0.004 C 
ENDBRANCH  28  29
ENDBRANCH  27  28
ENDBRANCH  26  27
ENDBRANCH  25  26
ENDBRANCH  24  25
ENDBRANCH  23  24
ENDBRANCH  22  23
ENDBRANCH  21  22
ENDBRANCH  20  21
ENDBRANCH  19  20
ENDBRANCH  18  19
ENDBRANCH  17  18
ENDBRANCH   1  17
TORSDOF 26
ENDMDL
