MODEL 1
REMARK VINA RESULT:    -7.497      0.000      0.000
REMARK INTER + INTRA:          -8.773
REMARK INTER:                  -9.032
REMARK INTRA:                   0.259
REMARK UNBOUND:                 0.259
REMARK SMILES O=c1c(O)c(-c2ccc(O)c(O)c2)oc2cc(O)cc(O)c12
REMARK SMILES IDX 5 1 3 2 2 3 1 4 22 5 20 6 19 7 17 8 16 9 15 10 14 11 6 12
REMARK SMILES IDX 7 13 8 14 9 15 13 16 11 17 10 18 12 20 4 22 21 24 18 26
REMARK H PARENT 10 19 12 21 4 23 21 25 18 27
REMARK Flexibility Score: inf
ROOT
ATOM      1  C   UNL     1     -22.934  84.987 -23.306  1.00  0.00     0.180 A 
ATOM      2  C   UNL     1     -23.742  84.357 -24.268  1.00  0.00     0.208 A 
ATOM      3  C   UNL     1     -24.160  85.090 -25.390  1.00  0.00     0.238 A 
ATOM      4  O   UNL     1     -24.944  84.543 -26.209  1.00  0.00    -0.285 OA
ATOM      5  C   UNL     1     -23.720  86.424 -25.566  1.00  0.00     0.111 A 
ATOM      6  C   UNL     1     -24.044  87.246 -26.688  1.00  0.00     0.134 A 
ATOM      7  C   UNL     1     -23.638  88.587 -26.702  1.00  0.00     0.093 A 
ATOM      8  C   UNL     1     -22.865  89.116 -25.666  1.00  0.00     0.123 A 
ATOM      9  C   UNL     1     -22.497  88.308 -24.595  1.00  0.00     0.094 A 
ATOM     10  C   UNL     1     -22.920  86.977 -24.532  1.00  0.00     0.146 A 
ATOM     11  O   UNL     1     -22.563  86.249 -23.481  1.00  0.00    -0.452 OA
ENDROOT
BRANCH   1  12
ATOM     12  C   UNL     1     -22.466  84.284 -22.088  1.00  0.00     0.025 A 
ATOM     13  C   UNL     1     -22.320  85.003 -20.892  1.00  0.00     0.016 A 
ATOM     14  C   UNL     1     -21.901  84.358 -19.725  1.00  0.00     0.051 A 
ATOM     15  C   UNL     1     -21.636  82.985 -19.733  1.00  0.00     0.157 A 
ATOM     16  C   UNL     1     -22.219  82.901 -22.090  1.00  0.00     0.062 A 
ATOM     17  C   UNL     1     -21.800  82.250 -20.920  1.00  0.00     0.158 A 
BRANCH  15  18
ATOM     18  O   UNL     1     -21.217  82.369 -18.555  1.00  0.00    -0.504 OA
ATOM     19  H   UNL     1     -20.603  81.563 -18.558  1.00  0.00     0.293 HD
ENDBRANCH  15  18
BRANCH  17  20
ATOM     20  O   UNL     1     -21.551  80.879 -20.931  1.00  0.00    -0.504 OA
ATOM     21  H   UNL     1     -20.904  80.450 -20.279  1.00  0.00     0.293 HD
ENDBRANCH  17  20
ENDBRANCH   1  12
BRANCH   2  22
ATOM     22  O   UNL     1     -24.105  83.016 -24.114  1.00  0.00    -0.502 OA
ATOM     23  H   UNL     1     -23.427  82.264 -24.132  1.00  0.00     0.293 HD
ENDBRANCH   2  22
BRANCH   6  24
ATOM     24  O   UNL     1     -24.734  86.794 -27.817  1.00  0.00    -0.507 OA
ATOM     25  H   UNL     1     -25.737  86.724 -27.891  1.00  0.00     0.293 HD
ENDBRANCH   6  24
BRANCH   8  26
ATOM     26  O   UNL     1     -22.451  90.446 -25.697  1.00  0.00    -0.508 OA
ATOM     27  H   UNL     1     -22.868  91.145 -25.093  1.00  0.00     0.293 HD
ENDBRANCH   8  26
TORSDOF 6
ENDMDL
MODEL 2
REMARK VINA RESULT:    -7.198      6.394      9.556
REMARK INTER + INTRA:          -8.412
REMARK INTER:                  -8.146
REMARK INTRA:                  -0.266
REMARK UNBOUND:                 0.259
REMARK SMILES O=c1c(O)c(-c2ccc(O)c(O)c2)oc2cc(O)cc(O)c12
REMARK SMILES IDX 5 1 3 2 2 3 1 4 22 5 20 6 19 7 17 8 16 9 15 10 14 11 6 12
REMARK SMILES IDX 7 13 8 14 9 15 13 16 11 17 10 18 12 20 4 22 21 24 18 26
REMARK H PARENT 10 19 12 21 4 23 21 25 18 27
REMARK Flexibility Score: inf
ROOT
ATOM      1  C   UNL     1     -24.993  91.957 -28.582  1.00  0.00     0.180 A 
ATOM      2  C   UNL     1     -25.568  92.756 -27.578  1.00  0.00     0.208 A 
ATOM      3  C   UNL     1     -25.521  94.153 -27.711  1.00  0.00     0.238 A 
ATOM      4  O   UNL     1     -25.971  94.863 -26.774  1.00  0.00    -0.285 OA
ATOM      5  C   UNL     1     -24.951  94.733 -28.870  1.00  0.00     0.111 A 
ATOM      6  C   UNL     1     -24.890  96.135 -29.131  1.00  0.00     0.134 A 
ATOM      7  C   UNL     1     -24.206  96.598 -30.263  1.00  0.00     0.093 A 
ATOM      8  C   UNL     1     -23.638  95.706 -31.177  1.00  0.00     0.123 A 
ATOM      9  C   UNL     1     -23.740  94.336 -30.959  1.00  0.00     0.094 A 
ATOM     10  C   UNL     1     -24.381  93.844 -29.819  1.00  0.00     0.146 A 
ATOM     11  O   UNL     1     -24.436  92.529 -29.642  1.00  0.00    -0.452 OA
ENDROOT
BRANCH   1  12
ATOM     12  C   UNL     1     -24.990  90.478 -28.505  1.00  0.00     0.025 A 
ATOM     13  C   UNL     1     -26.165  89.770 -28.801  1.00  0.00     0.016 A 
ATOM     14  C   UNL     1     -26.180  88.373 -28.756  1.00  0.00     0.051 A 
ATOM     15  C   UNL     1     -25.021  87.664 -28.431  1.00  0.00     0.157 A 
ATOM     16  C   UNL     1     -23.819  89.762 -28.198  1.00  0.00     0.062 A 
ATOM     17  C   UNL     1     -23.832  88.360 -28.154  1.00  0.00     0.158 A 
BRANCH  15  18
ATOM     18  O   UNL     1     -25.067  86.271 -28.392  1.00  0.00    -0.504 OA
ATOM     19  H   UNL     1     -24.319  85.697 -28.763  1.00  0.00     0.293 HD
ENDBRANCH  15  18
BRANCH  17  20
ATOM     20  O   UNL     1     -22.668  87.658 -27.843  1.00  0.00    -0.504 OA
ATOM     21  H   UNL     1     -21.778  87.890 -28.269  1.00  0.00     0.293 HD
ENDBRANCH  17  20
ENDBRANCH   1  12
BRANCH   2  22
ATOM     22  O   UNL     1     -26.193  92.163 -26.478  1.00  0.00    -0.502 OA
ATOM     23  H   UNL     1     -25.964  92.412 -25.523  1.00  0.00     0.293 HD
ENDBRANCH   2  22
BRANCH   6  24
ATOM     24  O   UNL     1     -25.499  97.108 -28.333  1.00  0.00    -0.507 OA
ATOM     25  H   UNL     1     -26.366  96.984 -27.832  1.00  0.00     0.293 HD
ENDBRANCH   6  24
BRANCH   8  26
ATOM     26  O   UNL     1     -22.975  96.176 -32.309  1.00  0.00    -0.508 OA
ATOM     27  H   UNL     1     -23.362  96.055 -33.237  1.00  0.00     0.293 HD
ENDBRANCH   8  26
TORSDOF 6
ENDMDL
MODEL 3
REMARK VINA RESULT:    -7.187      6.195      9.584
REMARK INTER + INTRA:          -8.399
REMARK INTER:                  -8.077
REMARK INTRA:                  -0.322
REMARK UNBOUND:                 0.259
REMARK SMILES O=c1c(O)c(-c2ccc(O)c(O)c2)oc2cc(O)cc(O)c12
REMARK SMILES IDX 5 1 3 2 2 3 1 4 22 5 20 6 19 7 17 8 16 9 15 10 14 11 6 12
REMARK SMILES IDX 7 13 8 14 9 15 13 16 11 17 10 18 12 20 4 22 21 24 18 26
REMARK H PARENT 10 19 12 21 4 23 21 25 18 27
REMARK Flexibility Score: inf
ROOT
ATOM      1  C   UNL     1     -24.161  91.518 -29.807  1.00  0.00     0.180 A 
ATOM      2  C   UNL     1     -23.531  91.793 -31.033  1.00  0.00     0.208 A 
ATOM      3  C   UNL     1     -23.390  93.130 -31.440  1.00  0.00     0.238 A 
ATOM      4  O   UNL     1     -22.894  93.366 -32.573  1.00  0.00    -0.285 OA
ATOM      5  C   UNL     1     -23.829  94.176 -30.593  1.00  0.00     0.111 A 
ATOM      6  C   UNL     1     -23.695  95.568 -30.884  1.00  0.00     0.134 A 
ATOM      7  C   UNL     1     -24.262  96.512 -30.017  1.00  0.00     0.093 A 
ATOM      8  C   UNL     1     -24.900  96.117 -28.839  1.00  0.00     0.123 A 
ATOM      9  C   UNL     1     -24.987  94.765 -28.520  1.00  0.00     0.094 A 
ATOM     10  C   UNL     1     -24.466  93.797 -29.382  1.00  0.00     0.146 A 
ATOM     11  O   UNL     1     -24.591  92.518 -29.047  1.00  0.00    -0.452 OA
ENDROOT
BRANCH   1  12
ATOM     12  C   UNL     1     -24.360  90.135 -29.317  1.00  0.00     0.025 A 
ATOM     13  C   UNL     1     -25.536  89.447 -29.654  1.00  0.00     0.016 A 
ATOM     14  C   UNL     1     -25.736  88.133 -29.221  1.00  0.00     0.051 A 
ATOM     15  C   UNL     1     -24.761  87.483 -28.460  1.00  0.00     0.157 A 
ATOM     16  C   UNL     1     -23.370  89.473 -28.569  1.00  0.00     0.062 A 
ATOM     17  C   UNL     1     -23.569  88.153 -28.134  1.00  0.00     0.158 A 
BRANCH  15  18
ATOM     18  O   UNL     1     -24.989  86.174 -28.040  1.00  0.00    -0.504 OA
ATOM     19  H   UNL     1     -25.159  85.420 -28.695  1.00  0.00     0.293 HD
ENDBRANCH  15  18
BRANCH  17  20
ATOM     20  O   UNL     1     -22.585  87.506 -27.388  1.00  0.00    -0.504 OA
ATOM     21  H   UNL     1     -22.003  86.782 -27.791  1.00  0.00     0.293 HD
ENDBRANCH  17  20
ENDBRANCH   1  12
BRANCH   2  22
ATOM     22  O   UNL     1     -23.038  90.750 -31.821  1.00  0.00    -0.502 OA
ATOM     23  H   UNL     1     -23.565  90.352 -32.589  1.00  0.00     0.293 HD
ENDBRANCH   2  22
BRANCH   6  24
ATOM     24  O   UNL     1     -23.000  96.075 -31.985  1.00  0.00    -0.507 OA
ATOM     25  H   UNL     1     -23.404  96.649 -32.709  1.00  0.00     0.293 HD
ENDBRANCH   6  24
BRANCH   8  26
ATOM     26  O   UNL     1     -25.446  97.064 -27.975  1.00  0.00    -0.508 OA
ATOM     27  H   UNL     1     -26.272  96.863 -27.422  1.00  0.00     0.293 HD
ENDBRANCH   8  26
TORSDOF 6
ENDMDL
MODEL 4
REMARK VINA RESULT:    -7.164      1.460      6.690
REMARK INTER + INTRA:          -8.371
REMARK INTER:                  -8.077
REMARK INTRA:                  -0.294
REMARK UNBOUND:                 0.259
REMARK SMILES O=c1c(O)c(-c2ccc(O)c(O)c2)oc2cc(O)cc(O)c12
REMARK SMILES IDX 5 1 3 2 2 3 1 4 22 5 20 6 19 7 17 8 16 9 15 10 14 11 6 12
REMARK SMILES IDX 7 13 8 14 9 15 13 16 11 17 10 18 12 20 4 22 21 24 18 26
REMARK H PARENT 10 19 12 21 4 23 21 25 18 27
REMARK Flexibility Score: inf
ROOT
ATOM      1  C   UNL     1     -23.519  85.216 -23.826  1.00  0.00     0.180 A 
ATOM      2  C   UNL     1     -23.519  84.089 -24.666  1.00  0.00     0.208 A 
ATOM      3  C   UNL     1     -23.065  82.862 -24.155  1.00  0.00     0.238 A 
ATOM      4  O   UNL     1     -22.997  81.874 -24.933  1.00  0.00    -0.285 OA
ATOM      5  C   UNL     1     -22.671  82.764 -22.799  1.00  0.00     0.111 A 
ATOM      6  C   UNL     1     -22.237  81.560 -22.164  1.00  0.00     0.134 A 
ATOM      7  C   UNL     1     -21.770  81.606 -20.844  1.00  0.00     0.093 A 
ATOM      8  C   UNL     1     -21.782  82.799 -20.116  1.00  0.00     0.123 A 
ATOM      9  C   UNL     1     -22.255  83.965 -20.709  1.00  0.00     0.094 A 
ATOM     10  C   UNL     1     -22.691  83.960 -22.036  1.00  0.00     0.146 A 
ATOM     11  O   UNL     1     -23.114  85.102 -22.568  1.00  0.00    -0.452 OA
ENDROOT
BRANCH   1  12
ATOM     12  C   UNL     1     -23.969  86.547 -24.296  1.00  0.00     0.025 A 
ATOM     13  C   UNL     1     -25.342  86.834 -24.341  1.00  0.00     0.016 A 
ATOM     14  C   UNL     1     -25.789  88.090 -24.760  1.00  0.00     0.051 A 
ATOM     15  C   UNL     1     -24.873  89.081 -25.125  1.00  0.00     0.157 A 
ATOM     16  C   UNL     1     -23.048  87.551 -24.644  1.00  0.00     0.062 A 
ATOM     17  C   UNL     1     -23.495  88.813 -25.064  1.00  0.00     0.158 A 
BRANCH  15  18
ATOM     18  O   UNL     1     -25.348  90.324 -25.542  1.00  0.00    -0.504 OA
ATOM     19  H   UNL     1     -25.015  91.191 -25.137  1.00  0.00     0.293 HD
ENDBRANCH  15  18
BRANCH  17  20
ATOM     20  O   UNL     1     -22.575  89.801 -25.413  1.00  0.00    -0.504 OA
ATOM     21  H   UNL     1     -21.707  89.576 -25.884  1.00  0.00     0.293 HD
ENDBRANCH  17  20
ENDBRANCH   1  12
BRANCH   2  22
ATOM     22  O   UNL     1     -23.983  84.189 -25.979  1.00  0.00    -0.502 OA
ATOM     23  H   UNL     1     -23.611  83.622 -26.732  1.00  0.00     0.293 HD
ENDBRANCH   2  22
BRANCH   6  24
ATOM     24  O   UNL     1     -22.267  80.300 -22.768  1.00  0.00    -0.507 OA
ATOM     25  H   UNL     1     -21.907  79.453 -22.356  1.00  0.00     0.293 HD
ENDBRANCH   6  24
BRANCH   8  26
ATOM     26  O   UNL     1     -21.332  82.831 -18.798  1.00  0.00    -0.508 OA
ATOM     27  H   UNL     1     -21.969  82.721 -18.017  1.00  0.00     0.293 HD
ENDBRANCH   8  26
TORSDOF 6
ENDMDL
MODEL 5
REMARK VINA RESULT:    -7.024      1.479      3.144
REMARK INTER + INTRA:          -8.202
REMARK INTER:                  -7.884
REMARK INTRA:                  -0.319
REMARK UNBOUND:                 0.259
REMARK SMILES O=c1c(O)c(-c2ccc(O)c(O)c2)oc2cc(O)cc(O)c12
REMARK SMILES IDX 5 1 3 2 2 3 1 4 22 5 20 6 19 7 17 8 16 9 15 10 14 11 6 12
REMARK SMILES IDX 7 13 8 14 9 15 13 16 11 17 10 18 12 20 4 22 21 24 18 26
REMARK H PARENT 10 19 12 21 4 23 21 25 18 27
REMARK Flexibility Score: inf
ROOT
ATOM      1  C   UNL     1     -22.789  85.269 -23.767  1.00  0.00     0.180 A 
ATOM      2  C   UNL     1     -22.006  86.428 -23.621  1.00  0.00     0.208 A 
ATOM      3  C   UNL     1     -22.351  87.577 -24.351  1.00  0.00     0.238 A 
ATOM      4  O   UNL     1     -21.603  88.586 -24.274  1.00  0.00    -0.285 OA
ATOM      5  C   UNL     1     -23.505  87.573 -25.171  1.00  0.00     0.111 A 
ATOM      6  C   UNL     1     -23.974  88.695 -25.920  1.00  0.00     0.134 A 
ATOM      7  C   UNL     1     -25.069  88.542 -26.781  1.00  0.00     0.093 A 
ATOM      8  C   UNL     1     -25.750  87.325 -26.870  1.00  0.00     0.123 A 
ATOM      9  C   UNL     1     -25.334  86.241 -26.104  1.00  0.00     0.094 A 
ATOM     10  C   UNL     1     -24.221  86.351 -25.265  1.00  0.00     0.146 A 
ATOM     11  O   UNL     1     -23.847  85.285 -24.568  1.00  0.00    -0.452 OA
ENDROOT
BRANCH   1  12
ATOM     12  C   UNL     1     -22.480  84.014 -23.043  1.00  0.00     0.025 A 
ATOM     13  C   UNL     1     -21.660  83.052 -23.653  1.00  0.00     0.016 A 
ATOM     14  C   UNL     1     -21.337  81.870 -22.981  1.00  0.00     0.051 A 
ATOM     15  C   UNL     1     -21.815  81.638 -21.687  1.00  0.00     0.157 A 
ATOM     16  C   UNL     1     -22.942  83.790 -21.735  1.00  0.00     0.062 A 
ATOM     17  C   UNL     1     -22.618  82.604 -21.057  1.00  0.00     0.158 A 
BRANCH  15  18
ATOM     18  O   UNL     1     -21.478  80.449 -21.043  1.00  0.00    -0.504 OA
ATOM     19  H   UNL     1     -22.125  79.967 -20.431  1.00  0.00     0.293 HD
ENDBRANCH  15  18
BRANCH  17  20
ATOM     20  O   UNL     1     -23.085  82.387 -19.763  1.00  0.00    -0.504 OA
ATOM     21  H   UNL     1     -23.443  81.485 -19.471  1.00  0.00     0.293 HD
ENDBRANCH  17  20
ENDBRANCH   1  12
BRANCH   2  22
ATOM     22  O   UNL     1     -20.915  86.435 -22.749  1.00  0.00    -0.502 OA
ATOM     23  H   UNL     1     -20.950  86.875 -21.837  1.00  0.00     0.293 HD
ENDBRANCH   2  22
BRANCH   6  24
ATOM     24  O   UNL     1     -23.424  89.977 -25.837  1.00  0.00    -0.507 OA
ATOM     25  H   UNL     1     -22.661  90.316 -26.402  1.00  0.00     0.293 HD
ENDBRANCH   6  24
BRANCH   8  26
ATOM     26  O   UNL     1     -26.848  87.187 -27.717  1.00  0.00    -0.508 OA
ATOM     27  H   UNL     1     -27.729  87.649 -27.522  1.00  0.00     0.293 HD
ENDBRANCH   8  26
TORSDOF 6
ENDMDL
MODEL 6
REMARK VINA RESULT:    -6.821      6.135      9.487
REMARK INTER + INTRA:          -7.957
REMARK INTER:                  -7.660
REMARK INTRA:                  -0.298
REMARK UNBOUND:                 0.259
REMARK SMILES O=c1c(O)c(-c2ccc(O)c(O)c2)oc2cc(O)cc(O)c12
REMARK SMILES IDX 5 1 3 2 2 3 1 4 22 5 20 6 19 7 17 8 16 9 15 10 14 11 6 12
REMARK SMILES IDX 7 13 8 14 9 15 13 16 11 17 10 18 12 20 4 22 21 24 18 26
REMARK H PARENT 10 19 12 21 4 23 21 25 18 27
REMARK Flexibility Score: inf
ROOT
ATOM      1  C   UNL     1     -24.197  91.394 -29.651  1.00  0.00     0.180 A 
ATOM      2  C   UNL     1     -23.603  91.674 -30.894  1.00  0.00     0.208 A 
ATOM      3  C   UNL     1     -23.474  93.013 -31.299  1.00  0.00     0.238 A 
ATOM      4  O   UNL     1     -23.011  93.253 -32.445  1.00  0.00    -0.285 OA
ATOM      5  C   UNL     1     -23.887  94.055 -30.435  1.00  0.00     0.111 A 
ATOM      6  C   UNL     1     -23.761  95.448 -30.723  1.00  0.00     0.134 A 
ATOM      7  C   UNL     1     -24.302  96.389 -29.837  1.00  0.00     0.093 A 
ATOM      8  C   UNL     1     -24.906  95.988 -28.642  1.00  0.00     0.123 A 
ATOM      9  C   UNL     1     -24.984  94.636 -28.326  1.00  0.00     0.094 A 
ATOM     10  C   UNL     1     -24.489  93.671 -29.208  1.00  0.00     0.146 A 
ATOM     11  O   UNL     1     -24.604  92.391 -28.875  1.00  0.00    -0.452 OA
ENDROOT
BRANCH   1  12
ATOM     12  C   UNL     1     -24.382  90.009 -29.161  1.00  0.00     0.025 A 
ATOM     13  C   UNL     1     -23.304  89.342 -28.557  1.00  0.00     0.016 A 
ATOM     14  C   UNL     1     -23.461  88.042 -28.068  1.00  0.00     0.051 A 
ATOM     15  C   UNL     1     -24.697  87.396 -28.161  1.00  0.00     0.157 A 
ATOM     16  C   UNL     1     -25.629  89.365 -29.236  1.00  0.00     0.062 A 
ATOM     17  C   UNL     1     -25.789  88.061 -28.745  1.00  0.00     0.158 A 
BRANCH  15  18
ATOM     18  O   UNL     1     -24.823  86.098 -27.668  1.00  0.00    -0.504 OA
ATOM     19  H   UNL     1     -25.409  85.880 -26.871  1.00  0.00     0.293 HD
ENDBRANCH  15  18
BRANCH  17  20
ATOM     20  O   UNL     1     -27.028  87.428 -28.829  1.00  0.00    -0.504 OA
ATOM     21  H   UNL     1     -27.673  87.416 -28.047  1.00  0.00     0.293 HD
ENDBRANCH  17  20
ENDBRANCH   1  12
BRANCH   2  22
ATOM     22  O   UNL     1     -23.134  90.635 -31.700  1.00  0.00    -0.502 OA
ATOM     23  H   UNL     1     -23.649  90.294 -32.503  1.00  0.00     0.293 HD
ENDBRANCH   2  22
BRANCH   6  24
ATOM     24  O   UNL     1     -23.099  95.960 -31.843  1.00  0.00    -0.507 OA
ATOM     25  H   UNL     1     -23.101  95.538 -32.758  1.00  0.00     0.293 HD
ENDBRANCH   6  24
BRANCH   8  26
ATOM     26  O   UNL     1     -25.425  96.932 -27.758  1.00  0.00    -0.508 OA
ATOM     27  H   UNL     1     -26.293  96.770 -27.261  1.00  0.00     0.293 HD
ENDBRANCH   8  26
TORSDOF 6
ENDMDL
MODEL 7
REMARK VINA RESULT:    -6.820      4.984      8.286
REMARK INTER + INTRA:          -7.957
REMARK INTER:                  -7.641
REMARK INTRA:                  -0.316
REMARK UNBOUND:                 0.259
REMARK SMILES O=c1c(O)c(-c2ccc(O)c(O)c2)oc2cc(O)cc(O)c12
REMARK SMILES IDX 5 1 3 2 2 3 1 4 22 5 20 6 19 7 17 8 16 9 15 10 14 11 6 12
REMARK SMILES IDX 7 13 8 14 9 15 13 16 11 17 10 18 12 20 4 22 21 24 18 26
REMARK H PARENT 10 19 12 21 4 23 21 25 18 27
REMARK Flexibility Score: inf
ROOT
ATOM      1  C   UNL     1     -24.116  91.316 -28.146  1.00  0.00     0.180 A 
ATOM      2  C   UNL     1     -23.647  91.106 -29.454  1.00  0.00     0.208 A 
ATOM      3  C   UNL     1     -23.632  92.185 -30.353  1.00  0.00     0.238 A 
ATOM      4  O   UNL     1     -23.282  91.972 -31.543  1.00  0.00    -0.285 OA
ATOM      5  C   UNL     1     -24.033  93.471 -29.918  1.00  0.00     0.111 A 
ATOM      6  C   UNL     1     -24.016  94.645 -30.731  1.00  0.00     0.134 A 
ATOM      7  C   UNL     1     -24.536  95.844 -30.224  1.00  0.00     0.093 A 
ATOM      8  C   UNL     1     -25.012  95.925 -28.913  1.00  0.00     0.123 A 
ATOM      9  C   UNL     1     -24.982  94.799 -28.095  1.00  0.00     0.094 A 
ATOM     10  C   UNL     1     -24.506  93.580 -28.584  1.00  0.00     0.146 A 
ATOM     11  O   UNL     1     -24.516  92.526 -27.775  1.00  0.00    -0.452 OA
ENDROOT
BRANCH   1  12
ATOM     12  C   UNL     1     -24.176  90.225 -27.146  1.00  0.00     0.025 A 
ATOM     13  C   UNL     1     -25.360  89.484 -27.005  1.00  0.00     0.016 A 
ATOM     14  C   UNL     1     -25.433  88.436 -26.083  1.00  0.00     0.051 A 
ATOM     15  C   UNL     1     -24.323  88.104 -25.301  1.00  0.00     0.157 A 
ATOM     16  C   UNL     1     -23.055  89.876 -26.373  1.00  0.00     0.062 A 
ATOM     17  C   UNL     1     -23.125  88.824 -25.448  1.00  0.00     0.158 A 
BRANCH  15  18
ATOM     18  O   UNL     1     -24.427  87.056 -24.388  1.00  0.00    -0.504 OA
ATOM     19  H   UNL     1     -24.505  87.216 -23.391  1.00  0.00     0.293 HD
ENDBRANCH  15  18
BRANCH  17  20
ATOM     20  O   UNL     1     -22.010  88.489 -24.682  1.00  0.00    -0.504 OA
ATOM     21  H   UNL     1     -21.901  88.819 -23.730  1.00  0.00     0.293 HD
ENDBRANCH  17  20
ENDBRANCH   1  12
BRANCH   2  22
ATOM     22  O   UNL     1     -23.186  89.845 -29.842  1.00  0.00    -0.502 OA
ATOM     23  H   UNL     1     -23.329  89.477 -30.775  1.00  0.00     0.293 HD
ENDBRANCH   2  22
BRANCH   6  24
ATOM     24  O   UNL     1     -23.481  94.698 -32.021  1.00  0.00    -0.507 OA
ATOM     25  H   UNL     1     -23.827  94.175 -32.811  1.00  0.00     0.293 HD
ENDBRANCH   6  24
BRANCH   8  26
ATOM     26  O   UNL     1     -25.511  97.125 -28.412  1.00  0.00    -0.508 OA
ATOM     27  H   UNL     1     -26.019  97.163 -27.536  1.00  0.00     0.293 HD
ENDBRANCH   8  26
TORSDOF 6
ENDMDL
MODEL 8
REMARK VINA RESULT:    -6.814      1.296      1.854
REMARK INTER + INTRA:          -7.950
REMARK INTER:                  -7.739
REMARK INTRA:                  -0.211
REMARK UNBOUND:                 0.259
REMARK SMILES O=c1c(O)c(-c2ccc(O)c(O)c2)oc2cc(O)cc(O)c12
REMARK SMILES IDX 5 1 3 2 2 3 1 4 22 5 20 6 19 7 17 8 16 9 15 10 14 11 6 12
REMARK SMILES IDX 7 13 8 14 9 15 13 16 11 17 10 18 12 20 4 22 21 24 18 26
REMARK H PARENT 10 19 12 21 4 23 21 25 18 27
REMARK Flexibility Score: inf
ROOT
ATOM      1  C   UNL     1     -23.584  85.063 -23.335  1.00  0.00     0.180 A 
ATOM      2  C   UNL     1     -24.918  84.931 -23.757  1.00  0.00     0.208 A 
ATOM      3  C   UNL     1     -25.494  85.960 -24.520  1.00  0.00     0.238 A 
ATOM      4  O   UNL     1     -26.710  85.870 -24.832  1.00  0.00    -0.285 OA
ATOM      5  C   UNL     1     -24.714  87.079 -24.898  1.00  0.00     0.111 A 
ATOM      6  C   UNL     1     -25.182  88.159 -25.708  1.00  0.00     0.134 A 
ATOM      7  C   UNL     1     -24.352  89.266 -25.929  1.00  0.00     0.093 A 
ATOM      8  C   UNL     1     -23.049  89.302 -25.424  1.00  0.00     0.123 A 
ATOM      9  C   UNL     1     -22.566  88.230 -24.680  1.00  0.00     0.094 A 
ATOM     10  C   UNL     1     -23.383  87.129 -24.409  1.00  0.00     0.146 A 
ATOM     11  O   UNL     1     -22.887  86.139 -23.677  1.00  0.00    -0.452 OA
ENDROOT
BRANCH   1  12
ATOM     12  C   UNL     1     -22.912  84.028 -22.515  1.00  0.00     0.025 A 
ATOM     13  C   UNL     1     -22.571  82.799 -23.101  1.00  0.00     0.016 A 
ATOM     14  C   UNL     1     -21.917  81.816 -22.354  1.00  0.00     0.051 A 
ATOM     15  C   UNL     1     -21.582  82.050 -21.017  1.00  0.00     0.157 A 
ATOM     16  C   UNL     1     -22.556  84.270 -21.177  1.00  0.00     0.062 A 
ATOM     17  C   UNL     1     -21.899  83.284 -20.425  1.00  0.00     0.158 A 
BRANCH  15  18
ATOM     18  O   UNL     1     -20.933  81.049 -20.296  1.00  0.00    -0.504 OA
ATOM     19  H   UNL     1     -21.174  80.070 -20.395  1.00  0.00     0.293 HD
ENDBRANCH  15  18
BRANCH  17  20
ATOM     20  O   UNL     1     -21.555  83.530 -19.097  1.00  0.00    -0.504 OA
ATOM     21  H   UNL     1     -21.533  84.470 -18.719  1.00  0.00     0.293 HD
ENDBRANCH  17  20
ENDBRANCH   1  12
BRANCH   2  22
ATOM     22  O   UNL     1     -25.648  83.784 -23.437  1.00  0.00    -0.502 OA
ATOM     23  H   UNL     1     -26.611  83.654 -23.724  1.00  0.00     0.293 HD
ENDBRANCH   2  22
BRANCH   6  24
ATOM     24  O   UNL     1     -26.431  88.185 -26.335  1.00  0.00    -0.507 OA
ATOM     25  H   UNL     1     -26.730  88.883 -26.998  1.00  0.00     0.293 HD
ENDBRANCH   6  24
BRANCH   8  26
ATOM     26  O   UNL     1     -22.226  90.400 -25.664  1.00  0.00    -0.508 OA
ATOM     27  H   UNL     1     -22.527  91.172 -26.247  1.00  0.00     0.293 HD
ENDBRANCH   8  26
TORSDOF 6
ENDMDL
MODEL 9
REMARK VINA RESULT:    -6.620      1.939      7.524
REMARK INTER + INTRA:          -7.715
REMARK INTER:                  -7.389
REMARK INTRA:                  -0.326
REMARK UNBOUND:                 0.259
REMARK SMILES O=c1c(O)c(-c2ccc(O)c(O)c2)oc2cc(O)cc(O)c12
REMARK SMILES IDX 5 1 3 2 2 3 1 4 22 5 20 6 19 7 17 8 16 9 15 10 14 11 6 12
REMARK SMILES IDX 7 13 8 14 9 15 13 16 11 17 10 18 12 20 4 22 21 24 18 26
REMARK H PARENT 10 19 12 21 4 23 21 25 18 27
REMARK Flexibility Score: inf
ROOT
ATOM      1  C   UNL     1     -23.336  86.984 -25.122  1.00  0.00     0.180 A 
ATOM      2  C   UNL     1     -22.228  87.201 -24.286  1.00  0.00     0.208 A 
ATOM      3  C   UNL     1     -21.937  86.259 -23.285  1.00  0.00     0.238 A 
ATOM      4  O   UNL     1     -20.989  86.497 -22.492  1.00  0.00    -0.285 OA
ATOM      5  C   UNL     1     -22.722  85.087 -23.169  1.00  0.00     0.111 A 
ATOM      6  C   UNL     1     -22.491  84.045 -22.221  1.00  0.00     0.134 A 
ATOM      7  C   UNL     1     -23.398  82.981 -22.129  1.00  0.00     0.093 A 
ATOM      8  C   UNL     1     -24.491  82.890 -22.994  1.00  0.00     0.123 A 
ATOM      9  C   UNL     1     -24.695  83.873 -23.957  1.00  0.00     0.094 A 
ATOM     10  C   UNL     1     -23.830  84.966 -24.048  1.00  0.00     0.146 A 
ATOM     11  O   UNL     1     -24.074  85.892 -24.969  1.00  0.00    -0.452 OA
ENDROOT
BRANCH   1  12
ATOM     12  C   UNL     1     -23.715  87.938 -26.190  1.00  0.00     0.025 A 
ATOM     13  C   UNL     1     -23.318  87.686 -27.512  1.00  0.00     0.016 A 
ATOM     14  C   UNL     1     -23.683  88.560 -28.540  1.00  0.00     0.051 A 
ATOM     15  C   UNL     1     -24.460  89.689 -28.265  1.00  0.00     0.157 A 
ATOM     16  C   UNL     1     -24.514  89.063 -25.918  1.00  0.00     0.062 A 
ATOM     17  C   UNL     1     -24.882  89.942 -26.948  1.00  0.00     0.158 A 
BRANCH  15  18
ATOM     18  O   UNL     1     -24.805  90.546 -29.309  1.00  0.00    -0.504 OA
ATOM     19  H   UNL     1     -25.558  91.218 -29.227  1.00  0.00     0.293 HD
ENDBRANCH  15  18
BRANCH  17  20
ATOM     20  O   UNL     1     -25.668  91.058 -26.669  1.00  0.00    -0.504 OA
ATOM     21  H   UNL     1     -25.330  91.814 -26.086  1.00  0.00     0.293 HD
ENDBRANCH  17  20
ENDBRANCH   1  12
BRANCH   2  22
ATOM     22  O   UNL     1     -21.420  88.327 -24.465  1.00  0.00    -0.502 OA
ATOM     23  H   UNL     1     -20.625  88.332 -25.092  1.00  0.00     0.293 HD
ENDBRANCH   2  22
BRANCH   6  24
ATOM     24  O   UNL     1     -21.382  83.990 -21.371  1.00  0.00    -0.507 OA
ATOM     25  H   UNL     1     -20.853  83.157 -21.164  1.00  0.00     0.293 HD
ENDBRANCH   6  24
BRANCH   8  26
ATOM     26  O   UNL     1     -25.379  81.820 -22.906  1.00  0.00    -0.508 OA
ATOM     27  H   UNL     1     -26.170  81.837 -22.272  1.00  0.00     0.293 HD
ENDBRANCH   8  26
TORSDOF 6
ENDMDL
