MODEL 1
REMARK VINA RESULT:    -4.137      0.000      0.000
REMARK INTER + INTRA:         -14.217
REMARK INTER:                 -10.424
REMARK INTRA:                  -3.793
REMARK UNBOUND:                -3.793
REMARK SMILES CCCCCCCCCCCCCCCCCCCCCCCCCCCC(=O)[O-]
REMARK SMILES IDX 15 1 16 2 17 3 18 4 19 5 20 6 21 7 22 8 23 9 24 10 25 11
REMARK SMILES IDX 26 12 27 13 28 14 29 15 30 16 14 17 13 18 12 19 11 20 10 21
REMARK SMILES IDX 9 22 8 23 7 24 6 25 5 26 4 27 3 28 2 29 1 30
REMARK H PARENT
REMARK Flexibility Score: inf
ROOT
ATOM      1  C   UNL     1     184.990 187.459 198.416  1.00  0.00     0.000 C 
ENDROOT
BRANCH   1   2
ATOM      2  C   UNL     1     185.031 188.843 197.752  1.00  0.00     0.000 C 
BRANCH   2   3
ATOM      3  C   UNL     1     183.721 189.128 197.002  1.00  0.00     0.000 C 
BRANCH   3   4
ATOM      4  C   UNL     1     183.123 190.505 197.343  1.00  0.00     0.000 C 
BRANCH   4   5
ATOM      5  C   UNL     1     183.615 191.115 198.672  1.00  0.00     0.000 C 
BRANCH   5   6
ATOM      6  C   UNL     1     182.588 191.084 199.822  1.00  0.00     0.000 C 
BRANCH   6   7
ATOM      7  C   UNL     1     181.153 190.699 199.411  1.00  0.00     0.000 C 
BRANCH   7   8
ATOM      8  C   UNL     1     180.719 189.273 199.801  1.00  0.00     0.000 C 
BRANCH   8   9
ATOM      9  C   UNL     1     181.880 188.416 200.330  1.00  0.00     0.000 C 
BRANCH   9  10
ATOM     10  C   UNL     1     181.598 186.906 200.240  1.00  0.00     0.000 C 
BRANCH  10  11
ATOM     11  C   UNL     1     182.632 186.033 200.983  1.00  0.00     0.000 C 
BRANCH  11  12
ATOM     12  C   UNL     1     182.966 184.745 200.210  1.00  0.00     0.006 C 
BRANCH  12  13
ATOM     13  C   UNL     1     183.957 183.852 200.970  1.00  0.00     0.053 C 
BRANCH  13  14
ATOM     14  C   UNL     1     185.275 183.758 200.263  1.00  0.00     0.041 C 
ATOM     15  O   UNL     1     185.320 183.417 199.051  1.00  0.00    -0.550 OA
ATOM     16  O   UNL     1     186.455 184.021 200.948  1.00  0.00    -0.550 OA
ENDBRANCH  13  14
ENDBRANCH  12  13
ENDBRANCH  11  12
ENDBRANCH  10  11
ENDBRANCH   9  10
ENDBRANCH   8   9
ENDBRANCH   7   8
ENDBRANCH   6   7
ENDBRANCH   5   6
ENDBRANCH   4   5
ENDBRANCH   3   4
ENDBRANCH   2   3
ENDBRANCH   1   2
BRANCH   1  17
ATOM     17  C   UNL     1     185.802 187.397 199.720  1.00  0.00     0.000 C 
BRANCH  17  18
ATOM     18  C   UNL     1     185.641 188.664 200.579  1.00  0.00     0.000 C 
BRANCH  18  19
ATOM     19  C   UNL     1     186.988 189.296 200.971  1.00  0.00     0.000 C 
BRANCH  19  20
ATOM     20  C   UNL     1     188.102 189.185 199.910  1.00  0.00     0.000 C 
BRANCH  20  21
ATOM     21  C   UNL     1     189.296 188.296 200.304  1.00  0.00     0.000 C 
BRANCH  21  22
ATOM     22  C   UNL     1     190.580 189.100 200.559  1.00  0.00    -0.000 C 
BRANCH  22  23
ATOM     23  C   UNL     1     191.479 189.106 199.314  1.00  0.00    -0.000 C 
BRANCH  23  24
ATOM     24  C   UNL     1     191.960 190.516 198.929  1.00  0.00    -0.000 C 
BRANCH  24  25
ATOM     25  C   UNL     1     192.526 191.355 200.093  1.00  0.00    -0.000 C 
BRANCH  25  26
ATOM     26  C   UNL     1     193.937 190.955 200.562  1.00  0.00    -0.000 C 
BRANCH  26  27
ATOM     27  C   UNL     1     194.906 190.545 199.437  1.00  0.00    -0.000 C 
BRANCH  27  28
ATOM     28  C   UNL     1     195.621 189.201 199.690  1.00  0.00    -0.000 C 
BRANCH  28  29
ATOM     29  C   UNL     1     195.132 188.087 198.753  1.00  0.00    -0.003 C 
ATOM     30  C   UNL     1     195.315 188.478 197.289  1.00  0.00     0.004 C 
ENDBRANCH  28  29
ENDBRANCH  27  28
ENDBRANCH  26  27
ENDBRANCH  25  26
ENDBRANCH  24  25
ENDBRANCH  23  24
ENDBRANCH  22  23
ENDBRANCH  21  22
ENDBRANCH  20  21
ENDBRANCH  19  20
ENDBRANCH  18  19
ENDBRANCH  17  18
ENDBRANCH   1  17
TORSDOF 26
ENDMDL
MODEL 2
REMARK VINA RESULT:    -4.007      2.666      6.577
REMARK INTER + INTRA:         -13.890
REMARK INTER:                 -10.223
REMARK INTRA:                  -3.667
REMARK UNBOUND:                -3.793
REMARK SMILES CCCCCCCCCCCCCCCCCCCCCCCCCCCC(=O)[O-]
REMARK SMILES IDX 15 1 16 2 17 3 18 4 19 5 20 6 21 7 22 8 23 9 24 10 25 11
REMARK SMILES IDX 26 12 27 13 28 14 29 15 30 16 14 17 13 18 12 19 11 20 10 21
REMARK SMILES IDX 9 22 8 23 7 24 6 25 5 26 4 27 3 28 2 29 1 30
REMARK H PARENT
REMARK Flexibility Score: inf
ROOT
ATOM      1  C   UNL     1     191.961 189.630 198.000  1.00  0.00     0.000 C 
ENDROOT
BRANCH   1   2
ATOM      2  C   UNL     1     190.919 189.748 199.122  1.00  0.00     0.000 C 
BRANCH   2   3
ATOM      3  C   UNL     1     191.532 189.372 200.479  1.00  0.00     0.000 C 
BRANCH   3   4
ATOM      4  C   UNL     1     190.497 188.803 201.466  1.00  0.00     0.000 C 
BRANCH   4   5
ATOM      5  C   UNL     1     189.301 189.732 201.759  1.00  0.00     0.000 C 
BRANCH   5   6
ATOM      6  C   UNL     1     187.919 189.142 201.416  1.00  0.00     0.000 C 
BRANCH   6   7
ATOM      7  C   UNL     1     187.937 187.952 200.435  1.00  0.00     0.000 C 
BRANCH   7   8
ATOM      8  C   UNL     1     186.864 187.994 199.331  1.00  0.00     0.000 C 
BRANCH   8   9
ATOM      9  C   UNL     1     187.113 189.101 198.295  1.00  0.00     0.000 C 
BRANCH   9  10
ATOM     10  C   UNL     1     186.113 190.265 198.412  1.00  0.00     0.000 C 
BRANCH  10  11
ATOM     11  C   UNL     1     184.744 189.978 197.759  1.00  0.00     0.000 C 
BRANCH  11  12
ATOM     12  C   UNL     1     183.571 190.310 198.699  1.00  0.00     0.006 C 
BRANCH  12  13
ATOM     13  C   UNL     1     182.765 189.063 199.085  1.00  0.00     0.053 C 
BRANCH  13  14
ATOM     14  C   UNL     1     182.986 188.680 200.517  1.00  0.00     0.041 C 
ATOM     15  O   UNL     1     182.743 187.506 200.903  1.00  0.00    -0.550 OA
ATOM     16  O   UNL     1     183.437 189.625 201.431  1.00  0.00    -0.550 OA
ENDBRANCH  13  14
ENDBRANCH  12  13
ENDBRANCH  11  12
ENDBRANCH  10  11
ENDBRANCH   9  10
ENDBRANCH   8   9
ENDBRANCH   7   8
ENDBRANCH   6   7
ENDBRANCH   5   6
ENDBRANCH   4   5
ENDBRANCH   3   4
ENDBRANCH   2   3
ENDBRANCH   1   2
BRANCH   1  17
ATOM     17  C   UNL     1     193.224 188.870 198.436  1.00  0.00     0.000 C 
BRANCH  17  18
ATOM     18  C   UNL     1     194.497 189.391 197.747  1.00  0.00     0.000 C 
BRANCH  18  19
ATOM     19  C   UNL     1     195.782 189.039 198.518  1.00  0.00     0.000 C 
BRANCH  19  20
ATOM     20  C   UNL     1     195.597 188.797 200.030  1.00  0.00     0.000 C 
BRANCH  20  21
ATOM     21  C   UNL     1     196.109 189.927 200.942  1.00  0.00     0.000 C 
BRANCH  21  22
ATOM     22  C   UNL     1     197.207 190.775 200.282  1.00  0.00    -0.000 C 
BRANCH  22  23
ATOM     23  C   UNL     1     198.384 190.992 201.244  1.00  0.00    -0.000 C 
BRANCH  23  24
ATOM     24  C   UNL     1     198.648 192.479 201.541  1.00  0.00    -0.000 C 
BRANCH  24  25
ATOM     25  C   UNL     1     197.402 193.298 201.937  1.00  0.00    -0.000 C 
BRANCH  25  26
ATOM     26  C   UNL     1     197.016 194.419 200.953  1.00  0.00    -0.000 C 
BRANCH  26  27
ATOM     27  C   UNL     1     195.703 194.186 200.183  1.00  0.00    -0.000 C 
BRANCH  27  28
ATOM     28  C   UNL     1     194.619 193.458 201.006  1.00  0.00    -0.000 C 
BRANCH  28  29
ATOM     29  C   UNL     1     193.741 192.539 200.144  1.00  0.00    -0.003 C 
ATOM     30  C   UNL     1     193.948 192.816 198.657  1.00  0.00     0.004 C 
ENDBRANCH  28  29
ENDBRANCH  27  28
ENDBRANCH  26  27
ENDBRANCH  25  26
ENDBRANCH  24  25
ENDBRANCH  23  24
ENDBRANCH  22  23
ENDBRANCH  21  22
ENDBRANCH  20  21
ENDBRANCH  19  20
ENDBRANCH  18  19
ENDBRANCH  17  18
ENDBRANCH   1  17
TORSDOF 26
ENDMDL
MODEL 3
REMARK VINA RESULT:    -3.990      1.588      3.060
REMARK INTER + INTRA:         -13.848
REMARK INTER:                 -10.486
REMARK INTRA:                  -3.362
REMARK UNBOUND:                -3.793
REMARK SMILES CCCCCCCCCCCCCCCCCCCCCCCCCCCC(=O)[O-]
REMARK SMILES IDX 15 1 16 2 17 3 18 4 19 5 20 6 21 7 22 8 23 9 24 10 25 11
REMARK SMILES IDX 26 12 27 13 28 14 29 15 30 16 14 17 13 18 12 19 11 20 10 21
REMARK SMILES IDX 9 22 8 23 7 24 6 25 5 26 4 27 3 28 2 29 1 30
REMARK H PARENT
REMARK Flexibility Score: inf
ROOT
ATOM      1  C   UNL     1     183.383 191.076 197.960  1.00  0.00     0.000 C 
ENDROOT
BRANCH   1   2
ATOM      2  C   UNL     1     182.792 192.326 198.629  1.00  0.00     0.000 C 
BRANCH   2   3
ATOM      3  C   UNL     1     181.758 191.938 199.696  1.00  0.00     0.000 C 
BRANCH   3   4
ATOM      4  C   UNL     1     180.760 190.875 199.205  1.00  0.00     0.000 C 
BRANCH   4   5
ATOM      5  C   UNL     1     180.636 189.633 200.110  1.00  0.00     0.000 C 
BRANCH   5   6
ATOM      6  C   UNL     1     181.886 189.315 200.954  1.00  0.00     0.000 C 
BRANCH   6   7
ATOM      7  C   UNL     1     182.540 187.948 200.670  1.00  0.00     0.000 C 
BRANCH   7   8
ATOM      8  C   UNL     1     182.522 187.505 199.195  1.00  0.00     0.000 C 
BRANCH   8   9
ATOM      9  C   UNL     1     183.592 186.450 198.872  1.00  0.00     0.000 C 
BRANCH   9  10
ATOM     10  C   UNL     1     183.826 185.463 200.029  1.00  0.00     0.000 C 
BRANCH  10  11
ATOM     11  C   UNL     1     185.272 184.928 200.108  1.00  0.00     0.000 C 
BRANCH  11  12
ATOM     12  C   UNL     1     185.343 183.409 199.869  1.00  0.00     0.006 C 
BRANCH  12  13
ATOM     13  C   UNL     1     183.954 182.786 199.681  1.00  0.00     0.053 C 
BRANCH  13  14
ATOM     14  C   UNL     1     183.613 181.843 200.794  1.00  0.00     0.041 C 
ATOM     15  O   UNL     1     182.669 181.020 200.660  1.00  0.00    -0.550 OA
ATOM     16  O   UNL     1     184.319 181.890 201.991  1.00  0.00    -0.550 OA
ENDBRANCH  13  14
ENDBRANCH  12  13
ENDBRANCH  11  12
ENDBRANCH  10  11
ENDBRANCH   9  10
ENDBRANCH   8   9
ENDBRANCH   7   8
ENDBRANCH   6   7
ENDBRANCH   5   6
ENDBRANCH   4   5
ENDBRANCH   3   4
ENDBRANCH   2   3
ENDBRANCH   1   2
BRANCH   1  17
ATOM     17  C   UNL     1     184.574 190.491 198.735  1.00  0.00     0.000 C 
BRANCH  17  18
ATOM     18  C   UNL     1     185.492 189.629 197.850  1.00  0.00     0.000 C 
BRANCH  18  19
ATOM     19  C   UNL     1     186.465 188.758 198.666  1.00  0.00     0.000 C 
BRANCH  19  20
ATOM     20  C   UNL     1     186.157 188.663 200.175  1.00  0.00     0.000 C 
BRANCH  20  21
ATOM     21  C   UNL     1     187.383 188.451 201.081  1.00  0.00     0.000 C 
BRANCH  21  22
ATOM     22  C   UNL     1     187.942 189.766 201.645  1.00  0.00    -0.000 C 
BRANCH  22  23
ATOM     23  C   UNL     1     189.413 189.951 201.246  1.00  0.00    -0.000 C 
BRANCH  23  24
ATOM     24  C   UNL     1     189.851 189.006 200.114  1.00  0.00    -0.000 C 
BRANCH  24  25
ATOM     25  C   UNL     1     191.341 189.094 199.726  1.00  0.00    -0.000 C 
BRANCH  25  26
ATOM     26  C   UNL     1     191.786 190.447 199.140  1.00  0.00    -0.000 C 
BRANCH  26  27
ATOM     27  C   UNL     1     192.825 190.356 198.007  1.00  0.00    -0.000 C 
BRANCH  27  28
ATOM     28  C   UNL     1     193.992 191.357 198.149  1.00  0.00    -0.000 C 
BRANCH  28  29
ATOM     29  C   UNL     1     195.166 190.783 198.954  1.00  0.00    -0.003 C 
ATOM     30  C   UNL     1     195.546 191.706 200.109  1.00  0.00     0.004 C 
ENDBRANCH  28  29
ENDBRANCH  27  28
ENDBRANCH  26  27
ENDBRANCH  25  26
ENDBRANCH  24  25
ENDBRANCH  23  24
ENDBRANCH  22  23
ENDBRANCH  21  22
ENDBRANCH  20  21
ENDBRANCH  19  20
ENDBRANCH  18  19
ENDBRANCH  17  18
ENDBRANCH   1  17
TORSDOF 26
ENDMDL
MODEL 4
REMARK VINA RESULT:    -3.955      2.096      5.968
REMARK INTER + INTRA:         -13.761
REMARK INTER:                 -10.632
REMARK INTRA:                  -3.128
REMARK UNBOUND:                -3.793
REMARK SMILES CCCCCCCCCCCCCCCCCCCCCCCCCCCC(=O)[O-]
REMARK SMILES IDX 15 1 16 2 17 3 18 4 19 5 20 6 21 7 22 8 23 9 24 10 25 11
REMARK SMILES IDX 26 12 27 13 28 14 29 15 30 16 14 17 13 18 12 19 11 20 10 21
REMARK SMILES IDX 9 22 8 23 7 24 6 25 5 26 4 27 3 28 2 29 1 30
REMARK H PARENT
REMARK Flexibility Score: inf
ROOT
ATOM      1  C   UNL     1     191.886 189.537 198.337  1.00  0.00     0.000 C 
ENDROOT
BRANCH   1   2
ATOM      2  C   UNL     1     191.292 189.365 199.743  1.00  0.00     0.000 C 
BRANCH   2   3
ATOM      3  C   UNL     1     190.788 190.708 200.291  1.00  0.00     0.000 C 
BRANCH   3   4
ATOM      4  C   UNL     1     189.697 190.546 201.364  1.00  0.00     0.000 C 
BRANCH   4   5
ATOM      5  C   UNL     1     189.293 189.088 201.664  1.00  0.00     0.000 C 
BRANCH   5   6
ATOM      6  C   UNL     1     187.869 188.701 201.218  1.00  0.00     0.000 C 
BRANCH   6   7
ATOM      7  C   UNL     1     187.775 188.021 199.837  1.00  0.00     0.000 C 
BRANCH   7   8
ATOM      8  C   UNL     1     187.640 188.981 198.640  1.00  0.00     0.000 C 
BRANCH   8   9
ATOM      9  C   UNL     1     186.184 189.173 198.186  1.00  0.00     0.000 C 
BRANCH   9  10
ATOM     10  C   UNL     1     185.469 187.841 197.895  1.00  0.00     0.000 C 
BRANCH  10  11
ATOM     11  C   UNL     1     184.006 187.799 198.388  1.00  0.00     0.000 C 
BRANCH  11  12
ATOM     12  C   UNL     1     183.661 186.461 199.065  1.00  0.00     0.006 C 
BRANCH  12  13
ATOM     13  C   UNL     1     184.861 185.857 199.804  1.00  0.00     0.053 C 
BRANCH  13  14
ATOM     14  C   UNL     1     185.003 184.391 199.529  1.00  0.00     0.041 C 
ATOM     15  O   UNL     1     185.786 183.689 200.223  1.00  0.00    -0.550 OA
ATOM     16  O   UNL     1     184.291 183.802 198.491  1.00  0.00    -0.550 OA
ENDBRANCH  13  14
ENDBRANCH  12  13
ENDBRANCH  11  12
ENDBRANCH  10  11
ENDBRANCH   9  10
ENDBRANCH   8   9
ENDBRANCH   7   8
ENDBRANCH   6   7
ENDBRANCH   5   6
ENDBRANCH   4   5
ENDBRANCH   3   4
ENDBRANCH   2   3
ENDBRANCH   1   2
BRANCH   1  17
ATOM     17  C   UNL     1     192.724 190.817 198.194  1.00  0.00     0.000 C 
BRANCH  17  18
ATOM     18  C   UNL     1     194.140 190.666 198.776  1.00  0.00     0.000 C 
BRANCH  18  19
ATOM     19  C   UNL     1     194.800 192.018 199.103  1.00  0.00     0.000 C 
BRANCH  19  20
ATOM     20  C   UNL     1     194.911 192.351 200.606  1.00  0.00     0.000 C 
BRANCH  20  21
ATOM     21  C   UNL     1     196.015 193.359 200.974  1.00  0.00     0.000 C 
BRANCH  21  22
ATOM     22  C   UNL     1     197.109 192.748 201.862  1.00  0.00    -0.000 C 
BRANCH  22  23
ATOM     23  C   UNL     1     198.471 192.777 201.154  1.00  0.00    -0.000 C 
BRANCH  23  24
ATOM     24  C   UNL     1     199.012 191.372 200.840  1.00  0.00    -0.000 C 
BRANCH  24  25
ATOM     25  C   UNL     1     198.232 190.596 199.758  1.00  0.00    -0.000 C 
BRANCH  25  26
ATOM     26  C   UNL     1     198.102 189.081 200.005  1.00  0.00    -0.000 C 
BRANCH  26  27
ATOM     27  C   UNL     1     196.662 188.575 200.208  1.00  0.00    -0.000 C 
BRANCH  27  28
ATOM     28  C   UNL     1     196.437 187.125 199.730  1.00  0.00    -0.000 C 
BRANCH  28  29
ATOM     29  C   UNL     1     195.461 187.038 198.548  1.00  0.00    -0.003 C 
ATOM     30  C   UNL     1     195.961 187.855 197.360  1.00  0.00     0.004 C 
ENDBRANCH  28  29
ENDBRANCH  27  28
ENDBRANCH  26  27
ENDBRANCH  25  26
ENDBRANCH  24  25
ENDBRANCH  23  24
ENDBRANCH  22  23
ENDBRANCH  21  22
ENDBRANCH  20  21
ENDBRANCH  19  20
ENDBRANCH  18  19
ENDBRANCH  17  18
ENDBRANCH   1  17
TORSDOF 26
ENDMDL
MODEL 5
REMARK VINA RESULT:    -3.890      5.947      9.152
REMARK INTER + INTRA:         -13.597
REMARK INTER:                 -11.648
REMARK INTRA:                  -1.949
REMARK UNBOUND:                -3.793
REMARK SMILES CCCCCCCCCCCCCCCCCCCCCCCCCCCC(=O)[O-]
REMARK SMILES IDX 15 1 16 2 17 3 18 4 19 5 20 6 21 7 22 8 23 9 24 10 25 11
REMARK SMILES IDX 26 12 27 13 28 14 29 15 30 16 14 17 13 18 12 19 11 20 10 21
REMARK SMILES IDX 9 22 8 23 7 24 6 25 5 26 4 27 3 28 2 29 1 30
REMARK H PARENT
REMARK Flexibility Score: inf
ROOT
ATOM      1  C   UNL     1     182.285 192.402 197.034  1.00  0.00     0.000 C 
ENDROOT
BRANCH   1   2
ATOM      2  C   UNL     1     182.635 192.353 198.529  1.00  0.00     0.000 C 
BRANCH   2   3
ATOM      3  C   UNL     1     183.025 190.929 198.953  1.00  0.00     0.000 C 
BRANCH   3   4
ATOM      4  C   UNL     1     182.758 189.883 197.855  1.00  0.00     0.000 C 
BRANCH   4   5
ATOM      5  C   UNL     1     182.195 188.540 198.361  1.00  0.00     0.000 C 
BRANCH   5   6
ATOM      6  C   UNL     1     180.822 188.630 199.056  1.00  0.00     0.000 C 
BRANCH   6   7
ATOM      7  C   UNL     1     180.682 187.793 200.344  1.00  0.00     0.000 C 
BRANCH   7   8
ATOM      8  C   UNL     1     181.988 187.158 200.860  1.00  0.00     0.000 C 
BRANCH   8   9
ATOM      9  C   UNL     1     181.994 185.626 200.752  1.00  0.00     0.000 C 
BRANCH   9  10
ATOM     10  C   UNL     1     183.397 185.051 200.490  1.00  0.00     0.000 C 
BRANCH  10  11
ATOM     11  C   UNL     1     184.154 185.753 199.343  1.00  0.00     0.000 C 
BRANCH  11  12
ATOM     12  C   UNL     1     185.507 186.325 199.805  1.00  0.00     0.006 C 
BRANCH  12  13
ATOM     13  C   UNL     1     185.604 187.839 199.582  1.00  0.00     0.053 C 
BRANCH  13  14
ATOM     14  C   UNL     1     186.103 188.169 198.208  1.00  0.00     0.041 C 
ATOM     15  O   UNL     1     186.632 189.288 197.978  1.00  0.00    -0.550 OA
ATOM     16  O   UNL     1     185.961 187.250 197.175  1.00  0.00    -0.550 OA
ENDBRANCH  13  14
ENDBRANCH  12  13
ENDBRANCH  11  12
ENDBRANCH  10  11
ENDBRANCH   9  10
ENDBRANCH   8   9
ENDBRANCH   7   8
ENDBRANCH   6   7
ENDBRANCH   5   6
ENDBRANCH   4   5
ENDBRANCH   3   4
ENDBRANCH   2   3
ENDBRANCH   1   2
BRANCH   1  17
ATOM     17  C   UNL     1     180.887 192.982 196.767  1.00  0.00     0.000 C 
BRANCH  17  18
ATOM     18  C   UNL     1     180.929 194.257 195.906  1.00  0.00     0.000 C 
BRANCH  18  19
ATOM     19  C   UNL     1     179.527 194.801 195.575  1.00  0.00     0.000 C 
BRANCH  19  20
ATOM     20  C   UNL     1     179.462 195.762 194.369  1.00  0.00     0.000 C 
BRANCH  20  21
ATOM     21  C   UNL     1     180.722 196.618 194.145  1.00  0.00     0.000 C 
BRANCH  21  22
ATOM     22  C   UNL     1     181.129 196.705 192.666  1.00  0.00    -0.000 C 
BRANCH  22  23
ATOM     23  C   UNL     1     182.648 196.877 192.525  1.00  0.00    -0.000 C 
BRANCH  23  24
ATOM     24  C   UNL     1     183.218 196.169 191.283  1.00  0.00    -0.000 C 
BRANCH  24  25
ATOM     25  C   UNL     1     184.643 196.599 190.880  1.00  0.00    -0.000 C 
BRANCH  25  26
ATOM     26  C   UNL     1     185.148 196.022 189.545  1.00  0.00    -0.000 C 
BRANCH  26  27
ATOM     27  C   UNL     1     186.678 195.876 189.435  1.00  0.00    -0.000 C 
BRANCH  27  28
ATOM     28  C   UNL     1     187.209 194.509 189.915  1.00  0.00    -0.000 C 
BRANCH  28  29
ATOM     29  C   UNL     1     188.265 193.921 188.968  1.00  0.00    -0.003 C 
ATOM     30  C   UNL     1     188.827 194.991 188.037  1.00  0.00     0.004 C 
ENDBRANCH  28  29
ENDBRANCH  27  28
ENDBRANCH  26  27
ENDBRANCH  25  26
ENDBRANCH  24  25
ENDBRANCH  23  24
ENDBRANCH  22  23
ENDBRANCH  21  22
ENDBRANCH  20  21
ENDBRANCH  19  20
ENDBRANCH  18  19
ENDBRANCH  17  18
ENDBRANCH   1  17
TORSDOF 26
ENDMDL
MODEL 6
REMARK VINA RESULT:    -3.866      5.268      9.496
REMARK INTER + INTRA:         -13.536
REMARK INTER:                 -11.186
REMARK INTRA:                  -2.351
REMARK UNBOUND:                -3.793
REMARK SMILES CCCCCCCCCCCCCCCCCCCCCCCCCCCC(=O)[O-]
REMARK SMILES IDX 15 1 16 2 17 3 18 4 19 5 20 6 21 7 22 8 23 9 24 10 25 11
REMARK SMILES IDX 26 12 27 13 28 14 29 15 30 16 14 17 13 18 12 19 11 20 10 21
REMARK SMILES IDX 9 22 8 23 7 24 6 25 5 26 4 27 3 28 2 29 1 30
REMARK H PARENT
REMARK Flexibility Score: inf
ROOT
ATOM      1  C   UNL     1     181.893 193.465 199.888  1.00  0.00     0.000 C 
ENDROOT
BRANCH   1   2
ATOM      2  C   UNL     1     182.623 192.363 199.107  1.00  0.00     0.000 C 
BRANCH   2   3
ATOM      3  C   UNL     1     182.017 190.984 199.411  1.00  0.00     0.000 C 
BRANCH   3   4
ATOM      4  C   UNL     1     181.559 190.239 198.145  1.00  0.00     0.000 C 
BRANCH   4   5
ATOM      5  C   UNL     1     180.470 189.172 198.379  1.00  0.00     0.000 C 
BRANCH   5   6
ATOM      6  C   UNL     1     180.136 188.894 199.858  1.00  0.00     0.000 C 
BRANCH   6   7
ATOM      7  C   UNL     1     179.422 187.555 200.131  1.00  0.00     0.000 C 
BRANCH   7   8
ATOM      8  C   UNL     1     179.897 186.801 201.387  1.00  0.00     0.000 C 
BRANCH   8   9
ATOM      9  C   UNL     1     180.833 185.626 201.065  1.00  0.00     0.000 C 
BRANCH   9  10
ATOM     10  C   UNL     1     182.313 185.947 201.342  1.00  0.00     0.000 C 
BRANCH  10  11
ATOM     11  C   UNL     1     183.106 186.362 200.085  1.00  0.00     0.000 C 
BRANCH  11  12
ATOM     12  C   UNL     1     183.713 187.771 200.221  1.00  0.00     0.006 C 
BRANCH  12  13
ATOM     13  C   UNL     1     185.203 187.799 199.858  1.00  0.00     0.053 C 
BRANCH  13  14
ATOM     14  C   UNL     1     185.413 188.012 198.390  1.00  0.00     0.041 C 
ATOM     15  O   UNL     1     186.580 188.069 197.919  1.00  0.00    -0.550 OA
ATOM     16  O   UNL     1     184.322 188.174 197.544  1.00  0.00    -0.550 OA
ENDBRANCH  13  14
ENDBRANCH  12  13
ENDBRANCH  11  12
ENDBRANCH  10  11
ENDBRANCH   9  10
ENDBRANCH   8   9
ENDBRANCH   7   8
ENDBRANCH   6   7
ENDBRANCH   5   6
ENDBRANCH   4   5
ENDBRANCH   3   4
ENDBRANCH   2   3
ENDBRANCH   1   2
BRANCH   1  17
ATOM     17  C   UNL     1     180.525 193.819 199.284  1.00  0.00     0.000 C 
BRANCH  17  18
ATOM     18  C   UNL     1     180.550 193.865 197.746  1.00  0.00     0.000 C 
BRANCH  18  19
ATOM     19  C   UNL     1     179.272 193.290 197.108  1.00  0.00     0.000 C 
BRANCH  19  20
ATOM     20  C   UNL     1     178.938 193.828 195.701  1.00  0.00     0.000 C 
BRANCH  20  21
ATOM     21  C   UNL     1     179.703 195.098 195.287  1.00  0.00     0.000 C 
BRANCH  21  22
ATOM     22  C   UNL     1     179.322 195.594 193.884  1.00  0.00    -0.000 C 
BRANCH  22  23
ATOM     23  C   UNL     1     179.523 197.111 193.765  1.00  0.00    -0.000 C 
BRANCH  23  24
ATOM     24  C   UNL     1     180.986 197.502 193.491  1.00  0.00    -0.000 C 
BRANCH  24  25
ATOM     25  C   UNL     1     181.796 196.475 192.673  1.00  0.00    -0.000 C 
BRANCH  25  26
ATOM     26  C   UNL     1     183.221 196.918 192.294  1.00  0.00    -0.000 C 
BRANCH  26  27
ATOM     27  C   UNL     1     183.791 196.261 191.023  1.00  0.00    -0.000 C 
BRANCH  27  28
ATOM     28  C   UNL     1     185.107 196.897 190.529  1.00  0.00    -0.000 C 
BRANCH  28  29
ATOM     29  C   UNL     1     186.035 195.880 189.848  1.00  0.00    -0.003 C 
ATOM     30  C   UNL     1     185.685 194.453 190.260  1.00  0.00     0.004 C 
ENDBRANCH  28  29
ENDBRANCH  27  28
ENDBRANCH  26  27
ENDBRANCH  25  26
ENDBRANCH  24  25
ENDBRANCH  23  24
ENDBRANCH  22  23
ENDBRANCH  21  22
ENDBRANCH  20  21
ENDBRANCH  19  20
ENDBRANCH  18  19
ENDBRANCH  17  18
ENDBRANCH   1  17
TORSDOF 26
ENDMDL
MODEL 7
REMARK VINA RESULT:    -3.866      2.327      5.662
REMARK INTER + INTRA:         -13.536
REMARK INTER:                 -10.809
REMARK INTRA:                  -2.727
REMARK UNBOUND:                -3.793
REMARK SMILES CCCCCCCCCCCCCCCCCCCCCCCCCCCC(=O)[O-]
REMARK SMILES IDX 15 1 16 2 17 3 18 4 19 5 20 6 21 7 22 8 23 9 24 10 25 11
REMARK SMILES IDX 26 12 27 13 28 14 29 15 30 16 14 17 13 18 12 19 11 20 10 21
REMARK SMILES IDX 9 22 8 23 7 24 6 25 5 26 4 27 3 28 2 29 1 30
REMARK H PARENT
REMARK Flexibility Score: inf
ROOT
ATOM      1  C   UNL     1     190.989 189.377 198.490  1.00  0.00     0.000 C 
ENDROOT
BRANCH   1   2
ATOM      2  C   UNL     1     190.894 189.297 200.021  1.00  0.00     0.000 C 
BRANCH   2   3
ATOM      3  C   UNL     1     190.425 190.636 200.609  1.00  0.00     0.000 C 
BRANCH   3   4
ATOM      4  C   UNL     1     189.254 190.479 201.596  1.00  0.00     0.000 C 
BRANCH   4   5
ATOM      5  C   UNL     1     188.632 189.068 201.646  1.00  0.00     0.000 C 
BRANCH   5   6
ATOM      6  C   UNL     1     187.285 188.923 200.912  1.00  0.00     0.000 C 
BRANCH   6   7
ATOM      7  C   UNL     1     187.345 188.160 199.573  1.00  0.00     0.000 C 
BRANCH   7   8
ATOM      8  C   UNL     1     186.747 188.905 198.365  1.00  0.00     0.000 C 
BRANCH   8   9
ATOM      9  C   UNL     1     185.667 188.093 197.633  1.00  0.00     0.000 C 
BRANCH   9  10
ATOM     10  C   UNL     1     185.497 186.674 198.204  1.00  0.00     0.000 C 
BRANCH  10  11
ATOM     11  C   UNL     1     184.210 186.486 199.035  1.00  0.00     0.000 C 
BRANCH  11  12
ATOM     12  C   UNL     1     183.839 185.002 199.203  1.00  0.00     0.006 C 
BRANCH  12  13
ATOM     13  C   UNL     1     183.837 184.566 200.674  1.00  0.00     0.053 C 
BRANCH  13  14
ATOM     14  C   UNL     1     184.958 183.618 200.974  1.00  0.00     0.041 C 
ATOM     15  O   UNL     1     184.712 182.413 201.248  1.00  0.00    -0.550 OA
ATOM     16  O   UNL     1     186.273 184.070 200.978  1.00  0.00    -0.550 OA
ENDBRANCH  13  14
ENDBRANCH  12  13
ENDBRANCH  11  12
ENDBRANCH  10  11
ENDBRANCH   9  10
ENDBRANCH   8   9
ENDBRANCH   7   8
ENDBRANCH   6   7
ENDBRANCH   5   6
ENDBRANCH   4   5
ENDBRANCH   3   4
ENDBRANCH   2   3
ENDBRANCH   1   2
BRANCH   1  17
ATOM     17  C   UNL     1     192.278 190.061 198.006  1.00  0.00     0.000 C 
BRANCH  17  18
ATOM     18  C   UNL     1     193.548 189.321 198.461  1.00  0.00     0.000 C 
BRANCH  18  19
ATOM     19  C   UNL     1     194.638 189.280 197.375  1.00  0.00     0.000 C 
BRANCH  19  20
ATOM     20  C   UNL     1     195.961 188.605 197.793  1.00  0.00     0.000 C 
BRANCH  20  21
ATOM     21  C   UNL     1     195.826 187.512 198.870  1.00  0.00     0.000 C 
BRANCH  21  22
ATOM     22  C   UNL     1     196.638 187.819 200.137  1.00  0.00    -0.000 C 
BRANCH  22  23
ATOM     23  C   UNL     1     195.914 188.849 201.016  1.00  0.00    -0.000 C 
BRANCH  23  24
ATOM     24  C   UNL     1     196.466 190.275 200.847  1.00  0.00    -0.000 C 
BRANCH  24  25
ATOM     25  C   UNL     1     195.406 191.395 200.878  1.00  0.00    -0.000 C 
BRANCH  25  26
ATOM     26  C   UNL     1     195.594 192.504 199.826  1.00  0.00    -0.000 C 
BRANCH  26  27
ATOM     27  C   UNL     1     194.324 192.878 199.040  1.00  0.00    -0.000 C 
BRANCH  27  28
ATOM     28  C   UNL     1     194.232 194.376 198.681  1.00  0.00    -0.000 C 
BRANCH  28  29
ATOM     29  C   UNL     1     193.936 195.258 199.903  1.00  0.00    -0.003 C 
ATOM     30  C   UNL     1     195.123 196.157 200.235  1.00  0.00     0.004 C 
ENDBRANCH  28  29
ENDBRANCH  27  28
ENDBRANCH  26  27
ENDBRANCH  25  26
ENDBRANCH  24  25
ENDBRANCH  23  24
ENDBRANCH  22  23
ENDBRANCH  21  22
ENDBRANCH  20  21
ENDBRANCH  19  20
ENDBRANCH  18  19
ENDBRANCH  17  18
ENDBRANCH   1  17
TORSDOF 26
ENDMDL
MODEL 8
REMARK VINA RESULT:    -3.794      9.508     12.469
REMARK INTER + INTRA:         -13.353
REMARK INTER:                  -8.355
REMARK INTRA:                  -4.997
REMARK UNBOUND:                -3.793
REMARK SMILES CCCCCCCCCCCCCCCCCCCCCCCCCCCC(=O)[O-]
REMARK SMILES IDX 15 1 16 2 17 3 18 4 19 5 20 6 21 7 22 8 23 9 24 10 25 11
REMARK SMILES IDX 26 12 27 13 28 14 29 15 30 16 14 17 13 18 12 19 11 20 10 21
REMARK SMILES IDX 9 22 8 23 7 24 6 25 5 26 4 27 3 28 2 29 1 30
REMARK H PARENT
REMARK Flexibility Score: inf
ROOT
ATOM      1  C   UNL     1     180.987 192.116 189.043  1.00  0.00     0.000 C 
ENDROOT
BRANCH   1   2
ATOM      2  C   UNL     1     181.173 190.657 189.483  1.00  0.00     0.000 C 
BRANCH   2   3
ATOM      3  C   UNL     1     182.647 190.238 189.376  1.00  0.00     0.000 C 
BRANCH   3   4
ATOM      4  C   UNL     1     183.008 189.661 187.996  1.00  0.00     0.000 C 
BRANCH   4   5
ATOM      5  C   UNL     1     181.830 189.027 187.229  1.00  0.00     0.000 C 
BRANCH   5   6
ATOM      6  C   UNL     1     181.962 187.514 186.967  1.00  0.00     0.000 C 
BRANCH   6   7
ATOM      7  C   UNL     1     180.832 186.644 187.555  1.00  0.00     0.000 C 
BRANCH   7   8
ATOM      8  C   UNL     1     179.759 187.411 188.350  1.00  0.00     0.000 C 
BRANCH   8   9
ATOM      9  C   UNL     1     179.865 187.192 189.868  1.00  0.00     0.000 C 
BRANCH   9  10
ATOM     10  C   UNL     1     181.308 186.924 190.333  1.00  0.00     0.000 C 
BRANCH  10  11
ATOM     11  C   UNL     1     181.642 187.537 191.710  1.00  0.00     0.000 C 
BRANCH  11  12
ATOM     12  C   UNL     1     183.080 187.216 192.155  1.00  0.00     0.006 C 
BRANCH  12  13
ATOM     13  C   UNL     1     184.057 187.170 190.973  1.00  0.00     0.053 C 
BRANCH  13  14
ATOM     14  C   UNL     1     185.435 186.770 191.405  1.00  0.00     0.041 C 
ATOM     15  O   UNL     1     186.247 186.293 190.569  1.00  0.00    -0.550 OA
ATOM     16  O   UNL     1     185.814 186.900 192.736  1.00  0.00    -0.550 OA
ENDBRANCH  13  14
ENDBRANCH  12  13
ENDBRANCH  11  12
ENDBRANCH  10  11
ENDBRANCH   9  10
ENDBRANCH   8   9
ENDBRANCH   7   8
ENDBRANCH   6   7
ENDBRANCH   5   6
ENDBRANCH   4   5
ENDBRANCH   3   4
ENDBRANCH   2   3
ENDBRANCH   1   2
BRANCH   1  17
ATOM     17  C   UNL     1     180.061 192.260 187.825  1.00  0.00     0.000 C 
BRANCH  17  18
ATOM     18  C   UNL     1     180.633 193.203 186.753  1.00  0.00     0.000 C 
BRANCH  18  19
ATOM     19  C   UNL     1     182.058 192.817 186.315  1.00  0.00     0.000 C 
BRANCH  19  20
ATOM     20  C   UNL     1     182.975 194.000 185.940  1.00  0.00     0.000 C 
BRANCH  20  21
ATOM     21  C   UNL     1     184.252 194.133 186.789  1.00  0.00     0.000 C 
BRANCH  21  22
ATOM     22  C   UNL     1     184.355 193.060 187.884  1.00  0.00    -0.000 C 
BRANCH  22  23
ATOM     23  C   UNL     1     184.323 193.697 189.281  1.00  0.00    -0.000 C 
BRANCH  23  24
ATOM     24  C   UNL     1     183.534 195.018 189.318  1.00  0.00    -0.000 C 
BRANCH  24  25
ATOM     25  C   UNL     1     183.974 196.012 190.413  1.00  0.00    -0.000 C 
BRANCH  25  26
ATOM     26  C   UNL     1     185.451 196.445 190.350  1.00  0.00    -0.000 C 
BRANCH  26  27
ATOM     27  C   UNL     1     185.928 196.932 188.970  1.00  0.00    -0.000 C 
BRANCH  27  28
ATOM     28  C   UNL     1     187.060 196.076 188.364  1.00  0.00    -0.000 C 
BRANCH  28  29
ATOM     29  C   UNL     1     187.752 195.189 189.409  1.00  0.00    -0.003 C 
ATOM     30  C   UNL     1     187.912 193.760 188.900  1.00  0.00     0.004 C 
ENDBRANCH  28  29
ENDBRANCH  27  28
ENDBRANCH  26  27
ENDBRANCH  25  26
ENDBRANCH  24  25
ENDBRANCH  23  24
ENDBRANCH  22  23
ENDBRANCH  21  22
ENDBRANCH  20  21
ENDBRANCH  19  20
ENDBRANCH  18  19
ENDBRANCH  17  18
ENDBRANCH   1  17
TORSDOF 26
ENDMDL
MODEL 9
REMARK VINA RESULT:    -3.691      4.017     11.406
REMARK INTER + INTRA:         -13.095
REMARK INTER:                 -10.386
REMARK INTRA:                  -2.710
REMARK UNBOUND:                -3.793
REMARK SMILES CCCCCCCCCCCCCCCCCCCCCCCCCCCC(=O)[O-]
REMARK SMILES IDX 15 1 16 2 17 3 18 4 19 5 20 6 21 7 22 8 23 9 24 10 25 11
REMARK SMILES IDX 26 12 27 13 28 14 29 15 30 16 14 17 13 18 12 19 11 20 10 21
REMARK SMILES IDX 9 22 8 23 7 24 6 25 5 26 4 27 3 28 2 29 1 30
REMARK H PARENT
REMARK Flexibility Score: inf
ROOT
ATOM      1  C   UNL     1     191.513 189.745 198.263  1.00  0.00     0.000 C 
ENDROOT
BRANCH   1   2
ATOM      2  C   UNL     1     192.768 190.576 198.568  1.00  0.00     0.000 C 
BRANCH   2   3
ATOM      3  C   UNL     1     194.038 189.829 198.133  1.00  0.00     0.000 C 
BRANCH   3   4
ATOM      4  C   UNL     1     194.029 188.345 198.541  1.00  0.00     0.000 C 
BRANCH   4   5
ATOM      5  C   UNL     1     195.375 187.615 198.360  1.00  0.00     0.000 C 
BRANCH   5   6
ATOM      6  C   UNL     1     196.266 187.569 199.617  1.00  0.00     0.000 C 
BRANCH   6   7
ATOM      7  C   UNL     1     197.760 187.864 199.375  1.00  0.00     0.000 C 
BRANCH   7   8
ATOM      8  C   UNL     1     198.056 189.161 198.599  1.00  0.00     0.000 C 
BRANCH   8   9
ATOM      9  C   UNL     1     197.496 190.415 199.290  1.00  0.00     0.000 C 
BRANCH   9  10
ATOM     10  C   UNL     1     197.848 190.479 200.787  1.00  0.00     0.000 C 
BRANCH  10  11
ATOM     11  C   UNL     1     196.977 191.469 201.590  1.00  0.00     0.000 C 
BRANCH  11  12
ATOM     12  C   UNL     1     195.688 191.849 200.839  1.00  0.00     0.006 C 
BRANCH  12  13
ATOM     13  C   UNL     1     195.418 193.358 200.877  1.00  0.00     0.053 C 
BRANCH  13  14
ATOM     14  C   UNL     1     194.267 193.739 199.995  1.00  0.00     0.041 C 
ATOM     15  O   UNL     1     194.391 193.703 198.742  1.00  0.00    -0.550 OA
ATOM     16  O   UNL     1     193.067 194.159 200.556  1.00  0.00    -0.550 OA
ENDBRANCH  13  14
ENDBRANCH  12  13
ENDBRANCH  11  12
ENDBRANCH  10  11
ENDBRANCH   9  10
ENDBRANCH   8   9
ENDBRANCH   7   8
ENDBRANCH   6   7
ENDBRANCH   5   6
ENDBRANCH   4   5
ENDBRANCH   3   4
ENDBRANCH   2   3
ENDBRANCH   1   2
BRANCH   1  17
ATOM     17  C   UNL     1     190.466 189.809 199.387  1.00  0.00     0.000 C 
BRANCH  17  18
ATOM     18  C   UNL     1     190.546 188.605 200.341  1.00  0.00     0.000 C 
BRANCH  18  19
ATOM     19  C   UNL     1     189.294 188.459 201.226  1.00  0.00     0.000 C 
BRANCH  19  20
ATOM     20  C   UNL     1     188.230 189.561 201.049  1.00  0.00     0.000 C 
BRANCH  20  21
ATOM     21  C   UNL     1     186.771 189.093 201.197  1.00  0.00     0.000 C 
BRANCH  21  22
ATOM     22  C   UNL     1     186.105 188.777 199.849  1.00  0.00    -0.000 C 
BRANCH  22  23
ATOM     23  C   UNL     1     186.160 187.272 199.550  1.00  0.00    -0.000 C 
BRANCH  23  24
ATOM     24  C   UNL     1     185.254 186.862 198.376  1.00  0.00    -0.000 C 
BRANCH  24  25
ATOM     25  C   UNL     1     184.113 185.889 198.738  1.00  0.00    -0.000 C 
BRANCH  25  26
ATOM     26  C   UNL     1     183.923 185.635 200.245  1.00  0.00    -0.000 C 
BRANCH  26  27
ATOM     27  C   UNL     1     184.086 184.168 200.684  1.00  0.00    -0.000 C 
BRANCH  27  28
ATOM     28  C   UNL     1     185.487 183.585 200.400  1.00  0.00    -0.000 C 
BRANCH  28  29
ATOM     29  C   UNL     1     186.293 183.338 201.683  1.00  0.00    -0.003 C 
ATOM     30  C   UNL     1     187.781 183.594 201.457  1.00  0.00     0.004 C 
ENDBRANCH  28  29
ENDBRANCH  27  28
ENDBRANCH  26  27
ENDBRANCH  25  26
ENDBRANCH  24  25
ENDBRANCH  23  24
ENDBRANCH  22  23
ENDBRANCH  21  22
ENDBRANCH  20  21
ENDBRANCH  19  20
ENDBRANCH  18  19
ENDBRANCH  17  18
ENDBRANCH   1  17
TORSDOF 26
ENDMDL
