MODEL 1
REMARK VINA RESULT:    -5.181      0.000      0.000
REMARK INTER + INTRA:          -7.528
REMARK INTER:                  -6.998
REMARK INTRA:                  -0.529
REMARK UNBOUND:                -0.529
REMARK SMILES CC(=O)CCC=C(C)CCC=C(C)C
REMARK SMILES IDX 7 1 6 2 8 3 9 4 10 5 11 6 13 7 12 8 14 9 5 10 4 11 2 12 3 13
REMARK SMILES IDX 1 14
REMARK H PARENT
REMARK Flexibility Score: inf
ROOT
ATOM      1  C   UNL     1     -26.258   0.628  -2.574  1.00  0.00    -0.077 C 
ATOM      2  C   UNL     1     -25.803   0.124  -1.402  1.00  0.00    -0.028 C 
ATOM      3  C   UNL     1     -25.689   1.894  -3.169  1.00  0.00     0.039 C 
ENDROOT
BRANCH   1   4
ATOM      4  C   UNL     1     -27.381  -0.086  -3.293  1.00  0.00     0.034 C 
BRANCH   4   5
ATOM      5  C   UNL     1     -26.835  -1.219  -4.169  1.00  0.00     0.032 C 
BRANCH   5   6
ATOM      6  C   UNL     1     -26.644  -0.765  -5.596  1.00  0.00    -0.028 C 
ATOM      7  C   UNL     1     -27.280  -0.457  -7.951  1.00  0.00     0.039 C 
ATOM      8  C   UNL     1     -27.572  -0.950  -6.558  1.00  0.00    -0.080 C 
ATOM      9  C   UNL     1     -28.886  -1.635  -6.267  1.00  0.00     0.039 C 
ENDBRANCH   5   6
ENDBRANCH   4   5
ENDBRANCH   1   4
BRANCH   2  10
ATOM     10  C   UNL     1     -24.660   0.707  -0.609  1.00  0.00     0.035 C 
BRANCH  10  11
ATOM     11  C   UNL     1     -23.400  -0.149  -0.768  1.00  0.00     0.079 C 
BRANCH  11  12
ATOM     12  C   UNL     1     -22.523  -0.036   0.451  1.00  0.00     0.130 C 
ATOM     13  O   UNL     1     -22.554  -0.916   1.298  1.00  0.00    -0.300 OA
ATOM     14  C   UNL     1     -21.620   1.144   0.658  1.00  0.00     0.087 C 
ENDBRANCH  11  12
ENDBRANCH  10  11
ENDBRANCH   2  10
TORSDOF 6
ENDMDL
MODEL 2
REMARK VINA RESULT:    -5.131      2.909      5.071
REMARK INTER + INTRA:          -7.460
REMARK INTER:                  -6.538
REMARK INTRA:                  -0.922
REMARK UNBOUND:                -0.529
REMARK SMILES CC(=O)CCC=C(C)CCC=C(C)C
REMARK SMILES IDX 7 1 6 2 8 3 9 4 10 5 11 6 13 7 12 8 14 9 5 10 4 11 2 12 3 13
REMARK SMILES IDX 1 14
REMARK H PARENT
REMARK Flexibility Score: inf
ROOT
ATOM      1  C   UNL     1     -24.879   0.914  -2.579  1.00  0.00    -0.077 C 
ATOM      2  C   UNL     1     -23.616   0.562  -2.240  1.00  0.00    -0.028 C 
ATOM      3  C   UNL     1     -26.083   0.200  -2.011  1.00  0.00     0.039 C 
ENDROOT
BRANCH   1   4
ATOM      4  C   UNL     1     -25.088   2.038  -3.571  1.00  0.00     0.034 C 
BRANCH   4   5
ATOM      5  C   UNL     1     -25.778   3.233  -2.903  1.00  0.00     0.032 C 
BRANCH   5   6
ATOM      6  C   UNL     1     -25.024   3.684  -1.676  1.00  0.00    -0.028 C 
ATOM      7  C   UNL     1     -24.486   5.190   0.193  1.00  0.00     0.039 C 
ATOM      8  C   UNL     1     -25.301   4.833  -1.024  1.00  0.00    -0.080 C 
ATOM      9  C   UNL     1     -26.400   5.760  -1.486  1.00  0.00     0.039 C 
ENDBRANCH   5   6
ENDBRANCH   4   5
ENDBRANCH   1   4
BRANCH   2  10
ATOM     10  C   UNL     1     -23.269  -0.503  -1.231  1.00  0.00     0.035 C 
BRANCH  10  11
ATOM     11  C   UNL     1     -22.692   0.124   0.041  1.00  0.00     0.079 C 
BRANCH  11  12
ATOM     12  C   UNL     1     -23.701   0.084   1.159  1.00  0.00     0.130 C 
ATOM     13  O   UNL     1     -23.686  -0.846   1.951  1.00  0.00    -0.300 OA
ATOM     14  C   UNL     1     -24.737   1.157   1.315  1.00  0.00     0.087 C 
ENDBRANCH  11  12
ENDBRANCH  10  11
ENDBRANCH   2  10
TORSDOF 6
ENDMDL
MODEL 3
REMARK VINA RESULT:    -5.122      2.835      6.761
REMARK INTER + INTRA:          -7.448
REMARK INTER:                  -6.508
REMARK INTRA:                  -0.941
REMARK UNBOUND:                -0.529
REMARK SMILES CC(=O)CCC=C(C)CCC=C(C)C
REMARK SMILES IDX 7 1 6 2 8 3 9 4 10 5 11 6 13 7 12 8 14 9 5 10 4 11 2 12 3 13
REMARK SMILES IDX 1 14
REMARK H PARENT
REMARK Flexibility Score: inf
ROOT
ATOM      1  C   UNL     1     -26.455   0.386  -3.263  1.00  0.00    -0.077 C 
ATOM      2  C   UNL     1     -26.170  -0.158  -4.470  1.00  0.00    -0.028 C 
ATOM      3  C   UNL     1     -27.373  -0.299  -2.278  1.00  0.00     0.039 C 
ENDROOT
BRANCH   1   4
ATOM      4  C   UNL     1     -25.854   1.727  -2.901  1.00  0.00     0.034 C 
BRANCH   4   5
ATOM      5  C   UNL     1     -24.322   1.654  -2.899  1.00  0.00     0.032 C 
BRANCH   5   6
ATOM      6  C   UNL     1     -23.796   1.238  -1.547  1.00  0.00    -0.028 C 
ATOM      7  C   UNL     1     -22.821  -0.312   0.095  1.00  0.00     0.039 C 
ATOM      8  C   UNL     1     -23.323  -0.000  -1.291  1.00  0.00    -0.080 C 
ATOM      9  C   UNL     1     -23.288  -1.069  -2.358  1.00  0.00     0.039 C 
ENDBRANCH   5   6
ENDBRANCH   4   5
ENDBRANCH   1   4
BRANCH   2  10
ATOM     10  C   UNL     1     -26.662  -1.505  -4.936  1.00  0.00     0.035 C 
BRANCH  10  11
ATOM     11  C   UNL     1     -27.336  -1.391  -6.306  1.00  0.00     0.079 C 
BRANCH  11  12
ATOM     12  C   UNL     1     -28.766  -1.857  -6.236  1.00  0.00     0.130 C 
ATOM     13  O   UNL     1     -29.551  -1.282  -5.498  1.00  0.00    -0.300 OA
ATOM     14  C   UNL     1     -29.248  -3.026  -7.045  1.00  0.00     0.087 C 
ENDBRANCH  11  12
ENDBRANCH  10  11
ENDBRANCH   2  10
TORSDOF 6
ENDMDL
MODEL 4
REMARK VINA RESULT:    -5.084      1.564      1.871
REMARK INTER + INTRA:          -7.396
REMARK INTER:                  -6.707
REMARK INTRA:                  -0.690
REMARK UNBOUND:                -0.529
REMARK SMILES CC(=O)CCC=C(C)CCC=C(C)C
REMARK SMILES IDX 7 1 6 2 8 3 9 4 10 5 11 6 13 7 12 8 14 9 5 10 4 11 2 12 3 13
REMARK SMILES IDX 1 14
REMARK H PARENT
REMARK Flexibility Score: inf
ROOT
ATOM      1  C   UNL     1     -26.244   0.685  -2.550  1.00  0.00    -0.077 C 
ATOM      2  C   UNL     1     -25.816   0.132  -1.390  1.00  0.00    -0.028 C 
ATOM      3  C   UNL     1     -25.596   1.919  -3.131  1.00  0.00     0.039 C 
ENDROOT
BRANCH   1   4
ATOM      4  C   UNL     1     -27.419   0.060  -3.270  1.00  0.00     0.034 C 
BRANCH   4   5
ATOM      5  C   UNL     1     -26.965  -1.130  -4.124  1.00  0.00     0.032 C 
BRANCH   5   6
ATOM      6  C   UNL     1     -26.666  -0.704  -5.541  1.00  0.00    -0.028 C 
ATOM      7  C   UNL     1     -27.138  -0.410  -7.936  1.00  0.00     0.039 C 
ATOM      8  C   UNL     1     -27.537  -0.870  -6.559  1.00  0.00    -0.080 C 
ATOM      9  C   UNL     1     -28.891  -1.503  -6.345  1.00  0.00     0.039 C 
ENDBRANCH   5   6
ENDBRANCH   4   5
ENDBRANCH   1   4
BRANCH   2  10
ATOM     10  C   UNL     1     -24.630   0.624  -0.599  1.00  0.00     0.035 C 
BRANCH  10  11
ATOM     11  C   UNL     1     -25.077   1.189   0.752  1.00  0.00     0.079 C 
BRANCH  11  12
ATOM     12  C   UNL     1     -24.465   2.544   0.991  1.00  0.00     0.130 C 
ATOM     13  O   UNL     1     -23.875   2.761   2.039  1.00  0.00    -0.300 OA
ATOM     14  C   UNL     1     -24.574   3.642  -0.025  1.00  0.00     0.087 C 
ENDBRANCH  11  12
ENDBRANCH  10  11
ENDBRANCH   2  10
TORSDOF 6
ENDMDL
MODEL 5
REMARK VINA RESULT:    -5.051      1.385      2.250
REMARK INTER + INTRA:          -7.352
REMARK INTER:                  -6.521
REMARK INTRA:                  -0.831
REMARK UNBOUND:                -0.529
REMARK SMILES CC(=O)CCC=C(C)CCC=C(C)C
REMARK SMILES IDX 7 1 6 2 8 3 9 4 10 5 11 6 13 7 12 8 14 9 5 10 4 11 2 12 3 13
REMARK SMILES IDX 1 14
REMARK H PARENT
REMARK Flexibility Score: inf
ROOT
ATOM      1  C   UNL     1     -26.576   0.090  -2.247  1.00  0.00    -0.077 C 
ATOM      2  C   UNL     1     -25.366   0.697  -2.275  1.00  0.00    -0.028 C 
ATOM      3  C   UNL     1     -27.133  -0.517  -0.981  1.00  0.00     0.039 C 
ENDROOT
BRANCH   1   4
ATOM      4  C   UNL     1     -27.382   0.000  -3.525  1.00  0.00     0.034 C 
BRANCH   4   5
ATOM      5  C   UNL     1     -26.528  -0.559  -4.669  1.00  0.00     0.032 C 
BRANCH   5   6
ATOM      6  C   UNL     1     -27.034  -1.908  -5.120  1.00  0.00    -0.028 C 
ATOM      7  C   UNL     1     -27.142  -4.365  -5.142  1.00  0.00     0.039 C 
ATOM      8  C   UNL     1     -26.568  -3.073  -4.621  1.00  0.00    -0.080 C 
ATOM      9  C   UNL     1     -25.493  -3.105  -3.561  1.00  0.00     0.039 C 
ENDBRANCH   5   6
ENDBRANCH   4   5
ENDBRANCH   1   4
BRANCH   2  10
ATOM     10  C   UNL     1     -24.485   0.897  -1.067  1.00  0.00     0.035 C 
BRANCH  10  11
ATOM     11  C   UNL     1     -23.374  -0.156  -1.027  1.00  0.00     0.079 C 
BRANCH  11  12
ATOM     12  C   UNL     1     -22.602  -0.065   0.262  1.00  0.00     0.130 C 
ATOM     13  O   UNL     1     -22.709  -0.955   1.093  1.00  0.00    -0.300 OA
ATOM     14  C   UNL     1     -21.710   1.104   0.558  1.00  0.00     0.087 C 
ENDBRANCH  11  12
ENDBRANCH  10  11
ENDBRANCH   2  10
TORSDOF 6
ENDMDL
MODEL 6
REMARK VINA RESULT:    -5.032      2.567      3.749
REMARK INTER + INTRA:          -7.327
REMARK INTER:                  -6.154
REMARK INTRA:                  -1.174
REMARK UNBOUND:                -0.529
REMARK SMILES CC(=O)CCC=C(C)CCC=C(C)C
REMARK SMILES IDX 7 1 6 2 8 3 9 4 10 5 11 6 13 7 12 8 14 9 5 10 4 11 2 12 3 13
REMARK SMILES IDX 1 14
REMARK H PARENT
REMARK Flexibility Score: inf
ROOT
ATOM      1  C   UNL     1     -24.229   3.230  -0.823  1.00  0.00    -0.077 C 
ATOM      2  C   UNL     1     -24.766   2.724   0.313  1.00  0.00    -0.028 C 
ATOM      3  C   UNL     1     -22.740   3.216  -1.073  1.00  0.00     0.039 C 
ENDROOT
BRANCH   1   4
ATOM      4  C   UNL     1     -25.145   3.845  -1.857  1.00  0.00     0.034 C 
BRANCH   4   5
ATOM      5  C   UNL     1     -25.254   2.945  -3.094  1.00  0.00     0.032 C 
BRANCH   5   6
ATOM      6  C   UNL     1     -26.037   1.691  -2.790  1.00  0.00    -0.028 C 
ATOM      7  C   UNL     1     -26.416  -0.736  -2.666  1.00  0.00     0.039 C 
ATOM      8  C   UNL     1     -25.550   0.450  -3.003  1.00  0.00    -0.080 C 
ATOM      9  C   UNL     1     -24.167   0.230  -3.568  1.00  0.00     0.039 C 
ENDBRANCH   5   6
ENDBRANCH   4   5
ENDBRANCH   1   4
BRANCH   2  10
ATOM     10  C   UNL     1     -23.975   2.041   1.400  1.00  0.00     0.035 C 
BRANCH  10  11
ATOM     11  C   UNL     1     -24.399   0.577   1.540  1.00  0.00     0.079 C 
BRANCH  11  12
ATOM     12  C   UNL     1     -23.292  -0.342   1.096  1.00  0.00     0.130 C 
ATOM     13  O   UNL     1     -22.814  -1.138   1.891  1.00  0.00    -0.300 OA
ATOM     14  C   UNL     1     -22.749  -0.295  -0.302  1.00  0.00     0.087 C 
ENDBRANCH  11  12
ENDBRANCH  10  11
ENDBRANCH   2  10
TORSDOF 6
ENDMDL
MODEL 7
REMARK VINA RESULT:    -5.028      3.328      6.753
REMARK INTER + INTRA:          -7.321
REMARK INTER:                  -6.416
REMARK INTRA:                  -0.905
REMARK UNBOUND:                -0.529
REMARK SMILES CC(=O)CCC=C(C)CCC=C(C)C
REMARK SMILES IDX 7 1 6 2 8 3 9 4 10 5 11 6 13 7 12 8 14 9 5 10 4 11 2 12 3 13
REMARK SMILES IDX 1 14
REMARK H PARENT
REMARK Flexibility Score: inf
ROOT
ATOM      1  C   UNL     1     -27.268  -0.403  -3.243  1.00  0.00    -0.077 C 
ATOM      2  C   UNL     1     -26.517  -0.965  -4.219  1.00  0.00    -0.028 C 
ATOM      3  C   UNL     1     -28.644   0.156  -3.519  1.00  0.00     0.039 C 
ENDROOT
BRANCH   1   4
ATOM      4  C   UNL     1     -26.703  -0.314  -1.842  1.00  0.00     0.034 C 
BRANCH   4   5
ATOM      5  C   UNL     1     -25.251   0.179  -1.870  1.00  0.00     0.032 C 
BRANCH   5   6
ATOM      6  C   UNL     1     -25.143   1.593  -1.355  1.00  0.00    -0.028 C 
ATOM      7  C   UNL     1     -24.940   4.036  -1.548  1.00  0.00     0.039 C 
ATOM      8  C   UNL     1     -25.044   2.667  -2.167  1.00  0.00    -0.080 C 
ATOM      9  C   UNL     1     -25.034   2.522  -3.670  1.00  0.00     0.039 C 
ENDBRANCH   5   6
ENDBRANCH   4   5
ENDBRANCH   1   4
BRANCH   2  10
ATOM     10  C   UNL     1     -26.976  -1.160  -5.643  1.00  0.00     0.035 C 
BRANCH  10  11
ATOM     11  C   UNL     1     -27.479  -2.591  -5.858  1.00  0.00     0.079 C 
BRANCH  11  12
ATOM     12  C   UNL     1     -28.842  -2.585  -6.496  1.00  0.00     0.130 C 
ATOM     13  O   UNL     1     -29.623  -1.681  -6.240  1.00  0.00    -0.300 OA
ATOM     14  C   UNL     1     -29.271  -3.676  -7.433  1.00  0.00     0.087 C 
ENDBRANCH  11  12
ENDBRANCH  10  11
ENDBRANCH   2  10
TORSDOF 6
ENDMDL
MODEL 8
REMARK VINA RESULT:    -5.005      3.293      7.269
REMARK INTER + INTRA:          -7.290
REMARK INTER:                  -6.612
REMARK INTRA:                  -0.678
REMARK UNBOUND:                -0.529
REMARK SMILES CC(=O)CCC=C(C)CCC=C(C)C
REMARK SMILES IDX 7 1 6 2 8 3 9 4 10 5 11 6 13 7 12 8 14 9 5 10 4 11 2 12 3 13
REMARK SMILES IDX 1 14
REMARK H PARENT
REMARK Flexibility Score: inf
ROOT
ATOM      1  C   UNL     1     -26.654  -1.138  -3.169  1.00  0.00    -0.077 C 
ATOM      2  C   UNL     1     -27.384  -0.542  -4.141  1.00  0.00    -0.028 C 
ATOM      3  C   UNL     1     -25.918  -2.434  -3.408  1.00  0.00     0.039 C 
ENDROOT
BRANCH   1   4
ATOM      4  C   UNL     1     -26.593  -0.497  -1.799  1.00  0.00     0.034 C 
BRANCH   4   5
ATOM      5  C   UNL     1     -25.559   0.635  -1.772  1.00  0.00     0.032 C 
BRANCH   5   6
ATOM      6  C   UNL     1     -24.251   0.166  -1.185  1.00  0.00    -0.028 C 
ATOM      7  C   UNL     1     -22.597  -0.185   0.601  1.00  0.00     0.039 C 
ATOM      8  C   UNL     1     -23.932   0.318   0.118  1.00  0.00    -0.080 C 
ATOM      9  C   UNL     1     -24.879   0.979   1.092  1.00  0.00     0.039 C 
ENDBRANCH   5   6
ENDBRANCH   4   5
ENDBRANCH   1   4
BRANCH   2  10
ATOM     10  C   UNL     1     -27.490  -1.046  -5.559  1.00  0.00     0.035 C 
BRANCH  10  11
ATOM     11  C   UNL     1     -28.918  -1.505  -5.865  1.00  0.00     0.079 C 
BRANCH  11  12
ATOM     12  C   UNL     1     -28.912  -2.863  -6.514  1.00  0.00     0.130 C 
ATOM     13  O   UNL     1     -29.530  -3.036  -7.554  1.00  0.00    -0.300 OA
ATOM     14  C   UNL     1     -28.174  -4.018  -5.905  1.00  0.00     0.087 C 
ENDBRANCH  11  12
ENDBRANCH  10  11
ENDBRANCH   2  10
TORSDOF 6
ENDMDL
MODEL 9
REMARK VINA RESULT:    -4.963      2.883      6.581
REMARK INTER + INTRA:          -7.234
REMARK INTER:                  -6.179
REMARK INTRA:                  -1.055
REMARK UNBOUND:                -0.529
REMARK SMILES CC(=O)CCC=C(C)CCC=C(C)C
REMARK SMILES IDX 7 1 6 2 8 3 9 4 10 5 11 6 13 7 12 8 14 9 5 10 4 11 2 12 3 13
REMARK SMILES IDX 1 14
REMARK H PARENT
REMARK Flexibility Score: inf
ROOT
ATOM      1  C   UNL     1     -25.265   1.456  -3.317  1.00  0.00    -0.077 C 
ATOM      2  C   UNL     1     -26.444   1.006  -2.828  1.00  0.00    -0.028 C 
ATOM      3  C   UNL     1     -24.407   0.612  -4.229  1.00  0.00     0.039 C 
ENDROOT
BRANCH   1   4
ATOM      4  C   UNL     1     -24.783   2.834  -2.919  1.00  0.00     0.034 C 
BRANCH   4   5
ATOM      5  C   UNL     1     -24.559   2.917  -1.405  1.00  0.00     0.032 C 
BRANCH   5   6
ATOM      6  C   UNL     1     -23.470   1.972  -0.960  1.00  0.00    -0.028 C 
ATOM      7  C   UNL     1     -22.507   0.120   0.340  1.00  0.00     0.039 C 
ATOM      8  C   UNL     1     -23.663   1.011  -0.032  1.00  0.00    -0.080 C 
ATOM      9  C   UNL     1     -25.004   0.814   0.635  1.00  0.00     0.039 C 
ENDBRANCH   5   6
ENDBRANCH   4   5
ENDBRANCH   1   4
BRANCH   2  10
ATOM     10  C   UNL     1     -27.062  -0.324  -3.181  1.00  0.00     0.035 C 
BRANCH  10  11
ATOM     11  C   UNL     1     -28.366  -0.126  -3.958  1.00  0.00     0.079 C 
BRANCH  11  12
ATOM     12  C   UNL     1     -28.361  -0.941  -5.224  1.00  0.00     0.130 C 
ATOM     13  O   UNL     1     -29.373  -1.535  -5.562  1.00  0.00    -0.300 OA
ATOM     14  C   UNL     1     -27.132  -1.051  -6.078  1.00  0.00     0.087 C 
ENDBRANCH  11  12
ENDBRANCH  10  11
ENDBRANCH   2  10
TORSDOF 6
ENDMDL
