MODEL 1
REMARK VINA RESULT:    -5.393      0.000      0.000
REMARK INTER + INTRA:          -6.266
REMARK INTER:                  -6.182
REMARK INTRA:                  -0.084
REMARK UNBOUND:                -0.084
REMARK SMILES CC1(C)CC[C@]23CO[C@@]4(C=C[C@@H]5[C@]6(C)CC[C@H](O)[C@@](C)(CO)[C@H]6CC[C@]5(C)[C@@]4(C)C[C@@H]2O)[C@@H]3C1
REMARK SMILES IDX 1 1 2 2 4 3 5 4 6 5 7 6 8 7 9 8 33 9 34 10 10 11 11 12 12 13
REMARK SMILES IDX 13 14 15 15 16 16 17 17 19 18 23 19 24 20 25 21 26 22 28 23
REMARK SMILES IDX 30 24 31 25 29 26 27 27 20 28 14 29 3 30 32 31 21 33 22 34
REMARK SMILES IDX 18 36
REMARK H PARENT 32 32 22 35 18 37
REMARK Flexibility Score: inf
ROOT
ATOM      1  C   UNL     1       5.134   1.077  -3.231  1.00  0.00     0.011 C 
ATOM      2  C   UNL     1       4.837   1.781  -1.889  1.00  0.00    -0.035 C 
ATOM      3  C   UNL     1       4.528   0.693  -0.810  1.00  0.00     0.007 C 
ATOM      4  C   UNL     1       3.884   1.239   0.490  1.00  0.00     0.013 C 
ATOM      5  C   UNL     1       2.671   2.162   0.204  1.00  0.00     0.026 C 
ATOM      6  C   UNL     1       2.278   3.064   1.396  1.00  0.00     0.171 C 
ATOM      7  O   UNL     1       1.819   4.305   0.874  1.00  0.00    -0.369 OA
ATOM      8  C   UNL     1       1.892   4.211  -0.542  1.00  0.00     0.096 C 
ATOM      9  C   UNL     1       3.081   3.247  -0.740  1.00  0.00     0.037 C 
ATOM     10  C   UNL     1       3.621   2.743  -2.096  1.00  0.00     0.014 C 
ATOM     11  C   UNL     1       2.301   5.539  -1.077  1.00  0.00     0.005 C 
ATOM     12  C   UNL     1       2.120   5.855  -2.355  1.00  0.00    -0.024 C 
ATOM     13  C   UNL     1       1.237   5.021  -3.296  1.00  0.00     0.024 C 
ATOM     14  C   UNL     1       0.909   5.856  -4.623  1.00  0.00    -0.022 C 
ATOM     15  C   UNL     1       2.233   6.327  -5.328  1.00  0.00     0.010 C 
ATOM     16  C   UNL     1       2.005   7.372  -6.438  1.00  0.00     0.033 C 
ATOM     17  C   UNL     1       1.218   8.595  -5.936  1.00  0.00     0.123 C 
ATOM     18  C   UNL     1      -0.169   8.216  -5.316  1.00  0.00     0.020 C 
ATOM     19  C   UNL     1       0.059   7.118  -4.198  1.00  0.00     0.006 C 
ATOM     20  C   UNL     1      -1.197   6.720  -3.381  1.00  0.00     0.005 C 
ATOM     21  C   UNL     1      -0.861   5.840  -2.148  1.00  0.00     0.008 C 
ATOM     22  C   UNL     1      -0.029   4.537  -2.459  1.00  0.00    -0.017 C 
ATOM     23  C   UNL     1       0.457   3.737  -1.100  1.00  0.00     0.009 C 
ATOM     24  C   UNL     1       0.513   2.172  -1.307  1.00  0.00     0.043 C 
ATOM     25  C   UNL     1       1.430   1.362  -0.339  1.00  0.00     0.124 C 
ATOM     26  C   UNL     1      -0.630   3.944   0.010  1.00  0.00     0.015 C 
ATOM     27  C   UNL     1      -0.995   3.592  -3.254  1.00  0.00     0.013 C 
ATOM     28  C   UNL     1      -0.763   9.500  -4.665  1.00  0.00     0.017 C 
ATOM     29  C   UNL     1       0.190   4.935  -5.665  1.00  0.00     0.012 C 
ATOM     30  C   UNL     1       6.106   2.573  -1.488  1.00  0.00     0.011 C 
ENDROOT
BRANCH  25  31
ATOM     31  O   UNL     1       0.677   0.836   0.727  1.00  0.00    -0.392 OA
ATOM     32  H   UNL     1       0.382   1.602   1.287  1.00  0.00     0.210 HD
ENDBRANCH  25  31
BRANCH  18  33
ATOM     33  C   UNL     1      -1.163   7.766  -6.432  1.00  0.00     0.165 C 
BRANCH  33  34
ATOM     34  O   UNL     1      -2.416   8.385  -6.283  1.00  0.00    -0.396 OA
ATOM     35  H   UNL     1      -2.250   9.337  -6.051  1.00  0.00     0.210 HD
ENDBRANCH  33  34
ENDBRANCH  18  33
BRANCH  17  36
ATOM     36  O   UNL     1       2.000   9.285  -4.989  1.00  0.00    -0.392 OA
ATOM     37  H   UNL     1       2.903   9.403  -5.385  1.00  0.00     0.210 HD
ENDBRANCH  17  36
TORSDOF 4
ENDMDL
MODEL 2
REMARK VINA RESULT:    -5.390      3.819      7.132
REMARK INTER + INTRA:          -6.262
REMARK INTER:                  -6.178
REMARK INTRA:                  -0.084
REMARK UNBOUND:                -0.084
REMARK SMILES CC1(C)CC[C@]23CO[C@@]4(C=C[C@@H]5[C@]6(C)CC[C@H](O)[C@@](C)(CO)[C@H]6CC[C@]5(C)[C@@]4(C)C[C@@H]2O)[C@@H]3C1
REMARK SMILES IDX 1 1 2 2 4 3 5 4 6 5 7 6 8 7 9 8 33 9 34 10 10 11 11 12 12 13
REMARK SMILES IDX 13 14 15 15 16 16 17 17 19 18 23 19 24 20 25 21 26 22 28 23
REMARK SMILES IDX 30 24 31 25 29 26 27 27 20 28 14 29 3 30 32 31 21 33 22 34
REMARK SMILES IDX 18 36
REMARK H PARENT 32 32 22 35 18 37
REMARK Flexibility Score: inf
ROOT
ATOM      1  C   UNL     1       1.845   3.691  -2.390  1.00  0.00     0.011 C 
ATOM      2  C   UNL     1       0.832   4.750  -2.877  1.00  0.00    -0.035 C 
ATOM      3  C   UNL     1      -0.142   4.077  -3.898  1.00  0.00     0.007 C 
ATOM      4  C   UNL     1      -0.993   5.072  -4.727  1.00  0.00     0.013 C 
ATOM      5  C   UNL     1      -0.133   6.193  -5.367  1.00  0.00     0.026 C 
ATOM      6  C   UNL     1      -0.949   7.426  -5.818  1.00  0.00     0.171 C 
ATOM      7  O   UNL     1      -0.148   8.582  -5.610  1.00  0.00    -0.369 OA
ATOM      8  C   UNL     1       1.094   8.136  -5.082  1.00  0.00     0.096 C 
ATOM      9  C   UNL     1       0.678   6.867  -4.307  1.00  0.00     0.037 C 
ATOM     10  C   UNL     1       1.627   5.926  -3.534  1.00  0.00     0.014 C 
ATOM     11  C   UNL     1       1.563   9.135  -4.082  1.00  0.00     0.005 C 
ATOM     12  C   UNL     1       2.830   9.172  -3.683  1.00  0.00    -0.024 C 
ATOM     13  C   UNL     1       3.948   8.408  -4.409  1.00  0.00     0.024 C 
ATOM     14  C   UNL     1       5.379   8.957  -3.944  1.00  0.00    -0.022 C 
ATOM     15  C   UNL     1       5.529   8.870  -2.381  1.00  0.00     0.010 C 
ATOM     16  C   UNL     1       6.746   9.640  -1.832  1.00  0.00     0.033 C 
ATOM     17  C   UNL     1       6.752  11.114  -2.274  1.00  0.00     0.123 C 
ATOM     18  C   UNL     1       6.715  11.284  -3.831  1.00  0.00     0.020 C 
ATOM     19  C   UNL     1       5.485  10.466  -4.400  1.00  0.00     0.006 C 
ATOM     20  C   UNL     1       5.214  10.631  -5.918  1.00  0.00     0.005 C 
ATOM     21  C   UNL     1       3.860  10.015  -6.359  1.00  0.00     0.008 C 
ATOM     22  C   UNL     1       3.652   8.500  -5.972  1.00  0.00    -0.017 C 
ATOM     23  C   UNL     1       2.132   7.948  -6.299  1.00  0.00     0.009 C 
ATOM     24  C   UNL     1       2.118   6.424  -6.715  1.00  0.00     0.043 C 
ATOM     25  C   UNL     1       0.775   5.653  -6.533  1.00  0.00     0.124 C 
ATOM     26  C   UNL     1       1.596   8.702  -7.564  1.00  0.00     0.015 C 
ATOM     27  C   UNL     1       4.660   7.690  -6.859  1.00  0.00     0.013 C 
ATOM     28  C   UNL     1       6.515  12.798  -4.136  1.00  0.00     0.017 C 
ATOM     29  C   UNL     1       6.511   8.044  -4.520  1.00  0.00     0.012 C 
ATOM     30  C   UNL     1       0.040   5.241  -1.640  1.00  0.00     0.011 C 
ENDROOT
BRANCH  25  31
ATOM     31  O   UNL     1       0.058   5.622  -7.743  1.00  0.00    -0.392 OA
ATOM     32  H   UNL     1      -0.538   6.416  -7.755  1.00  0.00     0.210 HD
ENDBRANCH  25  31
BRANCH  18  33
ATOM     33  C   UNL     1       8.081  10.866  -4.459  1.00  0.00     0.165 C 
BRANCH  33  34
ATOM     34  O   UNL     1       8.583  11.868  -5.307  1.00  0.00    -0.396 OA
ATOM     35  H   UNL     1       9.114  11.418  -6.017  1.00  0.00     0.210 HD
ENDBRANCH  33  34
ENDBRANCH  18  33
BRANCH  17  36
ATOM     36  O   UNL     1       5.654  11.771  -1.688  1.00  0.00    -0.392 OA
ATOM     37  H   UNL     1       5.444  11.295  -0.842  1.00  0.00     0.210 HD
ENDBRANCH  17  36
TORSDOF 4
ENDMDL
MODEL 3
REMARK VINA RESULT:    -5.238      2.276      7.287
REMARK INTER + INTRA:          -6.088
REMARK INTER:                  -6.005
REMARK INTRA:                  -0.083
REMARK UNBOUND:                -0.084
REMARK SMILES CC1(C)CC[C@]23CO[C@@]4(C=C[C@@H]5[C@]6(C)CC[C@H](O)[C@@](C)(CO)[C@H]6CC[C@]5(C)[C@@]4(C)C[C@@H]2O)[C@@H]3C1
REMARK SMILES IDX 1 1 2 2 4 3 5 4 6 5 7 6 8 7 9 8 33 9 34 10 10 11 11 12 12 13
REMARK SMILES IDX 13 14 15 15 16 16 17 17 19 18 23 19 24 20 25 21 26 22 28 23
REMARK SMILES IDX 30 24 31 25 29 26 27 27 20 28 14 29 3 30 32 31 21 33 22 34
REMARK SMILES IDX 18 36
REMARK H PARENT 32 32 22 35 18 37
REMARK Flexibility Score: inf
ROOT
ATOM      1  C   UNL     1      -1.959   8.022  -5.511  1.00  0.00     0.011 C 
ATOM      2  C   UNL     1      -0.481   7.701  -5.821  1.00  0.00    -0.035 C 
ATOM      3  C   UNL     1      -0.352   7.356  -7.340  1.00  0.00     0.007 C 
ATOM      4  C   UNL     1       0.989   6.686  -7.736  1.00  0.00     0.013 C 
ATOM      5  C   UNL     1       1.345   5.489  -6.817  1.00  0.00     0.026 C 
ATOM      6  C   UNL     1       2.833   5.077  -6.876  1.00  0.00     0.171 C 
ATOM      7  O   UNL     1       3.220   4.642  -5.579  1.00  0.00    -0.369 OA
ATOM      8  C   UNL     1       2.073   4.748  -4.747  1.00  0.00     0.096 C 
ATOM      9  C   UNL     1       1.318   5.932  -5.389  1.00  0.00     0.037 C 
ATOM     10  C   UNL     1      -0.040   6.499  -4.922  1.00  0.00     0.014 C 
ATOM     11  C   UNL     1       2.515   5.182  -3.394  1.00  0.00     0.005 C 
ATOM     12  C   UNL     1       1.733   5.035  -2.330  1.00  0.00    -0.024 C 
ATOM     13  C   UNL     1       0.466   4.167  -2.349  1.00  0.00     0.024 C 
ATOM     14  C   UNL     1      -0.025   3.878  -0.852  1.00  0.00    -0.022 C 
ATOM     15  C   UNL     1      -0.248   5.223  -0.069  1.00  0.00     0.010 C 
ATOM     16  C   UNL     1      -0.437   5.031   1.449  1.00  0.00     0.033 C 
ATOM     17  C   UNL     1       0.723   4.245   2.086  1.00  0.00     0.123 C 
ATOM     18  C   UNL     1       0.940   2.839   1.430  1.00  0.00     0.020 C 
ATOM     19  C   UNL     1       1.099   3.031  -0.135  1.00  0.00     0.006 C 
ATOM     20  C   UNL     1       1.457   1.751  -0.934  1.00  0.00     0.005 C 
ATOM     21  C   UNL     1       1.847   2.050  -2.407  1.00  0.00     0.008 C 
ATOM     22  C   UNL     1       0.785   2.876  -3.228  1.00  0.00    -0.017 C 
ATOM     23  C   UNL     1       1.324   3.322  -4.723  1.00  0.00     0.009 C 
ATOM     24  C   UNL     1       0.164   3.368  -5.795  1.00  0.00     0.043 C 
ATOM     25  C   UNL     1       0.401   4.254  -7.056  1.00  0.00     0.124 C 
ATOM     26  C   UNL     1       2.296   2.211  -5.248  1.00  0.00     0.015 C 
ATOM     27  C   UNL     1      -0.443   1.920  -3.424  1.00  0.00     0.013 C 
ATOM     28  C   UNL     1       2.254   2.242   2.014  1.00  0.00     0.017 C 
ATOM     29  C   UNL     1      -1.423   3.176  -0.877  1.00  0.00     0.012 C 
ATOM     30  C   UNL     1       0.349   8.967  -5.497  1.00  0.00     0.011 C 
ENDROOT
BRANCH  25  31
ATOM     31  O   UNL     1       0.875   3.471  -8.125  1.00  0.00    -0.392 OA
ATOM     32  H   UNL     1       0.580   2.537  -7.962  1.00  0.00     0.210 HD
ENDBRANCH  25  31
BRANCH  18  33
ATOM     33  C   UNL     1      -0.218   1.868   1.819  1.00  0.00     0.165 C 
BRANCH  33  34
ATOM     34  O   UNL     1      -0.493   1.927   3.197  1.00  0.00    -0.396 OA
ATOM     35  H   UNL     1       0.064   2.655   3.579  1.00  0.00     0.210 HD
ENDBRANCH  33  34
ENDBRANCH  18  33
BRANCH  17  36
ATOM     36  O   UNL     1       1.901   5.011   1.993  1.00  0.00    -0.392 OA
ATOM     37  H   UNL     1       1.721   5.879   2.440  1.00  0.00     0.210 HD
ENDBRANCH  17  36
TORSDOF 4
ENDMDL
MODEL 4
REMARK VINA RESULT:    -5.166      2.003      4.014
REMARK INTER + INTRA:          -6.005
REMARK INTER:                  -5.923
REMARK INTRA:                  -0.082
REMARK UNBOUND:                -0.084
REMARK SMILES CC1(C)CC[C@]23CO[C@@]4(C=C[C@@H]5[C@]6(C)CC[C@H](O)[C@@](C)(CO)[C@H]6CC[C@]5(C)[C@@]4(C)C[C@@H]2O)[C@@H]3C1
REMARK SMILES IDX 1 1 2 2 4 3 5 4 6 5 7 6 8 7 9 8 33 9 34 10 10 11 11 12 12 13
REMARK SMILES IDX 13 14 15 15 16 16 17 17 19 18 23 19 24 20 25 21 26 22 28 23
REMARK SMILES IDX 30 24 31 25 29 26 27 27 20 28 14 29 3 30 32 31 21 33 22 34
REMARK SMILES IDX 18 36
REMARK H PARENT 32 32 22 35 18 37
REMARK Flexibility Score: inf
ROOT
ATOM      1  C   UNL     1       1.376   4.505   1.403  1.00  0.00     0.011 C 
ATOM      2  C   UNL     1       0.778   3.389   0.519  1.00  0.00    -0.035 C 
ATOM      3  C   UNL     1       1.565   2.065   0.786  1.00  0.00     0.007 C 
ATOM      4  C   UNL     1       1.315   0.947  -0.259  1.00  0.00     0.013 C 
ATOM      5  C   UNL     1       1.471   1.454  -1.715  1.00  0.00     0.026 C 
ATOM      6  C   UNL     1       0.818   0.534  -2.771  1.00  0.00     0.171 C 
ATOM      7  O   UNL     1       0.302   1.355  -3.810  1.00  0.00    -0.369 OA
ATOM      8  C   UNL     1       0.607   2.700  -3.467  1.00  0.00     0.096 C 
ATOM      9  C   UNL     1       0.595   2.648  -1.924  1.00  0.00     0.037 C 
ATOM     10  C   UNL     1       0.891   3.831  -0.976  1.00  0.00     0.014 C 
ATOM     11  C   UNL     1      -0.530   3.561  -3.893  1.00  0.00     0.005 C 
ATOM     12  C   UNL     1      -0.391   4.876  -4.021  1.00  0.00    -0.024 C 
ATOM     13  C   UNL     1       0.982   5.566  -4.025  1.00  0.00     0.024 C 
ATOM     14  C   UNL     1       0.842   7.062  -4.581  1.00  0.00    -0.022 C 
ATOM     15  C   UNL     1      -0.217   7.871  -3.747  1.00  0.00     0.010 C 
ATOM     16  C   UNL     1      -0.620   9.211  -4.392  1.00  0.00     0.033 C 
ATOM     17  C   UNL     1      -1.119   9.037  -5.837  1.00  0.00     0.123 C 
ATOM     18  C   UNL     1      -0.070   8.334  -6.764  1.00  0.00     0.020 C 
ATOM     19  C   UNL     1       0.371   6.972  -6.086  1.00  0.00     0.006 C 
ATOM     20  C   UNL     1       1.310   6.074  -6.933  1.00  0.00     0.005 C 
ATOM     21  C   UNL     1       1.497   4.657  -6.328  1.00  0.00     0.008 C 
ATOM     22  C   UNL     1       1.987   4.626  -4.830  1.00  0.00    -0.017 C 
ATOM     23  C   UNL     1       1.992   3.109  -4.179  1.00  0.00     0.009 C 
ATOM     24  C   UNL     1       3.155   2.906  -3.128  1.00  0.00     0.043 C 
ATOM     25  C   UNL     1       2.969   1.767  -2.080  1.00  0.00     0.124 C 
ATOM     26  C   UNL     1       2.316   2.085  -5.321  1.00  0.00     0.015 C 
ATOM     27  C   UNL     1       3.466   5.146  -4.851  1.00  0.00     0.013 C 
ATOM     28  C   UNL     1      -0.767   8.033  -8.123  1.00  0.00     0.017 C 
ATOM     29  C   UNL     1       2.193   7.828  -4.389  1.00  0.00     0.012 C 
ATOM     30  C   UNL     1      -0.704   3.212   0.933  1.00  0.00     0.011 C 
ENDROOT
BRANCH  25  31
ATOM     31  O   UNL     1       3.628   0.598  -2.501  1.00  0.00    -0.392 OA
ATOM     32  H   UNL     1       3.334   0.411  -3.431  1.00  0.00     0.210 HD
ENDBRANCH  25  31
BRANCH  18  33
ATOM     33  C   UNL     1       1.126   9.292  -7.063  1.00  0.00     0.165 C 
BRANCH  33  34
ATOM     34  O   UNL     1       0.677  10.580  -7.404  1.00  0.00    -0.396 OA
ATOM     35  H   UNL     1       0.160  10.499  -8.249  1.00  0.00     0.210 HD
ENDBRANCH  33  34
ENDBRANCH  18  33
BRANCH  17  36
ATOM     36  O   UNL     1      -2.321   8.304  -5.821  1.00  0.00    -0.392 OA
ATOM     37  H   UNL     1      -2.440   7.956  -4.899  1.00  0.00     0.210 HD
ENDBRANCH  17  36
TORSDOF 4
ENDMDL
MODEL 5
REMARK VINA RESULT:    -5.111      1.346      1.605
REMARK INTER + INTRA:          -5.942
REMARK INTER:                  -5.884
REMARK INTRA:                  -0.057
REMARK UNBOUND:                -0.084
REMARK SMILES CC1(C)CC[C@]23CO[C@@]4(C=C[C@@H]5[C@]6(C)CC[C@H](O)[C@@](C)(CO)[C@H]6CC[C@]5(C)[C@@]4(C)C[C@@H]2O)[C@@H]3C1
REMARK SMILES IDX 1 1 2 2 4 3 5 4 6 5 7 6 8 7 9 8 33 9 34 10 10 11 11 12 12 13
REMARK SMILES IDX 13 14 15 15 16 16 17 17 19 18 23 19 24 20 25 21 26 22 28 23
REMARK SMILES IDX 30 24 31 25 29 26 27 27 20 28 14 29 3 30 32 31 21 33 22 34
REMARK SMILES IDX 18 36
REMARK H PARENT 32 32 22 35 18 37
REMARK Flexibility Score: inf
ROOT
ATOM      1  C   UNL     1       5.997   1.793  -0.708  1.00  0.00     0.011 C 
ATOM      2  C   UNL     1       5.190   2.498   0.404  1.00  0.00    -0.035 C 
ATOM      3  C   UNL     1       4.892   1.462   1.537  1.00  0.00     0.007 C 
ATOM      4  C   UNL     1       3.812   1.914   2.554  1.00  0.00     0.013 C 
ATOM      5  C   UNL     1       2.526   2.430   1.858  1.00  0.00     0.026 C 
ATOM      6  C   UNL     1       1.620   3.283   2.774  1.00  0.00     0.171 C 
ATOM      7  O   UNL     1       1.018   4.295   1.977  1.00  0.00    -0.369 OA
ATOM      8  C   UNL     1       1.483   4.106   0.647  1.00  0.00     0.096 C 
ATOM      9  C   UNL     1       2.884   3.502   0.879  1.00  0.00     0.037 C 
ATOM     10  C   UNL     1       3.871   3.057  -0.222  1.00  0.00     0.014 C 
ATOM     11  C   UNL     1       1.671   5.444   0.023  1.00  0.00     0.005 C 
ATOM     12  C   UNL     1       1.760   5.587  -1.295  1.00  0.00    -0.024 C 
ATOM     13  C   UNL     1       1.395   4.461  -2.275  1.00  0.00     0.024 C 
ATOM     14  C   UNL     1       1.229   5.052  -3.754  1.00  0.00    -0.022 C 
ATOM     15  C   UNL     1       2.530   5.816  -4.198  1.00  0.00     0.010 C 
ATOM     16  C   UNL     1       2.347   6.655  -5.478  1.00  0.00     0.033 C 
ATOM     17  C   UNL     1       1.175   7.646  -5.364  1.00  0.00     0.123 C 
ATOM     18  C   UNL     1      -0.186   6.946  -5.030  1.00  0.00     0.020 C 
ATOM     19  C   UNL     1       0.009   6.056  -3.734  1.00  0.00     0.006 C 
ATOM     20  C   UNL     1      -1.277   5.391  -3.178  1.00  0.00     0.005 C 
ATOM     21  C   UNL     1      -1.068   4.750  -1.780  1.00  0.00     0.008 C 
ATOM     22  C   UNL     1       0.116   3.713  -1.687  1.00  0.00    -0.017 C 
ATOM     23  C   UNL     1       0.412   3.201  -0.146  1.00  0.00     0.009 C 
ATOM     24  C   UNL     1       0.911   1.703  -0.092  1.00  0.00     0.043 C 
ATOM     25  C   UNL     1       1.714   1.270   1.173  1.00  0.00     0.124 C 
ATOM     26  C   UNL     1      -0.945   3.188   0.638  1.00  0.00     0.015 C 
ATOM     27  C   UNL     1      -0.337   2.470  -2.529  1.00  0.00     0.013 C 
ATOM     28  C   UNL     1      -1.232   8.061  -4.738  1.00  0.00     0.017 C 
ATOM     29  C   UNL     1       1.065   3.882  -4.779  1.00  0.00     0.012 C 
ATOM     30  C   UNL     1       6.068   3.646   0.960  1.00  0.00     0.011 C 
ENDROOT
BRANCH  25  31
ATOM     31  O   UNL     1       0.864   0.646   2.105  1.00  0.00    -0.392 OA
ATOM     32  H   UNL     1       0.851   1.214   2.920  1.00  0.00     0.210 HD
ENDBRANCH  25  31
BRANCH  18  33
ATOM     33  C   UNL     1      -0.704   6.141  -6.262  1.00  0.00     0.165 C 
BRANCH  33  34
ATOM     34  O   UNL     1      -1.554   6.922  -7.064  1.00  0.00    -0.396 OA
ATOM     35  H   UNL     1      -1.338   7.875  -6.882  1.00  0.00     0.210 HD
ENDBRANCH  33  34
ENDBRANCH  18  33
BRANCH  17  36
ATOM     36  O   UNL     1       1.481   8.606  -4.381  1.00  0.00    -0.392 OA
ATOM     37  H   UNL     1       2.283   8.281  -3.894  1.00  0.00     0.210 HD
ENDBRANCH  17  36
TORSDOF 4
ENDMDL
MODEL 6
REMARK VINA RESULT:    -5.084      2.052      7.325
REMARK INTER + INTRA:          -5.911
REMARK INTER:                  -5.826
REMARK INTRA:                  -0.085
REMARK UNBOUND:                -0.084
REMARK SMILES CC1(C)CC[C@]23CO[C@@]4(C=C[C@@H]5[C@]6(C)CC[C@H](O)[C@@](C)(CO)[C@H]6CC[C@]5(C)[C@@]4(C)C[C@@H]2O)[C@@H]3C1
REMARK SMILES IDX 1 1 2 2 4 3 5 4 6 5 7 6 8 7 9 8 33 9 34 10 10 11 11 12 12 13
REMARK SMILES IDX 13 14 15 15 16 16 17 17 19 18 23 19 24 20 25 21 26 22 28 23
REMARK SMILES IDX 30 24 31 25 29 26 27 27 20 28 14 29 3 30 32 31 21 33 22 34
REMARK SMILES IDX 18 36
REMARK H PARENT 32 32 22 35 18 37
REMARK Flexibility Score: inf
ROOT
ATOM      1  C   UNL     1       3.236   9.227  -3.563  1.00  0.00     0.011 C 
ATOM      2  C   UNL     1       2.600   8.094  -4.398  1.00  0.00    -0.035 C 
ATOM      3  C   UNL     1       1.364   8.670  -5.162  1.00  0.00     0.007 C 
ATOM      4  C   UNL     1       0.425   7.596  -5.769  1.00  0.00     0.013 C 
ATOM      5  C   UNL     1       0.039   6.502  -4.742  1.00  0.00     0.026 C 
ATOM      6  C   UNL     1      -0.511   5.208  -5.384  1.00  0.00     0.171 C 
ATOM      7  O   UNL     1      -0.079   4.108  -4.593  1.00  0.00    -0.369 OA
ATOM      8  C   UNL     1       0.675   4.644  -3.515  1.00  0.00     0.096 C 
ATOM      9  C   UNL     1       1.279   5.917  -4.145  1.00  0.00     0.037 C 
ATOM     10  C   UNL     1       2.186   6.940  -3.428  1.00  0.00     0.014 C 
ATOM     11  C   UNL     1       1.801   3.713  -3.224  1.00  0.00     0.005 C 
ATOM     12  C   UNL     1       2.459   3.763  -2.071  1.00  0.00    -0.024 C 
ATOM     13  C   UNL     1       1.948   4.559  -0.861  1.00  0.00     0.024 C 
ATOM     14  C   UNL     1       2.732   4.110   0.462  1.00  0.00    -0.022 C 
ATOM     15  C   UNL     1       4.285   4.268   0.270  1.00  0.00     0.010 C 
ATOM     16  C   UNL     1       5.117   3.590   1.377  1.00  0.00     0.033 C 
ATOM     17  C   UNL     1       4.762   2.103   1.546  1.00  0.00     0.123 C 
ATOM     18  C   UNL     1       3.243   1.868   1.850  1.00  0.00     0.020 C 
ATOM     19  C   UNL     1       2.386   2.593   0.733  1.00  0.00     0.006 C 
ATOM     20  C   UNL     1       0.855   2.353   0.800  1.00  0.00     0.005 C 
ATOM     21  C   UNL     1       0.107   2.874  -0.456  1.00  0.00     0.008 C 
ATOM     22  C   UNL     1       0.364   4.388  -0.811  1.00  0.00    -0.017 C 
ATOM     23  C   UNL     1      -0.304   4.840  -2.251  1.00  0.00     0.009 C 
ATOM     24  C   UNL     1      -0.790   6.344  -2.246  1.00  0.00     0.043 C 
ATOM     25  C   UNL     1      -0.935   7.045  -3.631  1.00  0.00     0.124 C 
ATOM     26  C   UNL     1      -1.614   4.008  -2.469  1.00  0.00     0.015 C 
ATOM     27  C   UNL     1      -0.330   5.218   0.324  1.00  0.00     0.013 C 
ATOM     28  C   UNL     1       2.980   0.335   1.790  1.00  0.00     0.017 C 
ATOM     29  C   UNL     1       2.362   5.062   1.647  1.00  0.00     0.012 C 
ATOM     30  C   UNL     1       3.666   7.609  -5.412  1.00  0.00     0.011 C 
ENDROOT
BRANCH  25  31
ATOM     31  O   UNL     1      -2.269   6.987  -4.075  1.00  0.00    -0.392 OA
ATOM     32  H   UNL     1      -2.656   7.896  -3.969  1.00  0.00     0.210 HD
ENDBRANCH  25  31
BRANCH  18  33
ATOM     33  C   UNL     1       2.896   2.338   3.298  1.00  0.00     0.165 C 
BRANCH  33  34
ATOM     34  O   UNL     1       2.156   1.362   3.989  1.00  0.00    -0.396 OA
ATOM     35  H   UNL     1       1.313   1.217   3.482  1.00  0.00     0.210 HD
ENDBRANCH  33  34
ENDBRANCH  18  33
BRANCH  17  36
ATOM     36  O   UNL     1       5.135   1.408   0.380  1.00  0.00    -0.392 OA
ATOM     37  H   UNL     1       4.314   1.287  -0.165  1.00  0.00     0.210 HD
ENDBRANCH  17  36
TORSDOF 4
ENDMDL
MODEL 7
REMARK VINA RESULT:    -5.043      2.376      7.339
REMARK INTER + INTRA:          -5.864
REMARK INTER:                  -5.794
REMARK INTRA:                  -0.069
REMARK UNBOUND:                -0.084
REMARK SMILES CC1(C)CC[C@]23CO[C@@]4(C=C[C@@H]5[C@]6(C)CC[C@H](O)[C@@](C)(CO)[C@H]6CC[C@]5(C)[C@@]4(C)C[C@@H]2O)[C@@H]3C1
REMARK SMILES IDX 1 1 2 2 4 3 5 4 6 5 7 6 8 7 9 8 33 9 34 10 10 11 11 12 12 13
REMARK SMILES IDX 13 14 15 15 16 16 17 17 19 18 23 19 24 20 25 21 26 22 28 23
REMARK SMILES IDX 30 24 31 25 29 26 27 27 20 28 14 29 3 30 32 31 21 33 22 34
REMARK SMILES IDX 18 36
REMARK H PARENT 32 32 22 35 18 37
REMARK Flexibility Score: inf
ROOT
ATOM      1  C   UNL     1       5.151   8.117  -5.958  1.00  0.00     0.011 C 
ATOM      2  C   UNL     1       3.755   8.201  -6.613  1.00  0.00    -0.035 C 
ATOM      3  C   UNL     1       3.193   9.645  -6.407  1.00  0.00     0.007 C 
ATOM      4  C   UNL     1       1.678   9.794  -6.702  1.00  0.00     0.013 C 
ATOM      5  C   UNL     1       0.828   8.712  -5.987  1.00  0.00     0.026 C 
ATOM      6  C   UNL     1      -0.589   8.538  -6.578  1.00  0.00     0.171 C 
ATOM      7  O   UNL     1      -0.938   7.163  -6.485  1.00  0.00    -0.369 OA
ATOM      8  C   UNL     1       0.157   6.499  -5.869  1.00  0.00     0.096 C 
ATOM      9  C   UNL     1       1.355   7.356  -6.331  1.00  0.00     0.037 C 
ATOM     10  C   UNL     1       2.833   7.128  -5.946  1.00  0.00     0.014 C 
ATOM     11  C   UNL     1       0.301   5.156  -6.495  1.00  0.00     0.005 C 
ATOM     12  C   UNL     1       0.997   4.189  -5.906  1.00  0.00    -0.024 C 
ATOM     13  C   UNL     1       1.454   4.273  -4.442  1.00  0.00     0.024 C 
ATOM     14  C   UNL     1       1.909   2.827  -3.925  1.00  0.00    -0.022 C 
ATOM     15  C   UNL     1       3.028   2.230  -4.853  1.00  0.00     0.010 C 
ATOM     16  C   UNL     1       3.311   0.736  -4.599  1.00  0.00     0.033 C 
ATOM     17  C   UNL     1       2.039  -0.124  -4.699  1.00  0.00     0.123 C 
ATOM     18  C   UNL     1       0.908   0.343  -3.720  1.00  0.00     0.020 C 
ATOM     19  C   UNL     1       0.640   1.886  -3.955  1.00  0.00     0.006 C 
ATOM     20  C   UNL     1      -0.547   2.490  -3.161  1.00  0.00     0.005 C 
ATOM     21  C   UNL     1      -0.913   3.925  -3.624  1.00  0.00     0.008 C 
ATOM     22  C   UNL     1       0.277   4.959  -3.613  1.00  0.00    -0.017 C 
ATOM     23  C   UNL     1      -0.120   6.414  -4.284  1.00  0.00     0.009 C 
ATOM     24  C   UNL     1       0.631   7.622  -3.597  1.00  0.00     0.043 C 
ATOM     25  C   UNL     1       0.774   8.932  -4.430  1.00  0.00     0.124 C 
ATOM     26  C   UNL     1      -1.637   6.688  -4.003  1.00  0.00     0.015 C 
ATOM     27  C   UNL     1       0.620   5.203  -2.103  1.00  0.00     0.013 C 
ATOM     28  C   UNL     1      -0.378  -0.464  -4.064  1.00  0.00     0.017 C 
ATOM     29  C   UNL     1       2.566   2.951  -2.510  1.00  0.00     0.012 C 
ATOM     30  C   UNL     1       3.931   7.915  -8.125  1.00  0.00     0.011 C 
ENDROOT
BRANCH  25  31
ATOM     31  O   UNL     1      -0.247   9.841  -4.096  1.00  0.00    -0.392 OA
ATOM     32  H   UNL     1       0.156  10.748  -4.083  1.00  0.00     0.210 HD
ENDBRANCH  25  31
BRANCH  18  33
ATOM     33  C   UNL     1       1.286  -0.002  -2.245  1.00  0.00     0.165 C 
BRANCH  33  34
ATOM     34  O   UNL     1       1.294  -1.391  -2.030  1.00  0.00    -0.396 OA
ATOM     35  H   UNL     1       1.165  -1.540  -1.056  1.00  0.00     0.210 HD
ENDBRANCH  33  34
ENDBRANCH  18  33
BRANCH  17  36
ATOM     36  O   UNL     1       1.571  -0.097  -6.027  1.00  0.00    -0.392 OA
ATOM     37  H   UNL     1       1.075  -0.943  -6.180  1.00  0.00     0.210 HD
ENDBRANCH  17  36
TORSDOF 4
ENDMDL
MODEL 8
REMARK VINA RESULT:    -4.919      1.676      2.219
REMARK INTER + INTRA:          -5.722
REMARK INTER:                  -5.668
REMARK INTRA:                  -0.055
REMARK UNBOUND:                -0.084
REMARK SMILES CC1(C)CC[C@]23CO[C@@]4(C=C[C@@H]5[C@]6(C)CC[C@H](O)[C@@](C)(CO)[C@H]6CC[C@]5(C)[C@@]4(C)C[C@@H]2O)[C@@H]3C1
REMARK SMILES IDX 1 1 2 2 4 3 5 4 6 5 7 6 8 7 9 8 33 9 34 10 10 11 11 12 12 13
REMARK SMILES IDX 13 14 15 15 16 16 17 17 19 18 23 19 24 20 25 21 26 22 28 23
REMARK SMILES IDX 30 24 31 25 29 26 27 27 20 28 14 29 3 30 32 31 21 33 22 34
REMARK SMILES IDX 18 36
REMARK H PARENT 32 32 22 35 18 37
REMARK Flexibility Score: inf
ROOT
ATOM      1  C   UNL     1       5.847   3.985   0.051  1.00  0.00     0.011 C 
ATOM      2  C   UNL     1       4.437   3.738   0.631  1.00  0.00    -0.035 C 
ATOM      3  C   UNL     1       4.362   2.265   1.150  1.00  0.00     0.007 C 
ATOM      4  C   UNL     1       2.926   1.761   1.447  1.00  0.00     0.013 C 
ATOM      5  C   UNL     1       1.951   2.034   0.273  1.00  0.00     0.026 C 
ATOM      6  C   UNL     1       0.459   1.963   0.671  1.00  0.00     0.171 C 
ATOM      7  O   UNL     1      -0.246   2.932  -0.094  1.00  0.00    -0.369 OA
ATOM      8  C   UNL     1       0.707   3.571  -0.934  1.00  0.00     0.096 C 
ATOM      9  C   UNL     1       1.993   3.486  -0.083  1.00  0.00     0.037 C 
ATOM     10  C   UNL     1       3.388   4.001  -0.498  1.00  0.00     0.014 C 
ATOM     11  C   UNL     1       0.341   5.009  -1.046  1.00  0.00     0.005 C 
ATOM     12  C   UNL     1       0.827   5.773  -2.018  1.00  0.00    -0.024 C 
ATOM     13  C   UNL     1       1.552   5.192  -3.242  1.00  0.00     0.024 C 
ATOM     14  C   UNL     1       1.661   6.300  -4.393  1.00  0.00    -0.022 C 
ATOM     15  C   UNL     1       2.369   7.596  -3.854  1.00  0.00     0.010 C 
ATOM     16  C   UNL     1       2.254   8.805  -4.803  1.00  0.00     0.033 C 
ATOM     17  C   UNL     1       0.793   9.123  -5.167  1.00  0.00     0.123 C 
ATOM     18  C   UNL     1       0.047   7.908  -5.815  1.00  0.00     0.020 C 
ATOM     19  C   UNL     1       0.194   6.655  -4.857  1.00  0.00     0.006 C 
ATOM     20  C   UNL     1      -0.601   5.392  -5.277  1.00  0.00     0.005 C 
ATOM     21  C   UNL     1      -0.620   4.297  -4.177  1.00  0.00     0.008 C 
ATOM     22  C   UNL     1       0.797   3.849  -3.651  1.00  0.00    -0.017 C 
ATOM     23  C   UNL     1       0.716   2.824  -2.360  1.00  0.00     0.009 C 
ATOM     24  C   UNL     1       1.897   1.773  -2.348  1.00  0.00     0.043 C 
ATOM     25  C   UNL     1       2.252   1.124  -0.975  1.00  0.00     0.124 C 
ATOM     26  C   UNL     1      -0.578   1.952  -2.504  1.00  0.00     0.015 C 
ATOM     27  C   UNL     1       1.470   3.077  -4.838  1.00  0.00     0.013 C 
ATOM     28  C   UNL     1      -1.458   8.289  -5.941  1.00  0.00     0.017 C 
ATOM     29  C   UNL     1       2.577   5.777  -5.548  1.00  0.00     0.012 C 
ATOM     30  C   UNL     1       4.240   4.722   1.810  1.00  0.00     0.011 C 
ENDROOT
BRANCH  25  31
ATOM     31  O   UNL     1       1.615  -0.123  -0.841  1.00  0.00    -0.392 OA
ATOM     32  H   UNL     1       1.227  -0.354  -1.726  1.00  0.00     0.210 HD
ENDBRANCH  25  31
BRANCH  18  33
ATOM     33  C   UNL     1       0.576   7.647  -7.260  1.00  0.00     0.165 C 
BRANCH  33  34
ATOM     34  O   UNL     1      -0.463   7.263  -8.125  1.00  0.00    -0.396 OA
ATOM     35  H   UNL     1      -0.266   6.338  -8.432  1.00  0.00     0.210 HD
ENDBRANCH  33  34
ENDBRANCH  18  33
BRANCH  17  36
ATOM     36  O   UNL     1       0.115   9.547  -4.009  1.00  0.00    -0.392 OA
ATOM     37  H   UNL     1       0.073  10.539  -4.040  1.00  0.00     0.210 HD
ENDBRANCH  17  36
TORSDOF 4
ENDMDL
MODEL 9
REMARK VINA RESULT:    -4.783      2.756      5.161
REMARK INTER + INTRA:          -5.566
REMARK INTER:                  -5.483
REMARK INTRA:                  -0.082
REMARK UNBOUND:                -0.084
REMARK SMILES CC1(C)CC[C@]23CO[C@@]4(C=C[C@@H]5[C@]6(C)CC[C@H](O)[C@@](C)(CO)[C@H]6CC[C@]5(C)[C@@]4(C)C[C@@H]2O)[C@@H]3C1
REMARK SMILES IDX 1 1 2 2 4 3 5 4 6 5 7 6 8 7 9 8 33 9 34 10 10 11 11 12 12 13
REMARK SMILES IDX 13 14 15 15 16 16 17 17 19 18 23 19 24 20 25 21 26 22 28 23
REMARK SMILES IDX 30 24 31 25 29 26 27 27 20 28 14 29 3 30 32 31 21 33 22 34
REMARK SMILES IDX 18 36
REMARK H PARENT 32 32 22 35 18 37
REMARK Flexibility Score: inf
ROOT
ATOM      1  C   UNL     1       3.037   3.562  -0.350  1.00  0.00     0.011 C 
ATOM      2  C   UNL     1       1.725   4.322  -0.644  1.00  0.00    -0.035 C 
ATOM      3  C   UNL     1       0.549   3.294  -0.677  1.00  0.00     0.007 C 
ATOM      4  C   UNL     1      -0.766   3.841  -1.290  1.00  0.00     0.013 C 
ATOM      5  C   UNL     1      -0.536   4.534  -2.657  1.00  0.00     0.026 C 
ATOM      6  C   UNL     1      -1.695   5.460  -3.091  1.00  0.00     0.171 C 
ATOM      7  O   UNL     1      -1.135   6.565  -3.790  1.00  0.00    -0.369 OA
ATOM      8  C   UNL     1       0.272   6.364  -3.823  1.00  0.00     0.096 C 
ATOM      9  C   UNL     1       0.517   5.585  -2.513  1.00  0.00     0.037 C 
ATOM     10  C   UNL     1       1.880   5.059  -2.014  1.00  0.00     0.014 C 
ATOM     11  C   UNL     1       0.936   7.689  -3.685  1.00  0.00     0.005 C 
ATOM     12  C   UNL     1       2.209   7.864  -4.023  1.00  0.00    -0.024 C 
ATOM     13  C   UNL     1       2.999   6.824  -4.834  1.00  0.00     0.024 C 
ATOM     14  C   UNL     1       4.343   7.481  -5.406  1.00  0.00    -0.022 C 
ATOM     15  C   UNL     1       5.204   8.094  -4.242  1.00  0.00     0.010 C 
ATOM     16  C   UNL     1       6.357   8.991  -4.733  1.00  0.00     0.033 C 
ATOM     17  C   UNL     1       5.868  10.114  -5.664  1.00  0.00     0.123 C 
ATOM     18  C   UNL     1       5.091   9.576  -6.913  1.00  0.00     0.020 C 
ATOM     19  C   UNL     1       3.926   8.625  -6.413  1.00  0.00     0.006 C 
ATOM     20  C   UNL     1       2.965   8.105  -7.513  1.00  0.00     0.005 C 
ATOM     21  C   UNL     1       1.712   7.397  -6.933  1.00  0.00     0.008 C 
ATOM     22  C   UNL     1       2.010   6.220  -5.928  1.00  0.00    -0.017 C 
ATOM     23  C   UNL     1       0.652   5.625  -5.203  1.00  0.00     0.009 C 
ATOM     24  C   UNL     1       0.754   4.075  -4.908  1.00  0.00     0.043 C 
ATOM     25  C   UNL     1      -0.174   3.505  -3.792  1.00  0.00     0.124 C 
ATOM     26  C   UNL     1      -0.541   5.752  -6.211  1.00  0.00     0.015 C 
ATOM     27  C   UNL     1       2.640   5.070  -6.789  1.00  0.00     0.013 C 
ATOM     28  C   UNL     1       4.476  10.800  -7.652  1.00  0.00     0.017 C 
ATOM     29  C   UNL     1       5.243   6.374  -6.049  1.00  0.00     0.012 C 
ATOM     30  C   UNL     1       1.507   5.335   0.507  1.00  0.00     0.011 C 
ENDROOT
BRANCH  25  31
ATOM     31  O   UNL     1      -1.342   2.960  -4.355  1.00  0.00    -0.392 OA
ATOM     32  H   UNL     1      -2.111   3.284  -3.815  1.00  0.00     0.210 HD
ENDBRANCH  25  31
BRANCH  18  33
ATOM     33  C   UNL     1       6.071   8.881  -7.910  1.00  0.00     0.165 C 
BRANCH  33  34
ATOM     34  O   UNL     1       7.224   9.657  -8.117  1.00  0.00    -0.396 OA
ATOM     35  H   UNL     1       7.009  10.325  -8.821  1.00  0.00     0.210 HD
ENDBRANCH  33  34
ENDBRANCH  18  33
BRANCH  17  36
ATOM     36  O   UNL     1       5.052  10.996  -4.929  1.00  0.00    -0.392 OA
ATOM     37  H   UNL     1       4.212  10.511  -4.719  1.00  0.00     0.210 HD
ENDBRANCH  17  36
TORSDOF 4
ENDMDL
