MODEL 1
REMARK VINA RESULT:    -3.706      0.000      0.000
REMARK INTER + INTRA:          -6.358
REMARK INTER:                  -5.656
REMARK INTRA:                  -0.702
REMARK UNBOUND:                -0.702
REMARK SMILES CCCCCCCCCC=CC(=O)[O-]
REMARK SMILES IDX 7 1 8 2 9 3 10 4 11 5 12 6 13 7 14 8 6 9 5 10 4 11 3 12 2 13
REMARK SMILES IDX 1 14
REMARK H PARENT
REMARK Flexibility Score: inf
ROOT
ATOM      1  C   UNL     1      32.233 169.752  19.022  1.00  0.00     0.000 C 
ENDROOT
BRANCH   1   2
ATOM      2  C   UNL     1      31.889 171.249  19.076  1.00  0.00     0.004 C 
BRANCH   2   3
ATOM      3  C   UNL     1      30.446 171.510  19.534  1.00  0.00     0.027 C 
BRANCH   3   4
ATOM      4  C   UNL     1      30.389 172.634  20.529  1.00  0.00    -0.025 C 
ATOM      5  C   UNL     1      29.284 173.368  20.690  1.00  0.00     0.020 C 
BRANCH   5   6
ATOM      6  C   UNL     1      29.218 174.480  21.651  1.00  0.00     0.064 C 
ATOM      7  O   UNL     1      29.814 174.383  22.754  1.00  0.00    -0.545 OA
ATOM      8  O   UNL     1      28.508 175.639  21.357  1.00  0.00    -0.545 OA
ENDBRANCH   5   6
ENDBRANCH   3   4
ENDBRANCH   2   3
ENDBRANCH   1   2
BRANCH   1   9
ATOM      9  C   UNL     1      33.745 169.500  18.886  1.00  0.00     0.000 C 
BRANCH   9  10
ATOM     10  C   UNL     1      34.129 168.880  17.530  1.00  0.00     0.000 C 
BRANCH  10  11
ATOM     11  C   UNL     1      35.244 169.616  16.765  1.00  0.00    -0.000 C 
BRANCH  11  12
ATOM     12  C   UNL     1      34.874 171.064  16.411  1.00  0.00    -0.000 C 
BRANCH  12  13
ATOM     13  C   UNL     1      34.151 171.131  15.061  1.00  0.00    -0.003 C 
ATOM     14  C   UNL     1      32.683 171.507  15.239  1.00  0.00     0.004 C 
ENDBRANCH  12  13
ENDBRANCH  11  12
ENDBRANCH  10  11
ENDBRANCH   9  10
ENDBRANCH   1   9
TORSDOF 9
ENDMDL
MODEL 2
REMARK VINA RESULT:    -3.688     19.291     21.187
REMARK INTER + INTRA:          -6.330
REMARK INTER:                  -5.309
REMARK INTRA:                  -1.021
REMARK UNBOUND:                -0.702
REMARK SMILES CCCCCCCCCC=CC(=O)[O-]
REMARK SMILES IDX 7 1 8 2 9 3 10 4 11 5 12 6 13 7 14 8 6 9 5 10 4 11 3 12 2 13
REMARK SMILES IDX 1 14
REMARK H PARENT
REMARK Flexibility Score: inf
ROOT
ATOM      1  C   UNL     1      41.659 186.210  31.347  1.00  0.00     0.000 C 
ENDROOT
BRANCH   1   2
ATOM      2  C   UNL     1      40.405 185.781  30.570  1.00  0.00     0.004 C 
BRANCH   2   3
ATOM      3  C   UNL     1      39.228 186.750  30.761  1.00  0.00     0.027 C 
BRANCH   3   4
ATOM      4  C   UNL     1      37.939 186.004  30.955  1.00  0.00    -0.025 C 
ATOM      5  C   UNL     1      37.712 185.277  32.053  1.00  0.00     0.020 C 
BRANCH   5   6
ATOM      6  C   UNL     1      36.460 184.531  32.251  1.00  0.00     0.064 C 
ATOM      7  O   UNL     1      35.601 184.505  31.332  1.00  0.00    -0.545 OA
ATOM      8  O   UNL     1      36.211 183.851  33.438  1.00  0.00    -0.545 OA
ENDBRANCH   5   6
ENDBRANCH   3   4
ENDBRANCH   2   3
ENDBRANCH   1   2
BRANCH   1   9
ATOM      9  C   UNL     1      41.336 187.177  32.499  1.00  0.00     0.000 C 
BRANCH   9  10
ATOM     10  C   UNL     1      41.342 186.491  33.878  1.00  0.00     0.000 C 
BRANCH  10  11
ATOM     11  C   UNL     1      42.571 185.611  34.165  1.00  0.00    -0.000 C 
BRANCH  11  12
ATOM     12  C   UNL     1      42.213 184.135  34.396  1.00  0.00    -0.000 C 
BRANCH  12  13
ATOM     13  C   UNL     1      42.759 183.255  33.267  1.00  0.00    -0.003 C 
ATOM     14  C   UNL     1      44.134 183.735  32.807  1.00  0.00     0.004 C 
ENDBRANCH  12  13
ENDBRANCH  11  12
ENDBRANCH  10  11
ENDBRANCH   9  10
ENDBRANCH   1   9
TORSDOF 9
ENDMDL
MODEL 3
REMARK VINA RESULT:    -3.652      0.989      2.046
REMARK INTER + INTRA:          -6.276
REMARK INTER:                  -5.477
REMARK INTRA:                  -0.798
REMARK UNBOUND:                -0.702
REMARK SMILES CCCCCCCCCC=CC(=O)[O-]
REMARK SMILES IDX 7 1 8 2 9 3 10 4 11 5 12 6 13 7 14 8 6 9 5 10 4 11 3 12 2 13
REMARK SMILES IDX 1 14
REMARK H PARENT
REMARK Flexibility Score: inf
ROOT
ATOM      1  C   UNL     1      32.022 171.130  18.516  1.00  0.00     0.000 C 
ENDROOT
BRANCH   1   2
ATOM      2  C   UNL     1      31.281 171.651  19.758  1.00  0.00     0.004 C 
BRANCH   2   3
ATOM      3  C   UNL     1      29.756 171.678  19.571  1.00  0.00     0.027 C 
BRANCH   3   4
ATOM      4  C   UNL     1      29.134 172.796  20.356  1.00  0.00    -0.025 C 
ATOM      5  C   UNL     1      29.882 173.690  21.012  1.00  0.00     0.020 C 
BRANCH   5   6
ATOM      6  C   UNL     1      29.287 174.782  21.796  1.00  0.00     0.064 C 
ATOM      7  O   UNL     1      29.595 174.916  23.008  1.00  0.00    -0.545 OA
ATOM      8  O   UNL     1      28.387 175.671  21.217  1.00  0.00    -0.545 OA
ENDBRANCH   5   6
ENDBRANCH   3   4
ENDBRANCH   2   3
ENDBRANCH   1   2
BRANCH   1   9
ATOM      9  C   UNL     1      31.063 170.756  17.372  1.00  0.00     0.000 C 
BRANCH   9  10
ATOM     10  C   UNL     1      31.623 171.106  15.981  1.00  0.00     0.000 C 
BRANCH  10  11
ATOM     11  C   UNL     1      32.968 171.854  15.987  1.00  0.00    -0.000 C 
BRANCH  11  12
ATOM     12  C   UNL     1      34.069 171.116  15.211  1.00  0.00    -0.000 C 
BRANCH  12  13
ATOM     13  C   UNL     1      35.241 170.755  16.131  1.00  0.00    -0.003 C 
ATOM     14  C   UNL     1      34.957 169.473  16.909  1.00  0.00     0.004 C 
ENDBRANCH  12  13
ENDBRANCH  11  12
ENDBRANCH  10  11
ENDBRANCH   9  10
ENDBRANCH   1   9
TORSDOF 9
ENDMDL
MODEL 4
REMARK VINA RESULT:    -3.635     18.083     20.672
REMARK INTER + INTRA:          -6.250
REMARK INTER:                  -5.169
REMARK INTRA:                  -1.081
REMARK UNBOUND:                -0.702
REMARK SMILES CCCCCCCCCC=CC(=O)[O-]
REMARK SMILES IDX 7 1 8 2 9 3 10 4 11 5 12 6 13 7 14 8 6 9 5 10 4 11 3 12 2 13
REMARK SMILES IDX 1 14
REMARK H PARENT
REMARK Flexibility Score: inf
ROOT
ATOM      1  C   UNL     1      40.158 185.926  30.876  1.00  0.00     0.000 C 
ENDROOT
BRANCH   1   2
ATOM      2  C   UNL     1      39.170 186.904  31.529  1.00  0.00     0.004 C 
BRANCH   2   3
ATOM      3  C   UNL     1      38.091 186.191  32.359  1.00  0.00     0.027 C 
BRANCH   3   4
ATOM      4  C   UNL     1      37.253 185.290  31.498  1.00  0.00    -0.025 C 
ATOM      5  C   UNL     1      36.222 184.605  32.001  1.00  0.00     0.020 C 
BRANCH   5   6
ATOM      6  C   UNL     1      35.401 183.708  31.173  1.00  0.00     0.064 C 
ATOM      7  O   UNL     1      34.729 184.184  30.222  1.00  0.00    -0.545 OA
ATOM      8  O   UNL     1      35.359 182.341  31.423  1.00  0.00    -0.545 OA
ENDBRANCH   5   6
ENDBRANCH   3   4
ENDBRANCH   2   3
ENDBRANCH   1   2
BRANCH   1   9
ATOM      9  C   UNL     1      41.613 186.184  31.307  1.00  0.00     0.000 C 
BRANCH   9  10
ATOM     10  C   UNL     1      41.719 187.084  32.552  1.00  0.00     0.000 C 
BRANCH  10  11
ATOM     11  C   UNL     1      42.134 186.363  33.847  1.00  0.00    -0.000 C 
BRANCH  11  12
ATOM     12  C   UNL     1      42.555 184.905  33.614  1.00  0.00    -0.000 C 
BRANCH  12  13
ATOM     13  C   UNL     1      41.696 183.946  34.446  1.00  0.00    -0.003 C 
ATOM     14  C   UNL     1      40.538 183.388  33.622  1.00  0.00     0.004 C 
ENDBRANCH  12  13
ENDBRANCH  11  12
ENDBRANCH  10  11
ENDBRANCH   9  10
ENDBRANCH   1   9
TORSDOF 9
ENDMDL
MODEL 5
REMARK VINA RESULT:    -3.623     19.901     21.736
REMARK INTER + INTRA:          -6.231
REMARK INTER:                  -4.519
REMARK INTRA:                  -1.712
REMARK UNBOUND:                -0.702
REMARK SMILES CCCCCCCCCC=CC(=O)[O-]
REMARK SMILES IDX 7 1 8 2 9 3 10 4 11 5 12 6 13 7 14 8 6 9 5 10 4 11 3 12 2 13
REMARK SMILES IDX 1 14
REMARK H PARENT
REMARK Flexibility Score: inf
ROOT
ATOM      1  C   UNL     1      41.696 186.222  31.648  1.00  0.00     0.000 C 
ENDROOT
BRANCH   1   2
ATOM      2  C   UNL     1      40.505 185.419  31.101  1.00  0.00     0.004 C 
BRANCH   2   3
ATOM      3  C   UNL     1      39.522 186.286  30.300  1.00  0.00     0.027 C 
BRANCH   3   4
ATOM      4  C   UNL     1      38.174 186.326  30.959  1.00  0.00    -0.025 C 
ATOM      5  C   UNL     1      37.832 185.444  31.904  1.00  0.00     0.020 C 
BRANCH   5   6
ATOM      6  C   UNL     1      36.510 185.462  32.548  1.00  0.00     0.064 C 
ATOM      7  O   UNL     1      35.523 184.958  31.953  1.00  0.00    -0.545 OA
ATOM      8  O   UNL     1      36.334 186.028  33.806  1.00  0.00    -0.545 OA
ENDBRANCH   5   6
ENDBRANCH   3   4
ENDBRANCH   2   3
ENDBRANCH   1   2
BRANCH   1   9
ATOM      9  C   UNL     1      42.049 185.839  33.096  1.00  0.00     0.000 C 
BRANCH   9  10
ATOM     10  C   UNL     1      40.952 185.002  33.780  1.00  0.00     0.000 C 
BRANCH  10  11
ATOM     11  C   UNL     1      40.134 185.745  34.851  1.00  0.00    -0.000 C 
BRANCH  11  12
ATOM     12  C   UNL     1      40.403 187.257  34.871  1.00  0.00    -0.000 C 
BRANCH  12  13
ATOM     13  C   UNL     1      39.273 188.025  34.175  1.00  0.00    -0.003 C 
ATOM     14  C   UNL     1      39.828 189.044  33.183  1.00  0.00     0.004 C 
ENDBRANCH  12  13
ENDBRANCH  11  12
ENDBRANCH  10  11
ENDBRANCH   9  10
ENDBRANCH   1   9
TORSDOF 9
ENDMDL
MODEL 6
REMARK VINA RESULT:    -3.614      1.269      2.601
REMARK INTER + INTRA:          -6.217
REMARK INTER:                  -5.259
REMARK INTRA:                  -0.958
REMARK UNBOUND:                -0.702
REMARK SMILES CCCCCCCCCC=CC(=O)[O-]
REMARK SMILES IDX 7 1 8 2 9 3 10 4 11 5 12 6 13 7 14 8 6 9 5 10 4 11 3 12 2 13
REMARK SMILES IDX 1 14
REMARK H PARENT
REMARK Flexibility Score: inf
ROOT
ATOM      1  C   UNL     1      30.603 171.010  17.184  1.00  0.00     0.000 C 
ENDROOT
BRANCH   1   2
ATOM      2  C   UNL     1      31.583 170.090  17.928  1.00  0.00     0.004 C 
BRANCH   2   3
ATOM      3  C   UNL     1      31.798 170.509  19.390  1.00  0.00     0.027 C 
BRANCH   3   4
ATOM      4  C   UNL     1      31.119 171.816  19.684  1.00  0.00    -0.025 C 
ATOM      5  C   UNL     1      30.381 171.988  20.785  1.00  0.00     0.020 C 
BRANCH   5   6
ATOM      6  C   UNL     1      29.699 173.258  21.078  1.00  0.00     0.064 C 
ATOM      7  O   UNL     1      28.487 173.249  21.413  1.00  0.00    -0.545 OA
ATOM      8  O   UNL     1      30.375 174.471  20.991  1.00  0.00    -0.545 OA
ENDBRANCH   5   6
ENDBRANCH   3   4
ENDBRANCH   2   3
ENDBRANCH   1   2
BRANCH   1   9
ATOM      9  C   UNL     1      31.014 171.248  15.720  1.00  0.00     0.000 C 
BRANCH   9  10
ATOM     10  C   UNL     1      32.433 171.831  15.583  1.00  0.00     0.000 C 
BRANCH  10  11
ATOM     11  C   UNL     1      33.450 170.917  14.876  1.00  0.00    -0.000 C 
BRANCH  11  12
ATOM     12  C   UNL     1      34.882 171.089  15.406  1.00  0.00    -0.000 C 
BRANCH  12  13
ATOM     13  C   UNL     1      34.961 170.737  16.896  1.00  0.00    -0.003 C 
ATOM     14  C   UNL     1      35.213 169.244  17.097  1.00  0.00     0.004 C 
ENDBRANCH  12  13
ENDBRANCH  11  12
ENDBRANCH  10  11
ENDBRANCH   9  10
ENDBRANCH   1   9
TORSDOF 9
ENDMDL
MODEL 7
REMARK VINA RESULT:    -3.575      3.109      3.845
REMARK INTER + INTRA:          -6.158
REMARK INTER:                  -5.048
REMARK INTRA:                  -1.111
REMARK UNBOUND:                -0.702
REMARK SMILES CCCCCCCCCC=CC(=O)[O-]
REMARK SMILES IDX 7 1 8 2 9 3 10 4 11 5 12 6 13 7 14 8 6 9 5 10 4 11 3 12 2 13
REMARK SMILES IDX 1 14
REMARK H PARENT
REMARK Flexibility Score: inf
ROOT
ATOM      1  C   UNL     1      31.247 170.975  17.662  1.00  0.00     0.000 C 
ENDROOT
BRANCH   1   2
ATOM      2  C   UNL     1      32.204 171.079  18.860  1.00  0.00     0.004 C 
BRANCH   2   3
ATOM      3  C   UNL     1      32.672 169.705  19.366  1.00  0.00     0.027 C 
BRANCH   3   4
ATOM      4  C   UNL     1      32.949 169.738  20.841  1.00  0.00    -0.025 C 
ATOM      5  C   UNL     1      31.974 169.953  21.730  1.00  0.00     0.020 C 
BRANCH   5   6
ATOM      6  C   UNL     1      32.233 170.001  23.177  1.00  0.00     0.064 C 
ATOM      7  O   UNL     1      33.403 170.208  23.591  1.00  0.00    -0.545 OA
ATOM      8  O   UNL     1      31.204 169.822  24.095  1.00  0.00    -0.545 OA
ENDBRANCH   5   6
ENDBRANCH   3   4
ENDBRANCH   2   3
ENDBRANCH   1   2
BRANCH   1   9
ATOM      9  C   UNL     1      31.368 169.629  16.926  1.00  0.00     0.000 C 
BRANCH   9  10
ATOM     10  C   UNL     1      31.954 169.771  15.509  1.00  0.00     0.000 C 
BRANCH  10  11
ATOM     11  C   UNL     1      32.613 171.129  15.206  1.00  0.00    -0.000 C 
BRANCH  11  12
ATOM     12  C   UNL     1      34.131 171.027  14.999  1.00  0.00    -0.000 C 
BRANCH  12  13
ATOM     13  C   UNL     1      34.873 171.090  16.340  1.00  0.00    -0.003 C 
ATOM     14  C   UNL     1      35.326 169.702  16.785  1.00  0.00     0.004 C 
ENDBRANCH  12  13
ENDBRANCH  11  12
ENDBRANCH  10  11
ENDBRANCH   9  10
ENDBRANCH   1   9
TORSDOF 9
ENDMDL
MODEL 8
REMARK VINA RESULT:    -3.546     20.616     22.181
REMARK INTER + INTRA:          -6.114
REMARK INTER:                  -4.580
REMARK INTRA:                  -1.535
REMARK UNBOUND:                -0.702
REMARK SMILES CCCCCCCCCC=CC(=O)[O-]
REMARK SMILES IDX 7 1 8 2 9 3 10 4 11 5 12 6 13 7 14 8 6 9 5 10 4 11 3 12 2 13
REMARK SMILES IDX 1 14
REMARK H PARENT
REMARK Flexibility Score: inf
ROOT
ATOM      1  C   UNL     1      39.120 186.298  30.669  1.00  0.00     0.000 C 
ENDROOT
BRANCH   1   2
ATOM      2  C   UNL     1      40.500 185.624  30.715  1.00  0.00     0.004 C 
BRANCH   2   3
ATOM      3  C   UNL     1      41.504 186.386  31.593  1.00  0.00     0.027 C 
BRANCH   3   4
ATOM      4  C   UNL     1      42.136 185.476  32.607  1.00  0.00    -0.025 C 
ATOM      5  C   UNL     1      42.548 184.247  32.282  1.00  0.00     0.020 C 
BRANCH   5   6
ATOM      6  C   UNL     1      43.156 183.341  33.268  1.00  0.00     0.064 C 
ATOM      7  O   UNL     1      42.417 182.606  33.973  1.00  0.00    -0.545 OA
ATOM      8  O   UNL     1      44.535 183.282  33.432  1.00  0.00    -0.545 OA
ENDBRANCH   5   6
ENDBRANCH   3   4
ENDBRANCH   2   3
ENDBRANCH   1   2
BRANCH   1   9
ATOM      9  C   UNL     1      38.982 187.428  31.705  1.00  0.00     0.000 C 
BRANCH   9  10
ATOM     10  C   UNL     1      37.619 187.421  32.421  1.00  0.00     0.000 C 
BRANCH  10  11
ATOM     11  C   UNL     1      37.624 186.805  33.832  1.00  0.00    -0.000 C 
BRANCH  11  12
ATOM     12  C   UNL     1      39.036 186.654  34.417  1.00  0.00    -0.000 C 
BRANCH  12  13
ATOM     13  C   UNL     1      39.297 185.208  34.853  1.00  0.00    -0.003 C 
ATOM     14  C   UNL     1      38.834 184.218  33.787  1.00  0.00     0.004 C 
ENDBRANCH  12  13
ENDBRANCH  11  12
ENDBRANCH  10  11
ENDBRANCH   9  10
ENDBRANCH   1   9
TORSDOF 9
ENDMDL
MODEL 9
REMARK VINA RESULT:    -3.484      1.250      2.443
REMARK INTER + INTRA:          -6.019
REMARK INTER:                  -5.038
REMARK INTRA:                  -0.981
REMARK UNBOUND:                -0.702
REMARK SMILES CCCCCCCCCC=CC(=O)[O-]
REMARK SMILES IDX 7 1 8 2 9 3 10 4 11 5 12 6 13 7 14 8 6 9 5 10 4 11 3 12 2 13
REMARK SMILES IDX 1 14
REMARK H PARENT
REMARK Flexibility Score: inf
ROOT
ATOM      1  C   UNL     1      34.164 169.427  17.542  1.00  0.00     0.000 C 
ENDROOT
BRANCH   1   2
ATOM      2  C   UNL     1      33.389 169.607  18.857  1.00  0.00     0.004 C 
BRANCH   2   3
ATOM      3  C   UNL     1      31.951 170.104  18.635  1.00  0.00     0.027 C 
BRANCH   3   4
ATOM      4  C   UNL     1      31.533 171.053  19.721  1.00  0.00    -0.025 C 
ATOM      5  C   UNL     1      30.310 171.593  19.743  1.00  0.00     0.020 C 
BRANCH   5   6
ATOM      6  C   UNL     1      29.891 172.535  20.792  1.00  0.00     0.064 C 
ATOM      7  O   UNL     1      29.022 172.183  21.630  1.00  0.00    -0.545 OA
ATOM      8  O   UNL     1      30.443 173.809  20.873  1.00  0.00    -0.545 OA
ENDBRANCH   5   6
ENDBRANCH   3   4
ENDBRANCH   2   3
ENDBRANCH   1   2
BRANCH   1   9
ATOM      9  C   UNL     1      35.016 170.659  17.188  1.00  0.00     0.000 C 
BRANCH   9  10
ATOM     10  C   UNL     1      35.193 170.849  15.670  1.00  0.00     0.000 C 
BRANCH  10  11
ATOM     11  C   UNL     1      33.886 171.040  14.878  1.00  0.00    -0.000 C 
BRANCH  11  12
ATOM     12  C   UNL     1      32.850 171.892  15.625  1.00  0.00    -0.000 C 
BRANCH  12  13
ATOM     13  C   UNL     1      31.424 171.451  15.277  1.00  0.00    -0.003 C 
ATOM     14  C   UNL     1      31.378 169.970  14.909  1.00  0.00     0.004 C 
ENDBRANCH  12  13
ENDBRANCH  11  12
ENDBRANCH  10  11
ENDBRANCH   9  10
ENDBRANCH   1   9
TORSDOF 9
ENDMDL
