MODEL 1
REMARK VINA RESULT:    -7.916      0.000      0.000
REMARK INTER + INTRA:         -12.827
REMARK INTER:                 -12.081
REMARK INTRA:                  -0.746
REMARK UNBOUND:                -0.746
REMARK SMILES CC(=O)CCC=C(C)CCC=C(C)CCC=C(C)C
REMARK SMILES IDX 10 1 11 2 12 3 13 4 14 5 15 6 16 7 18 8 17 9 19 10 9 11 7 12
REMARK SMILES IDX 6 13 8 14 5 15 4 16 2 17 3 18 1 19
REMARK H PARENT
REMARK Flexibility Score: inf
ROOT
ATOM      1  C   UNL     1      15.668  17.405  31.463  1.00  0.00     0.032 C 
ENDROOT
BRANCH   1   2
ATOM      2  C   UNL     1      16.575  18.609  31.429  1.00  0.00    -0.028 C 
ATOM      3  C   UNL     1      17.883  18.591  31.775  1.00  0.00    -0.077 C 
ATOM      4  C   UNL     1      18.555  17.338  32.288  1.00  0.00     0.039 C 
BRANCH   3   5
ATOM      5  C   UNL     1      18.691  19.864  31.654  1.00  0.00     0.034 C 
BRANCH   5   6
ATOM      6  C   UNL     1      17.772  21.091  31.601  1.00  0.00     0.032 C 
BRANCH   6   7
ATOM      7  C   UNL     1      17.830  21.857  32.899  1.00  0.00    -0.028 C 
ATOM      8  C   UNL     1      17.731  23.822  34.371  1.00  0.00     0.039 C 
ATOM      9  C   UNL     1      17.602  23.185  33.012  1.00  0.00    -0.080 C 
ATOM     10  C   UNL     1      17.207  24.033  31.826  1.00  0.00     0.039 C 
ENDBRANCH   6   7
ENDBRANCH   5   6
ENDBRANCH   3   5
ENDBRANCH   1   2
BRANCH   1  11
ATOM     11  C   UNL     1      14.403  17.655  30.633  1.00  0.00     0.034 C 
BRANCH  11  12
ATOM     12  C   UNL     1      13.498  16.444  30.655  1.00  0.00    -0.077 C 
ATOM     13  C   UNL     1      12.394  16.436  29.872  1.00  0.00    -0.028 C 
ATOM     14  C   UNL     1      13.854  15.274  31.544  1.00  0.00     0.039 C 
BRANCH  13  15
ATOM     15  C   UNL     1      11.386  15.314  29.830  1.00  0.00     0.035 C 
BRANCH  15  16
ATOM     16  C   UNL     1      10.654  15.294  28.484  1.00  0.00     0.079 C 
BRANCH  16  17
ATOM     17  C   UNL     1      10.914  14.001  27.757  1.00  0.00     0.130 C 
ATOM     18  O   UNL     1      10.978  13.998  26.537  1.00  0.00    -0.300 OA
ATOM     19  C   UNL     1      11.088  12.709  28.500  1.00  0.00     0.087 C 
ENDBRANCH  16  17
ENDBRANCH  15  16
ENDBRANCH  13  15
ENDBRANCH  11  12
ENDBRANCH   1  11
TORSDOF 9
ENDMDL
MODEL 2
REMARK VINA RESULT:    -6.849      3.820      9.682
REMARK INTER + INTRA:         -11.198
REMARK INTER:                 -10.391
REMARK INTRA:                  -0.807
REMARK UNBOUND:                -0.746
REMARK SMILES CC(=O)CCC=C(C)CCC=C(C)CCC=C(C)C
REMARK SMILES IDX 10 1 11 2 12 3 13 4 14 5 15 6 16 7 18 8 17 9 19 10 9 11 7 12
REMARK SMILES IDX 6 13 8 14 5 15 4 16 2 17 3 18 1 19
REMARK H PARENT
REMARK Flexibility Score: inf
ROOT
ATOM      1  C   UNL     1      17.747  20.349  31.263  1.00  0.00     0.032 C 
ENDROOT
BRANCH   1   2
ATOM      2  C   UNL     1      16.615  19.358  31.359  1.00  0.00    -0.028 C 
ATOM      3  C   UNL     1      16.771  18.041  31.630  1.00  0.00    -0.077 C 
ATOM      4  C   UNL     1      18.138  17.422  31.816  1.00  0.00     0.039 C 
BRANCH   3   5
ATOM      5  C   UNL     1      15.544  17.164  31.740  1.00  0.00     0.034 C 
BRANCH   5   6
ATOM      6  C   UNL     1      14.422  17.679  30.829  1.00  0.00     0.032 C 
BRANCH   6   7
ATOM      7  C   UNL     1      13.478  16.562  30.461  1.00  0.00    -0.028 C 
ATOM      8  C   UNL     1      11.369  15.529  29.736  1.00  0.00     0.039 C 
ATOM      9  C   UNL     1      12.210  16.745  30.033  1.00  0.00    -0.080 C 
ATOM     10  C   UNL     1      11.625  18.122  29.828  1.00  0.00     0.039 C 
ENDBRANCH   6   7
ENDBRANCH   5   6
ENDBRANCH   3   5
ENDBRANCH   1   2
BRANCH   1  11
ATOM     11  C   UNL     1      18.107  20.898  32.649  1.00  0.00     0.034 C 
BRANCH  11  12
ATOM     12  C   UNL     1      17.703  22.350  32.774  1.00  0.00    -0.077 C 
ATOM     13  C   UNL     1      17.806  22.958  33.978  1.00  0.00    -0.028 C 
ATOM     14  C   UNL     1      17.204  23.083  31.550  1.00  0.00     0.039 C 
BRANCH  13  15
ATOM     15  C   UNL     1      17.400  24.384  34.251  1.00  0.00     0.035 C 
BRANCH  15  16
ATOM     16  C   UNL     1      18.633  25.272  34.451  1.00  0.00     0.079 C 
BRANCH  16  17
ATOM     17  C   UNL     1      18.570  26.479  33.553  1.00  0.00     0.130 C 
ATOM     18  O   UNL     1      18.073  26.376  32.441  1.00  0.00    -0.300 OA
ATOM     19  C   UNL     1      19.113  27.806  33.990  1.00  0.00     0.087 C 
ENDBRANCH  16  17
ENDBRANCH  15  16
ENDBRANCH  13  15
ENDBRANCH  11  12
ENDBRANCH   1  11
TORSDOF 9
ENDMDL
MODEL 3
REMARK VINA RESULT:    -6.811      3.590      8.719
REMARK INTER + INTRA:         -11.141
REMARK INTER:                 -10.295
REMARK INTRA:                  -0.846
REMARK UNBOUND:                -0.746
REMARK SMILES CC(=O)CCC=C(C)CCC=C(C)CCC=C(C)C
REMARK SMILES IDX 10 1 11 2 12 3 13 4 14 5 15 6 16 7 18 8 17 9 19 10 9 11 7 12
REMARK SMILES IDX 6 13 8 14 5 15 4 16 2 17 3 18 1 19
REMARK H PARENT
REMARK Flexibility Score: inf
ROOT
ATOM      1  C   UNL     1      17.350  20.179  31.197  1.00  0.00     0.032 C 
ENDROOT
BRANCH   1   2
ATOM      2  C   UNL     1      16.231  19.169  31.228  1.00  0.00    -0.028 C 
ATOM      3  C   UNL     1      16.390  17.859  31.527  1.00  0.00    -0.077 C 
ATOM      4  C   UNL     1      17.750  17.266  31.813  1.00  0.00     0.039 C 
BRANCH   3   5
ATOM      5  C   UNL     1      15.172  16.962  31.564  1.00  0.00     0.034 C 
BRANCH   5   6
ATOM      6  C   UNL     1      14.062  17.512  30.661  1.00  0.00     0.032 C 
BRANCH   6   7
ATOM      7  C   UNL     1      13.077  16.427  30.304  1.00  0.00    -0.028 C 
ATOM      8  C   UNL     1      10.927  15.464  29.603  1.00  0.00     0.039 C 
ATOM      9  C   UNL     1      11.810  16.651  29.891  1.00  0.00    -0.080 C 
ATOM     10  C   UNL     1      11.267  18.046  29.695  1.00  0.00     0.039 C 
ENDBRANCH   6   7
ENDBRANCH   5   6
ENDBRANCH   3   5
ENDBRANCH   1   2
BRANCH   1  11
ATOM     11  C   UNL     1      17.707  20.639  32.615  1.00  0.00     0.034 C 
BRANCH  11  12
ATOM     12  C   UNL     1      17.696  22.149  32.708  1.00  0.00    -0.077 C 
ATOM     13  C   UNL     1      17.293  22.869  31.636  1.00  0.00    -0.028 C 
ATOM     14  C   UNL     1      18.127  22.810  33.997  1.00  0.00     0.039 C 
BRANCH  13  15
ATOM     15  C   UNL     1      17.274  24.376  31.579  1.00  0.00     0.035 C 
BRANCH  15  16
ATOM     16  C   UNL     1      15.963  24.880  30.966  1.00  0.00     0.079 C 
BRANCH  16  17
ATOM     17  C   UNL     1      15.077  25.478  32.027  1.00  0.00     0.130 C 
ATOM     18  O   UNL     1      15.175  26.667  32.293  1.00  0.00    -0.300 OA
ATOM     19  C   UNL     1      14.078  24.643  32.772  1.00  0.00     0.087 C 
ENDBRANCH  16  17
ENDBRANCH  15  16
ENDBRANCH  13  15
ENDBRANCH  11  12
ENDBRANCH   1  11
TORSDOF 9
ENDMDL
MODEL 4
REMARK VINA RESULT:    -6.788      2.010      4.818
REMARK INTER + INTRA:         -11.105
REMARK INTER:                 -10.055
REMARK INTRA:                  -1.051
REMARK UNBOUND:                -0.746
REMARK SMILES CC(=O)CCC=C(C)CCC=C(C)CCC=C(C)C
REMARK SMILES IDX 10 1 11 2 12 3 13 4 14 5 15 6 16 7 18 8 17 9 19 10 9 11 7 12
REMARK SMILES IDX 6 13 8 14 5 15 4 16 2 17 3 18 1 19
REMARK H PARENT
REMARK Flexibility Score: inf
ROOT
ATOM      1  C   UNL     1      17.455  21.185  31.893  1.00  0.00     0.032 C 
ENDROOT
BRANCH   1   2
ATOM      2  C   UNL     1      17.965  22.182  32.903  1.00  0.00    -0.028 C 
ATOM      3  C   UNL     1      17.198  23.120  33.506  1.00  0.00    -0.077 C 
ATOM      4  C   UNL     1      15.733  23.287  33.173  1.00  0.00     0.039 C 
BRANCH   3   5
ATOM      5  C   UNL     1      17.829  24.032  34.535  1.00  0.00     0.034 C 
BRANCH   5   6
ATOM      6  C   UNL     1      17.521  25.502  34.222  1.00  0.00     0.032 C 
BRANCH   6   7
ATOM      7  C   UNL     1      18.184  25.924  32.935  1.00  0.00    -0.028 C 
ATOM      8  C   UNL     1      18.325  26.818  30.650  1.00  0.00     0.039 C 
ATOM      9  C   UNL     1      17.535  26.479  31.888  1.00  0.00    -0.080 C 
ATOM     10  C   UNL     1      16.056  26.783  31.934  1.00  0.00     0.039 C 
ENDBRANCH   6   7
ENDBRANCH   5   6
ENDBRANCH   3   5
ENDBRANCH   1   2
BRANCH   1  11
ATOM     11  C   UNL     1      18.478  20.065  31.672  1.00  0.00     0.034 C 
BRANCH  11  12
ATOM     12  C   UNL     1      17.829  18.707  31.819  1.00  0.00    -0.077 C 
ATOM     13  C   UNL     1      16.530  18.560  31.469  1.00  0.00    -0.028 C 
ATOM     14  C   UNL     1      18.649  17.551  32.344  1.00  0.00     0.039 C 
BRANCH  13  15
ATOM     15  C   UNL     1      15.750  17.276  31.605  1.00  0.00     0.035 C 
BRANCH  15  16
ATOM     16  C   UNL     1      14.462  17.334  30.776  1.00  0.00     0.079 C 
BRANCH  16  17
ATOM     17  C   UNL     1      13.697  16.042  30.894  1.00  0.00     0.130 C 
ATOM     18  O   UNL     1      14.092  15.176  31.660  1.00  0.00    -0.300 OA
ATOM     19  C   UNL     1      12.460  15.791  30.083  1.00  0.00     0.087 C 
ENDBRANCH  16  17
ENDBRANCH  15  16
ENDBRANCH  13  15
ENDBRANCH  11  12
ENDBRANCH   1  11
TORSDOF 9
ENDMDL
MODEL 5
REMARK VINA RESULT:    -6.708      3.464      8.955
REMARK INTER + INTRA:         -10.983
REMARK INTER:                 -10.245
REMARK INTRA:                  -0.737
REMARK UNBOUND:                -0.746
REMARK SMILES CC(=O)CCC=C(C)CCC=C(C)CCC=C(C)C
REMARK SMILES IDX 10 1 11 2 12 3 13 4 14 5 15 6 16 7 18 8 17 9 19 10 9 11 7 12
REMARK SMILES IDX 6 13 8 14 5 15 4 16 2 17 3 18 1 19
REMARK H PARENT
REMARK Flexibility Score: inf
ROOT
ATOM      1  C   UNL     1      17.434  18.530  32.174  1.00  0.00     0.032 C 
ENDROOT
BRANCH   1   2
ATOM      2  C   UNL     1      16.243  18.414  31.258  1.00  0.00    -0.028 C 
ATOM      3  C   UNL     1      15.337  17.409  31.303  1.00  0.00    -0.077 C 
ATOM      4  C   UNL     1      15.472  16.258  32.273  1.00  0.00     0.039 C 
BRANCH   3   5
ATOM      5  C   UNL     1      14.162  17.437  30.351  1.00  0.00     0.034 C 
BRANCH   5   6
ATOM      6  C   UNL     1      12.978  16.648  30.923  1.00  0.00     0.032 C 
BRANCH   6   7
ATOM      7  C   UNL     1      12.552  15.559  29.970  1.00  0.00    -0.028 C 
ATOM      8  C   UNL     1      11.048  14.335  28.460  1.00  0.00     0.039 C 
ATOM      9  C   UNL     1      11.347  15.506  29.361  1.00  0.00    -0.080 C 
ATOM     10  C   UNL     1      10.310  16.588  29.543  1.00  0.00     0.039 C 
ENDBRANCH   6   7
ENDBRANCH   5   6
ENDBRANCH   3   5
ENDBRANCH   1   2
BRANCH   1  11
ATOM     11  C   UNL     1      18.491  19.465  31.575  1.00  0.00     0.034 C 
BRANCH  11  12
ATOM     12  C   UNL     1      18.094  20.913  31.756  1.00  0.00    -0.077 C 
ATOM     13  C   UNL     1      18.219  21.479  32.978  1.00  0.00    -0.028 C 
ATOM     14  C   UNL     1      17.576  21.688  30.567  1.00  0.00     0.039 C 
BRANCH  13  15
ATOM     15  C   UNL     1      17.822  22.896  33.306  1.00  0.00     0.035 C 
BRANCH  15  16
ATOM     16  C   UNL     1      16.296  23.041  33.330  1.00  0.00     0.079 C 
BRANCH  16  17
ATOM     17  C   UNL     1      15.894  24.471  33.085  1.00  0.00     0.130 C 
ATOM     18  O   UNL     1      16.010  25.291  33.984  1.00  0.00    -0.300 OA
ATOM     19  C   UNL     1      15.346  24.912  31.761  1.00  0.00     0.087 C 
ENDBRANCH  16  17
ENDBRANCH  15  16
ENDBRANCH  13  15
ENDBRANCH  11  12
ENDBRANCH   1  11
TORSDOF 9
ENDMDL
MODEL 6
REMARK VINA RESULT:    -6.551      2.328      4.906
REMARK INTER + INTRA:         -10.744
REMARK INTER:                  -9.818
REMARK INTRA:                  -0.925
REMARK UNBOUND:                -0.746
REMARK SMILES CC(=O)CCC=C(C)CCC=C(C)CCC=C(C)C
REMARK SMILES IDX 10 1 11 2 12 3 13 4 14 5 15 6 16 7 18 8 17 9 19 10 9 11 7 12
REMARK SMILES IDX 6 13 8 14 5 15 4 16 2 17 3 18 1 19
REMARK H PARENT
REMARK Flexibility Score: inf
ROOT
ATOM      1  C   UNL     1      17.379  21.234  31.640  1.00  0.00     0.032 C 
ENDROOT
BRANCH   1   2
ATOM      2  C   UNL     1      17.626  21.949  32.945  1.00  0.00    -0.028 C 
ATOM      3  C   UNL     1      17.518  23.286  33.117  1.00  0.00    -0.077 C 
ATOM      4  C   UNL     1      17.178  24.213  31.973  1.00  0.00     0.039 C 
BRANCH   3   5
ATOM      5  C   UNL     1      17.752  23.870  34.493  1.00  0.00     0.034 C 
BRANCH   5   6
ATOM      6  C   UNL     1      17.096  25.250  34.619  1.00  0.00     0.032 C 
BRANCH   6   7
ATOM      7  C   UNL     1      15.662  25.121  35.067  1.00  0.00    -0.028 C 
ATOM      8  C   UNL     1      13.257  25.621  35.124  1.00  0.00     0.039 C 
ATOM      9  C   UNL     1      14.634  25.830  34.550  1.00  0.00    -0.080 C 
ATOM     10  C   UNL     1      14.826  26.802  33.411  1.00  0.00     0.039 C 
ENDBRANCH   6   7
ENDBRANCH   5   6
ENDBRANCH   3   5
ENDBRANCH   1   2
BRANCH   1  11
ATOM     11  C   UNL     1      18.392  20.101  31.441  1.00  0.00     0.034 C 
BRANCH  11  12
ATOM     12  C   UNL     1      17.755  18.756  31.711  1.00  0.00    -0.077 C 
ATOM     13  C   UNL     1      16.453  18.573  31.394  1.00  0.00    -0.028 C 
ATOM     14  C   UNL     1      18.591  17.654  32.319  1.00  0.00     0.039 C 
BRANCH  13  15
ATOM     15  C   UNL     1      15.684  17.300  31.648  1.00  0.00     0.035 C 
BRANCH  15  16
ATOM     16  C   UNL     1      14.374  17.290  30.854  1.00  0.00     0.079 C 
BRANCH  16  17
ATOM     17  C   UNL     1      13.682  15.959  30.989  1.00  0.00     0.130 C 
ATOM     18  O   UNL     1      14.113  15.134  31.780  1.00  0.00    -0.300 OA
ATOM     19  C   UNL     1      12.475  15.619  30.165  1.00  0.00     0.087 C 
ENDBRANCH  16  17
ENDBRANCH  15  16
ENDBRANCH  13  15
ENDBRANCH  11  12
ENDBRANCH   1  11
TORSDOF 9
ENDMDL
MODEL 7
REMARK VINA RESULT:    -6.470      4.614      8.876
REMARK INTER + INTRA:         -10.621
REMARK INTER:                  -9.334
REMARK INTRA:                  -1.286
REMARK UNBOUND:                -0.746
REMARK SMILES CC(=O)CCC=C(C)CCC=C(C)CCC=C(C)C
REMARK SMILES IDX 10 1 11 2 12 3 13 4 14 5 15 6 16 7 18 8 17 9 19 10 9 11 7 12
REMARK SMILES IDX 6 13 8 14 5 15 4 16 2 17 3 18 1 19
REMARK H PARENT
REMARK Flexibility Score: inf
ROOT
ATOM      1  C   UNL     1      17.641  24.385  34.302  1.00  0.00     0.032 C 
ENDROOT
BRANCH   1   2
ATOM      2  C   UNL     1      18.020  22.952  34.030  1.00  0.00    -0.028 C 
ATOM      3  C   UNL     1      17.914  22.348  32.824  1.00  0.00    -0.077 C 
ATOM      4  C   UNL     1      17.342  23.063  31.621  1.00  0.00     0.039 C 
BRANCH   3   5
ATOM      5  C   UNL     1      18.372  20.913  32.679  1.00  0.00     0.034 C 
BRANCH   5   6
ATOM      6  C   UNL     1      18.023  20.367  31.289  1.00  0.00     0.032 C 
BRANCH   6   7
ATOM      7  C   UNL     1      16.845  19.428  31.364  1.00  0.00    -0.028 C 
ATOM      8  C   UNL     1      15.671  17.293  31.685  1.00  0.00     0.039 C 
ATOM      9  C   UNL     1      16.932  18.118  31.685  1.00  0.00    -0.080 C 
ATOM     10  C   UNL     1      18.245  17.472  32.059  1.00  0.00     0.039 C 
ENDBRANCH   6   7
ENDBRANCH   5   6
ENDBRANCH   3   5
ENDBRANCH   1   2
BRANCH   1  11
ATOM     11  C   UNL     1      16.217  24.473  34.864  1.00  0.00     0.034 C 
BRANCH  11  12
ATOM     12  C   UNL     1      15.304  25.202  33.903  1.00  0.00    -0.077 C 
ATOM     13  C   UNL     1      14.361  24.500  33.234  1.00  0.00    -0.028 C 
ATOM     14  C   UNL     1      15.465  26.695  33.724  1.00  0.00     0.039 C 
BRANCH  13  15
ATOM     15  C   UNL     1      13.416  25.094  32.219  1.00  0.00     0.035 C 
BRANCH  15  16
ATOM     16  C   UNL     1      11.968  25.010  32.711  1.00  0.00     0.079 C 
BRANCH  16  17
ATOM     17  C   UNL     1      11.770  25.873  33.929  1.00  0.00     0.130 C 
ATOM     18  O   UNL     1      11.573  25.346  35.014  1.00  0.00    -0.300 OA
ATOM     19  C   UNL     1      11.800  27.369  33.839  1.00  0.00     0.087 C 
ENDBRANCH  16  17
ENDBRANCH  15  16
ENDBRANCH  13  15
ENDBRANCH  11  12
ENDBRANCH   1  11
TORSDOF 9
ENDMDL
MODEL 8
REMARK VINA RESULT:    -6.442      1.215      2.045
REMARK INTER + INTRA:         -10.578
REMARK INTER:                 -10.895
REMARK INTRA:                   0.317
REMARK UNBOUND:                -0.746
REMARK SMILES CC(=O)CCC=C(C)CCC=C(C)CCC=C(C)C
REMARK SMILES IDX 10 1 11 2 12 3 13 4 14 5 15 6 16 7 18 8 17 9 19 10 9 11 7 12
REMARK SMILES IDX 6 13 8 14 5 15 4 16 2 17 3 18 1 19
REMARK H PARENT
REMARK Flexibility Score: inf
ROOT
ATOM      1  C   UNL     1      14.440  18.028  30.302  1.00  0.00     0.032 C 
ENDROOT
BRANCH   1   2
ATOM      2  C   UNL     1      15.856  18.176  30.799  1.00  0.00    -0.028 C 
ATOM      3  C   UNL     1      16.421  17.391  31.745  1.00  0.00    -0.077 C 
ATOM      4  C   UNL     1      15.644  16.297  32.442  1.00  0.00     0.039 C 
BRANCH   3   5
ATOM      5  C   UNL     1      17.868  17.621  32.121  1.00  0.00     0.034 C 
BRANCH   5   6
ATOM      6  C   UNL     1      18.381  18.940  31.532  1.00  0.00     0.032 C 
BRANCH   6   7
ATOM      7  C   UNL     1      18.431  20.014  32.590  1.00  0.00    -0.028 C 
ATOM      8  C   UNL     1      18.146  22.259  33.550  1.00  0.00     0.039 C 
ATOM      9  C   UNL     1      17.999  21.282  32.411  1.00  0.00    -0.080 C 
ATOM     10  C   UNL     1      17.364  21.737  31.119  1.00  0.00     0.039 C 
ENDBRANCH   6   7
ENDBRANCH   5   6
ENDBRANCH   3   5
ENDBRANCH   1   2
BRANCH   1  11
ATOM     11  C   UNL     1      13.832  16.705  30.781  1.00  0.00     0.034 C 
BRANCH  11  12
ATOM     12  C   UNL     1      12.483  16.470  30.139  1.00  0.00    -0.077 C 
ATOM     13  C   UNL     1      12.115  15.205  29.831  1.00  0.00    -0.028 C 
ATOM     14  C   UNL     1      11.580  17.651  29.867  1.00  0.00     0.039 C 
BRANCH  13  15
ATOM     15  C   UNL     1      10.820  14.834  29.151  1.00  0.00     0.035 C 
BRANCH  15  16
ATOM     16  C   UNL     1      11.060  14.481  27.680  1.00  0.00     0.079 C 
BRANCH  16  17
ATOM     17  C   UNL     1      10.891  13.002  27.454  1.00  0.00     0.130 C 
ATOM     18  O   UNL     1      10.721  12.262  28.412  1.00  0.00    -0.300 OA
ATOM     19  C   UNL     1      10.936  12.413  26.076  1.00  0.00     0.087 C 
ENDBRANCH  16  17
ENDBRANCH  15  16
ENDBRANCH  13  15
ENDBRANCH  11  12
ENDBRANCH   1  11
TORSDOF 9
ENDMDL
MODEL 9
REMARK VINA RESULT:    -6.252      4.255      9.181
REMARK INTER + INTRA:         -10.286
REMARK INTER:                  -9.452
REMARK INTRA:                  -0.834
REMARK UNBOUND:                -0.746
REMARK SMILES CC(=O)CCC=C(C)CCC=C(C)CCC=C(C)C
REMARK SMILES IDX 10 1 11 2 12 3 13 4 14 5 15 6 16 7 18 8 17 9 19 10 9 11 7 12
REMARK SMILES IDX 6 13 8 14 5 15 4 16 2 17 3 18 1 19
REMARK H PARENT
REMARK Flexibility Score: inf
ROOT
ATOM      1  C   UNL     1      16.673  24.397  31.370  1.00  0.00     0.032 C 
ENDROOT
BRANCH   1   2
ATOM      2  C   UNL     1      17.371  23.069  31.511  1.00  0.00    -0.028 C 
ATOM      3  C   UNL     1      17.691  22.494  32.694  1.00  0.00    -0.077 C 
ATOM      4  C   UNL     1      17.413  23.177  34.013  1.00  0.00     0.039 C 
BRANCH   3   5
ATOM      5  C   UNL     1      18.355  21.135  32.694  1.00  0.00     0.034 C 
BRANCH   5   6
ATOM      6  C   UNL     1      18.140  20.424  31.352  1.00  0.00     0.032 C 
BRANCH   6   7
ATOM      7  C   UNL     1      16.917  19.543  31.404  1.00  0.00    -0.028 C 
ATOM      8  C   UNL     1      15.638  17.461  31.664  1.00  0.00     0.039 C 
ATOM      9  C   UNL     1      16.939  18.221  31.684  1.00  0.00    -0.080 C 
ATOM     10  C   UNL     1      18.218  17.498  32.031  1.00  0.00     0.039 C 
ENDBRANCH   6   7
ENDBRANCH   5   6
ENDBRANCH   3   5
ENDBRANCH   1   2
BRANCH   1  11
ATOM     11  C   UNL     1      17.671  25.553  31.503  1.00  0.00     0.034 C 
BRANCH  11  12
ATOM     12  C   UNL     1      17.708  26.380  30.237  1.00  0.00    -0.077 C 
ATOM     13  C   UNL     1      16.553  26.611  29.572  1.00  0.00    -0.028 C 
ATOM     14  C   UNL     1      19.030  26.932  29.756  1.00  0.00     0.039 C 
BRANCH  13  15
ATOM     15  C   UNL     1      16.453  27.381  28.278  1.00  0.00     0.035 C 
BRANCH  15  16
ATOM     16  C   UNL     1      15.326  26.826  27.402  1.00  0.00     0.079 C 
BRANCH  16  17
ATOM     17  C   UNL     1      15.877  25.899  26.351  1.00  0.00     0.130 C 
ATOM     18  O   UNL     1      15.852  24.692  26.541  1.00  0.00    -0.300 OA
ATOM     19  C   UNL     1      16.465  26.425  25.076  1.00  0.00     0.087 C 
ENDBRANCH  16  17
ENDBRANCH  15  16
ENDBRANCH  13  15
ENDBRANCH  11  12
ENDBRANCH   1  11
TORSDOF 9
ENDMDL
