MODEL 1
REMARK VINA RESULT:    -5.051      0.000      0.000
REMARK INTER + INTRA:          -7.700
REMARK INTER:                  -7.413
REMARK INTRA:                  -0.288
REMARK UNBOUND:                -0.288
REMARK SMILES O=C([O-])CCCCCCCC(=O)[O-]
REMARK SMILES IDX 7 1 6 2 5 3 4 4 2 5 1 6 3 7 8 8 9 9 10 10 11 11 12 12 13 13
REMARK H PARENT
REMARK Flexibility Score: inf
ROOT
ATOM      1  C   UNL     1      98.371 124.342 126.421  1.00  0.00     0.000 C 
ENDROOT
BRANCH   1   2
ATOM      2  C   UNL     1      98.479 122.809 126.466  1.00  0.00     0.000 C 
BRANCH   2   3
ATOM      3  C   UNL     1      99.934 122.319 126.474  1.00  0.00     0.006 C 
BRANCH   3   4
ATOM      4  C   UNL     1     100.005 120.821 126.789  1.00  0.00     0.053 C 
BRANCH   4   5
ATOM      5  C   UNL     1     100.917 120.126 125.827  1.00  0.00     0.041 C 
ATOM      6  O   UNL     1     102.079 119.795 126.182  1.00  0.00    -0.550 OA
ATOM      7  O   UNL     1     100.468 119.801 124.554  1.00  0.00    -0.550 OA
ENDBRANCH   4   5
ENDBRANCH   3   4
ENDBRANCH   2   3
ENDBRANCH   1   2
BRANCH   1   8
ATOM      8  C   UNL     1      97.125 124.826 125.667  1.00  0.00     0.000 C 
BRANCH   8   9
ATOM      9  C   UNL     1      96.112 123.688 125.490  1.00  0.00     0.006 C 
BRANCH   9  10
ATOM     10  C   UNL     1      95.195 123.948 124.291  1.00  0.00     0.053 C 
BRANCH  10  11
ATOM     11  C   UNL     1      93.837 123.372 124.537  1.00  0.00     0.041 C 
ATOM     12  O   UNL     1      93.681 122.456 125.387  1.00  0.00    -0.550 OA
ATOM     13  O   UNL     1      92.734 123.880 123.862  1.00  0.00    -0.550 OA
ENDBRANCH  10  11
ENDBRANCH   9  10
ENDBRANCH   8   9
ENDBRANCH   1   8
TORSDOF 8
ENDMDL
MODEL 2
REMARK VINA RESULT:    -4.998      0.324      6.559
REMARK INTER + INTRA:          -7.623
REMARK INTER:                  -7.324
REMARK INTRA:                  -0.299
REMARK UNBOUND:                -0.288
REMARK SMILES O=C([O-])CCCCCCCC(=O)[O-]
REMARK SMILES IDX 7 1 6 2 5 3 4 4 2 5 1 6 3 7 8 8 9 9 10 10 11 11 12 12 13 13
REMARK H PARENT
REMARK Flexibility Score: inf
ROOT
ATOM      1  C   UNL     1      98.377 124.284 126.428  1.00  0.00     0.000 C 
ENDROOT
BRANCH   1   2
ATOM      2  C   UNL     1      97.102 124.798 125.741  1.00  0.00     0.000 C 
BRANCH   2   3
ATOM      3  C   UNL     1      96.099 123.676 125.439  1.00  0.00     0.006 C 
BRANCH   3   4
ATOM      4  C   UNL     1      95.199 124.051 124.256  1.00  0.00     0.053 C 
BRANCH   4   5
ATOM      5  C   UNL     1      93.902 123.308 124.330  1.00  0.00     0.041 C 
ATOM      6  O   UNL     1      93.082 123.370 123.375  1.00  0.00    -0.550 OA
ATOM      7  O   UNL     1      93.618 122.510 125.429  1.00  0.00    -0.550 OA
ENDBRANCH   4   5
ENDBRANCH   3   4
ENDBRANCH   2   3
ENDBRANCH   1   2
BRANCH   1   8
ATOM      8  C   UNL     1      98.471 122.751 126.431  1.00  0.00     0.000 C 
BRANCH   8   9
ATOM      9  C   UNL     1      99.933 122.290 126.462  1.00  0.00     0.006 C 
BRANCH   9  10
ATOM     10  C   UNL     1     100.031 120.789 126.754  1.00  0.00     0.053 C 
BRANCH  10  11
ATOM     11  C   UNL     1     100.693 120.078 125.617  1.00  0.00     0.041 C 
ATOM     12  O   UNL     1     100.012 119.684 124.633  1.00  0.00    -0.550 OA
ATOM     13  O   UNL     1     102.069 119.891 125.620  1.00  0.00    -0.550 OA
ENDBRANCH  10  11
ENDBRANCH   9  10
ENDBRANCH   8   9
ENDBRANCH   1   8
TORSDOF 8
ENDMDL
MODEL 3
REMARK VINA RESULT:    -4.948      1.004      6.674
REMARK INTER + INTRA:          -7.550
REMARK INTER:                  -7.276
REMARK INTRA:                  -0.274
REMARK UNBOUND:                -0.288
REMARK SMILES O=C([O-])CCCCCCCC(=O)[O-]
REMARK SMILES IDX 7 1 6 2 5 3 4 4 2 5 1 6 3 7 8 8 9 9 10 10 11 11 12 12 13 13
REMARK H PARENT
REMARK Flexibility Score: inf
ROOT
ATOM      1  C   UNL     1      96.868 123.982 126.042  1.00  0.00     0.000 C 
ENDROOT
BRANCH   1   2
ATOM      2  C   UNL     1      96.661 124.700 124.699  1.00  0.00     0.000 C 
BRANCH   2   3
ATOM      3  C   UNL     1      95.518 124.091 123.873  1.00  0.00     0.006 C 
BRANCH   3   4
ATOM      4  C   UNL     1      94.519 123.361 124.776  1.00  0.00     0.053 C 
BRANCH   4   5
ATOM      5  C   UNL     1      93.191 123.240 124.097  1.00  0.00     0.041 C 
ATOM      6  O   UNL     1      92.131 123.211 124.778  1.00  0.00    -0.550 OA
ATOM      7  O   UNL     1      93.118 123.207 122.711  1.00  0.00    -0.550 OA
ENDBRANCH   4   5
ENDBRANCH   3   4
ENDBRANCH   2   3
ENDBRANCH   1   2
BRANCH   1   8
ATOM      8  C   UNL     1      98.351 123.808 126.397  1.00  0.00     0.000 C 
BRANCH   8   9
ATOM      9  C   UNL     1      98.738 122.324 126.429  1.00  0.00     0.006 C 
BRANCH   9  10
ATOM     10  C   UNL     1     100.258 122.149 126.347  1.00  0.00     0.053 C 
BRANCH  10  11
ATOM     11  C   UNL     1     100.617 120.698 126.322  1.00  0.00     0.041 C 
ATOM     12  O   UNL     1     100.744 120.056 127.399  1.00  0.00    -0.550 OA
ATOM     13  O   UNL     1     100.765 120.039 125.108  1.00  0.00    -0.550 OA
ENDBRANCH  10  11
ENDBRANCH   9  10
ENDBRANCH   8   9
ENDBRANCH   1   8
TORSDOF 8
ENDMDL
MODEL 4
REMARK VINA RESULT:    -4.518      3.007      6.939
REMARK INTER + INTRA:          -6.919
REMARK INTER:                  -6.610
REMARK INTRA:                  -0.309
REMARK UNBOUND:                -0.288
REMARK SMILES O=C([O-])CCCCCCCC(=O)[O-]
REMARK SMILES IDX 7 1 6 2 5 3 4 4 2 5 1 6 3 7 8 8 9 9 10 10 11 11 12 12 13 13
REMARK H PARENT
REMARK Flexibility Score: inf
ROOT
ATOM      1  C   UNL     1      94.372 123.178 124.875  1.00  0.00     0.000 C 
ENDROOT
BRANCH   1   2
ATOM      2  C   UNL     1      93.019 123.002 124.167  1.00  0.00     0.000 C 
BRANCH   2   3
ATOM      3  C   UNL     1      93.107 123.247 122.654  1.00  0.00     0.006 C 
BRANCH   3   4
ATOM      4  C   UNL     1      92.457 122.099 121.875  1.00  0.00     0.053 C 
BRANCH   4   5
ATOM      5  C   UNL     1      92.845 122.159 120.431  1.00  0.00     0.041 C 
ATOM      6  O   UNL     1      93.826 121.488 120.011  1.00  0.00    -0.550 OA
ATOM      7  O   UNL     1      92.098 122.918 119.540  1.00  0.00    -0.550 OA
ENDBRANCH   4   5
ENDBRANCH   3   4
ENDBRANCH   2   3
ENDBRANCH   1   2
BRANCH   1   8
ATOM      8  C   UNL     1      95.317 124.123 124.119  1.00  0.00     0.000 C 
BRANCH   8   9
ATOM      9  C   UNL     1      96.604 124.369 124.918  1.00  0.00     0.006 C 
BRANCH   9  10
ATOM     10  C   UNL     1      96.724 123.385 126.085  1.00  0.00     0.053 C 
BRANCH  10  11
ATOM     11  C   UNL     1      98.158 123.194 126.463  1.00  0.00     0.041 C 
ATOM     12  O   UNL     1      98.877 124.188 126.746  1.00  0.00    -0.550 OA
ATOM     13  O   UNL     1      98.689 121.913 126.551  1.00  0.00    -0.550 OA
ENDBRANCH  10  11
ENDBRANCH   9  10
ENDBRANCH   8   9
ENDBRANCH   1   8
TORSDOF 8
ENDMDL
MODEL 5
REMARK VINA RESULT:    -4.467      3.034      4.460
REMARK INTER + INTRA:          -6.843
REMARK INTER:                  -6.565
REMARK INTRA:                  -0.278
REMARK UNBOUND:                -0.288
REMARK SMILES O=C([O-])CCCCCCCC(=O)[O-]
REMARK SMILES IDX 7 1 6 2 5 3 4 4 2 5 1 6 3 7 8 8 9 9 10 10 11 11 12 12 13 13
REMARK H PARENT
REMARK Flexibility Score: inf
ROOT
ATOM      1  C   UNL     1      94.276 123.139 124.784  1.00  0.00     0.000 C 
ENDROOT
BRANCH   1   2
ATOM      2  C   UNL     1      95.363 124.033 124.166  1.00  0.00     0.000 C 
BRANCH   2   3
ATOM      3  C   UNL     1      96.483 124.375 125.158  1.00  0.00     0.006 C 
BRANCH   3   4
ATOM      4  C   UNL     1      96.766 123.194 126.093  1.00  0.00     0.053 C 
BRANCH   4   5
ATOM      5  C   UNL     1      98.219 123.144 126.449  1.00  0.00     0.041 C 
ATOM      6  O   UNL     1      98.864 124.211 126.628  1.00  0.00    -0.550 OA
ATOM      7  O   UNL     1      98.849 121.920 126.629  1.00  0.00    -0.550 OA
ENDBRANCH   4   5
ENDBRANCH   3   4
ENDBRANCH   2   3
ENDBRANCH   1   2
BRANCH   1   8
ATOM      8  C   UNL     1      92.932 123.246 124.050  1.00  0.00     0.000 C 
BRANCH   8   9
ATOM      9  C   UNL     1      93.139 123.316 122.531  1.00  0.00     0.006 C 
BRANCH   9  10
ATOM     10  C   UNL     1      92.418 122.165 121.824  1.00  0.00     0.053 C 
BRANCH  10  11
ATOM     11  C   UNL     1      92.823 122.101 120.385  1.00  0.00     0.041 C 
ATOM     12  O   UNL     1      93.834 121.434 120.040  1.00  0.00    -0.550 OA
ATOM     13  O   UNL     1      92.055 122.737 119.418  1.00  0.00    -0.550 OA
ENDBRANCH  10  11
ENDBRANCH   9  10
ENDBRANCH   8   9
ENDBRANCH   1   8
TORSDOF 8
ENDMDL
MODEL 6
REMARK VINA RESULT:    -4.055     12.873     14.905
REMARK INTER + INTRA:          -6.239
REMARK INTER:                  -5.800
REMARK INTRA:                  -0.439
REMARK UNBOUND:                -0.288
REMARK SMILES O=C([O-])CCCCCCCC(=O)[O-]
REMARK SMILES IDX 7 1 6 2 5 3 4 4 2 5 1 6 3 7 8 8 9 9 10 10 11 11 12 12 13 13
REMARK H PARENT
REMARK Flexibility Score: inf
ROOT
ATOM      1  C   UNL     1      84.348 122.171 124.720  1.00  0.00     0.000 C 
ENDROOT
BRANCH   1   2
ATOM      2  C   UNL     1      83.247 121.171 125.106  1.00  0.00     0.000 C 
BRANCH   2   3
ATOM      3  C   UNL     1      82.700 120.397 123.897  1.00  0.00     0.006 C 
BRANCH   3   4
ATOM      4  C   UNL     1      82.402 121.345 122.730  1.00  0.00     0.053 C 
BRANCH   4   5
ATOM      5  C   UNL     1      82.522 120.622 121.425  1.00  0.00     0.041 C 
ATOM      6  O   UNL     1      82.487 121.263 120.341  1.00  0.00    -0.550 OA
ATOM      7  O   UNL     1      82.719 119.248 121.406  1.00  0.00    -0.550 OA
ENDBRANCH   4   5
ENDBRANCH   3   4
ENDBRANCH   2   3
ENDBRANCH   1   2
BRANCH   1   8
ATOM      8  C   UNL     1      83.963 123.624 125.030  1.00  0.00     0.000 C 
BRANCH   8   9
ATOM      9  C   UNL     1      83.237 123.726 126.377  1.00  0.00     0.006 C 
BRANCH   9  10
ATOM     10  C   UNL     1      84.112 124.422 127.423  1.00  0.00     0.053 C 
BRANCH  10  11
ATOM     11  C   UNL     1      85.161 123.486 127.933  1.00  0.00     0.041 C 
ATOM     12  O   UNL     1      86.382 123.755 127.778  1.00  0.00    -0.550 OA
ATOM     13  O   UNL     1      84.793 122.337 128.623  1.00  0.00    -0.550 OA
ENDBRANCH  10  11
ENDBRANCH   9  10
ENDBRANCH   8   9
ENDBRANCH   1   8
TORSDOF 8
ENDMDL
MODEL 7
REMARK VINA RESULT:    -3.995     14.122     16.527
REMARK INTER + INTRA:          -6.151
REMARK INTER:                  -5.770
REMARK INTRA:                  -0.382
REMARK UNBOUND:                -0.288
REMARK SMILES O=C([O-])CCCCCCCC(=O)[O-]
REMARK SMILES IDX 7 1 6 2 5 3 4 4 2 5 1 6 3 7 8 8 9 9 10 10 11 11 12 12 13 13
REMARK H PARENT
REMARK Flexibility Score: inf
ROOT
ATOM      1  C   UNL     1      82.654 127.658 130.480  1.00  0.00     0.000 C 
ENDROOT
BRANCH   1   2
ATOM      2  C   UNL     1      83.790 128.505 129.885  1.00  0.00     0.000 C 
BRANCH   2   3
ATOM      3  C   UNL     1      84.686 129.133 130.962  1.00  0.00     0.006 C 
BRANCH   3   4
ATOM      4  C   UNL     1      83.862 129.550 132.186  1.00  0.00     0.053 C 
BRANCH   4   5
ATOM      5  C   UNL     1      83.527 131.007 132.120  1.00  0.00     0.041 C 
ATOM      6  O   UNL     1      84.269 131.853 132.686  1.00  0.00    -0.550 OA
ATOM      7  O   UNL     1      82.424 131.435 131.394  1.00  0.00    -0.550 OA
ENDBRANCH   4   5
ENDBRANCH   3   4
ENDBRANCH   2   3
ENDBRANCH   1   2
BRANCH   1   8
ATOM      8  C   UNL     1      83.050 126.187 130.669  1.00  0.00     0.000 C 
BRANCH   8   9
ATOM      9  C   UNL     1      82.567 125.331 129.491  1.00  0.00     0.006 C 
BRANCH   9  10
ATOM     10  C   UNL     1      83.668 124.380 129.013  1.00  0.00     0.053 C 
BRANCH  10  11
ATOM     11  C   UNL     1      83.935 124.581 127.555  1.00  0.00     0.041 C 
ATOM     12  O   UNL     1      85.063 124.985 127.167  1.00  0.00    -0.550 OA
ATOM     13  O   UNL     1      82.955 124.275 126.619  1.00  0.00    -0.550 OA
ENDBRANCH  10  11
ENDBRANCH   9  10
ENDBRANCH   8   9
ENDBRANCH   1   8
TORSDOF 8
ENDMDL
MODEL 8
REMARK VINA RESULT:    -3.991     14.089     16.248
REMARK INTER + INTRA:          -6.145
REMARK INTER:                  -5.822
REMARK INTRA:                  -0.323
REMARK UNBOUND:                -0.288
REMARK SMILES O=C([O-])CCCCCCCC(=O)[O-]
REMARK SMILES IDX 7 1 6 2 5 3 4 4 2 5 1 6 3 7 8 8 9 9 10 10 11 11 12 12 13 13
REMARK H PARENT
REMARK Flexibility Score: inf
ROOT
ATOM      1  C   UNL     1      82.966 127.578 130.148  1.00  0.00     0.000 C 
ENDROOT
BRANCH   1   2
ATOM      2  C   UNL     1      83.347 126.374 131.023  1.00  0.00     0.000 C 
BRANCH   2   3
ATOM      3  C   UNL     1      83.067 125.030 130.336  1.00  0.00     0.006 C 
BRANCH   3   4
ATOM      4  C   UNL     1      83.095 125.179 128.811  1.00  0.00     0.053 C 
BRANCH   4   5
ATOM      5  C   UNL     1      84.149 124.298 128.218  1.00  0.00     0.041 C 
ATOM      6  O   UNL     1      84.517 123.255 128.822  1.00  0.00    -0.550 OA
ATOM      7  O   UNL     1      84.692 124.602 126.977  1.00  0.00    -0.550 OA
ENDBRANCH   4   5
ENDBRANCH   3   4
ENDBRANCH   2   3
ENDBRANCH   1   2
BRANCH   1   8
ATOM      8  C   UNL     1      84.050 128.664 130.130  1.00  0.00     0.000 C 
BRANCH   8   9
ATOM      9  C   UNL     1      84.033 129.480 131.429  1.00  0.00     0.006 C 
BRANCH   9  10
ATOM     10  C   UNL     1      82.862 130.466 131.445  1.00  0.00     0.053 C 
BRANCH  10  11
ATOM     11  C   UNL     1      83.320 131.814 131.901  1.00  0.00     0.041 C 
ATOM     12  O   UNL     1      82.745 132.854 131.484  1.00  0.00    -0.550 OA
ATOM     13  O   UNL     1      84.351 131.923 132.826  1.00  0.00    -0.550 OA
ENDBRANCH  10  11
ENDBRANCH   9  10
ENDBRANCH   8   9
ENDBRANCH   1   8
TORSDOF 8
ENDMDL
MODEL 9
REMARK VINA RESULT:    -3.891     13.458     14.528
REMARK INTER + INTRA:          -5.998
REMARK INTER:                  -5.440
REMARK INTRA:                  -0.558
REMARK UNBOUND:                -0.288
REMARK SMILES O=C([O-])CCCCCCCC(=O)[O-]
REMARK SMILES IDX 7 1 6 2 5 3 4 4 2 5 1 6 3 7 8 8 9 9 10 10 11 11 12 12 13 13
REMARK H PARENT
REMARK Flexibility Score: inf
ROOT
ATOM      1  C   UNL     1      83.764 123.643 125.068  1.00  0.00     0.000 C 
ENDROOT
BRANCH   1   2
ATOM      2  C   UNL     1      84.199 124.377 126.346  1.00  0.00     0.000 C 
BRANCH   2   3
ATOM      3  C   UNL     1      83.275 124.090 127.538  1.00  0.00     0.006 C 
BRANCH   3   4
ATOM      4  C   UNL     1      84.082 123.648 128.763  1.00  0.00     0.053 C 
BRANCH   4   5
ATOM      5  C   UNL     1      84.487 122.213 128.633  1.00  0.00     0.041 C 
ATOM      6  O   UNL     1      85.629 121.840 129.015  1.00  0.00    -0.550 OA
ATOM      7  O   UNL     1      83.589 121.279 128.135  1.00  0.00    -0.550 OA
ENDBRANCH   4   5
ENDBRANCH   3   4
ENDBRANCH   2   3
ENDBRANCH   1   2
BRANCH   1   8
ATOM      8  C   UNL     1      84.503 122.312 124.868  1.00  0.00     0.000 C 
BRANCH   8   9
ATOM      9  C   UNL     1      83.530 121.199 124.458  1.00  0.00     0.006 C 
BRANCH   9  10
ATOM     10  C   UNL     1      82.536 121.697 123.405  1.00  0.00     0.053 C 
BRANCH  10  11
ATOM     11  C   UNL     1      82.510 120.772 122.231  1.00  0.00     0.041 C 
ATOM     12  O   UNL     1      82.541 121.232 121.059  1.00  0.00    -0.550 OA
ATOM     13  O   UNL     1      82.501 119.396 122.429  1.00  0.00    -0.550 OA
ENDBRANCH  10  11
ENDBRANCH   9  10
ENDBRANCH   8   9
ENDBRANCH   1   8
TORSDOF 8
ENDMDL
