MODEL 1
REMARK VINA RESULT:    -2.978      0.000      0.000
REMARK INTER + INTRA:         -10.172
REMARK INTER:                  -7.852
REMARK INTRA:                  -2.320
REMARK UNBOUND:                -2.320
REMARK SMILES CCCCCCCCCCCCCCCCCCCCCCCCCCCCCC(=O)[O-]
REMARK SMILES IDX 16 1 17 2 18 3 19 4 20 5 21 6 22 7 23 8 24 9 25 10 26 11
REMARK SMILES IDX 27 12 28 13 29 14 30 15 31 16 32 17 15 18 14 19 13 20 12 21
REMARK SMILES IDX 11 22 10 23 9 24 8 25 7 26 6 27 5 28 4 29 3 30 2 31 1 32
REMARK H PARENT
REMARK Flexibility Score: inf
ROOT
ATOM      1  C   UNL     1      -6.503 -34.143  46.002  1.00  0.00     0.000 C 
ENDROOT
BRANCH   1   2
ATOM      2  C   UNL     1      -5.820 -33.163  46.967  1.00  0.00     0.000 C 
BRANCH   2   3
ATOM      3  C   UNL     1      -6.812 -32.196  47.634  1.00  0.00     0.000 C 
BRANCH   3   4
ATOM      4  C   UNL     1      -6.228 -31.520  48.884  1.00  0.00     0.000 C 
BRANCH   4   5
ATOM      5  C   UNL     1      -6.874 -30.150  49.125  1.00  0.00     0.000 C 
BRANCH   5   6
ATOM      6  C   UNL     1      -5.847 -29.023  48.961  1.00  0.00     0.000 C 
BRANCH   6   7
ATOM      7  C   UNL     1      -6.507 -27.646  49.109  1.00  0.00     0.000 C 
BRANCH   7   8
ATOM      8  C   UNL     1      -5.774 -26.592  48.265  1.00  0.00     0.000 C 
BRANCH   8   9
ATOM      9  C   UNL     1      -5.062 -25.536  49.125  1.00  0.00     0.000 C 
BRANCH   9  10
ATOM     10  C   UNL     1      -4.555 -24.344  48.295  1.00  0.00     0.000 C 
BRANCH  10  11
ATOM     11  C   UNL     1      -5.634 -23.754  47.368  1.00  0.00     0.000 C 
BRANCH  11  12
ATOM     12  C   UNL     1      -6.766 -22.997  48.085  1.00  0.00     0.000 C 
BRANCH  12  13
ATOM     13  C   UNL     1      -8.159 -23.575  47.783  1.00  0.00     0.006 C 
BRANCH  13  14
ATOM     14  C   UNL     1      -9.129 -22.505  47.265  1.00  0.00     0.053 C 
BRANCH  14  15
ATOM     15  C   UNL     1     -10.505 -22.686  47.830  1.00  0.00     0.041 C 
ATOM     16  O   UNL     1     -11.450 -21.948  47.446  1.00  0.00    -0.550 OA
ATOM     17  O   UNL     1     -10.752 -23.697  48.750  1.00  0.00    -0.550 OA
ENDBRANCH  14  15
ENDBRANCH  13  14
ENDBRANCH  12  13
ENDBRANCH  11  12
ENDBRANCH  10  11
ENDBRANCH   9  10
ENDBRANCH   8   9
ENDBRANCH   7   8
ENDBRANCH   6   7
ENDBRANCH   5   6
ENDBRANCH   4   5
ENDBRANCH   3   4
ENDBRANCH   2   3
ENDBRANCH   1   2
BRANCH   1  18
ATOM     18  C   UNL     1      -5.464 -34.917  45.177  1.00  0.00     0.000 C 
BRANCH  18  19
ATOM     19  C   UNL     1      -5.064 -36.255  45.822  1.00  0.00     0.000 C 
BRANCH  19  20
ATOM     20  C   UNL     1      -5.799 -36.518  47.149  1.00  0.00     0.000 C 
BRANCH  20  21
ATOM     21  C   UNL     1      -4.832 -36.808  48.309  1.00  0.00     0.000 C 
BRANCH  21  22
ATOM     22  C   UNL     1      -3.395 -37.059  47.820  1.00  0.00     0.000 C 
BRANCH  22  23
ATOM     23  C   UNL     1      -2.405 -35.993  48.313  1.00  0.00     0.000 C 
BRANCH  23  24
ATOM     24  C   UNL     1      -3.048 -34.599  48.441  1.00  0.00    -0.000 C 
BRANCH  24  25
ATOM     25  C   UNL     1      -2.333 -33.535  47.580  1.00  0.00    -0.000 C 
BRANCH  25  26
ATOM     26  C   UNL     1      -1.948 -34.030  46.172  1.00  0.00    -0.000 C 
BRANCH  26  27
ATOM     27  C   UNL     1      -0.502 -33.725  45.749  1.00  0.00    -0.000 C 
BRANCH  27  28
ATOM     28  C   UNL     1       0.003 -34.660  44.638  1.00  0.00    -0.000 C 
BRANCH  28  29
ATOM     29  C   UNL     1       1.291 -35.377  45.070  1.00  0.00    -0.000 C 
BRANCH  29  30
ATOM     30  C   UNL     1       2.494 -34.425  45.196  1.00  0.00    -0.000 C 
BRANCH  30  31
ATOM     31  C   UNL     1       2.719 -33.850  46.607  1.00  0.00    -0.003 C 
ATOM     32  C   UNL     1       3.430 -34.827  47.543  1.00  0.00     0.004 C 
ENDBRANCH  30  31
ENDBRANCH  29  30
ENDBRANCH  28  29
ENDBRANCH  27  28
ENDBRANCH  26  27
ENDBRANCH  25  26
ENDBRANCH  24  25
ENDBRANCH  23  24
ENDBRANCH  22  23
ENDBRANCH  21  22
ENDBRANCH  20  21
ENDBRANCH  19  20
ENDBRANCH  18  19
ENDBRANCH   1  18
TORSDOF 28
ENDMDL
MODEL 2
REMARK VINA RESULT:    -1.851      4.915      7.776
REMARK INTER + INTRA:          -7.201
REMARK INTER:                  -5.026
REMARK INTRA:                  -2.175
REMARK UNBOUND:                -2.320
REMARK SMILES CCCCCCCCCCCCCCCCCCCCCCCCCCCCCC(=O)[O-]
REMARK SMILES IDX 16 1 17 2 18 3 19 4 20 5 21 6 22 7 23 8 24 9 25 10 26 11
REMARK SMILES IDX 27 12 28 13 29 14 30 15 31 16 32 17 15 18 14 19 13 20 12 21
REMARK SMILES IDX 11 22 10 23 9 24 8 25 7 26 6 27 5 28 4 29 3 30 2 31 1 32
REMARK H PARENT
REMARK Flexibility Score: inf
ROOT
ATOM      1  C   UNL     1      -2.185 -36.138  45.734  1.00  0.00     0.000 C 
ENDROOT
BRANCH   1   2
ATOM      2  C   UNL     1      -3.557 -35.495  45.484  1.00  0.00     0.000 C 
BRANCH   2   3
ATOM      3  C   UNL     1      -4.463 -36.356  44.588  1.00  0.00     0.000 C 
BRANCH   3   4
ATOM      4  C   UNL     1      -5.942 -36.285  45.001  1.00  0.00     0.000 C 
BRANCH   4   5
ATOM      5  C   UNL     1      -6.196 -35.105  45.947  1.00  0.00     0.000 C 
BRANCH   5   6
ATOM      6  C   UNL     1      -6.570 -35.597  47.350  1.00  0.00     0.000 C 
BRANCH   6   7
ATOM      7  C   UNL     1      -6.079 -37.031  47.583  1.00  0.00     0.000 C 
BRANCH   7   8
ATOM      8  C   UNL     1      -4.587 -37.048  47.952  1.00  0.00     0.000 C 
BRANCH   8   9
ATOM      9  C   UNL     1      -4.253 -36.096  49.111  1.00  0.00     0.000 C 
BRANCH   9  10
ATOM     10  C   UNL     1      -2.795 -35.606  49.070  1.00  0.00     0.000 C 
BRANCH  10  11
ATOM     11  C   UNL     1      -2.614 -34.325  48.235  1.00  0.00     0.000 C 
BRANCH  11  12
ATOM     12  C   UNL     1      -2.423 -33.036  49.052  1.00  0.00     0.000 C 
BRANCH  12  13
ATOM     13  C   UNL     1      -3.698 -32.177  49.124  1.00  0.00     0.006 C 
BRANCH  13  14
ATOM     14  C   UNL     1      -4.762 -32.637  48.118  1.00  0.00     0.053 C 
BRANCH  14  15
ATOM     15  C   UNL     1      -5.998 -31.794  48.196  1.00  0.00     0.041 C 
ATOM     16  O   UNL     1      -7.108 -32.262  47.833  1.00  0.00    -0.550 OA
ATOM     17  O   UNL     1      -5.928 -30.504  48.707  1.00  0.00    -0.550 OA
ENDBRANCH  14  15
ENDBRANCH  13  14
ENDBRANCH  12  13
ENDBRANCH  11  12
ENDBRANCH  10  11
ENDBRANCH   9  10
ENDBRANCH   8   9
ENDBRANCH   7   8
ENDBRANCH   6   7
ENDBRANCH   5   6
ENDBRANCH   4   5
ENDBRANCH   3   4
ENDBRANCH   2   3
ENDBRANCH   1   2
BRANCH   1  18
ATOM     18  C   UNL     1      -1.140 -35.602  44.744  1.00  0.00     0.000 C 
BRANCH  18  19
ATOM     19  C   UNL     1      -0.737 -34.146  45.028  1.00  0.00     0.000 C 
BRANCH  19  20
ATOM     20  C   UNL     1       0.704 -34.019  45.556  1.00  0.00     0.000 C 
BRANCH  20  21
ATOM     21  C   UNL     1       1.731 -33.841  44.426  1.00  0.00     0.000 C 
BRANCH  21  22
ATOM     22  C   UNL     1       2.917 -34.813  44.558  1.00  0.00     0.000 C 
BRANCH  22  23
ATOM     23  C   UNL     1       2.476 -36.284  44.611  1.00  0.00     0.000 C 
BRANCH  23  24
ATOM     24  C   UNL     1       2.716 -36.927  45.991  1.00  0.00    -0.000 C 
BRANCH  24  25
ATOM     25  C   UNL     1       4.171 -36.758  46.477  1.00  0.00    -0.000 C 
BRANCH  25  26
ATOM     26  C   UNL     1       4.377 -37.116  47.962  1.00  0.00    -0.000 C 
BRANCH  26  27
ATOM     27  C   UNL     1       4.311 -35.926  48.933  1.00  0.00    -0.000 C 
BRANCH  27  28
ATOM     28  C   UNL     1       3.258 -34.884  48.527  1.00  0.00    -0.000 C 
BRANCH  28  29
ATOM     29  C   UNL     1       3.911 -33.521  48.258  1.00  0.00    -0.000 C 
BRANCH  29  30
ATOM     30  C   UNL     1       3.320 -32.392  49.121  1.00  0.00    -0.000 C 
BRANCH  30  31
ATOM     31  C   UNL     1       2.621 -31.271  48.330  1.00  0.00    -0.003 C 
ATOM     32  C   UNL     1       3.307 -29.913  48.485  1.00  0.00     0.004 C 
ENDBRANCH  30  31
ENDBRANCH  29  30
ENDBRANCH  28  29
ENDBRANCH  27  28
ENDBRANCH  26  27
ENDBRANCH  25  26
ENDBRANCH  24  25
ENDBRANCH  23  24
ENDBRANCH  22  23
ENDBRANCH  21  22
ENDBRANCH  20  21
ENDBRANCH  19  20
ENDBRANCH  18  19
ENDBRANCH   1  18
TORSDOF 28
ENDMDL
MODEL 3
REMARK VINA RESULT:    -1.816      5.346      8.242
REMARK INTER + INTRA:          -7.109
REMARK INTER:                  -5.606
REMARK INTRA:                  -1.502
REMARK UNBOUND:                -2.320
REMARK SMILES CCCCCCCCCCCCCCCCCCCCCCCCCCCCCC(=O)[O-]
REMARK SMILES IDX 16 1 17 2 18 3 19 4 20 5 21 6 22 7 23 8 24 9 25 10 26 11
REMARK SMILES IDX 27 12 28 13 29 14 30 15 31 16 32 17 15 18 14 19 13 20 12 21
REMARK SMILES IDX 11 22 10 23 9 24 8 25 7 26 6 27 5 28 4 29 3 30 2 31 1 32
REMARK H PARENT
REMARK Flexibility Score: inf
ROOT
ATOM      1  C   UNL     1      -1.771 -33.044  47.546  1.00  0.00     0.000 C 
ENDROOT
BRANCH   1   2
ATOM      2  C   UNL     1      -2.438 -32.847  48.915  1.00  0.00     0.000 C 
BRANCH   2   3
ATOM      3  C   UNL     1      -3.969 -32.979  48.855  1.00  0.00     0.000 C 
BRANCH   3   4
ATOM      4  C   UNL     1      -4.686 -31.637  49.076  1.00  0.00     0.000 C 
BRANCH   4   5
ATOM      5  C   UNL     1      -5.763 -31.404  48.009  1.00  0.00     0.000 C 
BRANCH   5   6
ATOM      6  C   UNL     1      -6.874 -32.455  48.111  1.00  0.00     0.000 C 
BRANCH   6   7
ATOM      7  C   UNL     1      -6.807 -33.448  46.944  1.00  0.00     0.000 C 
BRANCH   7   8
ATOM      8  C   UNL     1      -7.519 -34.762  47.299  1.00  0.00     0.000 C 
BRANCH   8   9
ATOM      9  C   UNL     1      -6.549 -35.950  47.405  1.00  0.00     0.000 C 
BRANCH   9  10
ATOM     10  C   UNL     1      -5.637 -35.859  48.641  1.00  0.00     0.000 C 
BRANCH  10  11
ATOM     11  C   UNL     1      -4.302 -36.604  48.459  1.00  0.00     0.000 C 
BRANCH  11  12
ATOM     12  C   UNL     1      -4.035 -37.123  47.035  1.00  0.00     0.000 C 
BRANCH  12  13
ATOM     13  C   UNL     1      -5.030 -36.572  46.000  1.00  0.00     0.006 C 
BRANCH  13  14
ATOM     14  C   UNL     1      -4.391 -35.516  45.088  1.00  0.00     0.053 C 
BRANCH  14  15
ATOM     15  C   UNL     1      -5.336 -35.066  44.016  1.00  0.00     0.041 C 
ATOM     16  O   UNL     1      -6.364 -35.742  43.751  1.00  0.00    -0.550 OA
ATOM     17  O   UNL     1      -5.101 -33.876  43.338  1.00  0.00    -0.550 OA
ENDBRANCH  14  15
ENDBRANCH  13  14
ENDBRANCH  12  13
ENDBRANCH  11  12
ENDBRANCH  10  11
ENDBRANCH   9  10
ENDBRANCH   8   9
ENDBRANCH   7   8
ENDBRANCH   6   7
ENDBRANCH   5   6
ENDBRANCH   4   5
ENDBRANCH   3   4
ENDBRANCH   2   3
ENDBRANCH   1   2
BRANCH   1  18
ATOM     18  C   UNL     1      -1.852 -34.512  47.101  1.00  0.00     0.000 C 
BRANCH  18  19
ATOM     19  C   UNL     1      -0.562 -35.297  47.391  1.00  0.00     0.000 C 
BRANCH  19  20
ATOM     20  C   UNL     1      -0.474 -36.611  46.593  1.00  0.00     0.000 C 
BRANCH  20  21
ATOM     21  C   UNL     1      -0.342 -36.373  45.080  1.00  0.00     0.000 C 
BRANCH  21  22
ATOM     22  C   UNL     1       0.304 -35.013  44.759  1.00  0.00     0.000 C 
BRANCH  22  23
ATOM     23  C   UNL     1       1.755 -35.146  44.271  1.00  0.00     0.000 C 
BRANCH  23  24
ATOM     24  C   UNL     1       2.780 -34.688  45.325  1.00  0.00    -0.000 C 
BRANCH  24  25
ATOM     25  C   UNL     1       3.699 -35.835  45.796  1.00  0.00    -0.000 C 
BRANCH  25  26
ATOM     26  C   UNL     1       3.008 -36.841  46.737  1.00  0.00    -0.000 C 
BRANCH  26  27
ATOM     27  C   UNL     1       3.400 -36.719  48.219  1.00  0.00    -0.000 C 
BRANCH  27  28
ATOM     28  C   UNL     1       3.024 -35.358  48.825  1.00  0.00    -0.000 C 
BRANCH  28  29
ATOM     29  C   UNL     1       4.268 -34.477  49.005  1.00  0.00    -0.000 C 
BRANCH  29  30
ATOM     30  C   UNL     1       3.940 -32.973  49.018  1.00  0.00    -0.000 C 
BRANCH  30  31
ATOM     31  C   UNL     1       2.682 -32.578  48.222  1.00  0.00    -0.003 C 
ATOM     32  C   UNL     1       1.524 -32.136  49.117  1.00  0.00     0.004 C 
ENDBRANCH  30  31
ENDBRANCH  29  30
ENDBRANCH  28  29
ENDBRANCH  27  28
ENDBRANCH  26  27
ENDBRANCH  25  26
ENDBRANCH  24  25
ENDBRANCH  23  24
ENDBRANCH  22  23
ENDBRANCH  21  22
ENDBRANCH  20  21
ENDBRANCH  19  20
ENDBRANCH  18  19
ENDBRANCH   1  18
TORSDOF 28
ENDMDL
MODEL 4
REMARK VINA RESULT:    -1.246      3.899      9.725
REMARK INTER + INTRA:          -5.605
REMARK INTER:                  -2.660
REMARK INTRA:                  -2.945
REMARK UNBOUND:                -2.320
REMARK SMILES CCCCCCCCCCCCCCCCCCCCCCCCCCCCCC(=O)[O-]
REMARK SMILES IDX 16 1 17 2 18 3 19 4 20 5 21 6 22 7 23 8 24 9 25 10 26 11
REMARK SMILES IDX 27 12 28 13 29 14 30 15 31 16 32 17 15 18 14 19 13 20 12 21
REMARK SMILES IDX 11 22 10 23 9 24 8 25 7 26 6 27 5 28 4 29 3 30 2 31 1 32
REMARK H PARENT
REMARK Flexibility Score: inf
ROOT
ATOM      1  C   UNL     1       2.796 -34.452  44.893  1.00  0.00     0.000 C 
ENDROOT
BRANCH   1   2
ATOM      2  C   UNL     1       1.484 -34.871  44.214  1.00  0.00     0.000 C 
BRANCH   2   3
ATOM      3  C   UNL     1       1.067 -36.309  44.565  1.00  0.00     0.000 C 
BRANCH   3   4
ATOM      4  C   UNL     1      -0.216 -36.745  43.840  1.00  0.00     0.000 C 
BRANCH   4   5
ATOM      5  C   UNL     1      -1.361 -36.980  44.834  1.00  0.00     0.000 C 
BRANCH   5   6
ATOM      6  C   UNL     1      -1.242 -36.040  46.039  1.00  0.00     0.000 C 
BRANCH   6   7
ATOM      7  C   UNL     1      -2.580 -35.914  46.778  1.00  0.00     0.000 C 
BRANCH   7   8
ATOM      8  C   UNL     1      -2.691 -36.963  47.895  1.00  0.00     0.000 C 
BRANCH   8   9
ATOM      9  C   UNL     1      -4.073 -36.966  48.569  1.00  0.00     0.000 C 
BRANCH   9  10
ATOM     10  C   UNL     1      -5.200 -36.558  47.605  1.00  0.00     0.000 C 
BRANCH  10  11
ATOM     11  C   UNL     1      -6.144 -35.496  48.198  1.00  0.00     0.000 C 
BRANCH  11  12
ATOM     12  C   UNL     1      -7.320 -35.091  47.292  1.00  0.00     0.000 C 
BRANCH  12  13
ATOM     13  C   UNL     1      -6.957 -33.969  46.304  1.00  0.00     0.006 C 
BRANCH  13  14
ATOM     14  C   UNL     1      -5.573 -34.177  45.676  1.00  0.00     0.053 C 
BRANCH  14  15
ATOM     15  C   UNL     1      -5.674 -34.675  44.266  1.00  0.00     0.041 C 
ATOM     16  O   UNL     1      -5.185 -35.791  43.951  1.00  0.00    -0.550 OA
ATOM     17  O   UNL     1      -6.344 -33.922  43.310  1.00  0.00    -0.550 OA
ENDBRANCH  14  15
ENDBRANCH  13  14
ENDBRANCH  12  13
ENDBRANCH  11  12
ENDBRANCH  10  11
ENDBRANCH   9  10
ENDBRANCH   8   9
ENDBRANCH   7   8
ENDBRANCH   6   7
ENDBRANCH   5   6
ENDBRANCH   4   5
ENDBRANCH   3   4
ENDBRANCH   2   3
ENDBRANCH   1   2
BRANCH   1  18
ATOM     18  C   UNL     1       3.201 -35.461  45.978  1.00  0.00     0.000 C 
BRANCH  18  19
ATOM     19  C   UNL     1       3.487 -34.799  47.336  1.00  0.00     0.000 C 
BRANCH  19  20
ATOM     20  C   UNL     1       2.505 -35.248  48.434  1.00  0.00     0.000 C 
BRANCH  20  21
ATOM     21  C   UNL     1       1.071 -35.417  47.908  1.00  0.00     0.000 C 
BRANCH  21  22
ATOM     22  C   UNL     1       0.023 -34.839  48.877  1.00  0.00     0.000 C 
BRANCH  22  23
ATOM     23  C   UNL     1       0.141 -33.316  49.039  1.00  0.00     0.000 C 
BRANCH  23  24
ATOM     24  C   UNL     1      -1.025 -32.556  48.378  1.00  0.00    -0.000 C 
BRANCH  24  25
ATOM     25  C   UNL     1      -2.362 -32.756  49.125  1.00  0.00    -0.000 C 
BRANCH  25  26
ATOM     26  C   UNL     1      -3.607 -32.551  48.240  1.00  0.00    -0.000 C 
BRANCH  26  27
ATOM     27  C   UNL     1      -4.901 -32.230  49.005  1.00  0.00    -0.000 C 
BRANCH  27  28
ATOM     28  C   UNL     1      -5.878 -31.369  48.188  1.00  0.00    -0.000 C 
BRANCH  28  29
ATOM     29  C   UNL     1      -6.525 -30.290  49.069  1.00  0.00    -0.000 C 
BRANCH  29  30
ATOM     30  C   UNL     1      -5.720 -28.979  49.100  1.00  0.00    -0.000 C 
BRANCH  30  31
ATOM     31  C   UNL     1      -6.330 -27.826  48.281  1.00  0.00    -0.003 C 
ATOM     32  C   UNL     1      -6.383 -26.507  49.053  1.00  0.00     0.004 C 
ENDBRANCH  30  31
ENDBRANCH  29  30
ENDBRANCH  28  29
ENDBRANCH  27  28
ENDBRANCH  26  27
ENDBRANCH  25  26
ENDBRANCH  24  25
ENDBRANCH  23  24
ENDBRANCH  22  23
ENDBRANCH  21  22
ENDBRANCH  20  21
ENDBRANCH  19  20
ENDBRANCH  18  19
ENDBRANCH   1  18
TORSDOF 28
ENDMDL
MODEL 5
REMARK VINA RESULT:    -1.240      4.335     11.437
REMARK INTER + INTRA:          -5.589
REMARK INTER:                  -4.099
REMARK INTRA:                  -1.490
REMARK UNBOUND:                -2.320
REMARK SMILES CCCCCCCCCCCCCCCCCCCCCCCCCCCCCC(=O)[O-]
REMARK SMILES IDX 16 1 17 2 18 3 19 4 20 5 21 6 22 7 23 8 24 9 25 10 26 11
REMARK SMILES IDX 27 12 28 13 29 14 30 15 31 16 32 17 15 18 14 19 13 20 12 21
REMARK SMILES IDX 11 22 10 23 9 24 8 25 7 26 6 27 5 28 4 29 3 30 2 31 1 32
REMARK H PARENT
REMARK Flexibility Score: inf
ROOT
ATOM      1  C   UNL     1      -5.965 -35.198  46.644  1.00  0.00     0.000 C 
ENDROOT
BRANCH   1   2
ATOM      2  C   UNL     1      -6.231 -36.165  47.807  1.00  0.00     0.000 C 
BRANCH   2   3
ATOM      3  C   UNL     1      -5.051 -36.254  48.788  1.00  0.00     0.000 C 
BRANCH   3   4
ATOM      4  C   UNL     1      -3.719 -35.829  48.150  1.00  0.00     0.000 C 
BRANCH   4   5
ATOM      5  C   UNL     1      -3.188 -36.914  47.205  1.00  0.00     0.000 C 
BRANCH   5   6
ATOM      6  C   UNL     1      -2.877 -36.332  45.821  1.00  0.00     0.000 C 
BRANCH   6   7
ATOM      7  C   UNL     1      -2.054 -35.043  45.934  1.00  0.00     0.000 C 
BRANCH   7   8
ATOM      8  C   UNL     1      -0.549 -35.353  45.949  1.00  0.00     0.000 C 
BRANCH   8   9
ATOM      9  C   UNL     1       0.315 -34.102  45.719  1.00  0.00     0.000 C 
BRANCH   9  10
ATOM     10  C   UNL     1       1.794 -34.445  45.467  1.00  0.00     0.000 C 
BRANCH  10  11
ATOM     11  C   UNL     1       2.322 -35.550  46.401  1.00  0.00     0.000 C 
BRANCH  11  12
ATOM     12  C   UNL     1       1.693 -35.572  47.805  1.00  0.00     0.000 C 
BRANCH  12  13
ATOM     13  C   UNL     1       2.491 -34.751  48.832  1.00  0.00     0.006 C 
BRANCH  13  14
ATOM     14  C   UNL     1       2.017 -33.293  48.900  1.00  0.00     0.053 C 
BRANCH  14  15
ATOM     15  C   UNL     1       3.043 -32.350  48.349  1.00  0.00     0.041 C 
ATOM     16  O   UNL     1       4.047 -32.795  47.734  1.00  0.00    -0.550 OA
ATOM     17  O   UNL     1       2.867 -30.978  48.478  1.00  0.00    -0.550 OA
ENDBRANCH  14  15
ENDBRANCH  13  14
ENDBRANCH  12  13
ENDBRANCH  11  12
ENDBRANCH  10  11
ENDBRANCH   9  10
ENDBRANCH   8   9
ENDBRANCH   7   8
ENDBRANCH   6   7
ENDBRANCH   5   6
ENDBRANCH   4   5
ENDBRANCH   3   4
ENDBRANCH   2   3
ENDBRANCH   1   2
BRANCH   1  18
ATOM     18  C   UNL     1      -7.056 -34.120  46.565  1.00  0.00     0.000 C 
BRANCH  18  19
ATOM     19  C   UNL     1      -6.960 -33.088  47.701  1.00  0.00     0.000 C 
BRANCH  19  20
ATOM     20  C   UNL     1      -5.521 -32.592  47.934  1.00  0.00     0.000 C 
BRANCH  20  21
ATOM     21  C   UNL     1      -5.439 -31.062  48.054  1.00  0.00     0.000 C 
BRANCH  21  22
ATOM     22  C   UNL     1      -6.401 -30.509  49.121  1.00  0.00     0.000 C 
BRANCH  22  23
ATOM     23  C   UNL     1      -7.072 -29.195  48.690  1.00  0.00     0.000 C 
BRANCH  23  24
ATOM     24  C   UNL     1      -6.137 -27.978  48.824  1.00  0.00    -0.000 C 
BRANCH  24  25
ATOM     25  C   UNL     1      -5.850 -27.299  47.467  1.00  0.00    -0.000 C 
BRANCH  25  26
ATOM     26  C   UNL     1      -6.425 -25.874  47.349  1.00  0.00    -0.000 C 
BRANCH  26  27
ATOM     27  C   UNL     1      -6.225 -24.989  48.590  1.00  0.00    -0.000 C 
BRANCH  27  28
ATOM     28  C   UNL     1      -7.284 -23.881  48.708  1.00  0.00    -0.000 C 
BRANCH  28  29
ATOM     29  C   UNL     1      -7.794 -23.462  47.322  1.00  0.00    -0.000 C 
BRANCH  29  30
ATOM     30  C   UNL     1      -8.358 -22.030  47.299  1.00  0.00    -0.000 C 
BRANCH  30  31
ATOM     31  C   UNL     1      -7.436 -20.981  46.650  1.00  0.00    -0.003 C 
ATOM     32  C   UNL     1      -6.023 -20.985  47.235  1.00  0.00     0.004 C 
ENDBRANCH  30  31
ENDBRANCH  29  30
ENDBRANCH  28  29
ENDBRANCH  27  28
ENDBRANCH  26  27
ENDBRANCH  25  26
ENDBRANCH  24  25
ENDBRANCH  23  24
ENDBRANCH  22  23
ENDBRANCH  21  22
ENDBRANCH  20  21
ENDBRANCH  19  20
ENDBRANCH  18  19
ENDBRANCH   1  18
TORSDOF 28
ENDMDL
MODEL 6
REMARK VINA RESULT:    -1.225      1.748      2.047
REMARK INTER + INTRA:          -5.551
REMARK INTER:                  -3.274
REMARK INTRA:                  -2.277
REMARK UNBOUND:                -2.320
REMARK SMILES CCCCCCCCCCCCCCCCCCCCCCCCCCCCCC(=O)[O-]
REMARK SMILES IDX 16 1 17 2 18 3 19 4 20 5 21 6 22 7 23 8 24 9 25 10 26 11
REMARK SMILES IDX 27 12 28 13 29 14 30 15 31 16 32 17 15 18 14 19 13 20 12 21
REMARK SMILES IDX 11 22 10 23 9 24 8 25 7 26 6 27 5 28 4 29 3 30 2 31 1 32
REMARK H PARENT
REMARK Flexibility Score: inf
ROOT
ATOM      1  C   UNL     1      -6.425 -34.516  45.775  1.00  0.00     0.000 C 
ENDROOT
BRANCH   1   2
ATOM      2  C   UNL     1      -6.112 -33.115  46.322  1.00  0.00     0.000 C 
BRANCH   2   3
ATOM      3  C   UNL     1      -6.789 -32.841  47.675  1.00  0.00     0.000 C 
BRANCH   3   4
ATOM      4  C   UNL     1      -5.937 -31.949  48.592  1.00  0.00     0.000 C 
BRANCH   4   5
ATOM      5  C   UNL     1      -6.751 -30.760  49.118  1.00  0.00     0.000 C 
BRANCH   5   6
ATOM      6  C   UNL     1      -6.485 -29.501  48.283  1.00  0.00     0.000 C 
BRANCH   6   7
ATOM      7  C   UNL     1      -5.815 -28.409  49.125  1.00  0.00     0.000 C 
BRANCH   7   8
ATOM      8  C   UNL     1      -6.463 -27.040  48.865  1.00  0.00     0.000 C 
BRANCH   8   9
ATOM      9  C   UNL     1      -6.267 -26.557  47.419  1.00  0.00     0.000 C 
BRANCH   9  10
ATOM     10  C   UNL     1      -5.872 -25.072  47.342  1.00  0.00     0.000 C 
BRANCH  10  11
ATOM     11  C   UNL     1      -4.976 -24.627  48.513  1.00  0.00     0.000 C 
BRANCH  11  12
ATOM     12  C   UNL     1      -4.267 -23.276  48.313  1.00  0.00     0.000 C 
BRANCH  12  13
ATOM     13  C   UNL     1      -4.218 -22.837  46.840  1.00  0.00     0.006 C 
BRANCH  13  14
ATOM     14  C   UNL     1      -4.768 -21.419  46.641  1.00  0.00     0.053 C 
BRANCH  14  15
ATOM     15  C   UNL     1      -6.250 -21.364  46.858  1.00  0.00     0.041 C 
ATOM     16  O   UNL     1      -6.805 -20.279  47.171  1.00  0.00    -0.550 OA
ATOM     17  O   UNL     1      -7.022 -22.504  46.674  1.00  0.00    -0.550 OA
ENDBRANCH  14  15
ENDBRANCH  13  14
ENDBRANCH  12  13
ENDBRANCH  11  12
ENDBRANCH  10  11
ENDBRANCH   9  10
ENDBRANCH   8   9
ENDBRANCH   7   8
ENDBRANCH   6   7
ENDBRANCH   5   6
ENDBRANCH   4   5
ENDBRANCH   3   4
ENDBRANCH   2   3
ENDBRANCH   1   2
BRANCH   1  18
ATOM     18  C   UNL     1      -5.201 -35.113  45.064  1.00  0.00     0.000 C 
BRANCH  18  19
ATOM     19  C   UNL     1      -4.950 -36.583  45.438  1.00  0.00     0.000 C 
BRANCH  19  20
ATOM     20  C   UNL     1      -5.616 -36.980  46.769  1.00  0.00     0.000 C 
BRANCH  20  21
ATOM     21  C   UNL     1      -4.891 -36.387  47.988  1.00  0.00     0.000 C 
BRANCH  21  22
ATOM     22  C   UNL     1      -3.489 -36.992  48.182  1.00  0.00     0.000 C 
BRANCH  22  23
ATOM     23  C   UNL     1      -2.442 -35.943  48.591  1.00  0.00     0.000 C 
BRANCH  23  24
ATOM     24  C   UNL     1      -3.016 -34.514  48.631  1.00  0.00    -0.000 C 
BRANCH  24  25
ATOM     25  C   UNL     1      -2.728 -33.724  47.337  1.00  0.00    -0.000 C 
BRANCH  25  26
ATOM     26  C   UNL     1      -1.299 -33.918  46.793  1.00  0.00    -0.000 C 
BRANCH  26  27
ATOM     27  C   UNL     1      -1.218 -34.496  45.371  1.00  0.00    -0.000 C 
BRANCH  27  28
ATOM     28  C   UNL     1       0.220 -34.552  44.832  1.00  0.00    -0.000 C 
BRANCH  28  29
ATOM     29  C   UNL     1       0.794 -35.971  44.949  1.00  0.00    -0.000 C 
BRANCH  29  30
ATOM     30  C   UNL     1       2.323 -35.987  45.123  1.00  0.00    -0.000 C 
BRANCH  30  31
ATOM     31  C   UNL     1       2.868 -34.977  46.150  1.00  0.00    -0.003 C 
ATOM     32  C   UNL     1       3.617 -35.644  47.304  1.00  0.00     0.004 C 
ENDBRANCH  30  31
ENDBRANCH  29  30
ENDBRANCH  28  29
ENDBRANCH  27  28
ENDBRANCH  26  27
ENDBRANCH  25  26
ENDBRANCH  24  25
ENDBRANCH  23  24
ENDBRANCH  22  23
ENDBRANCH  21  22
ENDBRANCH  20  21
ENDBRANCH  19  20
ENDBRANCH  18  19
ENDBRANCH   1  18
TORSDOF 28
ENDMDL
MODEL 7
REMARK VINA RESULT:    -1.059      4.759      7.623
REMARK INTER + INTRA:          -5.113
REMARK INTER:                  -2.770
REMARK INTRA:                  -2.343
REMARK UNBOUND:                -2.320
REMARK SMILES CCCCCCCCCCCCCCCCCCCCCCCCCCCCCC(=O)[O-]
REMARK SMILES IDX 16 1 17 2 18 3 19 4 20 5 21 6 22 7 23 8 24 9 25 10 26 11
REMARK SMILES IDX 27 12 28 13 29 14 30 15 31 16 32 17 15 18 14 19 13 20 12 21
REMARK SMILES IDX 11 22 10 23 9 24 8 25 7 26 6 27 5 28 4 29 3 30 2 31 1 32
REMARK H PARENT
REMARK Flexibility Score: inf
ROOT
ATOM      1  C   UNL     1      -1.272 -36.620  45.637  1.00  0.00     0.000 C 
ENDROOT
BRANCH   1   2
ATOM      2  C   UNL     1      -2.507 -35.741  45.388  1.00  0.00     0.000 C 
BRANCH   2   3
ATOM      3  C   UNL     1      -3.384 -36.261  44.236  1.00  0.00     0.000 C 
BRANCH   3   4
ATOM      4  C   UNL     1      -4.885 -36.186  44.556  1.00  0.00     0.000 C 
BRANCH   4   5
ATOM      5  C   UNL     1      -5.299 -34.759  44.935  1.00  0.00     0.000 C 
BRANCH   5   6
ATOM      6  C   UNL     1      -6.375 -34.771  46.028  1.00  0.00     0.000 C 
BRANCH   6   7
ATOM      7  C   UNL     1      -6.568 -36.182  46.598  1.00  0.00     0.000 C 
BRANCH   7   8
ATOM      8  C   UNL     1      -5.431 -36.543  47.566  1.00  0.00     0.000 C 
BRANCH   8   9
ATOM      9  C   UNL     1      -5.359 -35.598  48.776  1.00  0.00     0.000 C 
BRANCH   9  10
ATOM     10  C   UNL     1      -3.941 -35.050  49.013  1.00  0.00     0.000 C 
BRANCH  10  11
ATOM     11  C   UNL     1      -3.547 -33.947  48.014  1.00  0.00     0.000 C 
BRANCH  11  12
ATOM     12  C   UNL     1      -3.205 -32.587  48.646  1.00  0.00     0.000 C 
BRANCH  12  13
ATOM     13  C   UNL     1      -4.448 -31.819  49.125  1.00  0.00     0.006 C 
BRANCH  13  14
ATOM     14  C   UNL     1      -5.348 -31.390  47.958  1.00  0.00     0.053 C 
BRANCH  14  15
ATOM     15  C   UNL     1      -6.752 -31.883  48.131  1.00  0.00     0.041 C 
ATOM     16  O   UNL     1      -7.081 -33.020  47.704  1.00  0.00    -0.550 OA
ATOM     17  O   UNL     1      -7.685 -31.102  48.801  1.00  0.00    -0.550 OA
ENDBRANCH  14  15
ENDBRANCH  13  14
ENDBRANCH  12  13
ENDBRANCH  11  12
ENDBRANCH  10  11
ENDBRANCH   9  10
ENDBRANCH   8   9
ENDBRANCH   7   8
ENDBRANCH   6   7
ENDBRANCH   5   6
ENDBRANCH   4   5
ENDBRANCH   3   4
ENDBRANCH   2   3
ENDBRANCH   1   2
BRANCH   1  18
ATOM     18  C   UNL     1      -0.055 -36.087  44.867  1.00  0.00     0.000 C 
BRANCH  18  19
ATOM     19  C   UNL     1       0.161 -34.576  45.061  1.00  0.00     0.000 C 
BRANCH  19  20
ATOM     20  C   UNL     1       1.548 -34.244  45.642  1.00  0.00     0.000 C 
BRANCH  20  21
ATOM     21  C   UNL     1       2.693 -34.649  44.700  1.00  0.00     0.000 C 
BRANCH  21  22
ATOM     22  C   UNL     1       3.792 -35.443  45.428  1.00  0.00     0.000 C 
BRANCH  22  23
ATOM     23  C   UNL     1       3.225 -36.479  46.411  1.00  0.00     0.000 C 
BRANCH  23  24
ATOM     24  C   UNL     1       3.244 -35.987  47.870  1.00  0.00    -0.000 C 
BRANCH  24  25
ATOM     25  C   UNL     1       4.560 -35.268  48.235  1.00  0.00    -0.000 C 
BRANCH  25  26
ATOM     26  C   UNL     1       4.358 -33.848  48.802  1.00  0.00    -0.000 C 
BRANCH  26  27
ATOM     27  C   UNL     1       3.701 -32.850  47.834  1.00  0.00    -0.000 C 
BRANCH  27  28
ATOM     28  C   UNL     1       2.378 -32.283  48.372  1.00  0.00    -0.000 C 
BRANCH  28  29
ATOM     29  C   UNL     1       1.586 -33.362  49.124  1.00  0.00    -0.000 C 
BRANCH  29  30
ATOM     30  C   UNL     1       0.103 -33.414  48.713  1.00  0.00    -0.000 C 
BRANCH  30  31
ATOM     31  C   UNL     1      -0.577 -34.780  48.914  1.00  0.00    -0.003 C 
ATOM     32  C   UNL     1       0.411 -35.947  48.902  1.00  0.00     0.004 C 
ENDBRANCH  30  31
ENDBRANCH  29  30
ENDBRANCH  28  29
ENDBRANCH  27  28
ENDBRANCH  26  27
ENDBRANCH  25  26
ENDBRANCH  24  25
ENDBRANCH  23  24
ENDBRANCH  22  23
ENDBRANCH  21  22
ENDBRANCH  20  21
ENDBRANCH  19  20
ENDBRANCH  18  19
ENDBRANCH   1  18
TORSDOF 28
ENDMDL
MODEL 8
REMARK VINA RESULT:    -0.986      5.789      8.348
REMARK INTER + INTRA:          -4.919
REMARK INTER:                  -2.698
REMARK INTRA:                  -2.222
REMARK UNBOUND:                -2.320
REMARK SMILES CCCCCCCCCCCCCCCCCCCCCCCCCCCCCC(=O)[O-]
REMARK SMILES IDX 16 1 17 2 18 3 19 4 20 5 21 6 22 7 23 8 24 9 25 10 26 11
REMARK SMILES IDX 27 12 28 13 29 14 30 15 31 16 32 17 15 18 14 19 13 20 12 21
REMARK SMILES IDX 11 22 10 23 9 24 8 25 7 26 6 27 5 28 4 29 3 30 2 31 1 32
REMARK H PARENT
REMARK Flexibility Score: inf
ROOT
ATOM      1  C   UNL     1      -2.225 -32.811  47.035  1.00  0.00     0.000 C 
ENDROOT
BRANCH   1   2
ATOM      2  C   UNL     1      -2.661 -32.364  48.438  1.00  0.00     0.000 C 
BRANCH   2   3
ATOM      3  C   UNL     1      -4.042 -32.912  48.834  1.00  0.00     0.000 C 
BRANCH   3   4
ATOM      4  C   UNL     1      -5.146 -32.502  47.847  1.00  0.00     0.000 C 
BRANCH   4   5
ATOM      5  C   UNL     1      -5.657 -33.712  47.055  1.00  0.00     0.000 C 
BRANCH   5   6
ATOM      6  C   UNL     1      -7.007 -34.194  47.599  1.00  0.00     0.000 C 
BRANCH   6   7
ATOM      7  C   UNL     1      -7.050 -35.723  47.697  1.00  0.00     0.000 C 
BRANCH   7   8
ATOM      8  C   UNL     1      -6.089 -36.232  48.783  1.00  0.00     0.000 C 
BRANCH   8   9
ATOM      9  C   UNL     1      -4.930 -37.061  48.206  1.00  0.00     0.000 C 
BRANCH   9  10
ATOM     10  C   UNL     1      -3.655 -36.225  47.995  1.00  0.00     0.000 C 
BRANCH  10  11
ATOM     11  C   UNL     1      -2.794 -36.728  46.822  1.00  0.00     0.000 C 
BRANCH  11  12
ATOM     12  C   UNL     1      -3.580 -37.124  45.560  1.00  0.00     0.000 C 
BRANCH  12  13
ATOM     13  C   UNL     1      -4.011 -35.912  44.717  1.00  0.00     0.006 C 
BRANCH  13  14
ATOM     14  C   UNL     1      -5.517 -35.639  44.823  1.00  0.00     0.053 C 
BRANCH  14  15
ATOM     15  C   UNL     1      -5.955 -34.570  43.868  1.00  0.00     0.041 C 
ATOM     16  O   UNL     1      -7.174 -34.279  43.758  1.00  0.00    -0.550 OA
ATOM     17  O   UNL     1      -5.010 -33.868  43.130  1.00  0.00    -0.550 OA
ENDBRANCH  14  15
ENDBRANCH  13  14
ENDBRANCH  12  13
ENDBRANCH  11  12
ENDBRANCH  10  11
ENDBRANCH   9  10
ENDBRANCH   8   9
ENDBRANCH   7   8
ENDBRANCH   6   7
ENDBRANCH   5   6
ENDBRANCH   4   5
ENDBRANCH   3   4
ENDBRANCH   2   3
ENDBRANCH   1   2
BRANCH   1  18
ATOM     18  C   UNL     1      -1.519 -34.174  47.088  1.00  0.00     0.000 C 
BRANCH  18  19
ATOM     19  C   UNL     1       0.007 -34.064  46.932  1.00  0.00     0.000 C 
BRANCH  19  20
ATOM     20  C   UNL     1       0.594 -32.845  47.667  1.00  0.00     0.000 C 
BRANCH  20  21
ATOM     21  C   UNL     1       1.093 -33.193  49.079  1.00  0.00     0.000 C 
BRANCH  21  22
ATOM     22  C   UNL     1       1.820 -34.549  49.121  1.00  0.00     0.000 C 
BRANCH  22  23
ATOM     23  C   UNL     1       3.348 -34.405  49.039  1.00  0.00     0.000 C 
BRANCH  23  24
ATOM     24  C   UNL     1       4.037 -35.677  48.507  1.00  0.00    -0.000 C 
BRANCH  24  25
ATOM     25  C   UNL     1       3.830 -35.871  46.989  1.00  0.00    -0.000 C 
BRANCH  25  26
ATOM     26  C   UNL     1       3.009 -37.124  46.628  1.00  0.00    -0.000 C 
BRANCH  26  27
ATOM     27  C   UNL     1       1.495 -36.999  46.863  1.00  0.00    -0.000 C 
BRANCH  27  28
ATOM     28  C   UNL     1       0.688 -36.993  45.555  1.00  0.00    -0.000 C 
BRANCH  28  29
ATOM     29  C   UNL     1       1.593 -36.687  44.354  1.00  0.00    -0.000 C 
BRANCH  29  30
ATOM     30  C   UNL     1       1.326 -35.302  43.739  1.00  0.00    -0.000 C 
BRANCH  30  31
ATOM     31  C   UNL     1       2.077 -34.139  44.413  1.00  0.00    -0.003 C 
ATOM     32  C   UNL     1       3.419 -33.830  43.748  1.00  0.00     0.004 C 
ENDBRANCH  30  31
ENDBRANCH  29  30
ENDBRANCH  28  29
ENDBRANCH  27  28
ENDBRANCH  26  27
ENDBRANCH  25  26
ENDBRANCH  24  25
ENDBRANCH  23  24
ENDBRANCH  22  23
ENDBRANCH  21  22
ENDBRANCH  20  21
ENDBRANCH  19  20
ENDBRANCH  18  19
ENDBRANCH   1  18
TORSDOF 28
ENDMDL
MODEL 9
REMARK VINA RESULT:    -0.619      8.578     14.130
REMARK INTER + INTRA:          -3.953
REMARK INTER:                  -1.762
REMARK INTRA:                  -2.191
REMARK UNBOUND:                -2.320
REMARK SMILES CCCCCCCCCCCCCCCCCCCCCCCCCCCCCC(=O)[O-]
REMARK SMILES IDX 16 1 17 2 18 3 19 4 20 5 21 6 22 7 23 8 24 9 25 10 26 11
REMARK SMILES IDX 27 12 28 13 29 14 30 15 31 16 32 17 15 18 14 19 13 20 12 21
REMARK SMILES IDX 11 22 10 23 9 24 8 25 7 26 6 27 5 28 4 29 3 30 2 31 1 32
REMARK H PARENT
REMARK Flexibility Score: inf
ROOT
ATOM      1  C   UNL     1       1.853 -22.225  49.014  1.00  0.00     0.000 C 
ENDROOT
BRANCH   1   2
ATOM      2  C   UNL     1       3.322 -21.783  49.083  1.00  0.00     0.000 C 
BRANCH   2   3
ATOM      3  C   UNL     1       4.303 -22.940  48.827  1.00  0.00     0.000 C 
BRANCH   3   4
ATOM      4  C   UNL     1       4.724 -23.041  47.352  1.00  0.00     0.000 C 
BRANCH   4   5
ATOM      5  C   UNL     1       6.251 -23.072  47.214  1.00  0.00     0.000 C 
BRANCH   5   6
ATOM      6  C   UNL     1       6.929 -22.939  48.583  1.00  0.00     0.000 C 
BRANCH   6   7
ATOM      7  C   UNL     1       6.877 -21.492  49.088  1.00  0.00     0.000 C 
BRANCH   7   8
ATOM      8  C   UNL     1       7.894 -20.613  48.343  1.00  0.00     0.000 C 
BRANCH   8   9
ATOM      9  C   UNL     1       8.085 -19.239  49.005  1.00  0.00     0.000 C 
BRANCH   9  10
ATOM     10  C   UNL     1       7.213 -18.148  48.361  1.00  0.00     0.000 C 
BRANCH  10  11
ATOM     11  C   UNL     1       5.830 -18.015  49.024  1.00  0.00     0.000 C 
BRANCH  11  12
ATOM     12  C   UNL     1       4.647 -18.494  48.164  1.00  0.00     0.000 C 
BRANCH  12  13
ATOM     13  C   UNL     1       5.079 -18.996  46.776  1.00  0.00     0.006 C 
BRANCH  13  14
ATOM     14  C   UNL     1       4.172 -20.120  46.258  1.00  0.00     0.053 C 
BRANCH  14  15
ATOM     15  C   UNL     1       3.252 -19.636  45.179  1.00  0.00     0.041 C 
ATOM     16  O   UNL     1       2.024 -19.488  45.412  1.00  0.00    -0.550 OA
ATOM     17  O   UNL     1       3.760 -19.310  43.928  1.00  0.00    -0.550 OA
ENDBRANCH  14  15
ENDBRANCH  13  14
ENDBRANCH  12  13
ENDBRANCH  11  12
ENDBRANCH  10  11
ENDBRANCH   9  10
ENDBRANCH   8   9
ENDBRANCH   7   8
ENDBRANCH   6   7
ENDBRANCH   5   6
ENDBRANCH   4   5
ENDBRANCH   3   4
ENDBRANCH   2   3
ENDBRANCH   1   2
BRANCH   1  18
ATOM     18  C   UNL     1       0.943 -21.048  48.631  1.00  0.00     0.000 C 
BRANCH  18  19
ATOM     19  C   UNL     1      -0.502 -21.224  49.125  1.00  0.00     0.000 C 
BRANCH  19  20
ATOM     20  C   UNL     1      -1.335 -22.143  48.212  1.00  0.00     0.000 C 
BRANCH  20  21
ATOM     21  C   UNL     1      -2.783 -22.302  48.700  1.00  0.00     0.000 C 
BRANCH  21  22
ATOM     22  C   UNL     1      -3.114 -23.757  49.077  1.00  0.00     0.000 C 
BRANCH  22  23
ATOM     23  C   UNL     1      -4.592 -24.110  48.843  1.00  0.00     0.000 C 
BRANCH  23  24
ATOM     24  C   UNL     1      -4.782 -25.175  47.746  1.00  0.00    -0.000 C 
BRANCH  24  25
ATOM     25  C   UNL     1      -5.986 -26.100  48.022  1.00  0.00    -0.000 C 
BRANCH  25  26
ATOM     26  C   UNL     1      -7.088 -25.450  48.881  1.00  0.00    -0.000 C 
BRANCH  26  27
ATOM     27  C   UNL     1      -8.446 -25.283  48.179  1.00  0.00    -0.000 C 
BRANCH  27  28
ATOM     28  C   UNL     1      -9.092 -23.916  48.451  1.00  0.00    -0.000 C 
BRANCH  28  29
ATOM     29  C   UNL     1      -8.036 -22.801  48.454  1.00  0.00    -0.000 C 
BRANCH  29  30
ATOM     30  C   UNL     1      -7.359 -22.614  47.084  1.00  0.00    -0.000 C 
BRANCH  30  31
ATOM     31  C   UNL     1      -7.294 -21.157  46.588  1.00  0.00    -0.003 C 
ATOM     32  C   UNL     1      -5.895 -20.551  46.696  1.00  0.00     0.004 C 
ENDBRANCH  30  31
ENDBRANCH  29  30
ENDBRANCH  28  29
ENDBRANCH  27  28
ENDBRANCH  26  27
ENDBRANCH  25  26
ENDBRANCH  24  25
ENDBRANCH  23  24
ENDBRANCH  22  23
ENDBRANCH  21  22
ENDBRANCH  20  21
ENDBRANCH  19  20
ENDBRANCH  18  19
ENDBRANCH   1  18
TORSDOF 28
ENDMDL
