MODEL 1
REMARK VINA RESULT:    -4.343      0.000      0.000
REMARK INTER + INTRA:          -9.832
REMARK INTER:                  -8.151
REMARK INTRA:                  -1.681
REMARK UNBOUND:                -1.681
REMARK SMILES O=C([O-])CCCCCCCCCCCCCCC(=O)[O-]
REMARK SMILES IDX 10 1 9 2 8 3 7 4 6 5 5 6 4 7 2 8 1 9 3 10 11 11 12 12 13 13
REMARK SMILES IDX 14 14 15 15 16 16 17 17 18 18 19 19 20 20
REMARK H PARENT
REMARK Flexibility Score: inf
ROOT
ATOM      1  C   UNL     1      69.381 -35.785   6.354  1.00  0.00     0.000 C 
ENDROOT
BRANCH   1   2
ATOM      2  C   UNL     1      69.369 -34.627   7.369  1.00  0.00     0.000 C 
BRANCH   2   3
ATOM      3  C   UNL     1      69.855 -33.273   6.819  1.00  0.00     0.000 C 
BRANCH   3   4
ATOM      4  C   UNL     1      71.062 -33.408   5.879  1.00  0.00     0.000 C 
BRANCH   4   5
ATOM      5  C   UNL     1      72.314 -33.839   6.653  1.00  0.00     0.000 C 
BRANCH   5   6
ATOM      6  C   UNL     1      73.101 -34.907   5.879  1.00  0.00     0.006 C 
BRANCH   6   7
ATOM      7  C   UNL     1      73.962 -35.777   6.802  1.00  0.00     0.053 C 
BRANCH   7   8
ATOM      8  C   UNL     1      74.155 -37.155   6.246  1.00  0.00     0.041 C 
ATOM      9  O   UNL     1      73.326 -37.630   5.425  1.00  0.00    -0.550 OA
ATOM     10  O   UNL     1      75.231 -37.927   6.661  1.00  0.00    -0.550 OA
ENDBRANCH   7   8
ENDBRANCH   6   7
ENDBRANCH   5   6
ENDBRANCH   4   5
ENDBRANCH   3   4
ENDBRANCH   2   3
ENDBRANCH   1   2
BRANCH   1  11
ATOM     11  C   UNL     1      69.986 -37.102   6.876  1.00  0.00     0.000 C 
BRANCH  11  12
ATOM     12  C   UNL     1      70.663 -36.973   8.257  1.00  0.00     0.000 C 
BRANCH  12  13
ATOM     13  C   UNL     1      69.769 -37.480   9.399  1.00  0.00     0.000 C 
BRANCH  13  14
ATOM     14  C   UNL     1      70.456 -38.608  10.177  1.00  0.00     0.000 C 
BRANCH  14  15
ATOM     15  C   UNL     1      70.753 -38.177  11.621  1.00  0.00     0.000 C 
BRANCH  15  16
ATOM     16  C   UNL     1      72.261 -38.086  11.919  1.00  0.00     0.006 C 
BRANCH  16  17
ATOM     17  C   UNL     1      73.030 -37.121  11.003  1.00  0.00     0.053 C 
BRANCH  17  18
ATOM     18  C   UNL     1      74.483 -37.470  10.910  1.00  0.00     0.041 C 
ATOM     19  O   UNL     1      75.165 -37.087   9.924  1.00  0.00    -0.550 OA
ATOM     20  O   UNL     1      75.093 -38.189  11.931  1.00  0.00    -0.550 OA
ENDBRANCH  17  18
ENDBRANCH  16  17
ENDBRANCH  15  16
ENDBRANCH  14  15
ENDBRANCH  13  14
ENDBRANCH  12  13
ENDBRANCH  11  12
ENDBRANCH   1  11
TORSDOF 15
ENDMDL
MODEL 2
REMARK VINA RESULT:    -4.315      1.502      2.494
REMARK INTER + INTRA:          -9.779
REMARK INTER:                  -8.434
REMARK INTRA:                  -1.345
REMARK UNBOUND:                -1.681
REMARK SMILES O=C([O-])CCCCCCCCCCCCCCC(=O)[O-]
REMARK SMILES IDX 10 1 9 2 8 3 7 4 6 5 5 6 4 7 2 8 1 9 3 10 11 11 12 12 13 13
REMARK SMILES IDX 14 14 15 15 16 16 17 17 18 18 19 19 20 20
REMARK H PARENT
REMARK Flexibility Score: inf
ROOT
ATOM      1  C   UNL     1      70.270 -37.256   8.233  1.00  0.00     0.000 C 
ENDROOT
BRANCH   1   2
ATOM      2  C   UNL     1      70.201 -37.202   6.696  1.00  0.00     0.000 C 
BRANCH   2   3
ATOM      3  C   UNL     1      69.648 -35.887   6.114  1.00  0.00     0.000 C 
BRANCH   3   4
ATOM      4  C   UNL     1      69.019 -34.980   7.182  1.00  0.00     0.000 C 
BRANCH   4   5
ATOM      5  C   UNL     1      69.549 -33.546   7.064  1.00  0.00     0.000 C 
BRANCH   5   6
ATOM      6  C   UNL     1      70.455 -33.391   5.834  1.00  0.00     0.006 C 
BRANCH   6   7
ATOM      7  C   UNL     1      71.877 -32.959   6.211  1.00  0.00     0.053 C 
BRANCH   7   8
ATOM      8  C   UNL     1      72.790 -34.135   6.378  1.00  0.00     0.041 C 
ATOM      9  O   UNL     1      72.773 -34.805   7.444  1.00  0.00    -0.550 OA
ATOM     10  O   UNL     1      73.682 -34.471   5.369  1.00  0.00    -0.550 OA
ENDBRANCH   7   8
ENDBRANCH   6   7
ENDBRANCH   5   6
ENDBRANCH   4   5
ENDBRANCH   3   4
ENDBRANCH   2   3
ENDBRANCH   1   2
BRANCH   1  11
ATOM     11  C   UNL     1      69.138 -38.054   8.908  1.00  0.00     0.000 C 
BRANCH  11  12
ATOM     12  C   UNL     1      69.446 -39.557   9.071  1.00  0.00     0.000 C 
BRANCH  12  13
ATOM     13  C   UNL     1      69.569 -39.976  10.544  1.00  0.00     0.000 C 
BRANCH  13  14
ATOM     14  C   UNL     1      70.975 -39.689  11.083  1.00  0.00     0.000 C 
BRANCH  14  15
ATOM     15  C   UNL     1      71.042 -38.297  11.729  1.00  0.00     0.000 C 
BRANCH  15  16
ATOM     16  C   UNL     1      72.485 -37.826  11.986  1.00  0.00     0.006 C 
BRANCH  16  17
ATOM     17  C   UNL     1      73.250 -37.410  10.720  1.00  0.00     0.053 C 
BRANCH  17  18
ATOM     18  C   UNL     1      74.733 -37.454  10.918  1.00  0.00     0.041 C 
ATOM     19  O   UNL     1      75.497 -36.861  10.113  1.00  0.00    -0.550 OA
ATOM     20  O   UNL     1      75.269 -38.120  12.013  1.00  0.00    -0.550 OA
ENDBRANCH  17  18
ENDBRANCH  16  17
ENDBRANCH  15  16
ENDBRANCH  14  15
ENDBRANCH  13  14
ENDBRANCH  12  13
ENDBRANCH  11  12
ENDBRANCH   1  11
TORSDOF 15
ENDMDL
MODEL 3
REMARK VINA RESULT:    -4.291      2.075      4.477
REMARK INTER + INTRA:          -9.734
REMARK INTER:                  -7.909
REMARK INTRA:                  -1.825
REMARK UNBOUND:                -1.681
REMARK SMILES O=C([O-])CCCCCCCCCCCCCCC(=O)[O-]
REMARK SMILES IDX 10 1 9 2 8 3 7 4 6 5 5 6 4 7 2 8 1 9 3 10 11 11 12 12 13 13
REMARK SMILES IDX 14 14 15 15 16 16 17 17 18 18 19 19 20 20
REMARK H PARENT
REMARK Flexibility Score: inf
ROOT
ATOM      1  C   UNL     1      70.289 -33.532   6.174  1.00  0.00     0.000 C 
ENDROOT
BRANCH   1   2
ATOM      2  C   UNL     1      69.863 -34.762   6.997  1.00  0.00     0.000 C 
BRANCH   2   3
ATOM      3  C   UNL     1      69.755 -36.075   6.197  1.00  0.00     0.000 C 
BRANCH   3   4
ATOM      4  C   UNL     1      69.782 -37.324   7.090  1.00  0.00     0.000 C 
BRANCH   4   5
ATOM      5  C   UNL     1      69.171 -37.028   8.465  1.00  0.00     0.000 C 
BRANCH   5   6
ATOM      6  C   UNL     1      70.098 -37.500   9.594  1.00  0.00     0.006 C 
BRANCH   6   7
ATOM      7  C   UNL     1      69.545 -38.730  10.324  1.00  0.00     0.053 C 
BRANCH   7   8
ATOM      8  C   UNL     1      70.631 -39.506  11.006  1.00  0.00     0.041 C 
ATOM      9  O   UNL     1      70.527 -40.753  11.146  1.00  0.00    -0.550 OA
ATOM     10  O   UNL     1      71.740 -38.846  11.517  1.00  0.00    -0.550 OA
ENDBRANCH   7   8
ENDBRANCH   6   7
ENDBRANCH   5   6
ENDBRANCH   4   5
ENDBRANCH   3   4
ENDBRANCH   2   3
ENDBRANCH   1   2
BRANCH   1  11
ATOM     11  C   UNL     1      71.610 -33.692   5.399  1.00  0.00     0.000 C 
BRANCH  11  12
ATOM     12  C   UNL     1      72.816 -34.055   6.292  1.00  0.00     0.000 C 
BRANCH  12  13
ATOM     13  C   UNL     1      73.649 -35.209   5.714  1.00  0.00     0.000 C 
BRANCH  13  14
ATOM     14  C   UNL     1      73.895 -36.293   6.771  1.00  0.00     0.000 C 
BRANCH  14  15
ATOM     15  C   UNL     1      73.105 -35.998   8.054  1.00  0.00     0.000 C 
BRANCH  15  16
ATOM     16  C   UNL     1      73.619 -36.795   9.268  1.00  0.00     0.006 C 
BRANCH  16  17
ATOM     17  C   UNL     1      75.146 -36.775   9.437  1.00  0.00     0.053 C 
BRANCH  17  18
ATOM     18  C   UNL     1      75.562 -37.114  10.835  1.00  0.00     0.041 C 
ATOM     19  O   UNL     1      74.967 -38.023  11.470  1.00  0.00    -0.550 OA
ATOM     20  O   UNL     1      76.632 -36.450  11.423  1.00  0.00    -0.550 OA
ENDBRANCH  17  18
ENDBRANCH  16  17
ENDBRANCH  15  16
ENDBRANCH  14  15
ENDBRANCH  13  14
ENDBRANCH  12  13
ENDBRANCH  11  12
ENDBRANCH   1  11
TORSDOF 15
ENDMDL
MODEL 4
REMARK VINA RESULT:    -4.289      1.240      4.999
REMARK INTER + INTRA:          -9.731
REMARK INTER:                  -7.928
REMARK INTRA:                  -1.803
REMARK UNBOUND:                -1.681
REMARK SMILES O=C([O-])CCCCCCCCCCCCCCC(=O)[O-]
REMARK SMILES IDX 10 1 9 2 8 3 7 4 6 5 5 6 4 7 2 8 1 9 3 10 11 11 12 12 13 13
REMARK SMILES IDX 14 14 15 15 16 16 17 17 18 18 19 19 20 20
REMARK H PARENT
REMARK Flexibility Score: inf
ROOT
ATOM      1  C   UNL     1      68.860 -34.522   7.472  1.00  0.00     0.000 C 
ENDROOT
BRANCH   1   2
ATOM      2  C   UNL     1      69.323 -35.936   7.076  1.00  0.00     0.000 C 
BRANCH   2   3
ATOM      3  C   UNL     1      68.373 -37.074   7.494  1.00  0.00     0.000 C 
BRANCH   3   4
ATOM      4  C   UNL     1      68.523 -37.466   8.971  1.00  0.00     0.000 C 
BRANCH   4   5
ATOM      5  C   UNL     1      69.966 -37.879   9.285  1.00  0.00     0.000 C 
BRANCH   5   6
ATOM      6  C   UNL     1      70.219 -37.896  10.799  1.00  0.00     0.006 C 
BRANCH   6   7
ATOM      7  C   UNL     1      71.450 -38.729  11.174  1.00  0.00     0.053 C 
BRANCH   7   8
ATOM      8  C   UNL     1      72.615 -37.863  11.547  1.00  0.00     0.041 C 
ATOM      9  O   UNL     1      72.528 -36.610  11.459  1.00  0.00    -0.550 OA
ATOM     10  O   UNL     1      73.807 -38.443  11.960  1.00  0.00    -0.550 OA
ENDBRANCH   7   8
ENDBRANCH   6   7
ENDBRANCH   5   6
ENDBRANCH   4   5
ENDBRANCH   3   4
ENDBRANCH   2   3
ENDBRANCH   1   2
BRANCH   1  11
ATOM     11  C   UNL     1      69.780 -33.379   7.003  1.00  0.00     0.000 C 
BRANCH  11  12
ATOM     12  C   UNL     1      70.606 -33.722   5.744  1.00  0.00     0.000 C 
BRANCH  12  13
ATOM     13  C   UNL     1      72.012 -33.104   5.777  1.00  0.00     0.000 C 
BRANCH  13  14
ATOM     14  C   UNL     1      73.093 -34.191   5.736  1.00  0.00     0.000 C 
BRANCH  14  15
ATOM     15  C   UNL     1      72.480 -35.562   5.415  1.00  0.00     0.000 C 
BRANCH  15  16
ATOM     16  C   UNL     1      72.867 -36.644   6.440  1.00  0.00     0.006 C 
BRANCH  16  17
ATOM     17  C   UNL     1      73.408 -36.092   7.768  1.00  0.00     0.053 C 
BRANCH  17  18
ATOM     18  C   UNL     1      74.762 -36.639   8.096  1.00  0.00     0.041 C 
ATOM     19  O   UNL     1      75.057 -36.933   9.284  1.00  0.00    -0.550 OA
ATOM     20  O   UNL     1      75.688 -36.859   7.082  1.00  0.00    -0.550 OA
ENDBRANCH  17  18
ENDBRANCH  16  17
ENDBRANCH  15  16
ENDBRANCH  14  15
ENDBRANCH  13  14
ENDBRANCH  12  13
ENDBRANCH  11  12
ENDBRANCH   1  11
TORSDOF 15
ENDMDL
MODEL 5
REMARK VINA RESULT:    -4.225      2.619      4.411
REMARK INTER + INTRA:          -9.612
REMARK INTER:                  -7.530
REMARK INTRA:                  -2.082
REMARK UNBOUND:                -1.681
REMARK SMILES O=C([O-])CCCCCCCCCCCCCCC(=O)[O-]
REMARK SMILES IDX 10 1 9 2 8 3 7 4 6 5 5 6 4 7 2 8 1 9 3 10 11 11 12 12 13 13
REMARK SMILES IDX 14 14 15 15 16 16 17 17 18 18 19 19 20 20
REMARK H PARENT
REMARK Flexibility Score: inf
ROOT
ATOM      1  C   UNL     1      72.200 -32.995   5.747  1.00  0.00     0.000 C 
ENDROOT
BRANCH   1   2
ATOM      2  C   UNL     1      71.262 -33.026   6.968  1.00  0.00     0.000 C 
BRANCH   2   3
ATOM      3  C   UNL     1      69.836 -33.532   6.680  1.00  0.00     0.000 C 
BRANCH   3   4
ATOM      4  C   UNL     1      69.462 -34.770   7.508  1.00  0.00     0.000 C 
BRANCH   4   5
ATOM      5  C   UNL     1      69.183 -35.974   6.599  1.00  0.00     0.000 C 
BRANCH   5   6
ATOM      6  C   UNL     1      69.377 -37.295   7.358  1.00  0.00     0.006 C 
BRANCH   6   7
ATOM      7  C   UNL     1      69.210 -37.125   8.872  1.00  0.00     0.053 C 
BRANCH   7   8
ATOM      8  C   UNL     1      67.852 -37.562   9.334  1.00  0.00     0.041 C 
ATOM      9  O   UNL     1      66.879 -36.765   9.284  1.00  0.00    -0.550 OA
ATOM     10  O   UNL     1      67.672 -38.838   9.850  1.00  0.00    -0.550 OA
ENDBRANCH   7   8
ENDBRANCH   6   7
ENDBRANCH   5   6
ENDBRANCH   4   5
ENDBRANCH   3   4
ENDBRANCH   2   3
ENDBRANCH   1   2
BRANCH   1  11
ATOM     11  C   UNL     1      72.178 -34.264   4.875  1.00  0.00     0.000 C 
BRANCH  11  12
ATOM     12  C   UNL     1      73.327 -35.249   5.179  1.00  0.00     0.000 C 
BRANCH  12  13
ATOM     13  C   UNL     1      72.891 -36.393   6.108  1.00  0.00     0.000 C 
BRANCH  13  14
ATOM     14  C   UNL     1      73.688 -36.373   7.417  1.00  0.00     0.000 C 
BRANCH  14  15
ATOM     15  C   UNL     1      72.751 -36.251   8.628  1.00  0.00     0.000 C 
BRANCH  15  16
ATOM     16  C   UNL     1      73.307 -36.944   9.886  1.00  0.00     0.006 C 
BRANCH  16  17
ATOM     17  C   UNL     1      74.815 -37.233   9.834  1.00  0.00     0.053 C 
BRANCH  17  18
ATOM     18  C   UNL     1      75.398 -37.425  11.200  1.00  0.00     0.041 C 
ATOM     19  O   UNL     1      74.871 -38.237  12.005  1.00  0.00    -0.550 OA
ATOM     20  O   UNL     1      76.546 -36.734  11.571  1.00  0.00    -0.550 OA
ENDBRANCH  17  18
ENDBRANCH  16  17
ENDBRANCH  15  16
ENDBRANCH  14  15
ENDBRANCH  13  14
ENDBRANCH  12  13
ENDBRANCH  11  12
ENDBRANCH   1  11
TORSDOF 15
ENDMDL
MODEL 6
REMARK VINA RESULT:    -4.218      0.954      5.289
REMARK INTER + INTRA:          -9.597
REMARK INTER:                  -8.053
REMARK INTRA:                  -1.544
REMARK UNBOUND:                -1.681
REMARK SMILES O=C([O-])CCCCCCCCCCCCCCC(=O)[O-]
REMARK SMILES IDX 10 1 9 2 8 3 7 4 6 5 5 6 4 7 2 8 1 9 3 10 11 11 12 12 13 13
REMARK SMILES IDX 14 14 15 15 16 16 17 17 18 18 19 19 20 20
REMARK H PARENT
REMARK Flexibility Score: inf
ROOT
ATOM      1  C   UNL     1      69.226 -35.781   6.939  1.00  0.00     0.000 C 
ENDROOT
BRANCH   1   2
ATOM      2  C   UNL     1      68.870 -36.931   7.900  1.00  0.00     0.000 C 
BRANCH   2   3
ATOM      3  C   UNL     1      69.974 -37.990   8.085  1.00  0.00     0.000 C 
BRANCH   3   4
ATOM      4  C   UNL     1      69.888 -38.714   9.437  1.00  0.00     0.000 C 
BRANCH   4   5
ATOM      5  C   UNL     1      70.367 -37.806  10.576  1.00  0.00     0.000 C 
BRANCH   5   6
ATOM      6  C   UNL     1      71.839 -37.413  10.387  1.00  0.00     0.006 C 
BRANCH   6   7
ATOM      7  C   UNL     1      72.732 -37.943  11.515  1.00  0.00     0.053 C 
BRANCH   7   8
ATOM      8  C   UNL     1      74.186 -37.751  11.210  1.00  0.00     0.041 C 
ATOM      9  O   UNL     1      74.542 -37.209  10.131  1.00  0.00    -0.550 OA
ATOM     10  O   UNL     1      75.149 -38.201  12.104  1.00  0.00    -0.550 OA
ENDBRANCH   7   8
ENDBRANCH   6   7
ENDBRANCH   5   6
ENDBRANCH   4   5
ENDBRANCH   3   4
ENDBRANCH   2   3
ENDBRANCH   1   2
BRANCH   1  11
ATOM     11  C   UNL     1      68.895 -34.370   7.461  1.00  0.00     0.000 C 
BRANCH  11  12
ATOM     12  C   UNL     1      69.780 -33.260   6.856  1.00  0.00     0.000 C 
BRANCH  12  13
ATOM     13  C   UNL     1      70.625 -33.759   5.674  1.00  0.00     0.000 C 
BRANCH  13  14
ATOM     14  C   UNL     1      72.034 -33.155   5.709  1.00  0.00     0.000 C 
BRANCH  14  15
ATOM     15  C   UNL     1      73.103 -34.257   5.745  1.00  0.00     0.000 C 
BRANCH  15  16
ATOM     16  C   UNL     1      72.913 -35.235   6.920  1.00  0.00     0.006 C 
BRANCH  16  17
ATOM     17  C   UNL     1      73.831 -36.467   6.872  1.00  0.00     0.053 C 
BRANCH  17  18
ATOM     18  C   UNL     1      73.474 -37.392   5.750  1.00  0.00     0.041 C 
ATOM     19  O   UNL     1      74.372 -38.047   5.160  1.00  0.00    -0.550 OA
ATOM     20  O   UNL     1      72.145 -37.556   5.380  1.00  0.00    -0.550 OA
ENDBRANCH  17  18
ENDBRANCH  16  17
ENDBRANCH  15  16
ENDBRANCH  14  15
ENDBRANCH  13  14
ENDBRANCH  12  13
ENDBRANCH  11  12
ENDBRANCH   1  11
TORSDOF 15
ENDMDL
MODEL 7
REMARK VINA RESULT:    -4.099      3.570      5.556
REMARK INTER + INTRA:          -9.375
REMARK INTER:                  -7.904
REMARK INTRA:                  -1.471
REMARK UNBOUND:                -1.681
REMARK SMILES O=C([O-])CCCCCCCCCCCCCCC(=O)[O-]
REMARK SMILES IDX 10 1 9 2 8 3 7 4 6 5 5 6 4 7 2 8 1 9 3 10 11 11 12 12 13 13
REMARK SMILES IDX 14 14 15 15 16 16 17 17 18 18 19 19 20 20
REMARK H PARENT
REMARK Flexibility Score: inf
ROOT
ATOM      1  C   UNL     1      74.939 -37.544  10.414  1.00  0.00     0.000 C 
ENDROOT
BRANCH   1   2
ATOM      2  C   UNL     1      74.334 -36.694   9.281  1.00  0.00     0.000 C 
BRANCH   2   3
ATOM      3  C   UNL     1      74.985 -36.893   7.899  1.00  0.00     0.000 C 
BRANCH   3   4
ATOM      4  C   UNL     1      74.013 -36.637   6.738  1.00  0.00     0.000 C 
BRANCH   4   5
ATOM      5  C   UNL     1      72.694 -36.042   7.247  1.00  0.00     0.000 C 
BRANCH   5   6
ATOM      6  C   UNL     1      72.282 -34.820   6.413  1.00  0.00     0.006 C 
BRANCH   6   7
ATOM      7  C   UNL     1      70.779 -34.805   6.108  1.00  0.00     0.053 C 
BRANCH   7   8
ATOM      8  C   UNL     1      70.043 -33.841   6.989  1.00  0.00     0.041 C 
ATOM      9  O   UNL     1      68.911 -34.140   7.449  1.00  0.00    -0.550 OA
ATOM     10  O   UNL     1      70.595 -32.599   7.271  1.00  0.00    -0.550 OA
ENDBRANCH   7   8
ENDBRANCH   6   7
ENDBRANCH   5   6
ENDBRANCH   4   5
ENDBRANCH   3   4
ENDBRANCH   2   3
ENDBRANCH   1   2
BRANCH   1  11
ATOM     11  C   UNL     1      73.947 -37.962  11.516  1.00  0.00     0.000 C 
BRANCH  11  12
ATOM     12  C   UNL     1      72.531 -37.374  11.334  1.00  0.00     0.000 C 
BRANCH  12  13
ATOM     13  C   UNL     1      71.426 -38.390  11.662  1.00  0.00     0.000 C 
BRANCH  13  14
ATOM     14  C   UNL     1      70.569 -38.689  10.427  1.00  0.00     0.000 C 
BRANCH  14  15
ATOM     15  C   UNL     1      70.299 -37.409   9.622  1.00  0.00     0.000 C 
BRANCH  15  16
ATOM     16  C   UNL     1      68.840 -37.302   9.143  1.00  0.00     0.006 C 
BRANCH  16  17
ATOM     17  C   UNL     1      67.843 -38.142   9.957  1.00  0.00     0.053 C 
BRANCH  17  18
ATOM     18  C   UNL     1      66.629 -37.357  10.345  1.00  0.00     0.041 C 
ATOM     19  O   UNL     1      65.617 -37.344   9.596  1.00  0.00    -0.550 OA
ATOM     20  O   UNL     1      66.602 -36.668  11.551  1.00  0.00    -0.550 OA
ENDBRANCH  17  18
ENDBRANCH  16  17
ENDBRANCH  15  16
ENDBRANCH  14  15
ENDBRANCH  13  14
ENDBRANCH  12  13
ENDBRANCH  11  12
ENDBRANCH   1  11
TORSDOF 15
ENDMDL
MODEL 8
REMARK VINA RESULT:    -4.068      1.710      2.306
REMARK INTER + INTRA:          -9.316
REMARK INTER:                  -7.492
REMARK INTRA:                  -1.825
REMARK UNBOUND:                -1.681
REMARK SMILES O=C([O-])CCCCCCCCCCCCCCC(=O)[O-]
REMARK SMILES IDX 10 1 9 2 8 3 7 4 6 5 5 6 4 7 2 8 1 9 3 10 11 11 12 12 13 13
REMARK SMILES IDX 14 14 15 15 16 16 17 17 18 18 19 19 20 20
REMARK H PARENT
REMARK Flexibility Score: inf
ROOT
ATOM      1  C   UNL     1      69.704 -35.562   7.304  1.00  0.00     0.000 C 
ENDROOT
BRANCH   1   2
ATOM      2  C   UNL     1      69.169 -34.125   7.156  1.00  0.00     0.000 C 
BRANCH   2   3
ATOM      3  C   UNL     1      70.222 -33.077   6.749  1.00  0.00     0.000 C 
BRANCH   3   4
ATOM      4  C   UNL     1      70.976 -33.454   5.466  1.00  0.00     0.000 C 
BRANCH   4   5
ATOM      5  C   UNL     1      72.435 -32.986   5.530  1.00  0.00     0.000 C 
BRANCH   5   6
ATOM      6  C   UNL     1      73.391 -34.094   5.063  1.00  0.00     0.006 C 
BRANCH   6   7
ATOM      7  C   UNL     1      72.862 -35.495   5.393  1.00  0.00     0.053 C 
BRANCH   7   8
ATOM      8  C   UNL     1      73.518 -36.062   6.615  1.00  0.00     0.041 C 
ATOM      9  O   UNL     1      74.358 -36.994   6.509  1.00  0.00    -0.550 OA
ATOM     10  O   UNL     1      73.176 -35.584   7.873  1.00  0.00    -0.550 OA
ENDBRANCH   7   8
ENDBRANCH   6   7
ENDBRANCH   5   6
ENDBRANCH   4   5
ENDBRANCH   3   4
ENDBRANCH   2   3
ENDBRANCH   1   2
BRANCH   1  11
ATOM     11  C   UNL     1      69.123 -36.580   6.304  1.00  0.00     0.000 C 
BRANCH  11  12
ATOM     12  C   UNL     1      67.780 -37.195   6.751  1.00  0.00     0.000 C 
BRANCH  12  13
ATOM     13  C   UNL     1      67.954 -38.241   7.863  1.00  0.00     0.000 C 
BRANCH  13  14
ATOM     14  C   UNL     1      67.391 -37.729   9.194  1.00  0.00     0.000 C 
BRANCH  14  15
ATOM     15  C   UNL     1      68.461 -37.769  10.295  1.00  0.00     0.000 C 
BRANCH  15  16
ATOM     16  C   UNL     1      69.794 -38.368   9.810  1.00  0.00     0.006 C 
BRANCH  16  17
ATOM     17  C   UNL     1      70.998 -37.423   9.945  1.00  0.00     0.053 C 
BRANCH  17  18
ATOM     18  C   UNL     1      71.973 -37.897  10.978  1.00  0.00     0.041 C 
ATOM     19  O   UNL     1      71.741 -38.946  11.633  1.00  0.00    -0.550 OA
ATOM     20  O   UNL     1      73.156 -37.199  11.191  1.00  0.00    -0.550 OA
ENDBRANCH  17  18
ENDBRANCH  16  17
ENDBRANCH  15  16
ENDBRANCH  14  15
ENDBRANCH  13  14
ENDBRANCH  12  13
ENDBRANCH  11  12
ENDBRANCH   1  11
TORSDOF 15
ENDMDL
MODEL 9
REMARK VINA RESULT:    -4.020      3.718      6.352
REMARK INTER + INTRA:          -9.227
REMARK INTER:                  -7.355
REMARK INTRA:                  -1.872
REMARK UNBOUND:                -1.681
REMARK SMILES O=C([O-])CCCCCCCCCCCCCCC(=O)[O-]
REMARK SMILES IDX 10 1 9 2 8 3 7 4 6 5 5 6 4 7 2 8 1 9 3 10 11 11 12 12 13 13
REMARK SMILES IDX 14 14 15 15 16 16 17 17 18 18 19 19 20 20
REMARK H PARENT
REMARK Flexibility Score: inf
ROOT
ATOM      1  C   UNL     1      69.227 -35.975   6.646  1.00  0.00     0.000 C 
ENDROOT
BRANCH   1   2
ATOM      2  C   UNL     1      69.394 -37.298   7.415  1.00  0.00     0.000 C 
BRANCH   2   3
ATOM      3  C   UNL     1      70.109 -37.176   8.774  1.00  0.00     0.000 C 
BRANCH   3   4
ATOM      4  C   UNL     1      69.221 -37.588   9.957  1.00  0.00     0.000 C 
BRANCH   4   5
ATOM      5  C   UNL     1      67.975 -38.339   9.472  1.00  0.00     0.000 C 
BRANCH   5   6
ATOM      6  C   UNL     1      66.708 -37.808  10.159  1.00  0.00     0.006 C 
BRANCH   6   7
ATOM      7  C   UNL     1      66.204 -36.508   9.522  1.00  0.00     0.053 C 
BRANCH   7   8
ATOM      8  C   UNL     1      65.298 -35.751  10.445  1.00  0.00     0.041 C 
ATOM      9  O   UNL     1      65.357 -34.495  10.504  1.00  0.00    -0.550 OA
ATOM     10  O   UNL     1      64.413 -36.438  11.266  1.00  0.00    -0.550 OA
ENDBRANCH   7   8
ENDBRANCH   6   7
ENDBRANCH   5   6
ENDBRANCH   4   5
ENDBRANCH   3   4
ENDBRANCH   2   3
ENDBRANCH   1   2
BRANCH   1  11
ATOM     11  C   UNL     1      69.046 -34.726   7.529  1.00  0.00     0.000 C 
BRANCH  11  12
ATOM     12  C   UNL     1      69.693 -33.451   6.945  1.00  0.00     0.000 C 
BRANCH  12  13
ATOM     13  C   UNL     1      70.691 -33.762   5.819  1.00  0.00     0.000 C 
BRANCH  13  14
ATOM     14  C   UNL     1      72.112 -33.337   6.210  1.00  0.00     0.000 C 
BRANCH  14  15
ATOM     15  C   UNL     1      73.146 -34.357   5.712  1.00  0.00     0.000 C 
BRANCH  15  16
ATOM     16  C   UNL     1      72.953 -35.754   6.331  1.00  0.00     0.006 C 
BRANCH  16  17
ATOM     17  C   UNL     1      73.223 -35.820   7.842  1.00  0.00     0.053 C 
BRANCH  17  18
ATOM     18  C   UNL     1      74.422 -36.657   8.164  1.00  0.00     0.041 C 
ATOM     19  O   UNL     1      75.265 -36.926   7.269  1.00  0.00    -0.550 OA
ATOM     20  O   UNL     1      74.626 -37.111   9.461  1.00  0.00    -0.550 OA
ENDBRANCH  17  18
ENDBRANCH  16  17
ENDBRANCH  15  16
ENDBRANCH  14  15
ENDBRANCH  13  14
ENDBRANCH  12  13
ENDBRANCH  11  12
ENDBRANCH   1  11
TORSDOF 15
ENDMDL
