MODEL 1
REMARK VINA RESULT:    -4.114      0.000      0.000
REMARK INTER + INTRA:          -4.114
REMARK INTER:                  -4.114
REMARK INTRA:                   0.000
REMARK UNBOUND:                 0.000
REMARK SMILES CC1=CC[C@H]2C[C@@H]1C2(C)C
REMARK SMILES IDX 1 1 2 2 3 3 4 4 5 5 6 6 7 7 8 8 9 9 10 10
REMARK H PARENT
REMARK Flexibility Score: inf
ROOT
ATOM      1  C   UNL     1      31.744  29.666   9.444  1.00  0.00     0.039 C 
ATOM      2  C   UNL     1      30.881  29.015  10.482  1.00  0.00    -0.074 C 
ATOM      3  C   UNL     1      30.278  29.744  11.466  1.00  0.00    -0.027 C 
ATOM      4  C   UNL     1      29.427  29.007  12.519  1.00  0.00     0.031 C 
ATOM      5  C   UNL     1      29.389  27.472  12.202  1.00  0.00    -0.000 C 
ATOM      6  C   UNL     1      29.095  27.364  10.692  1.00  0.00     0.013 C 
ATOM      7  C   UNL     1      30.616  27.502  10.481  1.00  0.00     0.021 C 
ATOM      8  C   UNL     1      30.823  26.944  11.915  1.00  0.00    -0.026 C 
ATOM      9  C   UNL     1      30.892  25.396  11.938  1.00  0.00     0.012 C 
ATOM     10  C   UNL     1      32.003  27.498  12.759  1.00  0.00     0.012 C 
ENDROOT
TORSDOF 0
ENDMDL
MODEL 2
REMARK VINA RESULT:    -3.984      1.947      3.985
REMARK INTER + INTRA:          -3.984
REMARK INTER:                  -3.984
REMARK INTRA:                   0.000
REMARK UNBOUND:                 0.000
REMARK SMILES CC1=CC[C@H]2C[C@@H]1C2(C)C
REMARK SMILES IDX 1 1 2 2 3 3 4 4 5 5 6 6 7 7 8 8 9 9 10 10
REMARK H PARENT
REMARK Flexibility Score: inf
ROOT
ATOM      1  C   UNL     1      27.887  24.467  12.624  1.00  0.00     0.039 C 
ATOM      2  C   UNL     1      29.093  24.920  11.857  1.00  0.00    -0.074 C 
ATOM      3  C   UNL     1      29.785  24.065  11.048  1.00  0.00    -0.027 C 
ATOM      4  C   UNL     1      31.033  24.589  10.312  1.00  0.00     0.031 C 
ATOM      5  C   UNL     1      31.247  26.109  10.628  1.00  0.00    -0.000 C 
ATOM      6  C   UNL     1      29.862  26.770  10.463  1.00  0.00     0.013 C 
ATOM      7  C   UNL     1      29.601  26.368  11.928  1.00  0.00     0.021 C 
ATOM      8  C   UNL     1      31.135  26.363  12.158  1.00  0.00    -0.026 C 
ATOM      9  C   UNL     1      31.673  27.760  12.560  1.00  0.00     0.012 C 
ATOM     10  C   UNL     1      31.733  25.311  13.133  1.00  0.00     0.012 C 
ENDROOT
TORSDOF 0
ENDMDL
MODEL 3
REMARK VINA RESULT:    -3.968      3.407      5.151
REMARK INTER + INTRA:          -3.968
REMARK INTER:                  -3.968
REMARK INTRA:                   0.000
REMARK UNBOUND:                 0.000
REMARK SMILES CC1=CC[C@H]2C[C@@H]1C2(C)C
REMARK SMILES IDX 1 1 2 2 3 3 4 4 5 5 6 6 7 7 8 8 9 9 10 10
REMARK H PARENT
REMARK Flexibility Score: inf
ROOT
ATOM      1  C   UNL     1      27.794  24.124  11.921  1.00  0.00     0.039 C 
ATOM      2  C   UNL     1      29.228  24.124  12.356  1.00  0.00    -0.074 C 
ATOM      3  C   UNL     1      30.008  25.240  12.239  1.00  0.00    -0.027 C 
ATOM      4  C   UNL     1      31.483  25.162  12.677  1.00  0.00     0.031 C 
ATOM      5  C   UNL     1      31.802  23.736  13.245  1.00  0.00    -0.000 C 
ATOM      6  C   UNL     1      30.644  23.400  14.207  1.00  0.00     0.013 C 
ATOM      7  C   UNL     1      29.890  22.880  12.968  1.00  0.00     0.021 C 
ATOM      8  C   UNL     1      31.262  22.639  12.285  1.00  0.00    -0.026 C 
ATOM      9  C   UNL     1      31.842  21.239  12.609  1.00  0.00     0.012 C 
ATOM     10  C   UNL     1      31.374  22.871  10.752  1.00  0.00     0.012 C 
ENDROOT
TORSDOF 0
ENDMDL
MODEL 4
REMARK VINA RESULT:    -3.965      3.118      4.763
REMARK INTER + INTRA:          -3.965
REMARK INTER:                  -3.965
REMARK INTRA:                   0.000
REMARK UNBOUND:                 0.000
REMARK SMILES CC1=CC[C@H]2C[C@@H]1C2(C)C
REMARK SMILES IDX 1 1 2 2 3 3 4 4 5 5 6 6 7 7 8 8 9 9 10 10
REMARK H PARENT
REMARK Flexibility Score: inf
ROOT
ATOM      1  C   UNL     1      32.035  21.994  10.656  1.00  0.00     0.039 C 
ATOM      2  C   UNL     1      31.443  23.212  11.298  1.00  0.00    -0.074 C 
ATOM      3  C   UNL     1      32.125  23.921  12.246  1.00  0.00    -0.027 C 
ATOM      4  C   UNL     1      31.445  25.146  12.887  1.00  0.00     0.031 C 
ATOM      5  C   UNL     1      30.030  25.371  12.251  1.00  0.00    -0.000 C 
ATOM      6  C   UNL     1      30.233  25.253  10.726  1.00  0.00     0.013 C 
ATOM      7  C   UNL     1      30.051  23.735  10.914  1.00  0.00     0.021 C 
ATOM      8  C   UNL     1      29.240  24.033  12.203  1.00  0.00    -0.026 C 
ATOM      9  C   UNL     1      27.734  24.252  11.912  1.00  0.00     0.012 C 
ATOM     10  C   UNL     1      29.368  23.050  13.399  1.00  0.00     0.012 C 
ENDROOT
TORSDOF 0
ENDMDL
MODEL 5
REMARK VINA RESULT:    -3.921      2.349      4.600
REMARK INTER + INTRA:          -3.921
REMARK INTER:                  -3.921
REMARK INTRA:                   0.000
REMARK UNBOUND:                 0.000
REMARK SMILES CC1=CC[C@H]2C[C@@H]1C2(C)C
REMARK SMILES IDX 1 1 2 2 3 3 4 4 5 5 6 6 7 7 8 8 9 9 10 10
REMARK H PARENT
REMARK Flexibility Score: inf
ROOT
ATOM      1  C   UNL     1      27.466  24.109  11.948  1.00  0.00     0.039 C 
ATOM      2  C   UNL     1      28.961  24.100  12.052  1.00  0.00    -0.074 C 
ATOM      3  C   UNL     1      29.592  23.774  13.219  1.00  0.00    -0.027 C 
ATOM      4  C   UNL     1      31.132  23.813  13.265  1.00  0.00     0.031 C 
ATOM      5  C   UNL     1      31.702  24.204  11.858  1.00  0.00    -0.000 C 
ATOM      6  C   UNL     1      30.936  23.336  10.839  1.00  0.00     0.013 C 
ATOM      7  C   UNL     1      29.858  24.437  10.852  1.00  0.00     0.021 C 
ATOM      8  C   UNL     1      30.952  25.444  11.297  1.00  0.00    -0.026 C 
ATOM      9  C   UNL     1      31.691  26.079  10.091  1.00  0.00     0.012 C 
ATOM     10  C   UNL     1      30.554  26.581  12.278  1.00  0.00     0.012 C 
ENDROOT
TORSDOF 0
ENDMDL
MODEL 6
REMARK VINA RESULT:    -3.903      2.355      4.316
REMARK INTER + INTRA:          -3.903
REMARK INTER:                  -3.903
REMARK INTRA:                   0.000
REMARK UNBOUND:                 0.000
REMARK SMILES CC1=CC[C@H]2C[C@@H]1C2(C)C
REMARK SMILES IDX 1 1 2 2 3 3 4 4 5 5 6 6 7 7 8 8 9 9 10 10
REMARK H PARENT
REMARK Flexibility Score: inf
ROOT
ATOM      1  C   UNL     1      31.247  27.235  12.601  1.00  0.00     0.039 C 
ATOM      2  C   UNL     1      31.143  25.845  12.050  1.00  0.00    -0.074 C 
ATOM      3  C   UNL     1      31.151  25.610  10.705  1.00  0.00    -0.027 C 
ATOM      4  C   UNL     1      31.011  24.158  10.206  1.00  0.00     0.031 C 
ATOM      5  C   UNL     1      30.924  23.176  11.425  1.00  0.00    -0.000 C 
ATOM      6  C   UNL     1      32.050  23.605  12.389  1.00  0.00     0.013 C 
ATOM      7  C   UNL     1      31.041  24.617  12.966  1.00  0.00     0.021 C 
ATOM      8  C   UNL     1      29.895  23.697  12.466  1.00  0.00    -0.026 C 
ATOM      9  C   UNL     1      29.515  22.614  13.508  1.00  0.00     0.012 C 
ATOM     10  C   UNL     1      28.587  24.361  11.953  1.00  0.00     0.012 C 
ENDROOT
TORSDOF 0
ENDMDL
MODEL 7
REMARK VINA RESULT:    -3.848      4.013      5.967
REMARK INTER + INTRA:          -3.848
REMARK INTER:                  -3.848
REMARK INTRA:                   0.000
REMARK UNBOUND:                 0.000
REMARK SMILES CC1=CC[C@H]2C[C@@H]1C2(C)C
REMARK SMILES IDX 1 1 2 2 3 3 4 4 5 5 6 6 7 7 8 8 9 9 10 10
REMARK H PARENT
REMARK Flexibility Score: inf
ROOT
ATOM      1  C   UNL     1      31.388  20.313  12.970  1.00  0.00     0.039 C 
ATOM      2  C   UNL     1      31.382  21.810  13.024  1.00  0.00    -0.074 C 
ATOM      3  C   UNL     1      31.790  22.485  14.138  1.00  0.00    -0.027 C 
ATOM      4  C   UNL     1      31.730  24.025  14.137  1.00  0.00     0.031 C 
ATOM      5  C   UNL     1      31.218  24.542  12.748  1.00  0.00    -0.000 C 
ATOM      6  C   UNL     1      32.014  23.753  11.688  1.00  0.00     0.013 C 
ATOM      7  C   UNL     1      30.935  22.662  11.826  1.00  0.00     0.021 C 
ATOM      8  C   UNL     1      29.949  23.757  12.314  1.00  0.00    -0.026 C 
ATOM      9  C   UNL     1      29.207  24.445  11.139  1.00  0.00     0.012 C 
ATOM     10  C   UNL     1      28.901  23.377  13.397  1.00  0.00     0.012 C 
ENDROOT
TORSDOF 0
ENDMDL
MODEL 8
REMARK VINA RESULT:    -3.736      2.082      4.773
REMARK INTER + INTRA:          -3.736
REMARK INTER:                  -3.736
REMARK INTRA:                   0.000
REMARK UNBOUND:                 0.000
REMARK SMILES CC1=CC[C@H]2C[C@@H]1C2(C)C
REMARK SMILES IDX 1 1 2 2 3 3 4 4 5 5 6 6 7 7 8 8 9 9 10 10
REMARK H PARENT
REMARK Flexibility Score: inf
ROOT
ATOM      1  C   UNL     1      29.509  22.607  13.672  1.00  0.00     0.039 C 
ATOM      2  C   UNL     1      30.127  23.427  12.580  1.00  0.00    -0.074 C 
ATOM      3  C   UNL     1      31.108  22.921  11.777  1.00  0.00    -0.027 C 
ATOM      4  C   UNL     1      31.721  23.830  10.693  1.00  0.00     0.031 C 
ATOM      5  C   UNL     1      31.017  25.231  10.704  1.00  0.00    -0.000 C 
ATOM      6  C   UNL     1      29.504  24.938  10.768  1.00  0.00     0.013 C 
ATOM      7  C   UNL     1      29.677  24.868  12.297  1.00  0.00     0.021 C 
ATOM      8  C   UNL     1      30.926  25.778  12.156  1.00  0.00    -0.026 C 
ATOM      9  C   UNL     1      30.564  27.284  12.192  1.00  0.00     0.012 C 
ATOM     10  C   UNL     1      32.124  25.541  13.117  1.00  0.00     0.012 C 
ENDROOT
TORSDOF 0
ENDMDL
MODEL 9
REMARK VINA RESULT:    -3.652      1.596      2.863
REMARK INTER + INTRA:          -3.652
REMARK INTER:                  -3.652
REMARK INTRA:                   0.000
REMARK UNBOUND:                 0.000
REMARK SMILES CC1=CC[C@H]2C[C@@H]1C2(C)C
REMARK SMILES IDX 1 1 2 2 3 3 4 4 5 5 6 6 7 7 8 8 9 9 10 10
REMARK H PARENT
REMARK Flexibility Score: inf
ROOT
ATOM      1  C   UNL     1      28.312  27.843  11.499  1.00  0.00     0.039 C 
ATOM      2  C   UNL     1      29.636  27.218  11.817  1.00  0.00    -0.074 C 
ATOM      3  C   UNL     1      30.571  27.871  12.568  1.00  0.00    -0.027 C 
ATOM      4  C   UNL     1      31.924  27.181  12.832  1.00  0.00     0.031 C 
ATOM      5  C   UNL     1      31.939  25.756  12.178  1.00  0.00    -0.000 C 
ATOM      6  C   UNL     1      30.597  25.103  12.567  1.00  0.00     0.013 C 
ATOM      7  C   UNL     1      30.002  25.807  11.332  1.00  0.00     0.021 C 
ATOM      8  C   UNL     1      31.425  25.830  10.712  1.00  0.00    -0.026 C 
ATOM      9  C   UNL     1      31.740  24.538   9.916  1.00  0.00     0.012 C 
ATOM     10  C   UNL     1      31.831  27.051   9.842  1.00  0.00     0.012 C 
ENDROOT
TORSDOF 0
ENDMDL
