MODEL 1
REMARK VINA RESULT:     2.711      0.000      0.000
REMARK INTER + INTRA:           4.526
REMARK INTER:                   4.138
REMARK INTRA:                   0.388
REMARK UNBOUND:                 0.388
REMARK SMILES CCCCCCCCCCC(=O)[O-]
REMARK SMILES IDX 7 1 8 2 9 3 10 4 11 5 12 6 13 7 6 8 5 9 4 10 3 11 2 12 1 13
REMARK H PARENT
REMARK Flexibility Score: inf
ROOT
ATOM      1  C   UNL     1     -15.203  23.446 -19.768  1.00  0.00     0.000 C 
ENDROOT
BRANCH   1   2
ATOM      2  C   UNL     1     -16.317  23.728 -18.753  1.00  0.00     0.000 C 
BRANCH   2   3
ATOM      3  C   UNL     1     -15.875  24.783 -17.729  1.00  0.00     0.006 C 
BRANCH   3   4
ATOM      4  C   UNL     1     -16.984  25.798 -17.423  1.00  0.00     0.053 C 
BRANCH   4   5
ATOM      5  C   UNL     1     -17.274  26.677 -18.602  1.00  0.00     0.041 C 
ATOM      6  O   UNL     1     -16.520  26.653 -19.611  1.00  0.00    -0.550 OA
ATOM      7  O   UNL     1     -18.395  27.496 -18.599  1.00  0.00    -0.550 OA
ENDBRANCH   4   5
ENDBRANCH   3   4
ENDBRANCH   2   3
ENDBRANCH   1   2
BRANCH   1   8
ATOM      8  C   UNL     1     -15.787  23.132 -21.153  1.00  0.00     0.000 C 
BRANCH   8   9
ATOM      9  C   UNL     1     -14.705  22.890 -22.221  1.00  0.00    -0.000 C 
BRANCH   9  10
ATOM     10  C   UNL     1     -13.260  22.875 -21.691  1.00  0.00    -0.000 C 
BRANCH  10  11
ATOM     11  C   UNL     1     -12.215  23.091 -22.796  1.00  0.00    -0.000 C 
BRANCH  11  12
ATOM     12  C   UNL     1     -12.045  24.584 -23.105  1.00  0.00    -0.003 C 
ATOM     13  C   UNL     1     -13.381  25.318 -23.033  1.00  0.00     0.004 C 
ENDBRANCH  11  12
ENDBRANCH  10  11
ENDBRANCH   9  10
ENDBRANCH   8   9
ENDBRANCH   1   8
TORSDOF 9
ENDMDL
