MODEL 1
REMARK VINA RESULT:    -1.964      0.000      0.000
REMARK INTER + INTRA:          -2.385
REMARK INTER:                  -2.136
REMARK INTRA:                  -0.248
REMARK UNBOUND:                -0.248
REMARK SMILES O=C([O-])c1ccccc1O
REMARK SMILES IDX 4 1 9 2 5 3 8 4 6 5 7 6 2 7 1 8 3 9 10 10
REMARK H PARENT 10 11
REMARK Flexibility Score: inf
ROOT
ATOM      1  C   UNL     1      21.075 -27.224   0.030  1.00  0.00     0.039 A 
ATOM      2  C   UNL     1      20.362 -28.142  -0.777  1.00  0.00     0.124 A 
ATOM      3  C   UNL     1      21.291 -27.538   1.387  1.00  0.00     0.014 A 
ATOM      4  C   UNL     1      19.884 -29.338  -0.220  1.00  0.00     0.047 A 
ATOM      5  C   UNL     1      20.810 -28.733   1.927  1.00  0.00     0.001 A 
ATOM      6  C   UNL     1      20.108 -29.632   1.126  1.00  0.00     0.004 A 
ENDROOT
BRANCH   1   7
ATOM      7  C   UNL     1      21.599 -25.945  -0.518  1.00  0.00     0.075 C 
ATOM      8  O   UNL     1      20.875 -25.229  -1.262  1.00  0.00    -0.545 OA
ATOM      9  O   UNL     1      22.886 -25.512  -0.226  1.00  0.00    -0.545 OA
ENDBRANCH   1   7
BRANCH   2  10
ATOM     10  O   UNL     1      20.124 -27.874  -2.125  1.00  0.00    -0.507 OA
ATOM     11  H   UNL     1      19.793 -26.970  -2.439  1.00  0.00     0.293 HD
ENDBRANCH   2  10
TORSDOF 2
ENDMDL
MODEL 2
REMARK VINA RESULT:    -1.911      9.186      9.689
REMARK INTER + INTRA:          -2.326
REMARK INTER:                  -2.074
REMARK INTRA:                  -0.252
REMARK UNBOUND:                -0.248
REMARK SMILES O=C([O-])c1ccccc1O
REMARK SMILES IDX 4 1 9 2 5 3 8 4 6 5 7 6 2 7 1 8 3 9 10 10
REMARK H PARENT 10 11
REMARK Flexibility Score: inf
ROOT
ATOM      1  C   UNL     1      14.053 -33.818   0.058  1.00  0.00     0.039 A 
ATOM      2  C   UNL     1      13.941 -34.255  -1.283  1.00  0.00     0.124 A 
ATOM      3  C   UNL     1      15.209 -34.161   0.789  1.00  0.00     0.014 A 
ATOM      4  C   UNL     1      14.970 -35.014  -1.860  1.00  0.00     0.047 A 
ATOM      5  C   UNL     1      16.226 -34.917   0.201  1.00  0.00     0.001 A 
ATOM      6  C   UNL     1      16.107 -35.343  -1.121  1.00  0.00     0.004 A 
ENDROOT
BRANCH   1   7
ATOM      7  C   UNL     1      12.988 -33.012   0.709  1.00  0.00     0.075 C 
ATOM      8  O   UNL     1      12.650 -33.250   1.900  1.00  0.00    -0.545 OA
ATOM      9  O   UNL     1      12.344 -31.988   0.027  1.00  0.00    -0.545 OA
ENDBRANCH   1   7
BRANCH   2  10
ATOM     10  O   UNL     1      12.816 -33.941  -2.046  1.00  0.00    -0.507 OA
ATOM     11  H   UNL     1      12.035 -33.426  -1.657  1.00  0.00     0.293 HD
ENDBRANCH   2  10
TORSDOF 2
ENDMDL
MODEL 3
REMARK VINA RESULT:    -1.882      1.518      2.023
REMARK INTER + INTRA:          -2.295
REMARK INTER:                  -2.044
REMARK INTRA:                  -0.251
REMARK UNBOUND:                -0.248
REMARK SMILES O=C([O-])c1ccccc1O
REMARK SMILES IDX 4 1 9 2 5 3 8 4 6 5 7 6 2 7 1 8 3 9 10 10
REMARK H PARENT 10 11
REMARK Flexibility Score: inf
ROOT
ATOM      1  C   UNL     1      20.758 -26.963   0.035  1.00  0.00     0.039 A 
ATOM      2  C   UNL     1      20.870 -26.931  -1.375  1.00  0.00     0.124 A 
ATOM      3  C   UNL     1      20.527 -28.200   0.670  1.00  0.00     0.014 A 
ATOM      4  C   UNL     1      20.751 -28.118  -2.113  1.00  0.00     0.047 A 
ATOM      5  C   UNL     1      20.411 -29.374  -0.078  1.00  0.00     0.001 A 
ATOM      6  C   UNL     1      20.523 -29.334  -1.467  1.00  0.00     0.004 A 
ENDROOT
BRANCH   1   7
ATOM      7  C   UNL     1      20.877 -25.729   0.856  1.00  0.00     0.075 C 
ATOM      8  O   UNL     1      19.985 -25.438   1.698  1.00  0.00    -0.545 OA
ATOM      9  O   UNL     1      21.965 -24.877   0.717  1.00  0.00    -0.545 OA
ENDBRANCH   1   7
BRANCH   2  10
ATOM     10  O   UNL     1      21.098 -25.730  -2.047  1.00  0.00    -0.507 OA
ATOM     11  H   UNL     1      21.744 -25.668  -2.825  1.00  0.00     0.293 HD
ENDBRANCH   2  10
TORSDOF 2
ENDMDL
MODEL 4
REMARK VINA RESULT:    -1.875      8.958      9.862
REMARK INTER + INTRA:          -2.288
REMARK INTER:                  -2.050
REMARK INTRA:                  -0.238
REMARK UNBOUND:                -0.248
REMARK SMILES O=C([O-])c1ccccc1O
REMARK SMILES IDX 4 1 9 2 5 3 8 4 6 5 7 6 2 7 1 8 3 9 10 10
REMARK H PARENT 10 11
REMARK Flexibility Score: inf
ROOT
ATOM      1  C   UNL     1      14.109 -34.173  -0.907  1.00  0.00     0.039 A 
ATOM      2  C   UNL     1      14.535 -33.834   0.399  1.00  0.00     0.124 A 
ATOM      3  C   UNL     1      14.945 -34.980  -1.705  1.00  0.00     0.014 A 
ATOM      4  C   UNL     1      15.770 -34.300   0.875  1.00  0.00     0.047 A 
ATOM      5  C   UNL     1      16.171 -35.438  -1.217  1.00  0.00     0.001 A 
ATOM      6  C   UNL     1      16.583 -35.099   0.070  1.00  0.00     0.004 A 
ENDROOT
BRANCH   1   7
ATOM      7  C   UNL     1      12.810 -33.700  -1.453  1.00  0.00     0.075 C 
ATOM      8  O   UNL     1      11.950 -34.529  -1.856  1.00  0.00    -0.545 OA
ATOM      9  O   UNL     1      12.514 -32.345  -1.531  1.00  0.00    -0.545 OA
ENDBRANCH   1   7
BRANCH   2  10
ATOM     10  O   UNL     1      13.742 -33.037   1.225  1.00  0.00    -0.507 OA
ATOM     11  H   UNL     1      12.990 -32.468   0.855  1.00  0.00     0.293 HD
ENDBRANCH   2  10
TORSDOF 2
ENDMDL
MODEL 5
REMARK VINA RESULT:    -1.836      2.584      4.216
REMARK INTER + INTRA:          -2.245
REMARK INTER:                  -1.996
REMARK INTRA:                  -0.249
REMARK UNBOUND:                -0.248
REMARK SMILES O=C([O-])c1ccccc1O
REMARK SMILES IDX 4 1 9 2 5 3 8 4 6 5 7 6 2 7 1 8 3 9 10 10
REMARK H PARENT 10 11
REMARK Flexibility Score: inf
ROOT
ATOM      1  C   UNL     1      20.403 -29.054   0.067  1.00  0.00     0.039 A 
ATOM      2  C   UNL     1      20.483 -27.732   0.564  1.00  0.00     0.124 A 
ATOM      3  C   UNL     1      20.713 -29.289  -1.288  1.00  0.00     0.014 A 
ATOM      4  C   UNL     1      20.866 -26.685  -0.288  1.00  0.00     0.047 A 
ATOM      5  C   UNL     1      21.093 -28.237  -2.125  1.00  0.00     0.001 A 
ATOM      6  C   UNL     1      21.170 -26.938  -1.627  1.00  0.00     0.004 A 
ENDROOT
BRANCH   1   7
ATOM      7  C   UNL     1      20.001 -30.193   0.934  1.00  0.00     0.075 C 
ATOM      8  O   UNL     1      20.572 -31.310   0.820  1.00  0.00    -0.545 OA
ATOM      9  O   UNL     1      18.996 -30.052   1.883  1.00  0.00    -0.545 OA
ENDBRANCH   1   7
BRANCH   2  10
ATOM     10  O   UNL     1      20.184 -27.451   1.898  1.00  0.00    -0.507 OA
ATOM     11  H   UNL     1      19.741 -28.134   2.500  1.00  0.00     0.293 HD
ENDBRANCH   2  10
TORSDOF 2
ENDMDL
MODEL 6
REMARK VINA RESULT:    -1.788      8.883      9.593
REMARK INTER + INTRA:          -2.193
REMARK INTER:                  -1.945
REMARK INTRA:                  -0.248
REMARK UNBOUND:                -0.248
REMARK SMILES O=C([O-])c1ccccc1O
REMARK SMILES IDX 4 1 9 2 5 3 8 4 6 5 7 6 2 7 1 8 3 9 10 10
REMARK H PARENT 10 11
REMARK Flexibility Score: inf
ROOT
ATOM      1  C   UNL     1      14.414 -34.216  -0.455  1.00  0.00     0.039 A 
ATOM      2  C   UNL     1      15.521 -34.990  -0.877  1.00  0.00     0.124 A 
ATOM      3  C   UNL     1      14.458 -33.605   0.815  1.00  0.00     0.014 A 
ATOM      4  C   UNL     1      16.634 -35.137  -0.035  1.00  0.00     0.047 A 
ATOM      5  C   UNL     1      15.573 -33.761   1.643  1.00  0.00     0.001 A 
ATOM      6  C   UNL     1      16.659 -34.525   1.219  1.00  0.00     0.004 A 
ENDROOT
BRANCH   1   7
ATOM      7  C   UNL     1      13.215 -34.033  -1.314  1.00  0.00     0.075 C 
ATOM      8  O   UNL     1      12.593 -35.036  -1.757  1.00  0.00    -0.545 OA
ATOM      9  O   UNL     1      12.756 -32.765  -1.645  1.00  0.00    -0.545 OA
ENDBRANCH   1   7
BRANCH   2  10
ATOM     10  O   UNL     1      15.523 -35.613  -2.125  1.00  0.00    -0.507 OA
ATOM     11  H   UNL     1      15.879 -36.553  -2.251  1.00  0.00     0.293 HD
ENDBRANCH   2  10
TORSDOF 2
ENDMDL
MODEL 7
REMARK VINA RESULT:    -1.733      6.287      7.355
REMARK INTER + INTRA:          -2.133
REMARK INTER:                  -1.879
REMARK INTRA:                  -0.254
REMARK UNBOUND:                -0.248
REMARK SMILES O=C([O-])c1ccccc1O
REMARK SMILES IDX 4 1 9 2 5 3 8 4 6 5 7 6 2 7 1 8 3 9 10 10
REMARK H PARENT 10 11
REMARK Flexibility Score: inf
ROOT
ATOM      1  C   UNL     1      14.965 -30.261   2.743  1.00  0.00     0.039 A 
ATOM      2  C   UNL     1      16.332 -30.577   2.929  1.00  0.00     0.124 A 
ATOM      3  C   UNL     1      14.068 -31.298   2.412  1.00  0.00     0.014 A 
ATOM      4  C   UNL     1      16.770 -31.902   2.783  1.00  0.00     0.047 A 
ATOM      5  C   UNL     1      14.520 -32.612   2.270  1.00  0.00     0.001 A 
ATOM      6  C   UNL     1      15.868 -32.914   2.456  1.00  0.00     0.004 A 
ENDROOT
BRANCH   1   7
ATOM      7  C   UNL     1      14.456 -28.872   2.887  1.00  0.00     0.075 C 
ATOM      8  O   UNL     1      13.710 -28.374   2.002  1.00  0.00    -0.545 OA
ATOM      9  O   UNL     1      14.789 -28.097   3.990  1.00  0.00    -0.545 OA
ENDBRANCH   1   7
BRANCH   2  10
ATOM     10  O   UNL     1      17.256 -29.584   3.257  1.00  0.00    -0.507 OA
ATOM     11  H   UNL     1      17.806 -29.628   4.106  1.00  0.00     0.293 HD
ENDBRANCH   2  10
TORSDOF 2
ENDMDL
MODEL 8
REMARK VINA RESULT:    -1.600      8.966      9.699
REMARK INTER + INTRA:          -1.989
REMARK INTER:                  -1.735
REMARK INTRA:                  -0.254
REMARK UNBOUND:                -0.248
REMARK SMILES O=C([O-])c1ccccc1O
REMARK SMILES IDX 4 1 9 2 5 3 8 4 6 5 7 6 2 7 1 8 3 9 10 10
REMARK H PARENT 10 11
REMARK Flexibility Score: inf
ROOT
ATOM      1  C   UNL     1      14.337 -33.895   0.213  1.00  0.00     0.039 A 
ATOM      2  C   UNL     1      13.759 -33.859  -1.078  1.00  0.00     0.124 A 
ATOM      3  C   UNL     1      13.753 -33.125   1.240  1.00  0.00     0.014 A 
ATOM      4  C   UNL     1      12.625 -33.066  -1.315  1.00  0.00     0.047 A 
ATOM      5  C   UNL     1      12.625 -32.341   0.988  1.00  0.00     0.001 A 
ATOM      6  C   UNL     1      12.062 -32.311  -0.286  1.00  0.00     0.004 A 
ENDROOT
BRANCH   1   7
ATOM      7  C   UNL     1      15.537 -34.721   0.509  1.00  0.00     0.075 C 
ATOM      8  O   UNL     1      16.522 -34.216   1.112  1.00  0.00    -0.545 OA
ATOM      9  O   UNL     1      15.601 -36.056   0.132  1.00  0.00    -0.545 OA
ENDBRANCH   1   7
BRANCH   2  10
ATOM     10  O   UNL     1      14.301 -34.604  -2.125  1.00  0.00    -0.507 OA
ATOM     11  H   UNL     1      13.954 -34.523  -3.073  1.00  0.00     0.293 HD
ENDBRANCH   2  10
TORSDOF 2
ENDMDL
MODEL 9
REMARK VINA RESULT:    -1.589      2.139      2.805
REMARK INTER + INTRA:          -1.976
REMARK INTER:                  -1.725
REMARK INTRA:                  -0.251
REMARK UNBOUND:                -0.248
REMARK SMILES O=C([O-])c1ccccc1O
REMARK SMILES IDX 4 1 9 2 5 3 8 4 6 5 7 6 2 7 1 8 3 9 10 10
REMARK H PARENT 10 11
REMARK Flexibility Score: inf
ROOT
ATOM      1  C   UNL     1      20.618 -27.199   0.182  1.00  0.00     0.039 A 
ATOM      2  C   UNL     1      20.137 -28.530   0.175  1.00  0.00     0.124 A 
ATOM      3  C   UNL     1      21.228 -26.692  -0.984  1.00  0.00     0.014 A 
ATOM      4  C   UNL     1      20.272 -29.316  -0.979  1.00  0.00     0.047 A 
ATOM      5  C   UNL     1      21.355 -27.487  -2.125  1.00  0.00     0.001 A 
ATOM      6  C   UNL     1      20.878 -28.796  -2.124  1.00  0.00     0.004 A 
ENDROOT
BRANCH   1   7
ATOM      7  C   UNL     1      20.496 -26.330   1.382  1.00  0.00     0.075 C 
ATOM      8  O   UNL     1      20.196 -25.112   1.257  1.00  0.00    -0.545 OA
ATOM      9  O   UNL     1      20.709 -26.835   2.658  1.00  0.00    -0.545 OA
ENDBRANCH   1   7
BRANCH   2  10
ATOM     10  O   UNL     1      19.527 -29.075   1.305  1.00  0.00    -0.507 OA
ATOM     11  H   UNL     1      18.525 -29.028   1.445  1.00  0.00     0.293 HD
ENDBRANCH   2  10
TORSDOF 2
ENDMDL
