MODEL 1
REMARK VINA RESULT:    -2.547      0.000      0.000
REMARK INTER + INTRA:          -5.452
REMARK INTER:                  -4.483
REMARK INTRA:                  -0.968
REMARK UNBOUND:                -0.968
REMARK SMILES CCCCCCCCCCCCCCC(=O)[O-]
REMARK SMILES IDX 9 1 10 2 11 3 12 4 13 5 14 6 15 7 16 8 17 9 8 10 7 11 6 12
REMARK SMILES IDX 5 13 4 14 3 15 2 16 1 17
REMARK H PARENT
REMARK Flexibility Score: inf
ROOT
ATOM      1  C   UNL     1     -10.589 -20.548  16.973  1.00  0.00     0.000 C 
ENDROOT
BRANCH   1   2
ATOM      2  C   UNL     1     -11.125 -20.510  15.533  1.00  0.00     0.000 C 
BRANCH   2   3
ATOM      3  C   UNL     1     -10.005 -20.155  14.543  1.00  0.00     0.000 C 
BRANCH   3   4
ATOM      4  C   UNL     1      -8.921 -21.242  14.460  1.00  0.00     0.000 C 
BRANCH   4   5
ATOM      5  C   UNL     1      -7.654 -20.875  15.246  1.00  0.00     0.006 C 
BRANCH   5   6
ATOM      6  C   UNL     1      -7.060 -22.108  15.934  1.00  0.00     0.053 C 
BRANCH   6   7
ATOM      7  C   UNL     1      -5.578 -21.968  16.075  1.00  0.00     0.041 C 
ATOM      8  O   UNL     1      -4.939 -22.736  16.842  1.00  0.00    -0.550 OA
ATOM      9  O   UNL     1      -4.908 -20.958  15.399  1.00  0.00    -0.550 OA
ENDBRANCH   6   7
ENDBRANCH   5   6
ENDBRANCH   4   5
ENDBRANCH   3   4
ENDBRANCH   2   3
ENDBRANCH   1   2
BRANCH   1  10
ATOM     10  C   UNL     1     -11.096 -21.766  17.763  1.00  0.00     0.000 C 
BRANCH  10  11
ATOM     11  C   UNL     1      -9.973 -22.765  18.095  1.00  0.00    -0.000 C 
BRANCH  11  12
ATOM     12  C   UNL     1      -8.955 -22.208  19.107  1.00  0.00    -0.000 C 
BRANCH  12  13
ATOM     13  C   UNL     1      -9.231 -22.546  20.588  1.00  0.00    -0.000 C 
BRANCH  13  14
ATOM     14  C   UNL     1     -10.407 -21.783  21.229  1.00  0.00    -0.000 C 
BRANCH  14  15
ATOM     15  C   UNL     1     -10.170 -21.398  22.707  1.00  0.00    -0.000 C 
BRANCH  15  16
ATOM     16  C   UNL     1      -8.739 -21.682  23.193  1.00  0.00    -0.003 C 
ATOM     17  C   UNL     1      -8.628 -22.988  23.977  1.00  0.00     0.004 C 
ENDBRANCH  15  16
ENDBRANCH  14  15
ENDBRANCH  13  14
ENDBRANCH  12  13
ENDBRANCH  11  12
ENDBRANCH  10  11
ENDBRANCH   1  10
TORSDOF 13
ENDMDL
MODEL 2
REMARK VINA RESULT:    -2.279      3.014      6.301
REMARK INTER + INTRA:          -4.979
REMARK INTER:                  -3.833
REMARK INTRA:                  -1.147
REMARK UNBOUND:                -0.968
REMARK SMILES CCCCCCCCCCCCCCC(=O)[O-]
REMARK SMILES IDX 9 1 10 2 11 3 12 4 13 5 14 6 15 7 16 8 17 9 8 10 7 11 6 12
REMARK SMILES IDX 5 13 4 14 3 15 2 16 1 17
REMARK H PARENT
REMARK Flexibility Score: inf
ROOT
ATOM      1  C   UNL     1      -6.598 -22.758  16.875  1.00  0.00     0.000 C 
ENDROOT
BRANCH   1   2
ATOM      2  C   UNL     1      -6.268 -22.643  18.372  1.00  0.00     0.000 C 
BRANCH   2   3
ATOM      3  C   UNL     1      -7.448 -23.125  19.230  1.00  0.00     0.000 C 
BRANCH   3   4
ATOM      4  C   UNL     1      -7.130 -23.114  20.734  1.00  0.00     0.000 C 
BRANCH   4   5
ATOM      5  C   UNL     1      -8.395 -23.114  21.605  1.00  0.00     0.006 C 
BRANCH   5   6
ATOM      6  C   UNL     1      -9.415 -22.095  21.089  1.00  0.00     0.053 C 
BRANCH   6   7
ATOM      7  C   UNL     1      -9.864 -21.194  22.195  1.00  0.00     0.041 C 
ATOM      8  O   UNL     1      -9.202 -20.162  22.481  1.00  0.00    -0.550 OA
ATOM      9  O   UNL     1     -10.987 -21.521  22.945  1.00  0.00    -0.550 OA
ENDBRANCH   6   7
ENDBRANCH   5   6
ENDBRANCH   4   5
ENDBRANCH   3   4
ENDBRANCH   2   3
ENDBRANCH   1   2
BRANCH   1  10
ATOM     10  C   UNL     1      -5.969 -21.631  16.040  1.00  0.00     0.000 C 
BRANCH  10  11
ATOM     11  C   UNL     1      -6.949 -21.041  15.010  1.00  0.00    -0.000 C 
BRANCH  11  12
ATOM     12  C   UNL     1      -8.402 -21.496  15.237  1.00  0.00    -0.000 C 
BRANCH  12  13
ATOM     13  C   UNL     1      -9.491 -20.472  14.848  1.00  0.00    -0.000 C 
BRANCH  13  14
ATOM     14  C   UNL     1     -10.849 -20.656  15.552  1.00  0.00    -0.000 C 
BRANCH  14  15
ATOM     15  C   UNL     1     -10.863 -20.174  17.020  1.00  0.00    -0.000 C 
BRANCH  15  16
ATOM     16  C   UNL     1     -10.559 -21.289  18.035  1.00  0.00    -0.003 C 
ATOM     17  C   UNL     1     -11.030 -22.663  17.564  1.00  0.00     0.004 C 
ENDBRANCH  15  16
ENDBRANCH  14  15
ENDBRANCH  13  14
ENDBRANCH  12  13
ENDBRANCH  11  12
ENDBRANCH  10  11
ENDBRANCH   1  10
TORSDOF 13
ENDMDL
MODEL 3
REMARK VINA RESULT:    -2.104      3.235      6.761
REMARK INTER + INTRA:          -4.672
REMARK INTER:                  -3.958
REMARK INTRA:                  -0.714
REMARK UNBOUND:                -0.968
REMARK SMILES CCCCCCCCCCCCCCC(=O)[O-]
REMARK SMILES IDX 9 1 10 2 11 3 12 4 13 5 14 6 15 7 16 8 17 9 8 10 7 11 6 12
REMARK SMILES IDX 5 13 4 14 3 15 2 16 1 17
REMARK H PARENT
REMARK Flexibility Score: inf
ROOT
ATOM      1  C   UNL     1      -7.048 -22.314  18.566  1.00  0.00     0.000 C 
ENDROOT
BRANCH   1   2
ATOM      2  C   UNL     1      -8.343 -23.057  18.929  1.00  0.00     0.000 C 
BRANCH   2   3
ATOM      3  C   UNL     1      -8.825 -22.660  20.333  1.00  0.00     0.000 C 
BRANCH   3   4
ATOM      4  C   UNL     1      -9.398 -21.234  20.383  1.00  0.00     0.000 C 
BRANCH   4   5
ATOM      5  C   UNL     1      -9.932 -20.860  21.773  1.00  0.00     0.006 C 
BRANCH   5   6
ATOM      6  C   UNL     1      -8.905 -21.190  22.861  1.00  0.00     0.053 C 
BRANCH   6   7
ATOM      7  C   UNL     1      -9.356 -22.364  23.670  1.00  0.00     0.041 C 
ATOM      8  O   UNL     1      -8.510 -23.125  24.209  1.00  0.00    -0.550 OA
ATOM      9  O   UNL     1     -10.710 -22.647  23.789  1.00  0.00    -0.550 OA
ENDBRANCH   6   7
ENDBRANCH   5   6
ENDBRANCH   4   5
ENDBRANCH   3   4
ENDBRANCH   2   3
ENDBRANCH   1   2
BRANCH   1  10
ATOM     10  C   UNL     1      -6.218 -23.053  17.503  1.00  0.00     0.000 C 
BRANCH  10  11
ATOM     11  C   UNL     1      -6.737 -22.810  16.075  1.00  0.00    -0.000 C 
BRANCH  11  12
ATOM     12  C   UNL     1      -7.733 -21.638  15.990  1.00  0.00    -0.000 C 
BRANCH  12  13
ATOM     13  C   UNL     1      -8.094 -21.170  14.563  1.00  0.00    -0.000 C 
BRANCH  13  14
ATOM     14  C   UNL     1      -9.260 -20.167  14.476  1.00  0.00    -0.000 C 
BRANCH  14  15
ATOM     15  C   UNL     1     -10.616 -20.742  14.944  1.00  0.00    -0.000 C 
BRANCH  15  16
ATOM     16  C   UNL     1     -11.119 -20.131  16.263  1.00  0.00    -0.003 C 
ATOM     17  C   UNL     1     -11.125 -21.133  17.416  1.00  0.00     0.004 C 
ENDBRANCH  15  16
ENDBRANCH  14  15
ENDBRANCH  13  14
ENDBRANCH  12  13
ENDBRANCH  11  12
ENDBRANCH  10  11
ENDBRANCH   1  10
TORSDOF 13
ENDMDL
MODEL 4
REMARK VINA RESULT:    -2.079      2.459      3.819
REMARK INTER + INTRA:          -4.627
REMARK INTER:                  -3.604
REMARK INTRA:                  -1.023
REMARK UNBOUND:                -0.968
REMARK SMILES CCCCCCCCCCCCCCC(=O)[O-]
REMARK SMILES IDX 9 1 10 2 11 3 12 4 13 5 14 6 15 7 16 8 17 9 8 10 7 11 6 12
REMARK SMILES IDX 5 13 4 14 3 15 2 16 1 17
REMARK H PARENT
REMARK Flexibility Score: inf
ROOT
ATOM      1  C   UNL     1      -5.800 -21.963  17.500  1.00  0.00     0.000 C 
ENDROOT
BRANCH   1   2
ATOM      2  C   UNL     1      -5.863 -22.181  15.980  1.00  0.00     0.000 C 
BRANCH   2   3
ATOM      3  C   UNL     1      -6.725 -21.101  15.309  1.00  0.00     0.000 C 
BRANCH   3   4
ATOM      4  C   UNL     1      -8.204 -21.507  15.195  1.00  0.00     0.000 C 
BRANCH   4   5
ATOM      5  C   UNL     1      -9.058 -20.439  14.497  1.00  0.00     0.006 C 
BRANCH   5   6
ATOM      6  C   UNL     1     -10.551 -20.707  14.710  1.00  0.00     0.053 C 
BRANCH   6   7
ATOM      7  C   UNL     1     -10.899 -20.613  16.161  1.00  0.00     0.041 C 
ATOM      8  O   UNL     1     -10.945 -19.492  16.731  1.00  0.00    -0.550 OA
ATOM      9  O   UNL     1     -11.125 -21.769  16.899  1.00  0.00    -0.550 OA
ENDBRANCH   6   7
ENDBRANCH   5   6
ENDBRANCH   4   5
ENDBRANCH   3   4
ENDBRANCH   2   3
ENDBRANCH   1   2
BRANCH   1  10
ATOM     10  C   UNL     1      -6.468 -23.099  18.292  1.00  0.00     0.000 C 
BRANCH  10  11
ATOM     11  C   UNL     1      -7.996 -23.125  18.111  1.00  0.00    -0.000 C 
BRANCH  11  12
ATOM     12  C   UNL     1      -8.758 -22.741  19.392  1.00  0.00    -0.000 C 
BRANCH  12  13
ATOM     13  C   UNL     1      -9.012 -21.230  19.591  1.00  0.00    -0.000 C 
BRANCH  13  14
ATOM     14  C   UNL     1     -10.358 -20.871  20.251  1.00  0.00    -0.000 C 
BRANCH  14  15
ATOM     15  C   UNL     1     -10.218 -20.016  21.531  1.00  0.00    -0.000 C 
BRANCH  15  16
ATOM     16  C   UNL     1      -9.642 -20.793  22.727  1.00  0.00    -0.003 C 
ATOM     17  C   UNL     1     -10.198 -22.211  22.835  1.00  0.00     0.004 C 
ENDBRANCH  15  16
ENDBRANCH  14  15
ENDBRANCH  13  14
ENDBRANCH  12  13
ENDBRANCH  11  12
ENDBRANCH  10  11
ENDBRANCH   1  10
TORSDOF 13
ENDMDL
MODEL 5
REMARK VINA RESULT:    -1.960      2.506      3.957
REMARK INTER + INTRA:          -4.417
REMARK INTER:                  -3.333
REMARK INTRA:                  -1.085
REMARK UNBOUND:                -0.968
REMARK SMILES CCCCCCCCCCCCCCC(=O)[O-]
REMARK SMILES IDX 9 1 10 2 11 3 12 4 13 5 14 6 15 7 16 8 17 9 8 10 7 11 6 12
REMARK SMILES IDX 5 13 4 14 3 15 2 16 1 17
REMARK H PARENT
REMARK Flexibility Score: inf
ROOT
ATOM      1  C   UNL     1      -5.898 -22.065  15.999  1.00  0.00     0.000 C 
ENDROOT
BRANCH   1   2
ATOM      2  C   UNL     1      -6.801 -20.985  15.383  1.00  0.00     0.000 C 
BRANCH   2   3
ATOM      3  C   UNL     1      -8.227 -21.516  15.178  1.00  0.00     0.000 C 
BRANCH   3   4
ATOM      4  C   UNL     1      -9.143 -20.502  14.472  1.00  0.00     0.000 C 
BRANCH   4   5
ATOM      5  C   UNL     1     -10.604 -20.605  14.933  1.00  0.00     0.006 C 
BRANCH   5   6
ATOM      6  C   UNL     1     -10.831 -19.799  16.216  1.00  0.00     0.053 C 
BRANCH   6   7
ATOM      7  C   UNL     1     -10.999 -20.714  17.387  1.00  0.00     0.041 C 
ATOM      8  O   UNL     1     -11.123 -21.954  17.211  1.00  0.00    -0.550 OA
ATOM      9  O   UNL     1     -11.070 -20.192  18.673  1.00  0.00    -0.550 OA
ENDBRANCH   6   7
ENDBRANCH   5   6
ENDBRANCH   4   5
ENDBRANCH   3   4
ENDBRANCH   2   3
ENDBRANCH   1   2
BRANCH   1  10
ATOM     10  C   UNL     1      -5.719 -21.895  17.516  1.00  0.00     0.000 C 
BRANCH  10  11
ATOM     11  C   UNL     1      -6.559 -22.899  18.326  1.00  0.00    -0.000 C 
BRANCH  11  12
ATOM     12  C   UNL     1      -7.967 -22.371  18.658  1.00  0.00    -0.000 C 
BRANCH  12  13
ATOM     13  C   UNL     1      -8.710 -23.116  19.788  1.00  0.00    -0.000 C 
BRANCH  13  14
ATOM     14  C   UNL     1      -7.994 -23.124  21.153  1.00  0.00    -0.000 C 
BRANCH  14  15
ATOM     15  C   UNL     1      -8.406 -21.960  22.081  1.00  0.00    -0.000 C 
BRANCH  15  16
ATOM     16  C   UNL     1      -9.829 -21.438  21.817  1.00  0.00    -0.003 C 
ATOM     17  C   UNL     1     -10.502 -20.889  23.073  1.00  0.00     0.004 C 
ENDBRANCH  15  16
ENDBRANCH  14  15
ENDBRANCH  13  14
ENDBRANCH  12  13
ENDBRANCH  11  12
ENDBRANCH  10  11
ENDBRANCH   1  10
TORSDOF 13
ENDMDL
MODEL 6
REMARK VINA RESULT:    -0.587      1.140      2.040
REMARK INTER + INTRA:          -2.001
REMARK INTER:                  -2.339
REMARK INTRA:                   0.338
REMARK UNBOUND:                -0.968
REMARK SMILES CCCCCCCCCCCCCCC(=O)[O-]
REMARK SMILES IDX 9 1 10 2 11 3 12 4 13 5 14 6 15 7 16 8 17 9 8 10 7 11 6 12
REMARK SMILES IDX 5 13 4 14 3 15 2 16 1 17
REMARK H PARENT
REMARK Flexibility Score: inf
ROOT
ATOM      1  C   UNL     1     -10.597 -23.125  17.232  1.00  0.00     0.000 C 
ENDROOT
BRANCH   1   2
ATOM      2  C   UNL     1     -11.044 -22.017  16.265  1.00  0.00     0.000 C 
BRANCH   2   3
ATOM      3  C   UNL     1     -10.435 -20.665  16.665  1.00  0.00     0.000 C 
BRANCH   3   4
ATOM      4  C   UNL     1      -9.574 -20.049  15.549  1.00  0.00     0.000 C 
BRANCH   4   5
ATOM      5  C   UNL     1      -8.825 -21.108  14.728  1.00  0.00     0.006 C 
BRANCH   5   6
ATOM      6  C   UNL     1      -7.315 -20.852  14.752  1.00  0.00     0.053 C 
BRANCH   6   7
ATOM      7  C   UNL     1      -6.647 -21.741  15.751  1.00  0.00     0.041 C 
ATOM      8  O   UNL     1      -7.200 -22.812  16.117  1.00  0.00    -0.550 OA
ATOM      9  O   UNL     1      -5.436 -21.365  16.318  1.00  0.00    -0.550 OA
ENDBRANCH   6   7
ENDBRANCH   5   6
ENDBRANCH   4   5
ENDBRANCH   3   4
ENDBRANCH   2   3
ENDBRANCH   1   2
BRANCH   1  10
ATOM     10  C   UNL     1      -9.681 -22.603  18.352  1.00  0.00     0.000 C 
BRANCH  10  11
ATOM     11  C   UNL     1     -10.090 -23.125  19.740  1.00  0.00    -0.000 C 
BRANCH  11  12
ATOM     12  C   UNL     1      -9.585 -22.233  20.889  1.00  0.00    -0.000 C 
BRANCH  12  13
ATOM     13  C   UNL     1      -8.494 -22.854  21.789  1.00  0.00    -0.000 C 
BRANCH  13  14
ATOM     14  C   UNL     1      -8.428 -22.296  23.224  1.00  0.00    -0.000 C 
BRANCH  14  15
ATOM     15  C   UNL     1      -8.601 -20.763  23.306  1.00  0.00    -0.000 C 
BRANCH  15  16
ATOM     16  C   UNL     1      -9.783 -20.233  22.476  1.00  0.00    -0.003 C 
ATOM     17  C   UNL     1     -11.124 -20.381  23.192  1.00  0.00     0.004 C 
ENDBRANCH  15  16
ENDBRANCH  14  15
ENDBRANCH  13  14
ENDBRANCH  12  13
ENDBRANCH  11  12
ENDBRANCH  10  11
ENDBRANCH   1  10
TORSDOF 13
ENDMDL
MODEL 7
REMARK VINA RESULT:    -0.542      2.903      6.451
REMARK INTER + INTRA:          -1.921
REMARK INTER:                  -2.430
REMARK INTRA:                   0.508
REMARK UNBOUND:                -0.968
REMARK SMILES CCCCCCCCCCCCCCC(=O)[O-]
REMARK SMILES IDX 9 1 10 2 11 3 12 4 13 5 14 6 15 7 16 8 17 9 8 10 7 11 6 12
REMARK SMILES IDX 5 13 4 14 3 15 2 16 1 17
REMARK H PARENT
REMARK Flexibility Score: inf
ROOT
ATOM      1  C   UNL     1      -6.477 -22.968  17.177  1.00  0.00     0.000 C 
ENDROOT
BRANCH   1   2
ATOM      2  C   UNL     1      -6.813 -22.558  18.620  1.00  0.00     0.000 C 
BRANCH   2   3
ATOM      3  C   UNL     1      -8.181 -23.114  19.042  1.00  0.00     0.000 C 
BRANCH   3   4
ATOM      4  C   UNL     1      -9.189 -22.008  19.395  1.00  0.00     0.000 C 
BRANCH   4   5
ATOM      5  C   UNL     1     -10.417 -22.544  20.145  1.00  0.00     0.006 C 
BRANCH   5   6
ATOM      6  C   UNL     1     -11.125 -21.420  20.908  1.00  0.00     0.053 C 
BRANCH   6   7
ATOM      7  C   UNL     1     -10.142 -20.381  21.345  1.00  0.00     0.041 C 
ATOM      8  O   UNL     1      -9.799 -19.462  20.557  1.00  0.00    -0.550 OA
ATOM      9  O   UNL     1      -9.566 -20.456  22.607  1.00  0.00    -0.550 OA
ENDBRANCH   6   7
ENDBRANCH   5   6
ENDBRANCH   4   5
ENDBRANCH   3   4
ENDBRANCH   2   3
ENDBRANCH   1   2
BRANCH   1  10
ATOM     10  C   UNL     1      -5.073 -22.517  16.742  1.00  0.00     0.000 C 
BRANCH  10  11
ATOM     11  C   UNL     1      -5.114 -21.397  15.688  1.00  0.00    -0.000 C 
BRANCH  11  12
ATOM     12  C   UNL     1      -6.538 -20.872  15.425  1.00  0.00    -0.000 C 
BRANCH  12  13
ATOM     13  C   UNL     1      -7.590 -21.945  15.070  1.00  0.00    -0.000 C 
BRANCH  13  14
ATOM     14  C   UNL     1      -9.013 -21.669  15.594  1.00  0.00    -0.000 C 
BRANCH  14  15
ATOM     15  C   UNL     1      -9.593 -20.310  15.140  1.00  0.00    -0.000 C 
BRANCH  15  16
ATOM     16  C   UNL     1     -11.030 -20.061  15.631  1.00  0.00    -0.003 C 
ATOM     17  C   UNL     1     -11.093 -19.678  17.108  1.00  0.00     0.004 C 
ENDBRANCH  15  16
ENDBRANCH  14  15
ENDBRANCH  13  14
ENDBRANCH  12  13
ENDBRANCH  11  12
ENDBRANCH  10  11
ENDBRANCH   1  10
TORSDOF 13
ENDMDL
MODEL 8
REMARK VINA RESULT:     0.121      8.769     11.695
REMARK INTER + INTRA:          -0.755
REMARK INTER:                  -0.464
REMARK INTRA:                  -0.291
REMARK UNBOUND:                -0.968
REMARK SMILES CCCCCCCCCCCCCCC(=O)[O-]
REMARK SMILES IDX 9 1 10 2 11 3 12 4 13 5 14 6 15 7 16 8 17 9 8 10 7 11 6 12
REMARK SMILES IDX 5 13 4 14 3 15 2 16 1 17
REMARK H PARENT
REMARK Flexibility Score: inf
ROOT
ATOM      1  C   UNL     1       1.853 -22.310  15.600  1.00  0.00     0.000 C 
ENDROOT
BRANCH   1   2
ATOM      2  C   UNL     1       3.203 -22.967  15.931  1.00  0.00     0.000 C 
BRANCH   2   3
ATOM      3  C   UNL     1       3.948 -22.168  17.011  1.00  0.00     0.000 C 
BRANCH   3   4
ATOM      4  C   UNL     1       5.430 -22.561  17.123  1.00  0.00     0.000 C 
BRANCH   4   5
ATOM      5  C   UNL     1       6.343 -21.356  17.391  1.00  0.00     0.006 C 
BRANCH   5   6
ATOM      6  C   UNL     1       7.813 -21.721  17.160  1.00  0.00     0.053 C 
BRANCH   6   7
ATOM      7  C   UNL     1       8.176 -21.551  15.719  1.00  0.00     0.041 C 
ATOM      8  O   UNL     1       8.418 -20.405  15.256  1.00  0.00    -0.550 OA
ATOM      9  O   UNL     1       8.199 -22.653  14.873  1.00  0.00    -0.550 OA
ENDBRANCH   6   7
ENDBRANCH   5   6
ENDBRANCH   4   5
ENDBRANCH   3   4
ENDBRANCH   2   3
ENDBRANCH   1   2
BRANCH   1  10
ATOM     10  C   UNL     1       0.654 -23.125  16.113  1.00  0.00     0.000 C 
BRANCH  10  11
ATOM     11  C   UNL     1      -0.684 -22.635  15.532  1.00  0.00    -0.000 C 
BRANCH  11  12
ATOM     12  C   UNL     1      -1.901 -23.111  16.346  1.00  0.00    -0.000 C 
BRANCH  12  13
ATOM     13  C   UNL     1      -3.257 -22.485  15.950  1.00  0.00    -0.000 C 
BRANCH  13  14
ATOM     14  C   UNL     1      -4.464 -22.942  16.793  1.00  0.00    -0.000 C 
BRANCH  14  15
ATOM     15  C   UNL     1      -5.664 -21.970  16.744  1.00  0.00    -0.000 C 
BRANCH  15  16
ATOM     16  C   UNL     1      -6.973 -22.635  16.287  1.00  0.00    -0.003 C 
ATOM     17  C   UNL     1      -8.094 -22.506  17.316  1.00  0.00     0.004 C 
ENDBRANCH  15  16
ENDBRANCH  14  15
ENDBRANCH  13  14
ENDBRANCH  12  13
ENDBRANCH  11  12
ENDBRANCH  10  11
ENDBRANCH   1  10
TORSDOF 13
ENDMDL
