MODEL 1
REMARK VINA RESULT:    -4.182      0.000      0.000
REMARK INTER + INTRA:          -9.440
REMARK INTER:                  -8.094
REMARK INTRA:                  -1.347
REMARK UNBOUND:                -1.347
REMARK SMILES CCCCCCCCCCCCCCCCCC(=O)[O-]
REMARK SMILES IDX 10 1 11 2 12 3 13 4 14 5 15 6 16 7 17 8 18 9 19 10 20 11
REMARK SMILES IDX 9 12 8 13 7 14 6 15 5 16 4 17 3 18 2 19 1 20
REMARK H PARENT
REMARK Flexibility Score: inf
ROOT
ATOM      1  C   UNL     1       4.478   5.600  10.125  1.00  0.00     0.000 C 
ENDROOT
BRANCH   1   2
ATOM      2  C   UNL     1       3.157   5.252   9.413  1.00  0.00     0.000 C 
BRANCH   2   3
ATOM      3  C   UNL     1       3.206   3.919   8.634  1.00  0.00     0.000 C 
BRANCH   3   4
ATOM      4  C   UNL     1       3.225   4.132   7.111  1.00  0.00     0.000 C 
BRANCH   4   5
ATOM      5  C   UNL     1       4.649   4.147   6.533  1.00  0.00     0.000 C 
BRANCH   5   6
ATOM      6  C   UNL     1       5.643   3.340   7.383  1.00  0.00     0.000 C 
BRANCH   6   7
ATOM      7  C   UNL     1       7.082   3.542   6.882  1.00  0.00     0.006 C 
BRANCH   7   8
ATOM      8  C   UNL     1       7.165   3.578   5.350  1.00  0.00     0.053 C 
BRANCH   8   9
ATOM      9  C   UNL     1       8.433   2.960   4.849  1.00  0.00     0.041 C 
ATOM     10  O   UNL     1       9.387   3.689   4.467  1.00  0.00    -0.550 OA
ATOM     11  O   UNL     1       8.550   1.577   4.773  1.00  0.00    -0.550 OA
ENDBRANCH   8   9
ENDBRANCH   7   8
ENDBRANCH   6   7
ENDBRANCH   5   6
ENDBRANCH   4   5
ENDBRANCH   3   4
ENDBRANCH   2   3
ENDBRANCH   1   2
BRANCH   1  12
ATOM     12  C   UNL     1       5.126   6.922   9.674  1.00  0.00     0.000 C 
BRANCH  12  13
ATOM     13  C   UNL     1       4.181   7.899   8.945  1.00  0.00    -0.000 C 
BRANCH  13  14
ATOM     14  C   UNL     1       4.338   9.377   9.342  1.00  0.00    -0.000 C 
BRANCH  14  15
ATOM     15  C   UNL     1       4.032  10.343   8.183  1.00  0.00    -0.000 C 
BRANCH  15  16
ATOM     16  C   UNL     1       5.052  10.235   7.040  1.00  0.00    -0.000 C 
BRANCH  16  17
ATOM     17  C   UNL     1       5.005  11.444   6.092  1.00  0.00    -0.000 C 
BRANCH  17  18
ATOM     18  C   UNL     1       4.015  12.503   6.602  1.00  0.00    -0.000 C 
BRANCH  18  19
ATOM     19  C   UNL     1       4.620  13.916   6.622  1.00  0.00    -0.003 C 
ATOM     20  C   UNL     1       5.453  14.185   7.874  1.00  0.00     0.004 C 
ENDBRANCH  18  19
ENDBRANCH  17  18
ENDBRANCH  16  17
ENDBRANCH  15  16
ENDBRANCH  14  15
ENDBRANCH  13  14
ENDBRANCH  12  13
ENDBRANCH   1  12
TORSDOF 16
ENDMDL
MODEL 2
REMARK VINA RESULT:    -4.181      1.153      2.015
REMARK INTER + INTRA:          -9.439
REMARK INTER:                  -8.156
REMARK INTRA:                  -1.283
REMARK UNBOUND:                -1.347
REMARK SMILES CCCCCCCCCCCCCCCCCC(=O)[O-]
REMARK SMILES IDX 10 1 11 2 12 3 13 4 14 5 15 6 16 7 17 8 18 9 19 10 20 11
REMARK SMILES IDX 9 12 8 13 7 14 6 15 5 16 4 17 3 18 2 19 1 20
REMARK H PARENT
REMARK Flexibility Score: inf
ROOT
ATOM      1  C   UNL     1       3.156   4.608   7.823  1.00  0.00     0.000 C 
ENDROOT
BRANCH   1   2
ATOM      2  C   UNL     1       3.425   3.098   7.959  1.00  0.00     0.000 C 
BRANCH   2   3
ATOM      3  C   UNL     1       4.352   2.738   9.140  1.00  0.00     0.000 C 
BRANCH   3   4
ATOM      4  C   UNL     1       5.783   2.408   8.682  1.00  0.00     0.000 C 
BRANCH   4   5
ATOM      5  C   UNL     1       6.757   3.578   8.896  1.00  0.00     0.000 C 
BRANCH   5   6
ATOM      6  C   UNL     1       7.600   3.884   7.648  1.00  0.00     0.000 C 
BRANCH   6   7
ATOM      7  C   UNL     1       6.808   3.586   6.366  1.00  0.00     0.006 C 
BRANCH   7   8
ATOM      8  C   UNL     1       7.718   3.458   5.137  1.00  0.00     0.053 C 
BRANCH   8   9
ATOM      9  C   UNL     1       8.206   2.055   4.952  1.00  0.00     0.041 C 
ATOM     10  O   UNL     1       7.764   1.127   5.681  1.00  0.00    -0.550 OA
ATOM     11  O   UNL     1       9.174   1.775   3.995  1.00  0.00    -0.550 OA
ENDBRANCH   8   9
ENDBRANCH   7   8
ENDBRANCH   6   7
ENDBRANCH   5   6
ENDBRANCH   4   5
ENDBRANCH   3   4
ENDBRANCH   2   3
ENDBRANCH   1   2
BRANCH   1  12
ATOM     12  C   UNL     1       3.355   5.419   9.117  1.00  0.00     0.000 C 
BRANCH  12  13
ATOM     13  C   UNL     1       4.061   6.779   8.935  1.00  0.00    -0.000 C 
BRANCH  13  14
ATOM     14  C   UNL     1       3.827   7.792  10.070  1.00  0.00    -0.000 C 
BRANCH  14  15
ATOM     15  C   UNL     1       3.970   9.252   9.606  1.00  0.00    -0.000 C 
BRANCH  15  16
ATOM     16  C   UNL     1       4.669   9.373   8.244  1.00  0.00    -0.000 C 
BRANCH  16  17
ATOM     17  C   UNL     1       5.091  10.816   7.924  1.00  0.00    -0.000 C 
BRANCH  17  18
ATOM     18  C   UNL     1       4.010  11.534   7.102  1.00  0.00    -0.000 C 
BRANCH  18  19
ATOM     19  C   UNL     1       4.581  12.673   6.243  1.00  0.00    -0.003 C 
ATOM     20  C   UNL     1       4.858  13.941   7.050  1.00  0.00     0.004 C 
ENDBRANCH  18  19
ENDBRANCH  17  18
ENDBRANCH  16  17
ENDBRANCH  15  16
ENDBRANCH  14  15
ENDBRANCH  13  14
ENDBRANCH  12  13
ENDBRANCH   1  12
TORSDOF 16
ENDMDL
MODEL 3
REMARK VINA RESULT:    -4.099      2.692      4.818
REMARK INTER + INTRA:          -9.279
REMARK INTER:                  -7.298
REMARK INTRA:                  -1.981
REMARK UNBOUND:                -1.347
REMARK SMILES CCCCCCCCCCCCCCCCCC(=O)[O-]
REMARK SMILES IDX 10 1 11 2 12 3 13 4 14 5 15 6 16 7 17 8 18 9 19 10 20 11
REMARK SMILES IDX 9 12 8 13 7 14 6 15 5 16 4 17 3 18 2 19 1 20
REMARK H PARENT
REMARK Flexibility Score: inf
ROOT
ATOM      1  C   UNL     1       7.250   9.441   9.004  1.00  0.00     0.000 C 
ENDROOT
BRANCH   1   2
ATOM      2  C   UNL     1       6.323  10.582   9.464  1.00  0.00     0.000 C 
BRANCH   2   3
ATOM      3  C   UNL     1       4.859  10.140   9.685  1.00  0.00     0.000 C 
BRANCH   3   4
ATOM      4  C   UNL     1       4.491   8.900   8.853  1.00  0.00     0.000 C 
BRANCH   4   5
ATOM      5  C   UNL     1       4.078   7.703   9.724  1.00  0.00     0.000 C 
BRANCH   5   6
ATOM      6  C   UNL     1       3.755   6.449   8.897  1.00  0.00     0.000 C 
BRANCH   6   7
ATOM      7  C   UNL     1       4.874   5.404   9.028  1.00  0.00     0.006 C 
BRANCH   7   8
ATOM      8  C   UNL     1       4.453   4.031   8.488  1.00  0.00     0.053 C 
BRANCH   8   9
ATOM      9  C   UNL     1       3.811   4.139   7.139  1.00  0.00     0.041 C 
ATOM     10  O   UNL     1       2.601   3.823   6.985  1.00  0.00    -0.550 OA
ATOM     11  O   UNL     1       4.557   4.559   6.045  1.00  0.00    -0.550 OA
ENDBRANCH   8   9
ENDBRANCH   7   8
ENDBRANCH   6   7
ENDBRANCH   5   6
ENDBRANCH   4   5
ENDBRANCH   3   4
ENDBRANCH   2   3
ENDBRANCH   1   2
BRANCH   1  12
ATOM     12  C   UNL     1       8.483   9.895   8.201  1.00  0.00     0.000 C 
BRANCH  12  13
ATOM     13  C   UNL     1       8.211  10.987   7.146  1.00  0.00    -0.000 C 
BRANCH  13  14
ATOM     14  C   UNL     1       8.985  12.301   7.353  1.00  0.00    -0.000 C 
BRANCH  14  15
ATOM     15  C   UNL     1       8.163  13.368   8.098  1.00  0.00    -0.000 C 
BRANCH  15  16
ATOM     16  C   UNL     1       7.054  13.974   7.225  1.00  0.00    -0.000 C 
BRANCH  16  17
ATOM     17  C   UNL     1       5.666  13.866   7.876  1.00  0.00    -0.000 C 
BRANCH  17  18
ATOM     18  C   UNL     1       4.578  13.651   6.814  1.00  0.00    -0.000 C 
BRANCH  18  19
ATOM     19  C   UNL     1       4.065  12.202   6.778  1.00  0.00    -0.003 C 
ATOM     20  C   UNL     1       4.958  11.279   5.951  1.00  0.00     0.004 C 
ENDBRANCH  18  19
ENDBRANCH  17  18
ENDBRANCH  16  17
ENDBRANCH  15  16
ENDBRANCH  14  15
ENDBRANCH  13  14
ENDBRANCH  12  13
ENDBRANCH   1  12
TORSDOF 16
ENDMDL
MODEL 4
REMARK VINA RESULT:    -3.991     13.455     16.645
REMARK INTER + INTRA:          -9.071
REMARK INTER:                  -7.951
REMARK INTRA:                  -1.120
REMARK UNBOUND:                -1.347
REMARK SMILES CCCCCCCCCCCCCCCCCC(=O)[O-]
REMARK SMILES IDX 10 1 11 2 12 3 13 4 14 5 15 6 16 7 17 8 18 9 19 10 20 11
REMARK SMILES IDX 9 12 8 13 7 14 6 15 5 16 4 17 3 18 2 19 1 20
REMARK H PARENT
REMARK Flexibility Score: inf
ROOT
ATOM      1  C   UNL     1       2.841   8.054  -8.830  1.00  0.00     0.000 C 
ENDROOT
BRANCH   1   2
ATOM      2  C   UNL     1       4.006   8.395  -7.882  1.00  0.00     0.000 C 
BRANCH   2   3
ATOM      3  C   UNL     1       5.109   7.314  -7.843  1.00  0.00     0.000 C 
BRANCH   3   4
ATOM      4  C   UNL     1       6.509   7.913  -7.629  1.00  0.00     0.000 C 
BRANCH   4   5
ATOM      5  C   UNL     1       6.616   8.713  -6.321  1.00  0.00     0.000 C 
BRANCH   5   6
ATOM      6  C   UNL     1       8.044   8.737  -5.754  1.00  0.00     0.000 C 
BRANCH   6   7
ATOM      7  C   UNL     1       8.227   9.909  -4.778  1.00  0.00     0.006 C 
BRANCH   7   8
ATOM      8  C   UNL     1       7.975  11.267  -5.447  1.00  0.00     0.053 C 
BRANCH   8   9
ATOM      9  C   UNL     1       8.121  12.399  -4.477  1.00  0.00     0.041 C 
ATOM     10  O   UNL     1       7.393  13.422  -4.581  1.00  0.00    -0.550 OA
ATOM     11  O   UNL     1       9.082  12.337  -3.476  1.00  0.00    -0.550 OA
ENDBRANCH   8   9
ENDBRANCH   7   8
ENDBRANCH   6   7
ENDBRANCH   5   6
ENDBRANCH   4   5
ENDBRANCH   3   4
ENDBRANCH   2   3
ENDBRANCH   1   2
BRANCH   1  12
ATOM     12  C   UNL     1       3.032   6.766  -9.652  1.00  0.00     0.000 C 
BRANCH  12  13
ATOM     13  C   UNL     1       1.990   5.660  -9.386  1.00  0.00    -0.000 C 
BRANCH  13  14
ATOM     14  C   UNL     1       2.568   4.241  -9.236  1.00  0.00    -0.000 C 
BRANCH  14  15
ATOM     15  C   UNL     1       3.953   4.088  -9.889  1.00  0.00    -0.000 C 
BRANCH  15  16
ATOM     16  C   UNL     1       5.003   3.525  -8.921  1.00  0.00    -0.000 C 
BRANCH  16  17
ATOM     17  C   UNL     1       4.413   2.497  -7.943  1.00  0.00    -0.000 C 
BRANCH  17  18
ATOM     18  C   UNL     1       5.443   2.104  -6.873  1.00  0.00    -0.000 C 
BRANCH  18  19
ATOM     19  C   UNL     1       4.821   1.295  -5.724  1.00  0.00    -0.003 C 
ATOM     20  C   UNL     1       3.909   0.173  -6.216  1.00  0.00     0.004 C 
ENDBRANCH  18  19
ENDBRANCH  17  18
ENDBRANCH  16  17
ENDBRANCH  15  16
ENDBRANCH  14  15
ENDBRANCH  13  14
ENDBRANCH  12  13
ENDBRANCH   1  12
TORSDOF 16
ENDMDL
MODEL 5
REMARK VINA RESULT:    -3.952     13.646     16.755
REMARK INTER + INTRA:          -8.996
REMARK INTER:                  -7.547
REMARK INTRA:                  -1.449
REMARK UNBOUND:                -1.347
REMARK SMILES CCCCCCCCCCCCCCCCCC(=O)[O-]
REMARK SMILES IDX 10 1 11 2 12 3 13 4 14 5 15 6 16 7 17 8 18 9 19 10 20 11
REMARK SMILES IDX 9 12 8 13 7 14 6 15 5 16 4 17 3 18 2 19 1 20
REMARK H PARENT
REMARK Flexibility Score: inf
ROOT
ATOM      1  C   UNL     1       4.083   8.371  -7.865  1.00  0.00     0.000 C 
ENDROOT
BRANCH   1   2
ATOM      2  C   UNL     1       5.253   7.381  -7.706  1.00  0.00     0.000 C 
BRANCH   2   3
ATOM      3  C   UNL     1       6.639   8.017  -7.949  1.00  0.00     0.000 C 
BRANCH   3   4
ATOM      4  C   UNL     1       6.609   9.082  -9.059  1.00  0.00     0.000 C 
BRANCH   4   5
ATOM      5  C   UNL     1       7.161  10.438  -8.593  1.00  0.00     0.000 C 
BRANCH   5   6
ATOM      6  C   UNL     1       6.714  10.805  -7.170  1.00  0.00     0.000 C 
BRANCH   6   7
ATOM      7  C   UNL     1       7.897  11.332  -6.343  1.00  0.00     0.006 C 
BRANCH   7   8
ATOM      8  C   UNL     1       8.813  10.202  -5.852  1.00  0.00     0.053 C 
BRANCH   8   9
ATOM      9  C   UNL     1       8.385   9.684  -4.514  1.00  0.00     0.041 C 
ATOM     10  O   UNL     1       7.537   8.755  -4.434  1.00  0.00    -0.550 OA
ATOM     11  O   UNL     1       8.899  10.248  -3.353  1.00  0.00    -0.550 OA
ENDBRANCH   8   9
ENDBRANCH   7   8
ENDBRANCH   6   7
ENDBRANCH   5   6
ENDBRANCH   4   5
ENDBRANCH   3   4
ENDBRANCH   2   3
ENDBRANCH   1   2
BRANCH   1  12
ATOM     12  C   UNL     1       2.864   7.814  -8.623  1.00  0.00     0.000 C 
BRANCH  12  13
ATOM     13  C   UNL     1       3.149   6.579  -9.503  1.00  0.00    -0.000 C 
BRANCH  13  14
ATOM     14  C   UNL     1       2.066   5.486  -9.463  1.00  0.00    -0.000 C 
BRANCH  14  15
ATOM     15  C   UNL     1       2.652   4.070  -9.324  1.00  0.00    -0.000 C 
BRANCH  15  16
ATOM     16  C   UNL     1       4.147   4.081  -8.976  1.00  0.00    -0.000 C 
BRANCH  16  17
ATOM     17  C   UNL     1       4.742   2.667  -8.883  1.00  0.00    -0.000 C 
BRANCH  17  18
ATOM     18  C   UNL     1       5.040   2.292  -7.423  1.00  0.00    -0.000 C 
BRANCH  18  19
ATOM     19  C   UNL     1       4.823   0.797  -7.141  1.00  0.00    -0.003 C 
ATOM     20  C   UNL     1       3.865   0.549  -5.977  1.00  0.00     0.004 C 
ENDBRANCH  18  19
ENDBRANCH  17  18
ENDBRANCH  16  17
ENDBRANCH  15  16
ENDBRANCH  14  15
ENDBRANCH  13  14
ENDBRANCH  12  13
ENDBRANCH   1  12
TORSDOF 16
ENDMDL
MODEL 6
REMARK VINA RESULT:    -3.914     13.308     15.137
REMARK INTER + INTRA:          -8.921
REMARK INTER:                  -7.421
REMARK INTRA:                  -1.500
REMARK UNBOUND:                -1.347
REMARK SMILES CCCCCCCCCCCCCCCCCC(=O)[O-]
REMARK SMILES IDX 10 1 11 2 12 3 13 4 14 5 15 6 16 7 17 8 18 9 19 10 20 11
REMARK SMILES IDX 9 12 8 13 7 14 6 15 5 16 4 17 3 18 2 19 1 20
REMARK H PARENT
REMARK Flexibility Score: inf
ROOT
ATOM      1  C   UNL     1       3.396   8.303  -8.281  1.00  0.00     0.000 C 
ENDROOT
BRANCH   1   2
ATOM      2  C   UNL     1       2.306   7.457  -8.966  1.00  0.00     0.000 C 
BRANCH   2   3
ATOM      3  C   UNL     1       2.865   6.267  -9.777  1.00  0.00     0.000 C 
BRANCH   3   4
ATOM      4  C   UNL     1       2.198   4.934  -9.396  1.00  0.00     0.000 C 
BRANCH   4   5
ATOM      5  C   UNL     1       3.212   3.793  -9.219  1.00  0.00     0.000 C 
BRANCH   5   6
ATOM      6  C   UNL     1       4.666   4.289  -9.201  1.00  0.00     0.000 C 
BRANCH   6   7
ATOM      7  C   UNL     1       5.476   3.572  -8.109  1.00  0.00     0.006 C 
BRANCH   7   8
ATOM      8  C   UNL     1       5.025   2.119  -7.911  1.00  0.00     0.053 C 
BRANCH   8   9
ATOM      9  C   UNL     1       4.884   1.774  -6.461  1.00  0.00     0.041 C 
ATOM     10  O   UNL     1       5.737   2.179  -5.627  1.00  0.00    -0.550 OA
ATOM     11  O   UNL     1       3.828   0.979  -6.034  1.00  0.00    -0.550 OA
ENDBRANCH   8   9
ENDBRANCH   7   8
ENDBRANCH   6   7
ENDBRANCH   5   6
ENDBRANCH   4   5
ENDBRANCH   3   4
ENDBRANCH   2   3
ENDBRANCH   1   2
BRANCH   1  12
ATOM     12  C   UNL     1       4.839   7.953  -8.691  1.00  0.00     0.000 C 
BRANCH  12  13
ATOM     13  C   UNL     1       5.742   7.453  -7.545  1.00  0.00    -0.000 C 
BRANCH  13  14
ATOM     14  C   UNL     1       7.189   7.120  -7.952  1.00  0.00    -0.000 C 
BRANCH  14  15
ATOM     15  C   UNL     1       8.229   7.652  -6.951  1.00  0.00    -0.000 C 
BRANCH  15  16
ATOM     16  C   UNL     1       7.846   9.022  -6.374  1.00  0.00    -0.000 C 
BRANCH  16  17
ATOM     17  C   UNL     1       7.629   8.982  -4.853  1.00  0.00    -0.000 C 
BRANCH  17  18
ATOM     18  C   UNL     1       8.867   9.506  -4.109  1.00  0.00    -0.000 C 
BRANCH  18  19
ATOM     19  C   UNL     1       9.025  11.030  -4.224  1.00  0.00    -0.003 C 
ATOM     20  C   UNL     1       9.750  11.641  -3.027  1.00  0.00     0.004 C 
ENDBRANCH  18  19
ENDBRANCH  17  18
ENDBRANCH  16  17
ENDBRANCH  15  16
ENDBRANCH  14  15
ENDBRANCH  13  14
ENDBRANCH  12  13
ENDBRANCH   1  12
TORSDOF 16
ENDMDL
MODEL 7
REMARK VINA RESULT:    -3.906     13.196     15.270
REMARK INTER + INTRA:          -8.907
REMARK INTER:                  -6.889
REMARK INTRA:                  -2.018
REMARK UNBOUND:                -1.347
REMARK SMILES CCCCCCCCCCCCCCCCCC(=O)[O-]
REMARK SMILES IDX 10 1 11 2 12 3 13 4 14 5 15 6 16 7 17 8 18 9 19 10 20 11
REMARK SMILES IDX 9 12 8 13 7 14 6 15 5 16 4 17 3 18 2 19 1 20
REMARK H PARENT
REMARK Flexibility Score: inf
ROOT
ATOM      1  C   UNL     1       5.230   7.863  -7.451  1.00  0.00     0.000 C 
ENDROOT
BRANCH   1   2
ATOM      2  C   UNL     1       3.917   8.024  -8.241  1.00  0.00     0.000 C 
BRANCH   2   3
ATOM      3  C   UNL     1       3.719   6.953  -9.336  1.00  0.00     0.000 C 
BRANCH   3   4
ATOM      4  C   UNL     1       2.336   6.284  -9.257  1.00  0.00     0.000 C 
BRANCH   4   5
ATOM      5  C   UNL     1       2.410   4.754  -9.391  1.00  0.00     0.000 C 
BRANCH   5   6
ATOM      6  C   UNL     1       3.849   4.242  -9.560  1.00  0.00     0.000 C 
BRANCH   6   7
ATOM      7  C   UNL     1       4.155   3.127  -8.548  1.00  0.00     0.006 C 
BRANCH   7   8
ATOM      8  C   UNL     1       5.662   2.959  -8.308  1.00  0.00     0.053 C 
BRANCH   8   9
ATOM      9  C   UNL     1       5.962   2.626  -6.879  1.00  0.00     0.041 C 
ATOM     10  O   UNL     1       5.412   1.635  -6.329  1.00  0.00    -0.550 OA
ATOM     11  O   UNL     1       6.824   3.430  -6.143  1.00  0.00    -0.550 OA
ENDBRANCH   8   9
ENDBRANCH   7   8
ENDBRANCH   6   7
ENDBRANCH   5   6
ENDBRANCH   4   5
ENDBRANCH   3   4
ENDBRANCH   2   3
ENDBRANCH   1   2
BRANCH   1  12
ATOM     12  C   UNL     1       6.094   6.660  -7.872  1.00  0.00     0.000 C 
BRANCH  12  13
ATOM     13  C   UNL     1       7.571   6.989  -8.174  1.00  0.00    -0.000 C 
BRANCH  13  14
ATOM     14  C   UNL     1       8.585   6.422  -7.164  1.00  0.00    -0.000 C 
BRANCH  14  15
ATOM     15  C   UNL     1       9.520   7.499  -6.587  1.00  0.00    -0.000 C 
BRANCH  15  16
ATOM     16  C   UNL     1       9.719   7.357  -5.071  1.00  0.00    -0.000 C 
BRANCH  16  17
ATOM     17  C   UNL     1       9.267   8.605  -4.297  1.00  0.00    -0.000 C 
BRANCH  17  18
ATOM     18  C   UNL     1       7.884   9.075  -4.773  1.00  0.00    -0.000 C 
BRANCH  18  19
ATOM     19  C   UNL     1       7.895  10.526  -5.279  1.00  0.00    -0.003 C 
ATOM     20  C   UNL     1       7.512  10.641  -6.753  1.00  0.00     0.004 C 
ENDBRANCH  18  19
ENDBRANCH  17  18
ENDBRANCH  16  17
ENDBRANCH  15  16
ENDBRANCH  14  15
ENDBRANCH  13  14
ENDBRANCH  12  13
ENDBRANCH   1  12
TORSDOF 16
ENDMDL
MODEL 8
REMARK VINA RESULT:    -3.900      3.816      8.529
REMARK INTER + INTRA:          -8.895
REMARK INTER:                  -7.769
REMARK INTRA:                  -1.125
REMARK UNBOUND:                -1.347
REMARK SMILES CCCCCCCCCCCCCCCCCC(=O)[O-]
REMARK SMILES IDX 10 1 11 2 12 3 13 4 14 5 15 6 16 7 17 8 18 9 19 10 20 11
REMARK SMILES IDX 9 12 8 13 7 14 6 15 5 16 4 17 3 18 2 19 1 20
REMARK H PARENT
REMARK Flexibility Score: inf
ROOT
ATOM      1  C   UNL     1       4.359   7.431   9.887  1.00  0.00     0.000 C 
ENDROOT
BRANCH   1   2
ATOM      2  C   UNL     1       4.039   8.286   8.646  1.00  0.00     0.000 C 
BRANCH   2   3
ATOM      3  C   UNL     1       4.454   9.767   8.791  1.00  0.00     0.000 C 
BRANCH   3   4
ATOM      4  C   UNL     1       5.549  10.169   7.788  1.00  0.00     0.000 C 
BRANCH   4   5
ATOM      5  C   UNL     1       4.980  10.848   6.532  1.00  0.00     0.000 C 
BRANCH   5   6
ATOM      6  C   UNL     1       4.030  12.009   6.863  1.00  0.00     0.000 C 
BRANCH   6   7
ATOM      7  C   UNL     1       4.613  13.348   6.383  1.00  0.00     0.006 C 
BRANCH   7   8
ATOM      8  C   UNL     1       5.020  14.257   7.550  1.00  0.00     0.053 C 
BRANCH   8   9
ATOM      9  C   UNL     1       6.294  13.799   8.191  1.00  0.00     0.041 C 
ATOM     10  O   UNL     1       7.382  13.865   7.559  1.00  0.00    -0.550 OA
ATOM     11  O   UNL     1       6.276  13.270   9.475  1.00  0.00    -0.550 OA
ENDBRANCH   8   9
ENDBRANCH   7   8
ENDBRANCH   6   7
ENDBRANCH   5   6
ENDBRANCH   4   5
ENDBRANCH   3   4
ENDBRANCH   2   3
ENDBRANCH   1   2
BRANCH   1  12
ATOM     12  C   UNL     1       4.280   5.910   9.661  1.00  0.00     0.000 C 
BRANCH  12  13
ATOM     13  C   UNL     1       3.608   5.479   8.340  1.00  0.00    -0.000 C 
BRANCH  13  14
ATOM     14  C   UNL     1       4.052   4.107   7.801  1.00  0.00    -0.000 C 
BRANCH  14  15
ATOM     15  C   UNL     1       5.319   3.574   8.492  1.00  0.00    -0.000 C 
BRANCH  15  16
ATOM     16  C   UNL     1       6.236   2.804   7.532  1.00  0.00    -0.000 C 
BRANCH  16  17
ATOM     17  C   UNL     1       7.727   3.057   7.809  1.00  0.00    -0.000 C 
BRANCH  17  18
ATOM     18  C   UNL     1       8.389   3.780   6.627  1.00  0.00    -0.000 C 
BRANCH  18  19
ATOM     19  C   UNL     1       7.734   3.434   5.280  1.00  0.00    -0.003 C 
ATOM     20  C   UNL     1       8.562   2.450   4.455  1.00  0.00     0.004 C 
ENDBRANCH  18  19
ENDBRANCH  17  18
ENDBRANCH  16  17
ENDBRANCH  15  16
ENDBRANCH  14  15
ENDBRANCH  13  14
ENDBRANCH  12  13
ENDBRANCH   1  12
TORSDOF 16
ENDMDL
MODEL 9
REMARK VINA RESULT:    -3.863      2.200      3.283
REMARK INTER + INTRA:          -8.822
REMARK INTER:                  -7.820
REMARK INTRA:                  -1.002
REMARK UNBOUND:                -1.347
REMARK SMILES CCCCCCCCCCCCCCCCCC(=O)[O-]
REMARK SMILES IDX 10 1 11 2 12 3 13 4 14 5 15 6 16 7 17 8 18 9 19 10 20 11
REMARK SMILES IDX 9 12 8 13 7 14 6 15 5 16 4 17 3 18 2 19 1 20
REMARK H PARENT
REMARK Flexibility Score: inf
ROOT
ATOM      1  C   UNL     1       3.893   4.354   7.556  1.00  0.00     0.000 C 
ENDROOT
BRANCH   1   2
ATOM      2  C   UNL     1       5.164   3.527   7.825  1.00  0.00     0.000 C 
BRANCH   2   3
ATOM      3  C   UNL     1       6.299   3.789   6.811  1.00  0.00     0.000 C 
BRANCH   3   4
ATOM      4  C   UNL     1       7.220   2.570   6.636  1.00  0.00     0.000 C 
BRANCH   4   5
ATOM      5  C   UNL     1       7.912   2.157   7.945  1.00  0.00     0.000 C 
BRANCH   5   6
ATOM      6  C   UNL     1       7.914   0.636   8.162  1.00  0.00     0.000 C 
BRANCH   6   7
ATOM      7  C   UNL     1       6.756  -0.027   7.400  1.00  0.00     0.006 C 
BRANCH   7   8
ATOM      8  C   UNL     1       7.193  -1.312   6.682  1.00  0.00     0.053 C 
BRANCH   8   9
ATOM      9  C   UNL     1       7.118  -1.168   5.194  1.00  0.00     0.041 C 
ATOM     10  O   UNL     1       6.377  -1.931   4.519  1.00  0.00    -0.550 OA
ATOM     11  O   UNL     1       7.891  -0.211   4.547  1.00  0.00    -0.550 OA
ENDBRANCH   8   9
ENDBRANCH   7   8
ENDBRANCH   6   7
ENDBRANCH   5   6
ENDBRANCH   4   5
ENDBRANCH   3   4
ENDBRANCH   2   3
ENDBRANCH   1   2
BRANCH   1  12
ATOM     12  C   UNL     1       3.514   5.339   8.677  1.00  0.00     0.000 C 
BRANCH  12  13
ATOM     13  C   UNL     1       4.678   5.764   9.597  1.00  0.00    -0.000 C 
BRANCH  13  14
ATOM     14  C   UNL     1       4.849   7.284   9.772  1.00  0.00    -0.000 C 
BRANCH  14  15
ATOM     15  C   UNL     1       4.138   8.096   8.676  1.00  0.00    -0.000 C 
BRANCH  15  16
ATOM     16  C   UNL     1       4.385   9.606   8.805  1.00  0.00    -0.000 C 
BRANCH  16  17
ATOM     17  C   UNL     1       4.867  10.239   7.490  1.00  0.00    -0.000 C 
BRANCH  17  18
ATOM     18  C   UNL     1       4.012  11.463   7.126  1.00  0.00    -0.000 C 
BRANCH  18  19
ATOM     19  C   UNL     1       4.798  12.516   6.329  1.00  0.00    -0.003 C 
ATOM     20  C   UNL     1       4.514  13.943   6.795  1.00  0.00     0.004 C 
ENDBRANCH  18  19
ENDBRANCH  17  18
ENDBRANCH  16  17
ENDBRANCH  15  16
ENDBRANCH  14  15
ENDBRANCH  13  14
ENDBRANCH  12  13
ENDBRANCH   1  12
TORSDOF 16
ENDMDL
