MODEL 1
REMARK VINA RESULT:    -2.993      0.000      0.000
REMARK INTER + INTRA:          -8.921
REMARK INTER:                  -7.542
REMARK INTRA:                  -1.379
REMARK UNBOUND:                -1.379
REMARK SMILES CCCCCCCCCCCCCCCCCCCCCCCCCCCC(=O)[O-]
REMARK SMILES IDX 15 1 16 2 17 3 18 4 19 5 20 6 21 7 22 8 23 9 24 10 25 11
REMARK SMILES IDX 26 12 27 13 28 14 29 15 30 16 14 17 13 18 12 19 11 20 10 21
REMARK SMILES IDX 9 22 8 23 7 24 6 25 5 26 4 27 3 28 2 29 1 30
REMARK H PARENT
REMARK Flexibility Score: inf
ROOT
ATOM      1  C   UNL     1      -0.133  20.688  15.769  1.00  0.00     0.000 C 
ENDROOT
BRANCH   1   2
ATOM      2  C   UNL     1      -1.316  19.896  16.369  1.00  0.00     0.000 C 
BRANCH   2   3
ATOM      3  C   UNL     1      -1.991  20.576  17.572  1.00  0.00     0.000 C 
BRANCH   3   4
ATOM      4  C   UNL     1      -3.449  20.136  17.776  1.00  0.00     0.000 C 
BRANCH   4   5
ATOM      5  C   UNL     1      -4.195  19.930  16.449  1.00  0.00     0.000 C 
BRANCH   5   6
ATOM      6  C   UNL     1      -5.461  20.798  16.339  1.00  0.00     0.000 C 
BRANCH   6   7
ATOM      7  C   UNL     1      -6.078  20.757  14.932  1.00  0.00     0.000 C 
BRANCH   7   8
ATOM      8  C   UNL     1      -7.578  21.105  14.936  1.00  0.00     0.000 C 
BRANCH   8   9
ATOM      9  C   UNL     1      -8.449  19.969  15.496  1.00  0.00     0.000 C 
BRANCH   9  10
ATOM     10  C   UNL     1      -8.826  20.191  16.974  1.00  0.00     0.000 C 
BRANCH  10  11
ATOM     11  C   UNL     1      -9.089  21.675  17.306  1.00  0.00     0.000 C 
BRANCH  11  12
ATOM     12  C   UNL     1      -7.997  22.320  18.183  1.00  0.00     0.006 C 
BRANCH  12  13
ATOM     13  C   UNL     1      -8.532  23.073  19.413  1.00  0.00     0.053 C 
BRANCH  13  14
ATOM     14  C   UNL     1      -8.180  22.388  20.699  1.00  0.00     0.041 C 
ATOM     15  O   UNL     1      -8.415  22.949  21.804  1.00  0.00    -0.550 OA
ATOM     16  O   UNL     1      -7.619  21.117  20.679  1.00  0.00    -0.550 OA
ENDBRANCH  13  14
ENDBRANCH  12  13
ENDBRANCH  11  12
ENDBRANCH  10  11
ENDBRANCH   9  10
ENDBRANCH   8   9
ENDBRANCH   7   8
ENDBRANCH   6   7
ENDBRANCH   5   6
ENDBRANCH   4   5
ENDBRANCH   3   4
ENDBRANCH   2   3
ENDBRANCH   1   2
BRANCH   1  17
ATOM     17  C   UNL     1       1.082  20.875  16.705  1.00  0.00     0.000 C 
BRANCH  17  18
ATOM     18  C   UNL     1       2.306  19.982  16.412  1.00  0.00     0.000 C 
BRANCH  18  19
ATOM     19  C   UNL     1       3.671  20.681  16.544  1.00  0.00     0.000 C 
BRANCH  19  20
ATOM     20  C   UNL     1       4.812  19.876  15.905  1.00  0.00     0.000 C 
BRANCH  20  21
ATOM     21  C   UNL     1       6.176  20.478  16.273  1.00  0.00     0.000 C 
BRANCH  21  22
ATOM     22  C   UNL     1       7.326  19.941  15.399  1.00  0.00    -0.000 C 
BRANCH  22  23
ATOM     23  C   UNL     1       8.209  21.020  14.745  1.00  0.00    -0.000 C 
BRANCH  23  24
ATOM     24  C   UNL     1       9.509  21.277  15.519  1.00  0.00    -0.000 C 
BRANCH  24  25
ATOM     25  C   UNL     1      10.707  21.414  14.572  1.00  0.00    -0.000 C 
BRANCH  25  26
ATOM     26  C   UNL     1      10.552  20.560  13.294  1.00  0.00    -0.000 C 
BRANCH  26  27
ATOM     27  C   UNL     1      10.749  21.354  11.989  1.00  0.00    -0.000 C 
BRANCH  27  28
ATOM     28  C   UNL     1      10.082  22.742  11.965  1.00  0.00    -0.000 C 
BRANCH  28  29
ATOM     29  C   UNL     1      11.085  23.916  11.959  1.00  0.00    -0.003 C 
ATOM     30  C   UNL     1      10.441  25.258  11.606  1.00  0.00     0.004 C 
ENDBRANCH  28  29
ENDBRANCH  27  28
ENDBRANCH  26  27
ENDBRANCH  25  26
ENDBRANCH  24  25
ENDBRANCH  23  24
ENDBRANCH  22  23
ENDBRANCH  21  22
ENDBRANCH  20  21
ENDBRANCH  19  20
ENDBRANCH  18  19
ENDBRANCH  17  18
ENDBRANCH   1  17
TORSDOF 26
ENDMDL
MODEL 2
REMARK VINA RESULT:    -2.587      5.575     15.831
REMARK INTER + INTRA:          -7.898
REMARK INTER:                  -7.671
REMARK INTRA:                  -0.227
REMARK UNBOUND:                -1.379
REMARK SMILES CCCCCCCCCCCCCCCCCCCCCCCCCCCC(=O)[O-]
REMARK SMILES IDX 15 1 16 2 17 3 18 4 19 5 20 6 21 7 22 8 23 9 24 10 25 11
REMARK SMILES IDX 26 12 27 13 28 14 29 15 30 16 14 17 13 18 12 19 11 20 10 21
REMARK SMILES IDX 9 22 8 23 7 24 6 25 5 26 4 27 3 28 2 29 1 30
REMARK H PARENT
REMARK Flexibility Score: inf
ROOT
ATOM      1  C   UNL     1       2.204  21.275  17.149  1.00  0.00     0.000 C 
ENDROOT
BRANCH   1   2
ATOM      2  C   UNL     1       3.654  21.323  16.617  1.00  0.00     0.000 C 
BRANCH   2   3
ATOM      3  C   UNL     1       4.005  20.197  15.630  1.00  0.00     0.000 C 
BRANCH   3   4
ATOM      4  C   UNL     1       5.507  19.875  15.589  1.00  0.00     0.000 C 
BRANCH   4   5
ATOM      5  C   UNL     1       6.380  21.083  15.961  1.00  0.00     0.000 C 
BRANCH   5   6
ATOM      6  C   UNL     1       7.496  21.346  14.934  1.00  0.00     0.000 C 
BRANCH   6   7
ATOM      7  C   UNL     1       8.711  20.430  15.144  1.00  0.00     0.000 C 
BRANCH   7   8
ATOM      8  C   UNL     1       9.998  21.219  15.451  1.00  0.00     0.000 C 
BRANCH   8   9
ATOM      9  C   UNL     1      10.963  21.267  14.256  1.00  0.00     0.000 C 
BRANCH   9  10
ATOM     10  C   UNL     1      10.680  20.156  13.227  1.00  0.00     0.000 C 
BRANCH  10  11
ATOM     11  C   UNL     1      10.383  20.709  11.817  1.00  0.00     0.000 C 
BRANCH  11  12
ATOM     12  C   UNL     1      11.075  22.054  11.517  1.00  0.00     0.006 C 
BRANCH  12  13
ATOM     13  C   UNL     1      10.363  23.282  12.108  1.00  0.00     0.053 C 
BRANCH  13  14
ATOM     14  C   UNL     1      10.698  24.545  11.375  1.00  0.00     0.041 C 
ATOM     15  O   UNL     1      10.801  24.544  10.119  1.00  0.00    -0.550 OA
ATOM     16  O   UNL     1      10.871  25.732  12.077  1.00  0.00    -0.550 OA
ENDBRANCH  13  14
ENDBRANCH  12  13
ENDBRANCH  11  12
ENDBRANCH  10  11
ENDBRANCH   9  10
ENDBRANCH   8   9
ENDBRANCH   7   8
ENDBRANCH   6   7
ENDBRANCH   5   6
ENDBRANCH   4   5
ENDBRANCH   3   4
ENDBRANCH   2   3
ENDBRANCH   1   2
BRANCH   1  17
ATOM     17  C   UNL     1       1.294  20.208  16.501  1.00  0.00     0.000 C 
BRANCH  17  18
ATOM     18  C   UNL     1      -0.162  20.637  16.224  1.00  0.00     0.000 C 
BRANCH  18  19
ATOM     19  C   UNL     1      -1.232  19.876  17.026  1.00  0.00     0.000 C 
BRANCH  19  20
ATOM     20  C   UNL     1      -2.596  20.582  17.013  1.00  0.00     0.000 C 
BRANCH  20  21
ATOM     21  C   UNL     1      -3.481  20.037  15.883  1.00  0.00     0.000 C 
BRANCH  21  22
ATOM     22  C   UNL     1      -4.955  20.466  16.014  1.00  0.00    -0.000 C 
BRANCH  22  23
ATOM     23  C   UNL     1      -5.584  21.044  14.733  1.00  0.00    -0.000 C 
BRANCH  23  24
ATOM     24  C   UNL     1      -6.942  20.413  14.397  1.00  0.00    -0.000 C 
BRANCH  24  25
ATOM     25  C   UNL     1      -8.022  20.842  15.397  1.00  0.00    -0.000 C 
BRANCH  25  26
ATOM     26  C   UNL     1      -7.457  21.708  16.545  1.00  0.00    -0.000 C 
BRANCH  26  27
ATOM     27  C   UNL     1      -8.363  21.758  17.789  1.00  0.00    -0.000 C 
BRANCH  27  28
ATOM     28  C   UNL     1      -8.267  23.055  18.612  1.00  0.00    -0.000 C 
BRANCH  28  29
ATOM     29  C   UNL     1      -8.538  22.858  20.120  1.00  0.00    -0.003 C 
ATOM     30  C   UNL     1      -7.915  21.579  20.684  1.00  0.00     0.004 C 
ENDBRANCH  28  29
ENDBRANCH  27  28
ENDBRANCH  26  27
ENDBRANCH  25  26
ENDBRANCH  24  25
ENDBRANCH  23  24
ENDBRANCH  22  23
ENDBRANCH  21  22
ENDBRANCH  20  21
ENDBRANCH  19  20
ENDBRANCH  18  19
ENDBRANCH  17  18
ENDBRANCH   1  17
TORSDOF 26
ENDMDL
MODEL 3
REMARK VINA RESULT:    -2.409      1.423      2.175
REMARK INTER + INTRA:          -7.449
REMARK INTER:                  -6.112
REMARK INTRA:                  -1.337
REMARK UNBOUND:                -1.379
REMARK SMILES CCCCCCCCCCCCCCCCCCCCCCCCCCCC(=O)[O-]
REMARK SMILES IDX 15 1 16 2 17 3 18 4 19 5 20 6 21 7 22 8 23 9 24 10 25 11
REMARK SMILES IDX 26 12 27 13 28 14 29 15 30 16 14 17 13 18 12 19 11 20 10 21
REMARK SMILES IDX 9 22 8 23 7 24 6 25 5 26 4 27 3 28 2 29 1 30
REMARK H PARENT
REMARK Flexibility Score: inf
ROOT
ATOM      1  C   UNL     1      -0.728  21.647  15.683  1.00  0.00     0.000 C 
ENDROOT
BRANCH   1   2
ATOM      2  C   UNL     1      -2.222  21.327  15.450  1.00  0.00     0.000 C 
BRANCH   2   3
ATOM      3  C   UNL     1      -2.870  20.480  16.558  1.00  0.00     0.000 C 
BRANCH   3   4
ATOM      4  C   UNL     1      -4.235  19.900  16.155  1.00  0.00     0.000 C 
BRANCH   4   5
ATOM      5  C   UNL     1      -5.238  20.986  15.737  1.00  0.00     0.000 C 
BRANCH   5   6
ATOM      6  C   UNL     1      -6.113  20.558  14.545  1.00  0.00     0.000 C 
BRANCH   6   7
ATOM      7  C   UNL     1      -7.542  21.115  14.639  1.00  0.00     0.000 C 
BRANCH   7   8
ATOM      8  C   UNL     1      -8.453  20.253  15.533  1.00  0.00     0.000 C 
BRANCH   8   9
ATOM      9  C   UNL     1      -9.018  21.033  16.731  1.00  0.00     0.000 C 
BRANCH   9  10
ATOM     10  C   UNL     1      -8.058  22.133  17.221  1.00  0.00     0.000 C 
BRANCH  10  11
ATOM     11  C   UNL     1      -8.784  23.266  17.978  1.00  0.00     0.000 C 
BRANCH  11  12
ATOM     12  C   UNL     1      -9.096  22.931  19.450  1.00  0.00     0.006 C 
BRANCH  12  13
ATOM     13  C   UNL     1      -8.418  21.653  19.970  1.00  0.00     0.053 C 
BRANCH  13  14
ATOM     14  C   UNL     1      -8.411  21.577  21.467  1.00  0.00     0.041 C 
ATOM     15  O   UNL     1      -8.363  20.460  22.047  1.00  0.00    -0.550 OA
ATOM     16  O   UNL     1      -8.432  22.743  22.222  1.00  0.00    -0.550 OA
ENDBRANCH  13  14
ENDBRANCH  12  13
ENDBRANCH  11  12
ENDBRANCH  10  11
ENDBRANCH   9  10
ENDBRANCH   8   9
ENDBRANCH   7   8
ENDBRANCH   6   7
ENDBRANCH   5   6
ENDBRANCH   4   5
ENDBRANCH   3   4
ENDBRANCH   2   3
ENDBRANCH   1   2
BRANCH   1  17
ATOM     17  C   UNL     1       0.127  20.474  16.212  1.00  0.00     0.000 C 
BRANCH  17  18
ATOM     18  C   UNL     1       1.642  20.560  15.932  1.00  0.00     0.000 C 
BRANCH  18  19
ATOM     19  C   UNL     1       2.482  21.173  17.066  1.00  0.00     0.000 C 
BRANCH  19  20
ATOM     20  C   UNL     1       3.992  21.091  16.794  1.00  0.00     0.000 C 
BRANCH  20  21
ATOM     21  C   UNL     1       4.263  20.550  15.383  1.00  0.00     0.000 C 
BRANCH  21  22
ATOM     22  C   UNL     1       5.656  19.908  15.242  1.00  0.00    -0.000 C 
BRANCH  22  23
ATOM     23  C   UNL     1       6.839  20.893  15.302  1.00  0.00    -0.000 C 
BRANCH  23  24
ATOM     24  C   UNL     1       8.128  20.246  15.828  1.00  0.00    -0.000 C 
BRANCH  24  25
ATOM     25  C   UNL     1       9.081  19.886  14.683  1.00  0.00    -0.000 C 
BRANCH  25  26
ATOM     26  C   UNL     1       9.704  21.133  14.016  1.00  0.00    -0.000 C 
BRANCH  26  27
ATOM     27  C   UNL     1       9.554  21.158  12.484  1.00  0.00    -0.000 C 
BRANCH  27  28
ATOM     28  C   UNL     1       8.634  20.068  11.902  1.00  0.00    -0.000 C 
BRANCH  28  29
ATOM     29  C   UNL     1       8.551  20.080  10.360  1.00  0.00    -0.003 C 
ATOM     30  C   UNL     1       9.922  20.059   9.681  1.00  0.00     0.004 C 
ENDBRANCH  28  29
ENDBRANCH  27  28
ENDBRANCH  26  27
ENDBRANCH  25  26
ENDBRANCH  24  25
ENDBRANCH  23  24
ENDBRANCH  22  23
ENDBRANCH  21  22
ENDBRANCH  20  21
ENDBRANCH  19  20
ENDBRANCH  18  19
ENDBRANCH  17  18
ENDBRANCH   1  17
TORSDOF 26
ENDMDL
MODEL 4
REMARK VINA RESULT:    -2.172      5.578     15.697
REMARK INTER + INTRA:          -6.852
REMARK INTER:                  -5.073
REMARK INTRA:                  -1.779
REMARK UNBOUND:                -1.379
REMARK SMILES CCCCCCCCCCCCCCCCCCCCCCCCCCCC(=O)[O-]
REMARK SMILES IDX 15 1 16 2 17 3 18 4 19 5 20 6 21 7 22 8 23 9 24 10 25 11
REMARK SMILES IDX 26 12 27 13 28 14 29 15 30 16 14 17 13 18 12 19 11 20 10 21
REMARK SMILES IDX 9 22 8 23 7 24 6 25 5 26 4 27 3 28 2 29 1 30
REMARK H PARENT
REMARK Flexibility Score: inf
ROOT
ATOM      1  C   UNL     1       2.137  21.404  17.220  1.00  0.00     0.000 C 
ENDROOT
BRANCH   1   2
ATOM      2  C   UNL     1       3.667  21.269  17.057  1.00  0.00     0.000 C 
BRANCH   2   3
ATOM      3  C   UNL     1       4.123  19.959  16.393  1.00  0.00     0.000 C 
BRANCH   3   4
ATOM      4  C   UNL     1       5.645  19.875  16.201  1.00  0.00     0.000 C 
BRANCH   4   5
ATOM      5  C   UNL     1       6.293  21.254  16.008  1.00  0.00     0.000 C 
BRANCH   5   6
ATOM      6  C   UNL     1       7.232  21.303  14.789  1.00  0.00     0.000 C 
BRANCH   6   7
ATOM      7  C   UNL     1       8.616  20.710  15.094  1.00  0.00     0.000 C 
BRANCH   7   8
ATOM      8  C   UNL     1       9.716  21.786  15.159  1.00  0.00     0.000 C 
BRANCH   8   9
ATOM      9  C   UNL     1      10.901  21.480  14.229  1.00  0.00     0.000 C 
BRANCH   9  10
ATOM     10  C   UNL     1      10.854  20.044  13.672  1.00  0.00     0.000 C 
BRANCH  10  11
ATOM     11  C   UNL     1      10.903  19.999  12.130  1.00  0.00     0.000 C 
BRANCH  11  12
ATOM     12  C   UNL     1      10.096  21.122  11.449  1.00  0.00     0.006 C 
BRANCH  12  13
ATOM     13  C   UNL     1      10.510  21.412   9.997  1.00  0.00     0.053 C 
BRANCH  13  14
ATOM     14  C   UNL     1       9.775  20.556   9.010  1.00  0.00     0.041 C 
ATOM     15  O   UNL     1       8.664  20.045   9.316  1.00  0.00    -0.550 OA
ATOM     16  O   UNL     1      10.303  20.345   7.743  1.00  0.00    -0.550 OA
ENDBRANCH  13  14
ENDBRANCH  12  13
ENDBRANCH  11  12
ENDBRANCH  10  11
ENDBRANCH   9  10
ENDBRANCH   8   9
ENDBRANCH   7   8
ENDBRANCH   6   7
ENDBRANCH   5   6
ENDBRANCH   4   5
ENDBRANCH   3   4
ENDBRANCH   2   3
ENDBRANCH   1   2
BRANCH   1  17
ATOM     17  C   UNL     1       1.294  20.343  16.478  1.00  0.00     0.000 C 
BRANCH  17  18
ATOM     18  C   UNL     1      -0.059  20.825  15.916  1.00  0.00     0.000 C 
BRANCH  18  19
ATOM     19  C   UNL     1      -1.245  19.876  16.165  1.00  0.00     0.000 C 
BRANCH  19  20
ATOM     20  C   UNL     1      -2.534  20.624  16.536  1.00  0.00     0.000 C 
BRANCH  20  21
ATOM     21  C   UNL     1      -3.643  20.340  15.512  1.00  0.00     0.000 C 
BRANCH  21  22
ATOM     22  C   UNL     1      -5.023  20.859  15.960  1.00  0.00    -0.000 C 
BRANCH  22  23
ATOM     23  C   UNL     1      -5.934  21.357  14.824  1.00  0.00    -0.000 C 
BRANCH  23  24
ATOM     24  C   UNL     1      -7.150  20.449  14.592  1.00  0.00    -0.000 C 
BRANCH  24  25
ATOM     25  C   UNL     1      -7.758  19.978  15.918  1.00  0.00    -0.000 C 
BRANCH  25  26
ATOM     26  C   UNL     1      -8.359  21.140  16.740  1.00  0.00    -0.000 C 
BRANCH  26  27
ATOM     27  C   UNL     1      -8.369  20.886  18.259  1.00  0.00    -0.000 C 
BRANCH  27  28
ATOM     28  C   UNL     1      -7.102  21.343  19.003  1.00  0.00    -0.000 C 
BRANCH  28  29
ATOM     29  C   UNL     1      -6.490  20.260  19.919  1.00  0.00    -0.003 C 
ATOM     30  C   UNL     1      -5.017  19.976  19.618  1.00  0.00     0.004 C 
ENDBRANCH  28  29
ENDBRANCH  27  28
ENDBRANCH  26  27
ENDBRANCH  25  26
ENDBRANCH  24  25
ENDBRANCH  23  24
ENDBRANCH  22  23
ENDBRANCH  21  22
ENDBRANCH  20  21
ENDBRANCH  19  20
ENDBRANCH  18  19
ENDBRANCH  17  18
ENDBRANCH   1  17
TORSDOF 26
ENDMDL
MODEL 5
REMARK VINA RESULT:    -1.836      1.246      2.404
REMARK INTER + INTRA:          -6.007
REMARK INTER:                  -5.207
REMARK INTRA:                  -0.799
REMARK UNBOUND:                -1.379
REMARK SMILES CCCCCCCCCCCCCCCCCCCCCCCCCCCC(=O)[O-]
REMARK SMILES IDX 15 1 16 2 17 3 18 4 19 5 20 6 21 7 22 8 23 9 24 10 25 11
REMARK SMILES IDX 26 12 27 13 28 14 29 15 30 16 14 17 13 18 12 19 11 20 10 21
REMARK SMILES IDX 9 22 8 23 7 24 6 25 5 26 4 27 3 28 2 29 1 30
REMARK H PARENT
REMARK Flexibility Score: inf
ROOT
ATOM      1  C   UNL     1       2.563  21.226  16.725  1.00  0.00     0.000 C 
ENDROOT
BRANCH   1   2
ATOM      2  C   UNL     1       1.853  19.985  16.138  1.00  0.00     0.000 C 
BRANCH   2   3
ATOM      3  C   UNL     1       0.351  19.902  16.459  1.00  0.00     0.000 C 
BRANCH   3   4
ATOM      4  C   UNL     1      -0.333  21.276  16.515  1.00  0.00     0.000 C 
BRANCH   4   5
ATOM      5  C   UNL     1      -1.569  21.358  15.607  1.00  0.00     0.000 C 
BRANCH   5   6
ATOM      6  C   UNL     1      -2.826  20.755  16.260  1.00  0.00     0.000 C 
BRANCH   6   7
ATOM      7  C   UNL     1      -3.956  20.522  15.247  1.00  0.00     0.000 C 
BRANCH   7   8
ATOM      8  C   UNL     1      -5.319  20.289  15.927  1.00  0.00     0.000 C 
BRANCH   8   9
ATOM      9  C   UNL     1      -6.451  21.105  15.282  1.00  0.00     0.000 C 
BRANCH   9  10
ATOM     10  C   UNL     1      -7.782  20.331  15.240  1.00  0.00     0.000 C 
BRANCH  10  11
ATOM     11  C   UNL     1      -8.766  20.774  16.344  1.00  0.00     0.000 C 
BRANCH  11  12
ATOM     12  C   UNL     1      -8.222  21.899  17.247  1.00  0.00     0.006 C 
BRANCH  12  13
ATOM     13  C   UNL     1      -8.967  22.059  18.583  1.00  0.00     0.053 C 
BRANCH  13  14
ATOM     14  C   UNL     1      -8.156  21.580  19.750  1.00  0.00     0.041 C 
ATOM     15  O   UNL     1      -8.723  21.248  20.825  1.00  0.00    -0.550 OA
ATOM     16  O   UNL     1      -6.775  21.476  19.640  1.00  0.00    -0.550 OA
ENDBRANCH  13  14
ENDBRANCH  12  13
ENDBRANCH  11  12
ENDBRANCH  10  11
ENDBRANCH   9  10
ENDBRANCH   8   9
ENDBRANCH   7   8
ENDBRANCH   6   7
ENDBRANCH   5   6
ENDBRANCH   4   5
ENDBRANCH   3   4
ENDBRANCH   2   3
ENDBRANCH   1   2
BRANCH   1  17
ATOM     17  C   UNL     1       4.079  21.066  16.978  1.00  0.00     0.000 C 
BRANCH  17  18
ATOM     18  C   UNL     1       4.766  19.892  16.250  1.00  0.00     0.000 C 
BRANCH  18  19
ATOM     19  C   UNL     1       5.152  20.167  14.786  1.00  0.00     0.000 C 
BRANCH  19  20
ATOM     20  C   UNL     1       6.642  19.917  14.510  1.00  0.00     0.000 C 
BRANCH  20  21
ATOM     21  C   UNL     1       7.504  21.032  15.120  1.00  0.00     0.000 C 
BRANCH  21  22
ATOM     22  C   UNL     1       8.949  21.036  14.585  1.00  0.00    -0.000 C 
BRANCH  22  23
ATOM     23  C   UNL     1       9.244  19.994  13.491  1.00  0.00    -0.000 C 
BRANCH  23  24
ATOM     24  C   UNL     1       8.609  20.351  12.140  1.00  0.00    -0.000 C 
BRANCH  24  25
ATOM     25  C   UNL     1       9.604  20.165  10.988  1.00  0.00    -0.000 C 
BRANCH  25  26
ATOM     26  C   UNL     1      10.198  21.504  10.497  1.00  0.00    -0.000 C 
BRANCH  26  27
ATOM     27  C   UNL     1      10.884  22.323  11.606  1.00  0.00    -0.000 C 
BRANCH  27  28
ATOM     28  C   UNL     1      10.397  23.778  11.738  1.00  0.00    -0.000 C 
BRANCH  28  29
ATOM     29  C   UNL     1      11.124  24.766  10.800  1.00  0.00    -0.003 C 
ATOM     30  C   UNL     1      10.771  24.570   9.324  1.00  0.00     0.004 C 
ENDBRANCH  28  29
ENDBRANCH  27  28
ENDBRANCH  26  27
ENDBRANCH  25  26
ENDBRANCH  24  25
ENDBRANCH  23  24
ENDBRANCH  22  23
ENDBRANCH  21  22
ENDBRANCH  20  21
ENDBRANCH  19  20
ENDBRANCH  18  19
ENDBRANCH  17  18
ENDBRANCH   1  17
TORSDOF 26
ENDMDL
MODEL 6
REMARK VINA RESULT:    -1.739      1.410      2.149
REMARK INTER + INTRA:          -5.762
REMARK INTER:                  -3.962
REMARK INTRA:                  -1.800
REMARK UNBOUND:                -1.379
REMARK SMILES CCCCCCCCCCCCCCCCCCCCCCCCCCCC(=O)[O-]
REMARK SMILES IDX 15 1 16 2 17 3 18 4 19 5 20 6 21 7 22 8 23 9 24 10 25 11
REMARK SMILES IDX 26 12 27 13 28 14 29 15 30 16 14 17 13 18 12 19 11 20 10 21
REMARK SMILES IDX 9 22 8 23 7 24 6 25 5 26 4 27 3 28 2 29 1 30
REMARK H PARENT
REMARK Flexibility Score: inf
ROOT
ATOM      1  C   UNL     1       1.045  21.048  16.010  1.00  0.00     0.000 C 
ENDROOT
BRANCH   1   2
ATOM      2  C   UNL     1       0.024  19.892  15.938  1.00  0.00     0.000 C 
BRANCH   2   3
ATOM      3  C   UNL     1      -1.150  20.018  16.924  1.00  0.00     0.000 C 
BRANCH   3   4
ATOM      4  C   UNL     1      -1.969  21.304  16.727  1.00  0.00     0.000 C 
BRANCH   4   5
ATOM      5  C   UNL     1      -3.077  21.143  15.675  1.00  0.00     0.000 C 
BRANCH   5   6
ATOM      6  C   UNL     1      -4.009  19.954  15.973  1.00  0.00     0.000 C 
BRANCH   6   7
ATOM      7  C   UNL     1      -4.491  19.941  17.431  1.00  0.00     0.000 C 
BRANCH   7   8
ATOM      8  C   UNL     1      -6.026  19.877  17.544  1.00  0.00     0.000 C 
BRANCH   8   9
ATOM      9  C   UNL     1      -6.735  20.436  16.300  1.00  0.00     0.000 C 
BRANCH   9  10
ATOM     10  C   UNL     1      -7.493  21.745  16.594  1.00  0.00     0.000 C 
BRANCH  10  11
ATOM     11  C   UNL     1      -8.814  21.512  17.357  1.00  0.00     0.000 C 
BRANCH  11  12
ATOM     12  C   UNL     1      -9.005  22.441  18.573  1.00  0.00     0.006 C 
BRANCH  12  13
ATOM     13  C   UNL     1      -8.111  22.105  19.777  1.00  0.00     0.053 C 
BRANCH  13  14
ATOM     14  C   UNL     1      -8.293  23.068  20.911  1.00  0.00     0.041 C 
ATOM     15  O   UNL     1      -8.823  22.688  21.990  1.00  0.00    -0.550 OA
ATOM     16  O   UNL     1      -7.852  24.380  20.787  1.00  0.00    -0.550 OA
ENDBRANCH  13  14
ENDBRANCH  12  13
ENDBRANCH  11  12
ENDBRANCH  10  11
ENDBRANCH   9  10
ENDBRANCH   8   9
ENDBRANCH   7   8
ENDBRANCH   6   7
ENDBRANCH   5   6
ENDBRANCH   4   5
ENDBRANCH   3   4
ENDBRANCH   2   3
ENDBRANCH   1   2
BRANCH   1  17
ATOM     17  C   UNL     1       1.895  21.105  17.300  1.00  0.00     0.000 C 
BRANCH  17  18
ATOM     18  C   UNL     1       3.409  20.864  17.124  1.00  0.00     0.000 C 
BRANCH  18  19
ATOM     19  C   UNL     1       3.817  20.222  15.786  1.00  0.00     0.000 C 
BRANCH  19  20
ATOM     20  C   UNL     1       5.312  19.877  15.728  1.00  0.00     0.000 C 
BRANCH  20  21
ATOM     21  C   UNL     1       6.093  20.964  14.975  1.00  0.00     0.000 C 
BRANCH  21  22
ATOM     22  C   UNL     1       7.532  21.141  15.496  1.00  0.00    -0.000 C 
BRANCH  22  23
ATOM     23  C   UNL     1       7.646  21.714  16.921  1.00  0.00    -0.000 C 
BRANCH  23  24
ATOM     24  C   UNL     1       9.058  21.582  17.507  1.00  0.00    -0.000 C 
BRANCH  24  25
ATOM     25  C   UNL     1       9.693  22.955  17.754  1.00  0.00    -0.000 C 
BRANCH  25  26
ATOM     26  C   UNL     1      11.059  23.112  17.049  1.00  0.00    -0.000 C 
BRANCH  26  27
ATOM     27  C   UNL     1      11.125  22.435  15.667  1.00  0.00    -0.000 C 
BRANCH  27  28
ATOM     28  C   UNL     1      11.110  23.401  14.468  1.00  0.00    -0.000 C 
BRANCH  28  29
ATOM     29  C   UNL     1      10.609  22.758  13.156  1.00  0.00    -0.003 C 
ATOM     30  C   UNL     1      10.558  23.740  11.984  1.00  0.00     0.004 C 
ENDBRANCH  28  29
ENDBRANCH  27  28
ENDBRANCH  26  27
ENDBRANCH  25  26
ENDBRANCH  24  25
ENDBRANCH  23  24
ENDBRANCH  22  23
ENDBRANCH  21  22
ENDBRANCH  20  21
ENDBRANCH  19  20
ENDBRANCH  18  19
ENDBRANCH  17  18
ENDBRANCH   1  17
TORSDOF 26
ENDMDL
MODEL 7
REMARK VINA RESULT:    -1.309      1.507      2.771
REMARK INTER + INTRA:          -4.677
REMARK INTER:                  -3.578
REMARK INTRA:                  -1.099
REMARK UNBOUND:                -1.379
REMARK SMILES CCCCCCCCCCCCCCCCCCCCCCCCCCCC(=O)[O-]
REMARK SMILES IDX 15 1 16 2 17 3 18 4 19 5 20 6 21 7 22 8 23 9 24 10 25 11
REMARK SMILES IDX 26 12 27 13 28 14 29 15 30 16 14 17 13 18 12 19 11 20 10 21
REMARK SMILES IDX 9 22 8 23 7 24 6 25 5 26 4 27 3 28 2 29 1 30
REMARK H PARENT
REMARK Flexibility Score: inf
ROOT
ATOM      1  C   UNL     1      -1.907  21.152  17.529  1.00  0.00     0.000 C 
ENDROOT
BRANCH   1   2
ATOM      2  C   UNL     1      -2.702  19.875  17.885  1.00  0.00     0.000 C 
BRANCH   2   3
ATOM      3  C   UNL     1      -4.223  20.002  17.701  1.00  0.00     0.000 C 
BRANCH   3   4
ATOM      4  C   UNL     1      -4.968  20.306  19.010  1.00  0.00     0.000 C 
BRANCH   4   5
ATOM      5  C   UNL     1      -6.460  19.948  18.937  1.00  0.00     0.000 C 
BRANCH   5   6
ATOM      6  C   UNL     1      -6.986  19.889  17.492  1.00  0.00     0.000 C 
BRANCH   6   7
ATOM      7  C   UNL     1      -6.463  21.049  16.632  1.00  0.00     0.000 C 
BRANCH   7   8
ATOM      8  C   UNL     1      -7.599  21.931  16.079  1.00  0.00     0.000 C 
BRANCH   8   9
ATOM      9  C   UNL     1      -8.876  21.855  16.930  1.00  0.00     0.000 C 
BRANCH   9  10
ATOM     10  C   UNL     1      -9.021  23.060  17.880  1.00  0.00     0.000 C 
BRANCH  10  11
ATOM     11  C   UNL     1      -9.124  22.642  19.362  1.00  0.00     0.000 C 
BRANCH  11  12
ATOM     12  C   UNL     1      -7.887  23.018  20.203  1.00  0.00     0.006 C 
BRANCH  12  13
ATOM     13  C   UNL     1      -8.156  23.143  21.711  1.00  0.00     0.053 C 
BRANCH  13  14
ATOM     14  C   UNL     1      -7.714  21.931  22.474  1.00  0.00     0.041 C 
ATOM     15  O   UNL     1      -6.933  22.047  23.456  1.00  0.00    -0.550 OA
ATOM     16  O   UNL     1      -8.187  20.675  22.117  1.00  0.00    -0.550 OA
ENDBRANCH  13  14
ENDBRANCH  12  13
ENDBRANCH  11  12
ENDBRANCH  10  11
ENDBRANCH   9  10
ENDBRANCH   8   9
ENDBRANCH   7   8
ENDBRANCH   6   7
ENDBRANCH   5   6
ENDBRANCH   4   5
ENDBRANCH   3   4
ENDBRANCH   2   3
ENDBRANCH   1   2
BRANCH   1  17
ATOM     17  C   UNL     1      -1.597  21.344  16.028  1.00  0.00     0.000 C 
BRANCH  17  18
ATOM     18  C   UNL     1      -0.402  20.538  15.476  1.00  0.00     0.000 C 
BRANCH  18  19
ATOM     19  C   UNL     1       0.985  21.130  15.787  1.00  0.00     0.000 C 
BRANCH  19  20
ATOM     20  C   UNL     1       1.745  20.325  16.851  1.00  0.00     0.000 C 
BRANCH  20  21
ATOM     21  C   UNL     1       3.234  20.701  16.857  1.00  0.00     0.000 C 
BRANCH  21  22
ATOM     22  C   UNL     1       4.048  19.952  15.785  1.00  0.00    -0.000 C 
BRANCH  22  23
ATOM     23  C   UNL     1       5.010  20.829  14.962  1.00  0.00    -0.000 C 
BRANCH  23  24
ATOM     24  C   UNL     1       6.046  20.008  14.182  1.00  0.00    -0.000 C 
BRANCH  24  25
ATOM     25  C   UNL     1       7.388  19.952  14.922  1.00  0.00    -0.000 C 
BRANCH  25  26
ATOM     26  C   UNL     1       8.187  21.268  14.802  1.00  0.00    -0.000 C 
BRANCH  26  27
ATOM     27  C   UNL     1       9.129  21.313  13.584  1.00  0.00    -0.000 C 
BRANCH  27  28
ATOM     28  C   UNL     1       9.421  19.947  12.936  1.00  0.00    -0.000 C 
BRANCH  28  29
ATOM     29  C   UNL     1      10.362  20.024  11.714  1.00  0.00    -0.003 C 
ATOM     30  C   UNL     1      11.029  21.391  11.551  1.00  0.00     0.004 C 
ENDBRANCH  28  29
ENDBRANCH  27  28
ENDBRANCH  26  27
ENDBRANCH  25  26
ENDBRANCH  24  25
ENDBRANCH  23  24
ENDBRANCH  22  23
ENDBRANCH  21  22
ENDBRANCH  20  21
ENDBRANCH  19  20
ENDBRANCH  18  19
ENDBRANCH  17  18
ENDBRANCH   1  17
TORSDOF 26
ENDMDL
