MODEL 1
REMARK VINA RESULT:    -3.555      0.000      0.000
REMARK INTER + INTRA:          -4.589
REMARK INTER:                  -5.009
REMARK INTRA:                   0.420
REMARK UNBOUND:                 0.420
REMARK SMILES CC1=CCC(=C(C)C)C(=O)CC(C)=CCC1
REMARK SMILES IDX 12 1 14 2 13 3 15 4 16 5 2 6 1 7 3 8 11 10 9 11 10 12 5 13
REMARK SMILES IDX 6 14 7 15 8 16 4 17
REMARK H PARENT
REMARK Flexibility Score: 60.00
ROOT
ATOM      1  C   UNL     1       2.456   0.607  54.439  1.00  0.00    -0.070 C 
ATOM      2  C   UNL     1       2.652  -0.323  53.474  1.00  0.00    -0.027 C 
ATOM      3  C   UNL     1       2.274   2.038  53.999  1.00  0.00     0.039 C 
ENDROOT
BRANCH   2   4
ATOM      4  C   UNL     1       2.751  -1.815  53.678  1.00  0.00     0.032 C 
BRANCH   4   5
ATOM      5  C   UNL     1       1.378  -2.511  53.636  1.00  0.00     0.034 C 
BRANCH   5   6
ATOM      6  C   UNL     1       1.183  -3.464  54.799  1.00  0.00    -0.077 C 
ATOM      7  C   UNL     1       1.884  -4.798  54.757  1.00  0.00     0.039 C 
ATOM      8  C   UNL     1       0.395  -3.196  55.865  1.00  0.00    -0.023 CG0
ATOM      9  G   UNL     1      -0.411  -1.936  56.071  1.00  0.00     0.000 G0
ENDBRANCH   5   6
ENDBRANCH   4   5
ENDBRANCH   2   4
BRANCH   1  10
ATOM     10  C   UNL     1       2.344   0.278  55.919  1.00  0.00     0.111 C 
BRANCH  10  11
ATOM     11  C   UNL     1       0.905   0.242  56.372  1.00  0.00     0.163 C 
ATOM     12  O   UNL     1       0.220   1.293  56.256  1.00  0.00    -0.294 OA
BRANCH  11  13
ATOM     13  C   UNL     1       0.302  -0.978  56.994  1.00  0.00    -0.002 C 
ATOM     14  C   UNL     1       0.345  -1.193  58.344  1.00  0.00    -0.069 C 
ATOM     15  C   UNL     1       0.939  -0.174  59.290  1.00  0.00     0.039 C 
ATOM     16  C   UNL     1      -0.235  -2.448  58.960  1.00  0.00     0.039 C 
BRANCH  13  17
ATOM     17  C   UNL     1      -0.429  -1.935  56.069  1.00  0.00     0.066 CG0
ATOM     18  G   UNL     1       0.405  -3.175  55.852  1.00  0.00     0.000 G0
ENDBRANCH  13  17
ENDBRANCH  11  13
ENDBRANCH  10  11
ENDBRANCH   1  10
TORSDOF 0
ENDMDL
MODEL 2
REMARK VINA RESULT:    -3.507      8.943     10.487
REMARK INTER + INTRA:          -4.523
REMARK INTER:                  -5.077
REMARK INTRA:                   0.554
REMARK UNBOUND:                 0.420
REMARK SMILES CC1=CCC(=C(C)C)C(=O)CC(C)=CCC1
REMARK SMILES IDX 12 1 14 2 13 3 15 4 16 5 2 6 1 7 3 8 11 10 9 11 10 12 5 13
REMARK SMILES IDX 6 14 7 15 8 16 4 17
REMARK H PARENT
REMARK Flexibility Score: 60.00
ROOT
ATOM      1  C   UNL     1      -7.401   6.039  58.305  1.00  0.00    -0.070 C 
ATOM      2  C   UNL     1      -6.396   5.516  59.047  1.00  0.00    -0.027 C 
ATOM      3  C   UNL     1      -8.657   6.454  59.031  1.00  0.00     0.039 C 
ENDROOT
BRANCH   2   4
ATOM      4  C   UNL     1      -5.023   5.135  58.548  1.00  0.00     0.032 C 
BRANCH   4   5
ATOM      5  C   UNL     1      -4.736   3.629  58.696  1.00  0.00     0.034 C 
BRANCH   5   6
ATOM      6  C   UNL     1      -5.908   2.777  58.246  1.00  0.00    -0.077 C 
ATOM      7  C   UNL     1      -6.593   1.905  59.267  1.00  0.00     0.039 C 
ATOM      8  C   UNL     1      -6.359   2.735  56.972  1.00  0.00    -0.023 CG0
ATOM      9  G   UNL     1      -5.785   3.505  55.807  1.00  0.00     0.000 G0
ENDBRANCH   5   6
ENDBRANCH   4   5
ENDBRANCH   2   4
BRANCH   1  10
ATOM     10  C   UNL     1      -7.306   6.288  56.809  1.00  0.00     0.111 C 
BRANCH  10  11
ATOM     11  C   UNL     1      -7.812   5.108  56.017  1.00  0.00     0.163 C 
ATOM     12  O   UNL     1      -9.017   4.769  56.161  1.00  0.00    -0.294 OA
BRANCH  11  13
ATOM     13  C   UNL     1      -6.915   4.314  55.119  1.00  0.00    -0.002 C 
ATOM     14  C   UNL     1      -7.038   4.360  53.758  1.00  0.00    -0.069 C 
ATOM     15  C   UNL     1      -8.037   5.272  53.083  1.00  0.00     0.039 C 
ATOM     16  C   UNL     1      -6.152   3.525  52.859  1.00  0.00     0.039 C 
BRANCH  13  17
ATOM     17  C   UNL     1      -5.810   3.511  55.782  1.00  0.00     0.066 CG0
ATOM     18  G   UNL     1      -6.370   2.742  56.955  1.00  0.00     0.000 G0
ENDBRANCH  13  17
ENDBRANCH  11  13
ENDBRANCH  10  11
ENDBRANCH   1  10
TORSDOF 0
ENDMDL
MODEL 3
REMARK VINA RESULT:    -3.485      2.121      3.707
REMARK INTER + INTRA:          -4.492
REMARK INTER:                  -4.863
REMARK INTRA:                   0.372
REMARK UNBOUND:                 0.420
REMARK SMILES CC1=CCC(=C(C)C)C(=O)CC(C)=CCC1
REMARK SMILES IDX 12 1 14 2 13 3 15 4 16 5 2 6 1 7 3 8 11 10 9 11 10 12 5 13
REMARK SMILES IDX 6 14 7 15 8 16 4 17
REMARK H PARENT
REMARK Flexibility Score: 60.00
ROOT
ATOM      1  C   UNL     1       3.278  -2.846  55.200  1.00  0.00    -0.070 C 
ATOM      2  C   UNL     1       2.966  -2.489  53.931  1.00  0.00    -0.027 C 
ATOM      3  C   UNL     1       3.475  -4.315  55.481  1.00  0.00     0.039 C 
ENDROOT
BRANCH   2   4
ATOM      4  C   UNL     1       2.830  -1.080  53.407  1.00  0.00     0.032 C 
BRANCH   4   5
ATOM      5  C   UNL     1       1.491  -0.429  53.800  1.00  0.00     0.034 C 
BRANCH   5   6
ATOM      6  C   UNL     1       1.687   0.869  54.559  1.00  0.00    -0.077 C 
ATOM      7  C   UNL     1       2.347   2.022  53.846  1.00  0.00     0.039 C 
ATOM      8  C   UNL     1       1.325   1.045  55.850  1.00  0.00    -0.023 CG0
ATOM      9  G   UNL     1       0.686   0.004  56.737  1.00  0.00     0.000 G0
ENDBRANCH   5   6
ENDBRANCH   4   5
ENDBRANCH   2   4
BRANCH   1  10
ATOM     10  C   UNL     1       3.502  -1.850  56.326  1.00  0.00     0.111 C 
BRANCH  10  11
ATOM     11  C   UNL     1       2.349  -1.844  57.299  1.00  0.00     0.163 C 
ATOM     12  O   UNL     1       1.929  -2.952  57.728  1.00  0.00    -0.294 OA
BRANCH  11  13
ATOM     13  C   UNL     1       1.673  -0.576  57.717  1.00  0.00    -0.002 C 
ATOM     14  C   UNL     1       1.998   0.062  58.883  1.00  0.00    -0.069 C 
ATOM     15  C   UNL     1       3.110  -0.440  59.777  1.00  0.00     0.039 C 
ATOM     16  C   UNL     1       1.284   1.323  59.317  1.00  0.00     0.039 C 
BRANCH  13  17
ATOM     17  C   UNL     1       0.661   0.017  56.754  1.00  0.00     0.066 CG0
ATOM     18  G   UNL     1       1.334   1.036  55.866  1.00  0.00     0.000 G0
ENDBRANCH  13  17
ENDBRANCH  11  13
ENDBRANCH  10  11
ENDBRANCH   1  10
TORSDOF 0
ENDMDL
MODEL 4
REMARK VINA RESULT:    -3.389      2.448      4.143
REMARK INTER + INTRA:          -4.356
REMARK INTER:                  -4.920
REMARK INTRA:                   0.564
REMARK UNBOUND:                 0.420
REMARK SMILES CC1=CCC(=C(C)C)C(=O)CC(C)=CCC1
REMARK SMILES IDX 12 1 14 2 13 3 15 4 16 5 2 6 1 7 3 8 11 10 9 11 10 12 5 13
REMARK SMILES IDX 6 14 7 15 8 16 4 17
REMARK H PARENT
REMARK Flexibility Score: 60.00
ROOT
ATOM      1  C   UNL     1       2.735  -1.133  54.668  1.00  0.00    -0.070 C 
ATOM      2  C   UNL     1       3.666  -1.963  55.195  1.00  0.00    -0.027 C 
ATOM      3  C   UNL     1       2.617   0.248  55.266  1.00  0.00     0.039 C 
ENDROOT
BRANCH   2   4
ATOM      4  C   UNL     1       4.025  -3.339  54.688  1.00  0.00     0.032 C 
BRANCH   4   5
ATOM      5  C   UNL     1       3.897  -4.423  55.774  1.00  0.00     0.034 C 
BRANCH   5   6
ATOM      6  C   UNL     1       2.486  -4.520  56.322  1.00  0.00    -0.077 C 
ATOM      7  C   UNL     1       2.294  -4.478  57.816  1.00  0.00     0.039 C 
ATOM      8  C   UNL     1       1.389  -4.667  55.546  1.00  0.00    -0.023 CG0
ATOM      9  G   UNL     1       1.380  -4.764  54.039  1.00  0.00     0.000 G0
ENDBRANCH   5   6
ENDBRANCH   4   5
ENDBRANCH   2   4
BRANCH   1  10
ATOM     10  C   UNL     1       1.860  -1.490  53.479  1.00  0.00     0.111 C 
BRANCH  10  11
ATOM     11  C   UNL     1       0.653  -2.293  53.899  1.00  0.00     0.163 C 
ATOM     12  O   UNL     1      -0.166  -1.760  54.694  1.00  0.00    -0.294 OA
BRANCH  11  13
ATOM     13  C   UNL     1       0.441  -3.702  53.440  1.00  0.00    -0.002 C 
ATOM     14  C   UNL     1      -0.489  -4.015  52.488  1.00  0.00    -0.069 C 
ATOM     15  C   UNL     1      -1.302  -2.946  51.793  1.00  0.00     0.039 C 
ATOM     16  C   UNL     1      -0.724  -5.447  52.057  1.00  0.00     0.039 C 
BRANCH  13  17
ATOM     17  C   UNL     1       1.356  -4.763  54.024  1.00  0.00     0.066 CG0
ATOM     18  G   UNL     1       1.372  -4.654  55.530  1.00  0.00     0.000 G0
ENDBRANCH  13  17
ENDBRANCH  11  13
ENDBRANCH  10  11
ENDBRANCH   1  10
TORSDOF 0
ENDMDL
MODEL 5
REMARK VINA RESULT:    -3.262      8.696      9.989
REMARK INTER + INTRA:          -4.177
REMARK INTER:                  -4.773
REMARK INTRA:                   0.596
REMARK UNBOUND:                 0.420
REMARK SMILES CC1=CCC(=C(C)C)C(=O)CC(C)=CCC1
REMARK SMILES IDX 12 1 14 2 13 3 15 4 16 5 2 6 1 7 3 8 11 10 9 11 10 12 5 13
REMARK SMILES IDX 6 14 7 15 8 16 4 17
REMARK H PARENT
REMARK Flexibility Score: 60.00
ROOT
ATOM      1  C   UNL     1      -6.707   4.157  54.049  1.00  0.00    -0.070 C 
ATOM      2  C   UNL     1      -7.577   5.131  54.410  1.00  0.00    -0.027 C 
ATOM      3  C   UNL     1      -6.991   3.411  52.769  1.00  0.00     0.039 C 
ENDROOT
BRANCH   2   4
ATOM      4  C   UNL     1      -7.432   6.066  55.586  1.00  0.00     0.032 C 
BRANCH   4   5
ATOM      5  C   UNL     1      -8.600   5.949  56.583  1.00  0.00     0.034 C 
BRANCH   5   6
ATOM      6  C   UNL     1      -8.839   4.516  57.018  1.00  0.00    -0.077 C 
ATOM      7  C   UNL     1     -10.193   3.906  56.763  1.00  0.00     0.039 C 
ATOM      8  C   UNL     1      -7.911   3.759  57.648  1.00  0.00    -0.023 CG0
ATOM      9  G   UNL     1      -6.516   4.201  58.020  1.00  0.00     0.000 G0
ENDBRANCH   5   6
ENDBRANCH   4   5
ENDBRANCH   2   4
BRANCH   1  10
ATOM     10  C   UNL     1      -5.441   3.825  54.823  1.00  0.00     0.111 C 
BRANCH  10  11
ATOM     11  C   UNL     1      -5.722   2.888  55.971  1.00  0.00     0.163 C 
ATOM     12  O   UNL     1      -6.217   1.759  55.709  1.00  0.00    -0.294 OA
BRANCH  11  13
ATOM     13  C   UNL     1      -5.479   3.284  57.394  1.00  0.00    -0.002 C 
ATOM     14  C   UNL     1      -4.348   2.904  58.062  1.00  0.00    -0.069 C 
ATOM     15  C   UNL     1      -3.248   2.124  57.378  1.00  0.00     0.039 C 
ATOM     16  C   UNL     1      -4.127   3.276  59.512  1.00  0.00     0.039 C 
BRANCH  13  17
ATOM     17  C   UNL     1      -6.507   4.193  58.043  1.00  0.00     0.066 CG0
ATOM     18  G   UNL     1      -7.897   3.766  57.636  1.00  0.00     0.000 G0
ENDBRANCH  13  17
ENDBRANCH  11  13
ENDBRANCH  10  11
ENDBRANCH   1  10
TORSDOF 0
ENDMDL
MODEL 6
REMARK VINA RESULT:    -3.251     11.789     12.688
REMARK INTER + INTRA:          -4.161
REMARK INTER:                  -4.811
REMARK INTRA:                   0.649
REMARK UNBOUND:                 0.420
REMARK SMILES CC1=CCC(=C(C)C)C(=O)CC(C)=CCC1
REMARK SMILES IDX 12 1 14 2 13 3 15 4 16 5 2 6 1 7 3 8 11 10 9 11 10 12 5 13
REMARK SMILES IDX 6 14 7 15 8 16 4 17
REMARK H PARENT
REMARK Flexibility Score: 60.00
ROOT
ATOM      1  C   UNL     1      -7.072   4.460  53.378  1.00  0.00    -0.070 C 
ATOM      2  C   UNL     1      -7.580   4.624  52.133  1.00  0.00    -0.027 C 
ATOM      3  C   UNL     1      -6.134   3.300  53.599  1.00  0.00     0.039 C 
ENDROOT
BRANCH   2   4
ATOM      4  C   UNL     1      -8.447   5.768  51.666  1.00  0.00     0.032 C 
BRANCH   4   5
ATOM      5  C   UNL     1      -9.791   5.292  51.083  1.00  0.00     0.034 C 
BRANCH   5   6
ATOM      6  C   UNL     1     -10.563   4.425  52.058  1.00  0.00    -0.077 C 
ATOM      7  C   UNL     1     -11.059   3.082  51.585  1.00  0.00     0.039 C 
ATOM      8  C   UNL     1     -10.855   4.797  53.325  1.00  0.00    -0.023 CG0
ATOM      9  G   UNL     1     -10.477   6.110  53.968  1.00  0.00     0.000 G0
ENDBRANCH   5   6
ENDBRANCH   4   5
ENDBRANCH   2   4
BRANCH   1  10
ATOM     10  C   UNL     1      -7.342   5.411  54.533  1.00  0.00     0.111 C 
BRANCH  10  11
ATOM     11  C   UNL     1      -8.571   5.007  55.309  1.00  0.00     0.163 C 
ATOM     12  O   UNL     1      -8.550   3.907  55.924  1.00  0.00    -0.294 OA
BRANCH  11  13
ATOM     13  C   UNL     1      -9.810   5.846  55.321  1.00  0.00    -0.002 C 
ATOM     14  C   UNL     1     -10.282   6.414  56.472  1.00  0.00    -0.069 C 
ATOM     15  C   UNL     1      -9.537   6.287  57.782  1.00  0.00     0.039 C 
ATOM     16  C   UNL     1     -11.557   7.229  56.483  1.00  0.00     0.039 C 
BRANCH  13  17
ATOM     17  C   UNL     1     -10.483   6.103  53.985  1.00  0.00     0.066 CG0
ATOM     18  G   UNL     1     -10.849   4.790  53.335  1.00  0.00     0.000 G0
ENDBRANCH  13  17
ENDBRANCH  11  13
ENDBRANCH  10  11
ENDBRANCH   1  10
TORSDOF 0
ENDMDL
MODEL 7
REMARK VINA RESULT:    -3.222      2.346      5.040
REMARK INTER + INTRA:          -4.120
REMARK INTER:                  -4.771
REMARK INTRA:                   0.650
REMARK UNBOUND:                 0.420
REMARK SMILES CC1=CCC(=C(C)C)C(=O)CC(C)=CCC1
REMARK SMILES IDX 12 1 14 2 13 3 15 4 16 5 2 6 1 7 3 8 11 10 9 11 10 12 5 13
REMARK SMILES IDX 6 14 7 15 8 16 4 17
REMARK H PARENT
REMARK Flexibility Score: 60.00
ROOT
ATOM      1  C   UNL     1      -0.911   1.531  57.735  1.00  0.00    -0.070 C 
ATOM      2  C   UNL     1      -0.493   1.853  58.982  1.00  0.00    -0.027 C 
ATOM      3  C   UNL     1      -2.399   1.491  57.488  1.00  0.00     0.039 C 
ENDROOT
BRANCH   2   4
ATOM      4  C   UNL     1       0.937   2.053  59.422  1.00  0.00     0.032 C 
BRANCH   4   5
ATOM      5  C   UNL     1       1.337   1.119  60.579  1.00  0.00     0.034 C 
BRANCH   5   6
ATOM      6  C   UNL     1       1.035  -0.335  60.271  1.00  0.00    -0.077 C 
ATOM      7  C   UNL     1       0.200  -1.116  61.253  1.00  0.00     0.039 C 
ATOM      8  C   UNL     1       1.495  -0.981  59.175  1.00  0.00    -0.023 CG0
ATOM      9  G   UNL     1       2.370  -0.382  58.100  1.00  0.00     0.000 G0
ENDBRANCH   5   6
ENDBRANCH   4   5
ENDBRANCH   2   4
BRANCH   1  10
ATOM     10  C   UNL     1       0.030   1.275  56.568  1.00  0.00     0.111 C 
BRANCH  10  11
ATOM     11  C   UNL     1       0.412  -0.182  56.472  1.00  0.00     0.163 C 
ATOM     12  O   UNL     1      -0.496  -1.017  56.212  1.00  0.00    -0.294 OA
BRANCH  11  13
ATOM     13  C   UNL     1       1.810  -0.652  56.725  1.00  0.00    -0.002 C 
ATOM     14  C   UNL     1       2.561  -1.233  55.741  1.00  0.00    -0.069 C 
ATOM     15  C   UNL     1       2.047  -1.366  54.325  1.00  0.00     0.039 C 
ATOM     16  C   UNL     1       3.960  -1.741  56.015  1.00  0.00     0.039 C 
BRANCH  13  17
ATOM     17  C   UNL     1       2.388  -0.388  58.103  1.00  0.00     0.066 CG0
ATOM     18  G   UNL     1       1.492  -0.991  59.158  1.00  0.00     0.000 G0
ENDBRANCH  13  17
ENDBRANCH  11  13
ENDBRANCH  10  11
ENDBRANCH   1  10
TORSDOF 0
ENDMDL
MODEL 8
REMARK VINA RESULT:    -3.220     10.760     11.896
REMARK INTER + INTRA:          -4.118
REMARK INTER:                  -4.575
REMARK INTRA:                   0.457
REMARK UNBOUND:                 0.420
REMARK SMILES CC1=CCC(=C(C)C)C(=O)CC(C)=CCC1
REMARK SMILES IDX 12 1 14 2 13 3 15 4 16 5 2 6 1 7 3 8 11 10 9 11 10 12 5 13
REMARK SMILES IDX 6 14 7 15 8 16 4 17
REMARK H PARENT
REMARK Flexibility Score: 60.00
ROOT
ATOM      1  C   UNL     1      -7.153   4.042  53.100  1.00  0.00    -0.070 C 
ATOM      2  C   UNL     1      -6.038   3.840  53.842  1.00  0.00    -0.027 C 
ATOM      3  C   UNL     1      -6.972   4.274  51.620  1.00  0.00     0.039 C 
ENDROOT
BRANCH   2   4
ATOM      4  C   UNL     1      -5.993   3.487  55.309  1.00  0.00     0.032 C 
BRANCH   4   5
ATOM      5  C   UNL     1      -5.868   4.727  56.213  1.00  0.00     0.034 C 
BRANCH   5   6
ATOM      6  C   UNL     1      -6.990   4.809  57.230  1.00  0.00    -0.077 C 
ATOM      7  C   UNL     1      -6.903   3.947  58.463  1.00  0.00     0.039 C 
ATOM      8  C   UNL     1      -8.080   5.596  57.082  1.00  0.00    -0.023 CG0
ATOM      9  G   UNL     1      -8.364   6.499  55.906  1.00  0.00     0.000 G0
ENDBRANCH   5   6
ENDBRANCH   4   5
ENDBRANCH   2   4
BRANCH   1  10
ATOM     10  C   UNL     1      -8.564   3.983  53.662  1.00  0.00     0.111 C 
BRANCH  10  11
ATOM     11  C   UNL     1      -9.180   5.357  53.761  1.00  0.00     0.163 C 
ATOM     12  O   UNL     1      -9.369   6.002  52.695  1.00  0.00    -0.294 OA
BRANCH  11  13
ATOM     13  C   UNL     1      -9.518   5.980  55.080  1.00  0.00    -0.002 C 
ATOM     14  C   UNL     1     -10.800   6.006  55.555  1.00  0.00    -0.069 C 
ATOM     15  C   UNL     1     -11.935   5.343  54.808  1.00  0.00     0.039 C 
ATOM     16  C   UNL     1     -11.139   6.671  56.871  1.00  0.00     0.039 C 
BRANCH  13  17
ATOM     17  C   UNL     1      -8.362   6.517  55.906  1.00  0.00     0.066 CG0
ATOM     18  G   UNL     1      -8.108   5.606  57.083  1.00  0.00     0.000 G0
ENDBRANCH  13  17
ENDBRANCH  11  13
ENDBRANCH  10  11
ENDBRANCH   1  10
TORSDOF 0
ENDMDL
MODEL 9
REMARK VINA RESULT:    -3.140     10.486     11.588
REMARK INTER + INTRA:          -4.006
REMARK INTER:                  -4.622
REMARK INTRA:                   0.616
REMARK UNBOUND:                 0.420
REMARK SMILES CC1=CCC(=C(C)C)C(=O)CC(C)=CCC1
REMARK SMILES IDX 12 1 14 2 13 3 15 4 16 5 2 6 1 7 3 8 11 10 9 11 10 12 5 13
REMARK SMILES IDX 6 14 7 15 8 16 4 17
REMARK H PARENT
REMARK Flexibility Score: 60.00
ROOT
ATOM      1  C   UNL     1      -7.691   5.302  55.556  1.00  0.00    -0.070 C 
ATOM      2  C   UNL     1      -6.426   4.817  55.524  1.00  0.00    -0.027 C 
ATOM      3  C   UNL     1      -7.881   6.717  56.044  1.00  0.00     0.039 C 
ENDROOT
BRANCH   2   4
ATOM      4  C   UNL     1      -5.997   3.477  54.977  1.00  0.00     0.032 C 
BRANCH   4   5
ATOM      5  C   UNL     1      -6.248   3.347  53.463  1.00  0.00     0.034 C 
BRANCH   5   6
ATOM      6  C   UNL     1      -7.075   2.122  53.123  1.00  0.00    -0.077 C 
ATOM      7  C   UNL     1      -6.618   0.783  53.643  1.00  0.00     0.039 C 
ATOM      8  C   UNL     1      -8.190   2.158  52.358  1.00  0.00    -0.023 CG0
ATOM      9  G   UNL     1      -8.784   3.392  51.721  1.00  0.00     0.000 G0
ENDBRANCH   5   6
ENDBRANCH   4   5
ENDBRANCH   2   4
BRANCH   1  10
ATOM     10  C   UNL     1      -8.905   4.528  55.069  1.00  0.00     0.111 C 
BRANCH  10  11
ATOM     11  C   UNL     1      -9.326   4.966  53.688  1.00  0.00     0.163 C 
ATOM     12  O   UNL     1      -9.288   6.196  53.418  1.00  0.00    -0.294 OA
BRANCH  11  13
ATOM     13  C   UNL     1      -9.828   3.993  52.668  1.00  0.00    -0.002 C 
ATOM     14  C   UNL     1     -11.160   3.712  52.536  1.00  0.00    -0.069 C 
ATOM     15  C   UNL     1     -12.205   4.426  53.364  1.00  0.00     0.039 C 
ATOM     16  C   UNL     1     -11.656   2.699  51.528  1.00  0.00     0.039 C 
BRANCH  13  17
ATOM     17  C   UNL     1      -8.800   3.383  51.731  1.00  0.00     0.066 CG0
ATOM     18  G   UNL     1      -8.194   2.154  52.366  1.00  0.00     0.000 G0
ENDBRANCH  13  17
ENDBRANCH  11  13
ENDBRANCH  10  11
ENDBRANCH   1  10
TORSDOF 0
ENDMDL
