MODEL 1
REMARK VINA RESULT:     2.948      0.000      0.000
REMARK INTER + INTRA:          10.932
REMARK INTER:                   5.619
REMARK INTRA:                   5.312
REMARK UNBOUND:                 5.312
REMARK SMILES C[C@@H]1O[C@@H](O[C@H]2[C@@H](O)[C@H](OCCc3ccc(O)c(O)c3)O[C@H](CO)[C@@H]2OC(=O)C=Cc2ccc(O)c(O)c2)[C@H](O)[C@H](O)[C@H]1O
REMARK SMILES IDX 6 1 7 2 9 3 21 4 22 5 25 6 5 7 4 8 1 9 2 10 43 11 3 12 41 13
REMARK SMILES IDX 39 14 44 15 42 17 40 19 8 21 26 23 27 24 28 25 29 26 30 27
REMARK SMILES IDX 31 28 38 29 32 30 36 31 33 32 34 33 37 34 35 36 10 38 11 39
REMARK SMILES IDX 12 40 13 41 20 42 14 43 18 44 15 45 16 46 19 47 17 49 23 51
REMARK SMILES IDX 24 52
REMARK H PARENT 44 16 42 18 40 20 8 22 37 35 35 37 19 48 17 50 24 53
REMARK Flexibility Score: inf
ROOT
ATOM      1  C   UNL     1      11.965  -2.333  17.080  1.00  0.00     0.199 C 
ATOM      2  C   UNL     1      11.754  -0.842  17.687  1.00  0.00     0.203 C 
ATOM      3  C   UNL     1      12.025  -0.330  19.201  1.00  0.00     0.282 C 
ATOM      4  O   UNL     1      12.266  -1.376  20.120  1.00  0.00    -0.340 OA
ATOM      5  C   UNL     1      13.237  -2.295  19.649  1.00  0.00     0.190 C 
ATOM      6  C   UNL     1      12.713  -3.256  18.508  1.00  0.00     0.240 C 
ENDROOT
BRANCH   1   7
ATOM      7  O   UNL     1      10.601  -2.724  16.366  1.00  0.00    -0.340 OA
BRANCH   7   8
ATOM      8  C   UNL     1       9.365  -3.288  17.094  1.00  0.00     0.282 C 
ATOM      9  C   UNL     1       5.920  -2.261  17.450  1.00  0.00     0.041 C 
ATOM     10  C   UNL     1       7.241  -2.462  18.318  1.00  0.00     0.150 C 
ATOM     11  C   UNL     1       7.033  -3.749  19.162  1.00  0.00     0.174 C 
ATOM     12  O   UNL     1       8.445  -2.201  17.535  1.00  0.00    -0.344 OA
ATOM     13  C   UNL     1       8.370  -4.462  19.618  1.00  0.00     0.179 C 
ATOM     14  C   UNL     1       9.346  -4.575  18.390  1.00  0.00     0.202 C 
BRANCH  11  15
ATOM     15  O   UNL     1       5.877  -3.478  20.082  1.00  0.00    -0.388 OA
ATOM     16  H   UNL     1       5.538  -4.305  20.535  1.00  0.00     0.211 HD
ENDBRANCH  11  15
BRANCH  13  17
ATOM     17  O   UNL     1       8.050  -5.767  20.120  1.00  0.00    -0.387 OA
ATOM     18  H   UNL     1       7.883  -5.630  21.109  1.00  0.00     0.211 HD
ENDBRANCH  13  17
BRANCH  14  19
ATOM     19  O   UNL     1       9.135  -5.942  17.863  1.00  0.00    -0.385 OA
ATOM     20  H   UNL     1       9.461  -6.687  18.473  1.00  0.00     0.211 HD
ENDBRANCH  14  19
ENDBRANCH   7   8
ENDBRANCH   1   7
BRANCH   2  21
ATOM     21  O   UNL     1      10.460  -0.478  17.396  1.00  0.00    -0.385 OA
ATOM     22  H   UNL     1       9.872  -1.267  17.086  1.00  0.00     0.211 HD
ENDBRANCH   2  21
BRANCH   6  23
ATOM     23  O   UNL     1      13.829  -4.207  18.365  1.00  0.00    -0.453 OA
BRANCH  23  24
ATOM     24  C   UNL     1      15.181  -4.067  19.107  1.00  0.00     0.331 C 
ATOM     25  O   UNL     1      15.286  -4.858  20.112  1.00  0.00    -0.247 OA
BRANCH  24  26
ATOM     26  C   UNL     1      16.547  -3.251  18.749  1.00  0.00     0.094 C 
ATOM     27  C   UNL     1      17.730  -2.766  19.541  1.00  0.00     0.016 C 
BRANCH  27  28
ATOM     28  C   UNL     1      19.154  -2.424  18.915  1.00  0.00    -0.021 A 
ATOM     29  C   UNL     1      19.412  -3.659  18.355  1.00  0.00     0.058 A 
ATOM     30  C   UNL     1      20.404  -1.731  19.509  1.00  0.00     0.012 A 
ATOM     31  C   UNL     1      20.138  -4.551  19.136  1.00  0.00     0.157 A 
ATOM     32  C   UNL     1      21.509  -2.683  19.705  1.00  0.00     0.051 A 
ATOM     33  C   UNL     1      21.319  -4.085  19.713  1.00  0.00     0.157 A 
BRANCH  31  34
ATOM     34  O   UNL     1      19.668  -5.835  19.443  1.00  0.00    -0.504 OA
ATOM     35  H   UNL     1      19.006  -5.895  20.212  1.00  0.00     0.293 HD
ENDBRANCH  31  34
BRANCH  33  36
ATOM     36  O   UNL     1      22.325  -4.980  20.124  1.00  0.00    -0.504 OA
ATOM     37  H   UNL     1      23.267  -4.754  20.495  1.00  0.00     0.293 HD
ENDBRANCH  33  36
ENDBRANCH  27  28
ENDBRANCH  24  26
ENDBRANCH  23  24
ENDBRANCH   6  23
BRANCH   3  38
ATOM     38  O   UNL     1      13.108   0.585  19.219  1.00  0.00    -0.350 OA
BRANCH  38  39
ATOM     39  C   UNL     1      12.916   1.730  20.095  1.00  0.00     0.168 C 
BRANCH  39  40
ATOM     40  C   UNL     1      11.783   2.633  19.584  1.00  0.00     0.064 C 
BRANCH  40  41
ATOM     41  C   UNL     1      10.274   2.353  19.800  1.00  0.00    -0.042 A 
ATOM     42  C   UNL     1       9.221   3.286  19.620  1.00  0.00     0.054 A 
ATOM     43  C   UNL     1       9.949   0.999  19.903  1.00  0.00     0.008 A 
ATOM     44  C   UNL     1       7.892   2.778  19.586  1.00  0.00     0.157 A 
ATOM     45  C   UNL     1       8.640   0.585  20.123  1.00  0.00     0.050 A 
ATOM     46  C   UNL     1       7.594   1.442  19.800  1.00  0.00     0.157 A 
BRANCH  44  47
ATOM     47  O   UNL     1       6.869   3.752  19.371  1.00  0.00    -0.504 OA
ATOM     48  H   UNL     1       6.350   4.285  20.085  1.00  0.00     0.293 HD
ENDBRANCH  44  47
BRANCH  46  49
ATOM     49  O   UNL     1       6.252   0.948  19.774  1.00  0.00    -0.504 OA
ATOM     50  H   UNL     1       5.803   0.512  20.590  1.00  0.00     0.293 HD
ENDBRANCH  46  49
ENDBRANCH  40  41
ENDBRANCH  39  40
ENDBRANCH  38  39
ENDBRANCH   3  38
BRANCH   5  51
ATOM     51  C   UNL     1      14.622  -1.711  19.439  1.00  0.00     0.192 C 
BRANCH  51  52
ATOM     52  O   UNL     1      14.552  -0.731  18.472  1.00  0.00    -0.394 OA
ATOM     53  H   UNL     1      14.887  -1.177  17.610  1.00  0.00     0.210 HD
ENDBRANCH  51  52
ENDBRANCH   5  51
TORSDOF 20
ENDMDL
