MODEL 1
REMARK VINA RESULT:     5.323      0.000      0.000
REMARK INTER + INTRA:           5.479
REMARK INTER:                   5.479
REMARK INTRA:                   0.000
REMARK UNBOUND:                 0.000
REMARK SMILES Nc1ncnc2nc[nH]c12
REMARK SMILES IDX 8 1 7 2 6 3 5 4 4 5 3 6 2 7 10 8 9 9 1 11
REMARK H PARENT 9 10 1 12 1 13
REMARK Flexibility Score: inf
ROOT
ATOM      1  C   UNL     1      24.351 -41.537 -18.283  1.00  0.00     0.199 A 
ATOM      2  N   UNL     1      23.188 -41.859 -17.655  1.00  0.00    -0.217 NA
ATOM      3  C   UNL     1      22.267 -41.546 -18.581  1.00  0.00     0.182 A 
ATOM      4  N   UNL     1      20.924 -41.676 -18.462  1.00  0.00    -0.215 NA
ATOM      5  C   UNL     1      20.142 -41.302 -19.519  1.00  0.00     0.226 A 
ATOM      6  N   UNL     1      20.713 -40.810 -20.666  1.00  0.00    -0.217 NA
ATOM      7  C   UNL     1      22.067 -40.678 -20.789  1.00  0.00     0.152 A 
ATOM      8  C   UNL     1      22.849 -41.063 -19.703  1.00  0.00     0.127 A 
ATOM      9  N   UNL     1      24.177 -41.047 -19.537  1.00  0.00    -0.340 N 
ATOM     10  H   UNL     1      24.915 -40.735 -20.206  1.00  0.00     0.168 HD
ENDROOT
BRANCH   7  11
ATOM     11  N   UNL     1      22.638 -40.163 -21.992  1.00  0.00    -0.382 N 
ATOM     12  H   UNL     1      23.385 -40.700 -22.487  1.00  0.00     0.158 HD
ATOM     13  H   UNL     1      22.324 -39.254 -22.398  1.00  0.00     0.158 HD
ENDBRANCH   7  11
TORSDOF 1
ENDMDL
MODEL 2
REMARK VINA RESULT:     5.426     15.690     17.184
REMARK INTER + INTRA:           5.585
REMARK INTER:                   5.585
REMARK INTRA:                   0.000
REMARK UNBOUND:                 0.000
REMARK SMILES Nc1ncnc2nc[nH]c12
REMARK SMILES IDX 8 1 7 2 6 3 5 4 4 5 3 6 2 7 10 8 9 9 1 11
REMARK H PARENT 9 10 1 12 1 13
REMARK Flexibility Score: inf
ROOT
ATOM      1  C   UNL     1      10.610 -41.274 -30.070  1.00  0.00     0.199 A 
ATOM      2  N   UNL     1       9.849 -40.871 -31.123  1.00  0.00    -0.217 NA
ATOM      3  C   UNL     1       8.874 -40.171 -30.521  1.00  0.00     0.182 A 
ATOM      4  N   UNL     1       7.837 -39.544 -31.125  1.00  0.00    -0.215 NA
ATOM      5  C   UNL     1       6.939 -38.877 -30.339  1.00  0.00     0.226 A 
ATOM      6  N   UNL     1       7.093 -38.850 -28.976  1.00  0.00    -0.217 NA
ATOM      7  C   UNL     1       8.138 -39.482 -28.364  1.00  0.00     0.152 A 
ATOM      8  C   UNL     1       9.044 -40.157 -29.178  1.00  0.00     0.127 A 
ATOM      9  N   UNL     1      10.144 -40.852 -28.867  1.00  0.00    -0.340 N 
ATOM     10  H   UNL     1      10.557 -41.035 -27.925  1.00  0.00     0.168 HD
ENDROOT
BRANCH   7  11
ATOM     11  N   UNL     1       8.279 -39.439 -26.944  1.00  0.00    -0.382 N 
ATOM     12  H   UNL     1       8.673 -40.259 -26.432  1.00  0.00     0.158 HD
ATOM     13  H   UNL     1       7.995 -38.597 -26.394  1.00  0.00     0.158 HD
ENDBRANCH   7  11
TORSDOF 1
ENDMDL
MODEL 3
REMARK VINA RESULT:     5.534      1.131      2.330
REMARK INTER + INTRA:           5.696
REMARK INTER:                   5.696
REMARK INTRA:                   0.000
REMARK UNBOUND:                 0.000
REMARK SMILES Nc1ncnc2nc[nH]c12
REMARK SMILES IDX 8 1 7 2 6 3 5 4 4 5 3 6 2 7 10 8 9 9 1 11
REMARK H PARENT 9 10 1 12 1 13
REMARK Flexibility Score: inf
ROOT
ATOM      1  C   UNL     1      24.175 -41.640 -18.008  1.00  0.00     0.199 A 
ATOM      2  N   UNL     1      24.224 -41.869 -19.349  1.00  0.00    -0.217 NA
ATOM      3  C   UNL     1      23.063 -41.342 -19.772  1.00  0.00     0.182 A 
ATOM      4  N   UNL     1      22.609 -41.305 -21.046  1.00  0.00    -0.215 NA
ATOM      5  C   UNL     1      21.394 -40.723 -21.283  1.00  0.00     0.226 A 
ATOM      6  N   UNL     1      20.664 -40.193 -20.249  1.00  0.00    -0.217 NA
ATOM      7  C   UNL     1      21.120 -40.230 -18.962  1.00  0.00     0.152 A 
ATOM      8  C   UNL     1      22.358 -40.826 -18.738  1.00  0.00     0.127 A 
ATOM      9  N   UNL     1      23.047 -41.004 -17.604  1.00  0.00    -0.340 N 
ATOM     10  H   UNL     1      22.788 -40.725 -16.632  1.00  0.00     0.168 HD
ENDROOT
BRANCH   7  11
ATOM     11  N   UNL     1      20.342 -39.672 -17.902  1.00  0.00    -0.382 N 
ATOM     12  H   UNL     1      20.791 -39.043 -17.200  1.00  0.00     0.158 HD
ATOM     13  H   UNL     1      19.323 -39.878 -17.809  1.00  0.00     0.158 HD
ENDBRANCH   7  11
TORSDOF 1
ENDMDL
MODEL 4
REMARK VINA RESULT:     6.150      0.964      3.920
REMARK INTER + INTRA:           6.330
REMARK INTER:                   6.330
REMARK INTRA:                   0.000
REMARK UNBOUND:                 0.000
REMARK SMILES Nc1ncnc2nc[nH]c12
REMARK SMILES IDX 8 1 7 2 6 3 5 4 4 5 3 6 2 7 10 8 9 9 1 11
REMARK H PARENT 9 10 1 12 1 13
REMARK Flexibility Score: inf
ROOT
ATOM      1  C   UNL     1      20.776 -41.020 -20.100  1.00  0.00     0.199 A 
ATOM      2  N   UNL     1      21.961 -40.648 -20.655  1.00  0.00    -0.217 NA
ATOM      3  C   UNL     1      22.850 -41.063 -19.738  1.00  0.00     0.182 A 
ATOM      4  N   UNL     1      24.196 -40.936 -19.800  1.00  0.00    -0.215 NA
ATOM      5  C   UNL     1      24.940 -41.425 -18.763  1.00  0.00     0.226 A 
ATOM      6  N   UNL     1      24.329 -42.027 -17.691  1.00  0.00    -0.217 NA
ATOM      7  C   UNL     1      22.971 -42.156 -17.626  1.00  0.00     0.152 A 
ATOM      8  C   UNL     1      22.227 -41.653 -18.690  1.00  0.00     0.127 A 
ATOM      9  N   UNL     1      20.906 -41.637 -18.899  1.00  0.00    -0.340 N 
ATOM     10  H   UNL     1      20.143 -42.009 -18.289  1.00  0.00     0.168 HD
ENDROOT
BRANCH   7  11
ATOM     11  N   UNL     1      22.357 -42.786 -16.501  1.00  0.00    -0.382 N 
ATOM     12  H   UNL     1      21.573 -42.313 -15.999  1.00  0.00     0.158 HD
ATOM     13  H   UNL     1      22.674 -43.722 -16.162  1.00  0.00     0.158 HD
ENDBRANCH   7  11
TORSDOF 1
ENDMDL
MODEL 5
REMARK VINA RESULT:     6.517     12.214     13.065
REMARK INTER + INTRA:           6.707
REMARK INTER:                   6.707
REMARK INTRA:                   0.000
REMARK UNBOUND:                 0.000
REMARK SMILES Nc1ncnc2nc[nH]c12
REMARK SMILES IDX 8 1 7 2 6 3 5 4 4 5 3 6 2 7 10 8 9 9 1 11
REMARK H PARENT 9 10 1 12 1 13
REMARK Flexibility Score: inf
ROOT
ATOM      1  C   UNL     1      18.020 -33.633 -28.677  1.00  0.00     0.199 A 
ATOM      2  N   UNL     1      17.110 -32.630 -28.540  1.00  0.00    -0.217 NA
ATOM      3  C   UNL     1      15.980 -33.304 -28.270  1.00  0.00     0.182 A 
ATOM      4  N   UNL     1      14.756 -32.772 -28.043  1.00  0.00    -0.215 NA
ATOM      5  C   UNL     1      13.719 -33.624 -27.782  1.00  0.00     0.226 A 
ATOM      6  N   UNL     1      13.924 -34.980 -27.751  1.00  0.00    -0.217 NA
ATOM      7  C   UNL     1      15.159 -35.520 -27.980  1.00  0.00     0.152 A 
ATOM      8  C   UNL     1      16.204 -34.639 -28.245  1.00  0.00     0.127 A 
ATOM      9  N   UNL     1      17.496 -34.873 -28.501  1.00  0.00    -0.340 N 
ATOM     10  H   UNL     1      17.996 -35.788 -28.556  1.00  0.00     0.168 HD
ENDROOT
BRANCH   7  11
ATOM     11  N   UNL     1      15.348 -36.935 -27.943  1.00  0.00    -0.382 N 
ATOM     12  H   UNL     1      15.191 -37.506 -28.803  1.00  0.00     0.158 HD
ATOM     13  H   UNL     1      15.645 -37.421 -27.068  1.00  0.00     0.158 HD
ENDBRANCH   7  11
TORSDOF 1
ENDMDL
MODEL 6
REMARK VINA RESULT:     6.814      1.222      3.038
REMARK INTER + INTRA:           7.013
REMARK INTER:                   7.013
REMARK INTRA:                   0.000
REMARK UNBOUND:                 0.000
REMARK SMILES Nc1ncnc2nc[nH]c12
REMARK SMILES IDX 8 1 7 2 6 3 5 4 4 5 3 6 2 7 10 8 9 9 1 11
REMARK H PARENT 9 10 1 12 1 13
REMARK Flexibility Score: inf
ROOT
ATOM      1  C   UNL     1      19.995 -40.391 -19.969  1.00  0.00     0.199 A 
ATOM      2  N   UNL     1      20.617 -40.132 -18.787  1.00  0.00    -0.217 NA
ATOM      3  C   UNL     1      21.836 -40.660 -18.983  1.00  0.00     0.182 A 
ATOM      4  N   UNL     1      22.863 -40.673 -18.100  1.00  0.00    -0.215 NA
ATOM      5  C   UNL     1      24.037 -41.261 -18.483  1.00  0.00     0.226 A 
ATOM      6  N   UNL     1      24.160 -41.819 -19.731  1.00  0.00    -0.217 NA
ATOM      7  C   UNL     1      23.126 -41.807 -20.623  1.00  0.00     0.152 A 
ATOM      8  C   UNL     1      21.937 -41.205 -20.218  1.00  0.00     0.127 A 
ATOM      9  N   UNL     1      20.777 -41.046 -20.865  1.00  0.00    -0.340 N 
ATOM     10  H   UNL     1      20.521 -41.349 -21.831  1.00  0.00     0.168 HD
ENDROOT
BRANCH   7  11
ATOM     11  N   UNL     1      23.278 -42.394 -21.916  1.00  0.00    -0.382 N 
ATOM     12  H   UNL     1      22.439 -42.726 -22.441  1.00  0.00     0.158 HD
ATOM     13  H   UNL     1      24.218 -42.501 -22.357  1.00  0.00     0.158 HD
ENDBRANCH   7  11
TORSDOF 1
ENDMDL
MODEL 7
REMARK VINA RESULT:     6.817     12.176     13.371
REMARK INTER + INTRA:           7.016
REMARK INTER:                   7.016
REMARK INTRA:                   0.000
REMARK UNBOUND:                 0.000
REMARK SMILES Nc1ncnc2nc[nH]c12
REMARK SMILES IDX 8 1 7 2 6 3 5 4 4 5 3 6 2 7 10 8 9 9 1 11
REMARK H PARENT 9 10 1 12 1 13
REMARK Flexibility Score: inf
ROOT
ATOM      1  C   UNL     1      17.016 -32.240 -28.545  1.00  0.00     0.199 A 
ATOM      2  N   UNL     1      17.516 -33.505 -28.592  1.00  0.00    -0.217 NA
ATOM      3  C   UNL     1      16.433 -34.251 -28.315  1.00  0.00     0.182 A 
ATOM      4  N   UNL     1      16.381 -35.601 -28.236  1.00  0.00    -0.215 NA
ATOM      5  C   UNL     1      15.180 -36.185 -27.941  1.00  0.00     0.226 A 
ATOM      6  N   UNL     1      14.064 -35.414 -27.734  1.00  0.00    -0.217 NA
ATOM      7  C   UNL     1      14.114 -34.051 -27.813  1.00  0.00     0.152 A 
ATOM      8  C   UNL     1      15.345 -33.472 -28.114  1.00  0.00     0.127 A 
ATOM      9  N   UNL     1      15.691 -32.187 -28.255  1.00  0.00    -0.340 N 
ATOM     10  H   UNL     1      15.094 -31.335 -28.166  1.00  0.00     0.168 HD
ENDROOT
BRANCH   7  11
ATOM     11  N   UNL     1      12.940 -33.269 -27.594  1.00  0.00    -0.382 N 
ATOM     12  H   UNL     1      12.005 -33.731 -27.552  1.00  0.00     0.158 HD
ATOM     13  H   UNL     1      12.991 -32.233 -27.472  1.00  0.00     0.158 HD
ENDBRANCH   7  11
TORSDOF 1
ENDMDL
MODEL 8
REMARK VINA RESULT:     7.076     12.230     13.180
REMARK INTER + INTRA:           7.283
REMARK INTER:                   7.283
REMARK INTRA:                   0.000
REMARK UNBOUND:                 0.000
REMARK SMILES Nc1ncnc2nc[nH]c12
REMARK SMILES IDX 8 1 7 2 6 3 5 4 4 5 3 6 2 7 10 8 9 9 1 11
REMARK H PARENT 9 10 1 12 1 13
REMARK Flexibility Score: inf
ROOT
ATOM      1  C   UNL     1      14.750 -36.047 -27.817  1.00  0.00     0.199 A 
ATOM      2  N   UNL     1      14.093 -34.858 -27.750  1.00  0.00    -0.217 NA
ATOM      3  C   UNL     1      15.062 -33.978 -28.051  1.00  0.00     0.182 A 
ATOM      4  N   UNL     1      14.938 -32.632 -28.125  1.00  0.00    -0.215 NA
ATOM      5  C   UNL     1      16.045 -31.898 -28.449  1.00  0.00     0.226 A 
ATOM      6  N   UNL     1      17.245 -32.518 -28.692  1.00  0.00    -0.217 NA
ATOM      7  C   UNL     1      17.373 -33.876 -28.618  1.00  0.00     0.152 A 
ATOM      8  C   UNL     1      16.236 -34.610 -28.287  1.00  0.00     0.127 A 
ATOM      9  N   UNL     1      16.062 -35.929 -28.143  1.00  0.00    -0.340 N 
ATOM     10  H   UNL     1      16.762 -36.696 -28.254  1.00  0.00     0.168 HD
ENDROOT
BRANCH   7  11
ATOM     11  N   UNL     1      18.631 -34.500 -28.875  1.00  0.00    -0.382 N 
ATOM     12  H   UNL     1      18.841 -34.881 -29.824  1.00  0.00     0.158 HD
ATOM     13  H   UNL     1      19.358 -34.585 -28.130  1.00  0.00     0.158 HD
ENDBRANCH   7  11
TORSDOF 1
ENDMDL
MODEL 9
REMARK VINA RESULT:     7.317      1.166      3.139
REMARK INTER + INTRA:           7.531
REMARK INTER:                   7.531
REMARK INTRA:                   0.000
REMARK UNBOUND:                 0.000
REMARK SMILES Nc1ncnc2nc[nH]c12
REMARK SMILES IDX 8 1 7 2 6 3 5 4 4 5 3 6 2 7 10 8 9 9 1 11
REMARK H PARENT 9 10 1 12 1 13
REMARK Flexibility Score: inf
ROOT
ATOM      1  C   UNL     1      21.613 -40.683 -20.607  1.00  0.00     0.199 A 
ATOM      2  N   UNL     1      21.062 -41.198 -19.474  1.00  0.00    -0.217 NA
ATOM      3  C   UNL     1      22.147 -41.539 -18.759  1.00  0.00     0.182 A 
ATOM      4  N   UNL     1      22.158 -42.105 -17.529  1.00  0.00    -0.215 NA
ATOM      5  C   UNL     1      23.369 -42.382 -16.956  1.00  0.00     0.226 A 
ATOM      6  N   UNL     1      24.535 -42.089 -17.619  1.00  0.00    -0.217 NA
ATOM      7  C   UNL     1      24.525 -41.519 -18.860  1.00  0.00     0.152 A 
ATOM      8  C   UNL     1      23.284 -41.243 -19.429  1.00  0.00     0.127 A 
ATOM      9  N   UNL     1      22.970 -40.697 -20.610  1.00  0.00    -0.340 N 
ATOM     10  H   UNL     1      23.608 -40.357 -21.363  1.00  0.00     0.168 HD
ENDROOT
BRANCH   7  11
ATOM     11  N   UNL     1      25.751 -41.223 -19.530  1.00  0.00    -0.382 N 
ATOM     12  H   UNL     1      26.296 -40.371 -19.271  1.00  0.00     0.158 HD
ATOM     13  H   UNL     1      26.123 -41.844 -20.282  1.00  0.00     0.158 HD
ENDBRANCH   7  11
TORSDOF 1
ENDMDL
