MODEL 1
REMARK VINA RESULT:     1.847      0.000      0.000
REMARK INTER + INTRA:           1.923
REMARK INTER:                   1.955
REMARK INTRA:                  -0.032
REMARK UNBOUND:                -0.032
REMARK SMILES O=C([O-])[C@H]1CCC[NH2+]1
REMARK SMILES IDX 4 1 8 2 7 3 5 4 6 5 2 8 1 9 3 10
REMARK H PARENT 8 6 8 7
REMARK Flexibility Score: inf
ROOT
ATOM      1  C   UNL     1     103.631 104.118 102.546  1.00  0.00     0.229 C 
ATOM      2  N   UNL     1     103.680 103.415 103.830  1.00  0.00    -0.339 N 
ATOM      3  C   UNL     1     103.261 102.039 103.553  1.00  0.00     0.261 C 
ATOM      4  C   UNL     1     103.954 103.086 101.476  1.00  0.00     0.077 C 
ATOM      5  C   UNL     1     103.451 101.778 102.059  1.00  0.00     0.068 C 
ATOM      6  H   UNL     1     104.655 103.403 104.215  1.00  0.00     0.346 HD
ATOM      7  H   UNL     1     103.036 103.867 104.521  1.00  0.00     0.346 HD
ENDROOT
BRANCH   1   8
ATOM      8  C   UNL     1     104.575 105.292 102.508  1.00  0.00     0.099 C 
ATOM      9  O   UNL     1     105.819 105.099 102.479  1.00  0.00    -0.544 OA
ATOM     10  O   UNL     1     104.084 106.593 102.506  1.00  0.00    -0.544 OA
ENDBRANCH   1   8
TORSDOF 1
ENDMDL
MODEL 2
REMARK VINA RESULT:     1.857      5.008      5.872
REMARK INTER + INTRA:           1.934
REMARK INTER:                   1.966
REMARK INTRA:                  -0.032
REMARK UNBOUND:                -0.032
REMARK SMILES O=C([O-])[C@H]1CCC[NH2+]1
REMARK SMILES IDX 4 1 8 2 7 3 5 4 6 5 2 8 1 9 3 10
REMARK H PARENT 8 6 8 7
REMARK Flexibility Score: inf
ROOT
ATOM      1  C   UNL     1     104.359 104.163 107.261  1.00  0.00     0.229 C 
ATOM      2  N   UNL     1     104.306 104.908 108.522  1.00  0.00    -0.339 N 
ATOM      3  C   UNL     1     104.741 106.270 108.204  1.00  0.00     0.261 C 
ATOM      4  C   UNL     1     104.054 105.163 106.156  1.00  0.00     0.077 C 
ATOM      5  C   UNL     1     104.564 106.485 106.701  1.00  0.00     0.068 C 
ATOM      6  H   UNL     1     103.329 104.942 108.899  1.00  0.00     0.346 HD
ATOM      7  H   UNL     1     104.941 104.474 109.232  1.00  0.00     0.346 HD
ENDROOT
BRANCH   1   8
ATOM      8  C   UNL     1     103.404 102.998 107.255  1.00  0.00     0.099 C 
ATOM      9  O   UNL     1     102.161 103.201 107.228  1.00  0.00    -0.544 OA
ATOM     10  O   UNL     1     103.883 101.693 107.278  1.00  0.00    -0.544 OA
ENDBRANCH   1   8
TORSDOF 1
ENDMDL
MODEL 3
REMARK VINA RESULT:     1.875      4.307      4.696
REMARK INTER + INTRA:           1.953
REMARK INTER:                   1.985
REMARK INTRA:                  -0.032
REMARK UNBOUND:                -0.032
REMARK SMILES O=C([O-])[C@H]1CCC[NH2+]1
REMARK SMILES IDX 4 1 8 2 7 3 5 4 6 5 2 8 1 9 3 10
REMARK H PARENT 8 6 8 7
REMARK Flexibility Score: inf
ROOT
ATOM      1  C   UNL     1     103.628 104.159 107.244  1.00  0.00     0.229 C 
ATOM      2  N   UNL     1     103.665 103.423 108.511  1.00  0.00    -0.339 N 
ATOM      3  C   UNL     1     103.231 102.059 108.197  1.00  0.00     0.261 C 
ATOM      4  C   UNL     1     103.944 103.151 106.150  1.00  0.00     0.077 C 
ATOM      5  C   UNL     1     103.425 101.834 106.698  1.00  0.00     0.068 C 
ATOM      6  H   UNL     1     104.637 103.390 108.899  1.00  0.00     0.346 HD
ATOM      7  H   UNL     1     103.022 103.864 109.210  1.00  0.00     0.346 HD
ENDROOT
BRANCH   1   8
ATOM      8  C   UNL     1     104.585 105.323 107.241  1.00  0.00     0.099 C 
ATOM      9  O   UNL     1     105.827 105.117 107.216  1.00  0.00    -0.544 OA
ATOM     10  O   UNL     1     104.109 106.629 107.265  1.00  0.00    -0.544 OA
ENDBRANCH   1   8
TORSDOF 1
ENDMDL
MODEL 4
REMARK VINA RESULT:     1.877      2.245      3.508
REMARK INTER + INTRA:           1.955
REMARK INTER:                   1.987
REMARK INTRA:                  -0.032
REMARK UNBOUND:                -0.032
REMARK SMILES O=C([O-])[C@H]1CCC[NH2+]1
REMARK SMILES IDX 4 1 8 2 7 3 5 4 6 5 2 8 1 9 3 10
REMARK H PARENT 8 6 8 7
REMARK Flexibility Score: inf
ROOT
ATOM      1  C   UNL     1     104.365 104.137 102.523  1.00  0.00     0.229 C 
ATOM      2  N   UNL     1     104.303 104.876 103.786  1.00  0.00    -0.339 N 
ATOM      3  C   UNL     1     104.731 106.243 103.475  1.00  0.00     0.261 C 
ATOM      4  C   UNL     1     104.057 105.139 101.420  1.00  0.00     0.077 C 
ATOM      5  C   UNL     1     104.558 106.462 101.972  1.00  0.00     0.068 C 
ATOM      6  H   UNL     1     103.324 104.903 104.160  1.00  0.00     0.346 HD
ATOM      7  H   UNL     1     104.938 104.443 104.497  1.00  0.00     0.346 HD
ENDROOT
BRANCH   1   8
ATOM      8  C   UNL     1     103.417 102.966 102.509  1.00  0.00     0.099 C 
ATOM      9  O   UNL     1     102.173 103.162 102.475  1.00  0.00    -0.544 OA
ATOM     10  O   UNL     1     103.904 101.664 102.532  1.00  0.00    -0.544 OA
ENDBRANCH   1   8
TORSDOF 1
ENDMDL
MODEL 5
REMARK VINA RESULT:     1.997      5.044      5.904
REMARK INTER + INTRA:           2.083
REMARK INTER:                   2.114
REMARK INTRA:                  -0.032
REMARK UNBOUND:                -0.032
REMARK SMILES O=C([O-])[C@H]1CCC[NH2+]1
REMARK SMILES IDX 4 1 8 2 7 3 5 4 6 5 2 8 1 9 3 10
REMARK H PARENT 8 6 8 7
REMARK Flexibility Score: inf
ROOT
ATOM      1  C   UNL     1     104.365 104.166  97.798  1.00  0.00     0.229 C 
ATOM      2  N   UNL     1     104.308 104.868  99.082  1.00  0.00    -0.339 N 
ATOM      3  C   UNL     1     104.716 106.248  98.806  1.00  0.00     0.261 C 
ATOM      4  C   UNL     1     104.033 105.195  96.728  1.00  0.00     0.077 C 
ATOM      5  C   UNL     1     104.524 106.508  97.311  1.00  0.00     0.068 C 
ATOM      6  H   UNL     1     103.333 104.872  99.467  1.00  0.00     0.346 HD
ATOM      7  H   UNL     1     104.956 104.423  99.773  1.00  0.00     0.346 HD
ENDROOT
BRANCH   1   8
ATOM      8  C   UNL     1     103.431 102.984  97.760  1.00  0.00     0.099 C 
ATOM      9  O   UNL     1     102.185 103.166  97.716  1.00  0.00    -0.544 OA
ATOM     10  O   UNL     1     103.932 101.687  97.773  1.00  0.00    -0.544 OA
ENDBRANCH   1   8
TORSDOF 1
ENDMDL
MODEL 6
REMARK VINA RESULT:     2.003      4.366      4.758
REMARK INTER + INTRA:           2.089
REMARK INTER:                   2.120
REMARK INTRA:                  -0.032
REMARK UNBOUND:                -0.032
REMARK SMILES O=C([O-])[C@H]1CCC[NH2+]1
REMARK SMILES IDX 4 1 8 2 7 3 5 4 6 5 2 8 1 9 3 10
REMARK H PARENT 8 6 8 7
REMARK Flexibility Score: inf
ROOT
ATOM      1  C   UNL     1     103.637 104.121  97.792  1.00  0.00     0.229 C 
ATOM      2  N   UNL     1     103.696 103.403  99.068  1.00  0.00    -0.339 N 
ATOM      3  C   UNL     1     103.286 102.027  98.776  1.00  0.00     0.261 C 
ATOM      4  C   UNL     1     103.965 103.103  96.708  1.00  0.00     0.077 C 
ATOM      5  C   UNL     1     103.474 101.785  97.278  1.00  0.00     0.068 C 
ATOM      6  H   UNL     1     104.672 103.394  99.449  1.00  0.00     0.346 HD
ATOM      7  H   UNL     1     103.050 103.840  99.766  1.00  0.00     0.346 HD
ENDROOT
BRANCH   1   8
ATOM      8  C   UNL     1     104.571 105.302  97.765  1.00  0.00     0.099 C 
ATOM      9  O   UNL     1     105.817 105.120  97.740  1.00  0.00    -0.544 OA
ATOM     10  O   UNL     1     104.070 106.599  97.768  1.00  0.00    -0.544 OA
ENDBRANCH   1   8
TORSDOF 1
ENDMDL
