MODEL 1
REMARK VINA RESULT:    -6.714      0.000      0.000
REMARK INTER + INTRA:         -13.568
REMARK INTER:                 -11.031
REMARK INTRA:                  -2.537
REMARK UNBOUND:                -2.537
REMARK SMILES C[C@@H]1O[C@H](OC[C@H]2O[C@@H](Oc3c(-c4ccc(O)c(O)c4)oc4cc(O)cc(O)c4c3=O)[C@H](O)[C@H](O)[C@@H]2O)[C@@H](O)[C@H](O)[C@H]1O
REMARK SMILES IDX 7 1 36 2 34 3 32 4 9 5 8 6 6 7 5 8 4 9 1 10 2 11 42 12 3 13
REMARK SMILES IDX 40 14 38 15 43 16 41 18 39 20 37 22 35 24 10 26 11 27 12 28
REMARK SMILES IDX 30 29 21 30 29 31 31 32 22 33 27 34 23 35 26 36 24 37 13 38
REMARK SMILES IDX 20 39 14 40 18 41 15 42 16 43 19 44 17 46 28 48 25 50 33 52
REMARK H PARENT 43 17 41 19 39 21 37 23 35 25 19 45 17 47 28 49 25 51 33 53
REMARK Flexibility Score: inf
ROOT
ATOM      1  C   UNL     1      72.259  43.220   7.273  1.00  0.00     0.180 C 
ATOM      2  C   UNL     1      73.487  43.800   6.415  1.00  0.00     0.177 C 
ATOM      3  C   UNL     1      73.588  45.326   6.678  1.00  0.00     0.180 C 
ATOM      4  C   UNL     1      72.250  46.089   6.437  1.00  0.00     0.214 C 
ATOM      5  C   UNL     1      71.058  45.156   6.738  1.00  0.00     0.339 C 
ATOM      6  O   UNL     1      71.456  44.269   7.781  1.00  0.00    -0.332 OA
ENDROOT
BRANCH   1   7
ATOM      7  C   UNL     1      72.413  42.118   8.360  1.00  0.00     0.198 C 
BRANCH   7   8
ATOM      8  O   UNL     1      71.356  41.152   8.469  1.00  0.00    -0.347 OA
BRANCH   8   9
ATOM      9  C   UNL     1      71.070  40.569   7.201  1.00  0.00     0.281 C 
ATOM     10  C   UNL     1      70.009  37.290   8.427  1.00  0.00     0.041 C 
ATOM     11  C   UNL     1      69.771  38.577   7.633  1.00  0.00     0.150 C 
ATOM     12  C   UNL     1      68.817  39.545   8.383  1.00  0.00     0.174 C 
ATOM     13  O   UNL     1      71.061  39.139   7.359  1.00  0.00    -0.344 OA
ATOM     14  C   UNL     1      68.542  40.821   7.508  1.00  0.00     0.179 C 
ATOM     15  C   UNL     1      69.757  41.163   6.591  1.00  0.00     0.202 C 
BRANCH  12  16
ATOM     16  O   UNL     1      67.616  38.895   8.749  1.00  0.00    -0.388 OA
ATOM     17  H   UNL     1      66.934  39.648   8.799  1.00  0.00     0.211 HD
ENDBRANCH  12  16
BRANCH  14  18
ATOM     18  O   UNL     1      68.269  41.929   8.336  1.00  0.00    -0.387 OA
ATOM     19  H   UNL     1      69.087  42.485   8.359  1.00  0.00     0.211 HD
ENDBRANCH  14  18
BRANCH  15  20
ATOM     20  O   UNL     1      69.577  40.605   5.319  1.00  0.00    -0.385 OA
ATOM     21  H   UNL     1      70.286  39.926   5.125  1.00  0.00     0.211 HD
ENDBRANCH  15  20
ENDBRANCH   8   9
ENDBRANCH   7   8
ENDBRANCH   1   7
BRANCH   2  22
ATOM     22  O   UNL     1      73.186  43.628   5.032  1.00  0.00    -0.387 OA
ATOM     23  H   UNL     1      72.260  43.275   4.957  1.00  0.00     0.211 HD
ENDBRANCH   2  22
BRANCH   3  24
ATOM     24  O   UNL     1      74.625  45.889   5.900  1.00  0.00    -0.387 OA
ATOM     25  H   UNL     1      74.199  46.471   5.230  1.00  0.00     0.211 HD
ENDBRANCH   3  24
BRANCH   5  26
ATOM     26  O   UNL     1      69.925  45.866   7.209  1.00  0.00    -0.454 OA
BRANCH  26  27
ATOM     27  C   UNL     1      69.511  46.070   8.540  1.00  0.00     0.214 A 
ATOM     28  C   UNL     1      69.554  47.415   9.036  1.00  0.00     0.180 A 
ATOM     29  C   UNL     1      68.410  45.299   9.013  1.00  0.00     0.239 A 
ATOM     30  O   UNL     1      68.360  48.006   9.308  1.00  0.00    -0.452 OA
ATOM     31  C   UNL     1      67.169  45.939   8.929  1.00  0.00     0.111 A 
ATOM     32  O   UNL     1      68.561  44.424   9.935  1.00  0.00    -0.285 OA
ATOM     33  C   UNL     1      67.181  47.355   9.171  1.00  0.00     0.146 A 
ATOM     34  C   UNL     1      65.968  45.318   8.570  1.00  0.00     0.134 A 
ATOM     35  C   UNL     1      65.958  48.051   9.252  1.00  0.00     0.094 A 
ATOM     36  C   UNL     1      64.785  46.093   8.481  1.00  0.00     0.093 A 
ATOM     37  C   UNL     1      64.753  47.429   8.879  1.00  0.00     0.123 A 
BRANCH  28  38
ATOM     38  C   UNL     1      70.829  48.220   9.046  1.00  0.00     0.025 A 
ATOM     39  C   UNL     1      72.010  47.777   9.693  1.00  0.00     0.062 A 
ATOM     40  C   UNL     1      70.872  49.426   8.319  1.00  0.00     0.016 A 
ATOM     41  C   UNL     1      73.203  48.476   9.543  1.00  0.00     0.158 A 
ATOM     42  C   UNL     1      72.068  50.131   8.190  1.00  0.00     0.051 A 
ATOM     43  C   UNL     1      73.244  49.649   8.754  1.00  0.00     0.157 A 
BRANCH  41  44
ATOM     44  O   UNL     1      74.362  47.951  10.124  1.00  0.00    -0.504 OA
ATOM     45  H   UNL     1      74.496  46.951  10.275  1.00  0.00     0.293 HD
ENDBRANCH  41  44
BRANCH  43  46
ATOM     46  O   UNL     1      74.409  50.359   8.502  1.00  0.00    -0.504 OA
ATOM     47  H   UNL     1      75.309  49.944   8.261  1.00  0.00     0.293 HD
ENDBRANCH  43  46
ENDBRANCH  28  38
BRANCH  34  48
ATOM     48  O   UNL     1      65.939  43.938   8.275  1.00  0.00    -0.507 OA
ATOM     49  H   UNL     1      66.413  43.274   8.870  1.00  0.00     0.293 HD
ENDBRANCH  34  48
BRANCH  37  50
ATOM     50  O   UNL     1      63.539  48.111   8.791  1.00  0.00    -0.508 OA
ATOM     51  H   UNL     1      63.399  48.952   9.323  1.00  0.00     0.293 HD
ENDBRANCH  37  50
ENDBRANCH  26  27
ENDBRANCH   5  26
BRANCH   4  52
ATOM     52  O   UNL     1      72.173  46.556   5.106  1.00  0.00    -0.384 OA
ATOM     53  H   UNL     1      71.424  47.243   5.072  1.00  0.00     0.211 HD
ENDBRANCH   4  52
TORSDOF 16
ENDMDL
MODEL 2
REMARK VINA RESULT:    -6.474      2.052      7.646
REMARK INTER + INTRA:         -13.174
REMARK INTER:                 -12.176
REMARK INTRA:                  -0.999
REMARK UNBOUND:                -2.537
REMARK SMILES C[C@@H]1O[C@H](OC[C@H]2O[C@@H](Oc3c(-c4ccc(O)c(O)c4)oc4cc(O)cc(O)c4c3=O)[C@H](O)[C@H](O)[C@@H]2O)[C@@H](O)[C@H](O)[C@H]1O
REMARK SMILES IDX 7 1 36 2 34 3 32 4 9 5 8 6 6 7 5 8 4 9 1 10 2 11 42 12 3 13
REMARK SMILES IDX 40 14 38 15 43 16 41 18 39 20 37 22 35 24 10 26 11 27 12 28
REMARK SMILES IDX 30 29 21 30 29 31 31 32 22 33 27 34 23 35 26 36 24 37 13 38
REMARK SMILES IDX 20 39 14 40 18 41 15 42 16 43 19 44 17 46 28 48 25 50 33 52
REMARK H PARENT 43 17 41 19 39 21 37 23 35 25 19 45 17 47 28 49 25 51 33 53
REMARK Flexibility Score: inf
ROOT
ATOM      1  C   UNL     1      68.587  47.977   8.113  1.00  0.00     0.180 C 
ATOM      2  C   UNL     1      69.199  49.460   8.020  1.00  0.00     0.177 C 
ATOM      3  C   UNL     1      70.738  49.344   7.867  1.00  0.00     0.180 C 
ATOM      4  C   UNL     1      71.408  48.467   8.970  1.00  0.00     0.214 C 
ATOM      5  C   UNL     1      70.420  47.377   9.439  1.00  0.00     0.339 C 
ATOM      6  O   UNL     1      69.608  47.020   8.322  1.00  0.00    -0.332 OA
ENDROOT
BRANCH   1   7
ATOM      7  C   UNL     1      67.548  47.409   7.105  1.00  0.00     0.198 C 
BRANCH   7   8
ATOM      8  O   UNL     1      66.199  47.253   7.571  1.00  0.00    -0.347 OA
BRANCH   8   9
ATOM      9  C   UNL     1      66.177  46.679   8.875  1.00  0.00     0.281 C 
ATOM     10  C   UNL     1      63.249  48.480  10.125  1.00  0.00     0.041 C 
ATOM     11  C   UNL     1      64.011  47.188   9.818  1.00  0.00     0.150 C 
ATOM     12  C   UNL     1      63.461  46.487   8.547  1.00  0.00     0.174 C 
ATOM     13  O   UNL     1      65.398  47.537   9.727  1.00  0.00    -0.344 OA
ATOM     14  C   UNL     1      64.220  45.133   8.304  1.00  0.00     0.179 C 
ATOM     15  C   UNL     1      65.688  45.194   8.828  1.00  0.00     0.202 C 
BRANCH  12  16
ATOM     16  O   UNL     1      62.063  46.293   8.636  1.00  0.00    -0.388 OA
ATOM     17  H   UNL     1      61.756  47.014   9.284  1.00  0.00     0.211 HD
ENDBRANCH  12  16
BRANCH  14  18
ATOM     18  O   UNL     1      64.238  44.826   6.928  1.00  0.00    -0.387 OA
ATOM     19  H   UNL     1      63.628  44.059   6.792  1.00  0.00     0.211 HD
ENDBRANCH  14  18
BRANCH  15  20
ATOM     20  O   UNL     1      65.763  44.670  10.125  1.00  0.00    -0.385 OA
ATOM     21  H   UNL     1      66.291  43.819  10.135  1.00  0.00     0.211 HD
ENDBRANCH  15  20
ENDBRANCH   8   9
ENDBRANCH   7   8
ENDBRANCH   1   7
BRANCH   2  22
ATOM     22  O   UNL     1      68.945  50.127   9.253  1.00  0.00    -0.387 OA
ATOM     23  H   UNL     1      69.743  50.020   9.835  1.00  0.00     0.211 HD
ENDBRANCH   2  22
BRANCH   3  24
ATOM     24  O   UNL     1      71.326  50.629   7.834  1.00  0.00    -0.387 OA
ATOM     25  H   UNL     1      71.120  51.016   6.953  1.00  0.00     0.211 HD
ENDBRANCH   3  24
BRANCH   5  26
ATOM     26  O   UNL     1      71.082  46.198   9.863  1.00  0.00    -0.454 OA
BRANCH  26  27
ATOM     27  C   UNL     1      72.023  45.421   9.159  1.00  0.00     0.214 A 
ATOM     28  C   UNL     1      71.519  44.576   8.115  1.00  0.00     0.180 A 
ATOM     29  C   UNL     1      73.291  46.011   8.883  1.00  0.00     0.239 A 
ATOM     30  O   UNL     1      71.871  44.900   6.841  1.00  0.00    -0.452 OA
ATOM     31  C   UNL     1      73.398  46.603   7.620  1.00  0.00     0.111 A 
ATOM     32  O   UNL     1      74.362  45.558   9.415  1.00  0.00    -0.285 OA
ATOM     33  C   UNL     1      72.696  45.935   6.559  1.00  0.00     0.146 A 
ATOM     34  C   UNL     1      74.068  47.800   7.348  1.00  0.00     0.134 A 
ATOM     35  C   UNL     1      72.871  46.377   5.231  1.00  0.00     0.094 A 
ATOM     36  C   UNL     1      74.065  48.313   6.027  1.00  0.00     0.093 A 
ATOM     37  C   UNL     1      73.535  47.587   4.961  1.00  0.00     0.123 A 
BRANCH  28  38
ATOM     38  C   UNL     1      70.475  43.522   8.378  1.00  0.00     0.025 A 
ATOM     39  C   UNL     1      69.097  43.722   8.107  1.00  0.00     0.062 A 
ATOM     40  C   UNL     1      70.893  42.258   8.841  1.00  0.00     0.016 A 
ATOM     41  C   UNL     1      68.195  42.669   8.218  1.00  0.00     0.158 A 
ATOM     42  C   UNL     1      69.978  41.214   8.968  1.00  0.00     0.051 A 
ATOM     43  C   UNL     1      68.643  41.389   8.619  1.00  0.00     0.157 A 
BRANCH  41  44
ATOM     44  O   UNL     1      66.863  42.890   7.851  1.00  0.00    -0.504 OA
ATOM     45  H   UNL     1      66.577  43.679   7.272  1.00  0.00     0.293 HD
ENDBRANCH  41  44
BRANCH  43  46
ATOM     46  O   UNL     1      67.816  40.277   8.685  1.00  0.00    -0.504 OA
ATOM     47  H   UNL     1      67.612  39.747   9.532  1.00  0.00     0.293 HD
ENDBRANCH  43  46
ENDBRANCH  28  38
BRANCH  34  48
ATOM     48  O   UNL     1      74.720  48.503   8.383  1.00  0.00    -0.507 OA
ATOM     49  H   UNL     1      75.726  48.474   8.472  1.00  0.00     0.293 HD
ENDBRANCH  34  48
BRANCH  37  50
ATOM     50  O   UNL     1      73.602  48.150   3.686  1.00  0.00    -0.508 OA
ATOM     51  H   UNL     1      73.808  47.568   2.893  1.00  0.00     0.293 HD
ENDBRANCH  37  50
ENDBRANCH  26  27
ENDBRANCH   5  26
BRANCH   4  52
ATOM     52  O   UNL     1      71.807  49.261  10.067  1.00  0.00    -0.384 OA
ATOM     53  H   UNL     1      71.018  49.854  10.312  1.00  0.00     0.211 HD
ENDBRANCH   4  52
TORSDOF 16
ENDMDL
MODEL 3
REMARK VINA RESULT:    -6.450      2.164      8.159
REMARK INTER + INTRA:         -13.135
REMARK INTER:                 -11.694
REMARK INTRA:                  -1.441
REMARK UNBOUND:                -2.537
REMARK SMILES C[C@@H]1O[C@H](OC[C@H]2O[C@@H](Oc3c(-c4ccc(O)c(O)c4)oc4cc(O)cc(O)c4c3=O)[C@H](O)[C@H](O)[C@@H]2O)[C@@H](O)[C@H](O)[C@H]1O
REMARK SMILES IDX 7 1 36 2 34 3 32 4 9 5 8 6 6 7 5 8 4 9 1 10 2 11 42 12 3 13
REMARK SMILES IDX 40 14 38 15 43 16 41 18 39 20 37 22 35 24 10 26 11 27 12 28
REMARK SMILES IDX 30 29 21 30 29 31 31 32 22 33 27 34 23 35 26 36 24 37 13 38
REMARK SMILES IDX 20 39 14 40 18 41 15 42 16 43 19 44 17 46 28 48 25 50 33 52
REMARK H PARENT 43 17 41 19 39 21 37 23 35 25 19 45 17 47 28 49 25 51 33 53
REMARK Flexibility Score: inf
ROOT
ATOM      1  C   UNL     1      68.157  44.694   8.609  1.00  0.00     0.180 C 
ATOM      2  C   UNL     1      67.381  43.325   8.933  1.00  0.00     0.177 C 
ATOM      3  C   UNL     1      68.422  42.176   8.989  1.00  0.00     0.180 C 
ATOM      4  C   UNL     1      69.322  42.089   7.719  1.00  0.00     0.214 C 
ATOM      5  C   UNL     1      69.502  43.497   7.112  1.00  0.00     0.339 C 
ATOM      6  O   UNL     1      69.483  44.436   8.186  1.00  0.00    -0.332 OA
ENDROOT
BRANCH   1   7
ATOM      7  C   UNL     1      68.149  45.933   9.549  1.00  0.00     0.198 C 
BRANCH   7   8
ATOM      8  O   UNL     1      66.950  46.722   9.583  1.00  0.00    -0.347 OA
BRANCH   8   9
ATOM      9  C   UNL     1      66.448  46.936   8.268  1.00  0.00     0.281 C 
ATOM     10  C   UNL     1      62.893  46.639   9.075  1.00  0.00     0.041 C 
ATOM     11  C   UNL     1      64.088  47.402   8.496  1.00  0.00     0.150 C 
ATOM     12  C   UNL     1      64.558  48.536   9.446  1.00  0.00     0.174 C 
ATOM     13  O   UNL     1      65.103  46.430   8.215  1.00  0.00    -0.344 OA
ATOM     14  C   UNL     1      65.738  49.339   8.788  1.00  0.00     0.179 C 
ATOM     15  C   UNL     1      66.593  48.436   7.846  1.00  0.00     0.202 C 
BRANCH  12  16
ATOM     16  O   UNL     1      63.483  49.385   9.798  1.00  0.00    -0.388 OA
ATOM     17  H   UNL     1      63.338  49.199  10.788  1.00  0.00     0.211 HD
ENDBRANCH  12  16
BRANCH  14  18
ATOM     18  O   UNL     1      66.574  49.879   9.787  1.00  0.00    -0.387 OA
ATOM     19  H   UNL     1      67.466  49.465   9.676  1.00  0.00     0.211 HD
ENDBRANCH  14  18
BRANCH  15  20
ATOM     20  O   UNL     1      66.153  48.561   6.523  1.00  0.00    -0.385 OA
ATOM     21  H   UNL     1      66.117  49.523   6.249  1.00  0.00     0.211 HD
ENDBRANCH  15  20
ENDBRANCH   8   9
ENDBRANCH   7   8
ENDBRANCH   1   7
BRANCH   2  22
ATOM     22  O   UNL     1      66.498  43.044   7.850  1.00  0.00    -0.387 OA
ATOM     23  H   UNL     1      66.234  42.088   7.904  1.00  0.00     0.211 HD
ENDBRANCH   2  22
BRANCH   3  24
ATOM     24  O   UNL     1      67.775  40.940   9.221  1.00  0.00    -0.387 OA
ATOM     25  H   UNL     1      66.883  41.002   8.811  1.00  0.00     0.211 HD
ENDBRANCH   3  24
BRANCH   5  26
ATOM     26  O   UNL     1      70.749  43.645   6.455  1.00  0.00    -0.454 OA
BRANCH  26  27
ATOM     27  C   UNL     1      72.007  43.935   7.020  1.00  0.00     0.214 A 
ATOM     28  C   UNL     1      73.162  43.452   6.321  1.00  0.00     0.180 A 
ATOM     29  C   UNL     1      72.175  45.211   7.633  1.00  0.00     0.239 A 
ATOM     30  O   UNL     1      73.975  44.387   5.761  1.00  0.00    -0.452 OA
ATOM     31  C   UNL     1      72.745  46.185   6.805  1.00  0.00     0.111 A 
ATOM     32  O   UNL     1      72.367  45.322   8.893  1.00  0.00    -0.285 OA
ATOM     33  C   UNL     1      73.747  45.716   5.890  1.00  0.00     0.146 A 
ATOM     34  C   UNL     1      72.364  47.531   6.770  1.00  0.00     0.134 A 
ATOM     35  C   UNL     1      74.476  46.650   5.126  1.00  0.00     0.094 A 
ATOM     36  C   UNL     1      72.996  48.407   5.852  1.00  0.00     0.093 A 
ATOM     37  C   UNL     1      74.085  48.000   5.082  1.00  0.00     0.123 A 
BRANCH  28  38
ATOM     38  C   UNL     1      73.357  41.988   6.022  1.00  0.00     0.025 A 
ATOM     39  C   UNL     1      72.753  40.960   6.791  1.00  0.00     0.062 A 
ATOM     40  C   UNL     1      74.109  41.624   4.886  1.00  0.00     0.016 A 
ATOM     41  C   UNL     1      72.833  39.633   6.384  1.00  0.00     0.158 A 
ATOM     42  C   UNL     1      74.200  40.289   4.498  1.00  0.00     0.051 A 
ATOM     43  C   UNL     1      73.535  39.293   5.205  1.00  0.00     0.157 A 
BRANCH  41  44
ATOM     44  O   UNL     1      72.143  38.666   7.123  1.00  0.00    -0.504 OA
ATOM     45  H   UNL     1      72.574  38.150   7.889  1.00  0.00     0.293 HD
ENDBRANCH  41  44
BRANCH  43  46
ATOM     46  O   UNL     1      73.599  38.002   4.699  1.00  0.00    -0.504 OA
ATOM     47  H   UNL     1      72.819  37.345   4.667  1.00  0.00     0.293 HD
ENDBRANCH  43  46
ENDBRANCH  28  38
BRANCH  34  48
ATOM     48  O   UNL     1      71.344  48.006   7.622  1.00  0.00    -0.507 OA
ATOM     49  H   UNL     1      70.646  47.376   7.990  1.00  0.00     0.293 HD
ENDBRANCH  34  48
BRANCH  37  50
ATOM     50  O   UNL     1      74.670  48.935   4.228  1.00  0.00    -0.508 OA
ATOM     51  H   UNL     1      74.987  49.816   4.593  1.00  0.00     0.293 HD
ENDBRANCH  37  50
ENDBRANCH  26  27
ENDBRANCH   5  26
BRANCH   4  52
ATOM     52  O   UNL     1      68.755  41.220   6.761  1.00  0.00    -0.384 OA
ATOM     53  H   UNL     1      68.616  41.760   5.911  1.00  0.00     0.211 HD
ENDBRANCH   4  52
TORSDOF 16
ENDMDL
MODEL 4
REMARK VINA RESULT:    -6.445      1.928      6.565
REMARK INTER + INTRA:         -13.126
REMARK INTER:                 -10.686
REMARK INTRA:                  -2.440
REMARK UNBOUND:                -2.537
REMARK SMILES C[C@@H]1O[C@H](OC[C@H]2O[C@@H](Oc3c(-c4ccc(O)c(O)c4)oc4cc(O)cc(O)c4c3=O)[C@H](O)[C@H](O)[C@@H]2O)[C@@H](O)[C@H](O)[C@H]1O
REMARK SMILES IDX 7 1 36 2 34 3 32 4 9 5 8 6 6 7 5 8 4 9 1 10 2 11 42 12 3 13
REMARK SMILES IDX 40 14 38 15 43 16 41 18 39 20 37 22 35 24 10 26 11 27 12 28
REMARK SMILES IDX 30 29 21 30 29 31 31 32 22 33 27 34 23 35 26 36 24 37 13 38
REMARK SMILES IDX 20 39 14 40 18 41 15 42 16 43 19 44 17 46 28 48 25 50 33 52
REMARK H PARENT 43 17 41 19 39 21 37 23 35 25 19 45 17 47 28 49 25 51 33 53
REMARK Flexibility Score: inf
ROOT
ATOM      1  C   UNL     1      71.454  47.756   7.055  1.00  0.00     0.180 C 
ATOM      2  C   UNL     1      70.900  49.235   7.351  1.00  0.00     0.177 C 
ATOM      3  C   UNL     1      69.757  49.128   8.394  1.00  0.00     0.180 C 
ATOM      4  C   UNL     1      68.639  48.118   7.991  1.00  0.00     0.214 C 
ATOM      5  C   UNL     1      69.245  46.986   7.135  1.00  0.00     0.339 C 
ATOM      6  O   UNL     1      70.583  46.774   7.583  1.00  0.00    -0.332 OA
ENDROOT
BRANCH   1   7
ATOM      7  C   UNL     1      72.927  47.323   7.302  1.00  0.00     0.198 C 
BRANCH   7   8
ATOM      8  O   UNL     1      73.259  45.950   7.043  1.00  0.00    -0.347 OA
BRANCH   8   9
ATOM      9  C   UNL     1      73.935  45.819   5.796  1.00  0.00     0.281 C 
ATOM     10  C   UNL     1      75.123  42.392   6.272  1.00  0.00     0.041 C 
ATOM     11  C   UNL     1      74.358  43.460   5.484  1.00  0.00     0.150 C 
ATOM     12  C   UNL     1      72.823  43.316   5.665  1.00  0.00     0.174 C 
ATOM     13  O   UNL     1      74.869  44.731   5.907  1.00  0.00    -0.344 OA
ATOM     14  C   UNL     1      72.073  44.382   4.789  1.00  0.00     0.179 C 
ATOM     15  C   UNL     1      72.917  45.682   4.616  1.00  0.00     0.202 C 
BRANCH  12  16
ATOM     16  O   UNL     1      72.396  42.001   5.364  1.00  0.00    -0.388 OA
ATOM     17  H   UNL     1      72.943  41.746   4.546  1.00  0.00     0.211 HD
ENDBRANCH  12  16
BRANCH  14  18
ATOM     18  O   UNL     1      70.837  44.716   5.382  1.00  0.00    -0.387 OA
ATOM     19  H   UNL     1      70.970  44.700   6.362  1.00  0.00     0.211 HD
ENDBRANCH  14  18
BRANCH  15  20
ATOM     20  O   UNL     1      73.643  45.634   3.419  1.00  0.00    -0.385 OA
ATOM     21  H   UNL     1      73.049  45.820   2.635  1.00  0.00     0.211 HD
ENDBRANCH  15  20
ENDBRANCH   8   9
ENDBRANCH   7   8
ENDBRANCH   1   7
BRANCH   2  22
ATOM     22  O   UNL     1      70.330  49.747   6.149  1.00  0.00    -0.387 OA
ATOM     23  H   UNL     1      70.265  50.736   6.231  1.00  0.00     0.211 HD
ENDBRANCH   2  22
BRANCH   3  24
ATOM     24  O   UNL     1      69.203  50.404   8.646  1.00  0.00    -0.387 OA
ATOM     25  H   UNL     1      69.922  51.062   8.510  1.00  0.00     0.211 HD
ENDBRANCH   3  24
BRANCH   5  26
ATOM     26  O   UNL     1      68.555  45.759   7.299  1.00  0.00    -0.454 OA
BRANCH  26  27
ATOM     27  C   UNL     1      68.320  45.039   8.487  1.00  0.00     0.214 A 
ATOM     28  C   UNL     1      67.022  44.449   8.645  1.00  0.00     0.180 A 
ATOM     29  C   UNL     1      69.393  44.260   9.009  1.00  0.00     0.239 A 
ATOM     30  O   UNL     1      66.962  43.090   8.632  1.00  0.00    -0.452 OA
ATOM     31  C   UNL     1      69.371  42.912   8.635  1.00  0.00     0.111 A 
ATOM     32  O   UNL     1      69.944  44.554  10.125  1.00  0.00    -0.285 OA
ATOM     33  C   UNL     1      68.068  42.317   8.528  1.00  0.00     0.146 A 
ATOM     34  C   UNL     1      70.498  42.151   8.306  1.00  0.00     0.134 A 
ATOM     35  C   UNL     1      67.960  40.929   8.302  1.00  0.00     0.094 A 
ATOM     36  C   UNL     1      70.332  40.803   7.903  1.00  0.00     0.093 A 
ATOM     37  C   UNL     1      69.092  40.169   7.961  1.00  0.00     0.123 A 
BRANCH  28  38
ATOM     38  C   UNL     1      65.762  45.274   8.602  1.00  0.00     0.025 A 
ATOM     39  C   UNL     1      65.718  46.632   9.008  1.00  0.00     0.062 A 
ATOM     40  C   UNL     1      64.594  44.695   8.063  1.00  0.00     0.016 A 
ATOM     41  C   UNL     1      64.574  47.395   8.803  1.00  0.00     0.158 A 
ATOM     42  C   UNL     1      63.446  45.464   7.879  1.00  0.00     0.051 A 
ATOM     43  C   UNL     1      63.434  46.817   8.200  1.00  0.00     0.157 A 
BRANCH  41  44
ATOM     44  O   UNL     1      64.610  48.753   9.136  1.00  0.00    -0.504 OA
ATOM     45  H   UNL     1      65.044  49.098   9.991  1.00  0.00     0.293 HD
ENDBRANCH  41  44
BRANCH  43  46
ATOM     46  O   UNL     1      62.283  47.532   7.900  1.00  0.00    -0.504 OA
ATOM     47  H   UNL     1      61.966  47.767   6.959  1.00  0.00     0.293 HD
ENDBRANCH  43  46
ENDBRANCH  28  38
BRANCH  34  48
ATOM     48  O   UNL     1      71.786  42.728   8.352  1.00  0.00    -0.507 OA
ATOM     49  H   UNL     1      72.304  42.761   9.218  1.00  0.00     0.293 HD
ENDBRANCH  34  48
BRANCH  37  50
ATOM     50  O   UNL     1      69.022  38.829   7.577  1.00  0.00    -0.508 OA
ATOM     51  H   UNL     1      68.667  38.143   8.219  1.00  0.00     0.293 HD
ENDBRANCH  37  50
ENDBRANCH  26  27
ENDBRANCH   5  26
BRANCH   4  52
ATOM     52  O   UNL     1      67.612  48.769   7.272  1.00  0.00    -0.384 OA
ATOM     53  H   UNL     1      67.903  48.805   6.299  1.00  0.00     0.211 HD
ENDBRANCH   4  52
TORSDOF 16
ENDMDL
MODEL 5
REMARK VINA RESULT:    -6.361      2.372      8.282
REMARK INTER + INTRA:         -12.989
REMARK INTER:                 -10.514
REMARK INTRA:                  -2.475
REMARK UNBOUND:                -2.537
REMARK SMILES C[C@@H]1O[C@H](OC[C@H]2O[C@@H](Oc3c(-c4ccc(O)c(O)c4)oc4cc(O)cc(O)c4c3=O)[C@H](O)[C@H](O)[C@@H]2O)[C@@H](O)[C@H](O)[C@H]1O
REMARK SMILES IDX 7 1 36 2 34 3 32 4 9 5 8 6 6 7 5 8 4 9 1 10 2 11 42 12 3 13
REMARK SMILES IDX 40 14 38 15 43 16 41 18 39 20 37 22 35 24 10 26 11 27 12 28
REMARK SMILES IDX 30 29 21 30 29 31 31 32 22 33 27 34 23 35 26 36 24 37 13 38
REMARK SMILES IDX 20 39 14 40 18 41 15 42 16 43 19 44 17 46 28 48 25 50 33 52
REMARK H PARENT 43 17 41 19 39 21 37 23 35 25 19 45 17 47 28 49 25 51 33 53
REMARK Flexibility Score: inf
ROOT
ATOM      1  C   UNL     1      69.411  45.213   9.031  1.00  0.00     0.180 C 
ATOM      2  C   UNL     1      68.303  44.227   8.413  1.00  0.00     0.177 C 
ATOM      3  C   UNL     1      68.740  42.765   8.695  1.00  0.00     0.180 C 
ATOM      4  C   UNL     1      70.189  42.445   8.216  1.00  0.00     0.214 C 
ATOM      5  C   UNL     1      71.055  43.720   8.292  1.00  0.00     0.339 C 
ATOM      6  O   UNL     1      70.581  44.501   9.387  1.00  0.00    -0.332 OA
ENDROOT
BRANCH   1   7
ATOM      7  C   UNL     1      69.103  46.276  10.125  1.00  0.00     0.198 C 
BRANCH   7   8
ATOM      8  O   UNL     1      69.234  47.656   9.752  1.00  0.00    -0.347 OA
BRANCH   8   9
ATOM      9  C   UNL     1      68.744  47.873   8.432  1.00  0.00     0.281 C 
ATOM     10  C   UNL     1      65.676  49.634   9.360  1.00  0.00     0.041 C 
ATOM     11  C   UNL     1      67.005  49.542   8.606  1.00  0.00     0.150 C 
ATOM     12  C   UNL     1      68.107  50.402   9.280  1.00  0.00     0.174 C 
ATOM     13  O   UNL     1      67.335  48.150   8.519  1.00  0.00    -0.344 OA
ATOM     14  C   UNL     1      69.433  50.337   8.441  1.00  0.00     0.179 C 
ATOM     15  C   UNL     1      69.578  48.974   7.696  1.00  0.00     0.202 C 
BRANCH  12  16
ATOM     16  O   UNL     1      67.672  51.735   9.465  1.00  0.00    -0.388 OA
ATOM     17  H   UNL     1      67.502  52.072   8.520  1.00  0.00     0.211 HD
ENDBRANCH  12  16
BRANCH  14  18
ATOM     18  O   UNL     1      70.551  50.519   9.281  1.00  0.00    -0.387 OA
ATOM     19  H   UNL     1      70.390  49.985  10.099  1.00  0.00     0.211 HD
ENDBRANCH  14  18
BRANCH  15  20
ATOM     20  O   UNL     1      69.094  49.083   6.386  1.00  0.00    -0.385 OA
ATOM     21  H   UNL     1      69.212  50.014   6.039  1.00  0.00     0.211 HD
ENDBRANCH  15  20
ENDBRANCH   8   9
ENDBRANCH   7   8
ENDBRANCH   1   7
BRANCH   2  22
ATOM     22  O   UNL     1      68.291  44.399   6.998  1.00  0.00    -0.387 OA
ATOM     23  H   UNL     1      68.646  43.570   6.580  1.00  0.00     0.211 HD
ENDBRANCH   2  22
BRANCH   3  24
ATOM     24  O   UNL     1      67.819  41.859   8.121  1.00  0.00    -0.387 OA
ATOM     25  H   UNL     1      66.919  42.159   8.384  1.00  0.00     0.211 HD
ENDBRANCH   3  24
BRANCH   5  26
ATOM     26  O   UNL     1      72.418  43.431   8.550  1.00  0.00    -0.454 OA
BRANCH  26  27
ATOM     27  C   UNL     1      73.544  43.745   7.762  1.00  0.00     0.214 A 
ATOM     28  C   UNL     1      73.659  43.080   6.497  1.00  0.00     0.180 A 
ATOM     29  C   UNL     1      73.991  45.098   7.764  1.00  0.00     0.239 A 
ATOM     30  O   UNL     1      73.533  43.853   5.385  1.00  0.00    -0.452 OA
ATOM     31  C   UNL     1      73.506  45.875   6.706  1.00  0.00     0.111 A 
ATOM     32  O   UNL     1      75.125  45.421   8.261  1.00  0.00    -0.285 OA
ATOM     33  C   UNL     1      73.357  45.194   5.450  1.00  0.00     0.146 A 
ATOM     34  C   UNL     1      73.108  47.212   6.808  1.00  0.00     0.134 A 
ATOM     35  C   UNL     1      73.017  45.934   4.300  1.00  0.00     0.094 A 
ATOM     36  C   UNL     1      72.594  47.873   5.665  1.00  0.00     0.093 A 
ATOM     37  C   UNL     1      72.606  47.274   4.406  1.00  0.00     0.123 A 
BRANCH  28  38
ATOM     38  C   UNL     1      73.693  41.577   6.387  1.00  0.00     0.025 A 
ATOM     39  C   UNL     1      74.153  40.741   7.437  1.00  0.00     0.062 A 
ATOM     40  C   UNL     1      73.175  40.973   5.223  1.00  0.00     0.016 A 
ATOM     41  C   UNL     1      74.018  39.360   7.350  1.00  0.00     0.158 A 
ATOM     42  C   UNL     1      73.063  39.586   5.139  1.00  0.00     0.051 A 
ATOM     43  C   UNL     1      73.434  38.773   6.204  1.00  0.00     0.157 A 
BRANCH  41  44
ATOM     44  O   UNL     1      74.401  38.583   8.449  1.00  0.00    -0.504 OA
ATOM     45  H   UNL     1      74.490  38.967   9.389  1.00  0.00     0.293 HD
ENDBRANCH  41  44
BRANCH  43  46
ATOM     46  O   UNL     1      73.204  37.411   6.076  1.00  0.00    -0.504 OA
ATOM     47  H   UNL     1      72.684  36.973   5.316  1.00  0.00     0.293 HD
ENDBRANCH  43  46
ENDBRANCH  28  38
BRANCH  34  48
ATOM     48  O   UNL     1      73.194  47.889   8.044  1.00  0.00    -0.507 OA
ATOM     49  H   UNL     1      72.704  48.760   8.190  1.00  0.00     0.293 HD
ENDBRANCH  34  48
BRANCH  37  50
ATOM     50  O   UNL     1      72.112  48.007   3.327  1.00  0.00    -0.508 OA
ATOM     51  H   UNL     1      71.142  47.930   3.072  1.00  0.00     0.293 HD
ENDBRANCH  37  50
ENDBRANCH  26  27
ENDBRANCH   5  26
BRANCH   4  52
ATOM     52  O   UNL     1      70.181  41.945   6.895  1.00  0.00    -0.384 OA
ATOM     53  H   UNL     1      71.144  41.732   6.649  1.00  0.00     0.211 HD
ENDBRANCH   4  52
TORSDOF 16
ENDMDL
MODEL 6
REMARK VINA RESULT:    -6.312      1.754      7.058
REMARK INTER + INTRA:         -12.908
REMARK INTER:                 -10.975
REMARK INTRA:                  -1.933
REMARK UNBOUND:                -2.537
REMARK SMILES C[C@@H]1O[C@H](OC[C@H]2O[C@@H](Oc3c(-c4ccc(O)c(O)c4)oc4cc(O)cc(O)c4c3=O)[C@H](O)[C@H](O)[C@@H]2O)[C@@H](O)[C@H](O)[C@H]1O
REMARK SMILES IDX 7 1 36 2 34 3 32 4 9 5 8 6 6 7 5 8 4 9 1 10 2 11 42 12 3 13
REMARK SMILES IDX 40 14 38 15 43 16 41 18 39 20 37 22 35 24 10 26 11 27 12 28
REMARK SMILES IDX 30 29 21 30 29 31 31 32 22 33 27 34 23 35 26 36 24 37 13 38
REMARK SMILES IDX 20 39 14 40 18 41 15 42 16 43 19 44 17 46 28 48 25 50 33 52
REMARK H PARENT 43 17 41 19 39 21 37 23 35 25 19 45 17 47 28 49 25 51 33 53
REMARK Flexibility Score: inf
ROOT
ATOM      1  C   UNL     1      73.729  45.701   7.093  1.00  0.00     0.180 C 
ATOM      2  C   UNL     1      74.211  45.108   5.680  1.00  0.00     0.177 C 
ATOM      3  C   UNL     1      73.021  45.183   4.687  1.00  0.00     0.180 C 
ATOM      4  C   UNL     1      71.719  44.515   5.225  1.00  0.00     0.214 C 
ATOM      5  C   UNL     1      71.673  44.630   6.764  1.00  0.00     0.339 C 
ATOM      6  O   UNL     1      72.321  45.847   7.126  1.00  0.00    -0.332 OA
ENDROOT
BRANCH   1   7
ATOM      7  C   UNL     1      74.390  46.928   7.783  1.00  0.00     0.198 C 
BRANCH   7   8
ATOM      8  O   UNL     1      73.513  47.923   8.332  1.00  0.00    -0.347 OA
BRANCH   8   9
ATOM      9  C   UNL     1      73.673  49.167   7.658  1.00  0.00     0.281 C 
ATOM     10  C   UNL     1      72.270  48.135   4.441  1.00  0.00     0.041 C 
ATOM     11  C   UNL     1      72.310  49.054   5.666  1.00  0.00     0.150 C 
ATOM     12  C   UNL     1      71.156  48.739   6.655  1.00  0.00     0.174 C 
ATOM     13  O   UNL     1      73.615  48.919   6.242  1.00  0.00    -0.344 OA
ATOM     14  C   UNL     1      71.188  49.745   7.861  1.00  0.00     0.179 C 
ATOM     15  C   UNL     1      72.640  50.224   8.174  1.00  0.00     0.202 C 
BRANCH  12  16
ATOM     16  O   UNL     1      69.904  48.752   5.999  1.00  0.00    -0.388 OA
ATOM     17  H   UNL     1      69.439  49.576   6.372  1.00  0.00     0.211 HD
ENDBRANCH  12  16
BRANCH  14  18
ATOM     18  O   UNL     1      70.649  49.140   9.015  1.00  0.00    -0.387 OA
ATOM     19  H   UNL     1      71.190  48.333   9.201  1.00  0.00     0.211 HD
ENDBRANCH  14  18
BRANCH  15  20
ATOM     20  O   UNL     1      72.901  51.438   7.528  1.00  0.00    -0.385 OA
ATOM     21  H   UNL     1      72.103  52.041   7.567  1.00  0.00     0.211 HD
ENDBRANCH  15  20
ENDBRANCH   8   9
ENDBRANCH   7   8
ENDBRANCH   1   7
BRANCH   2  22
ATOM     22  O   UNL     1      74.527  43.729   5.858  1.00  0.00    -0.387 OA
ATOM     23  H   UNL     1      75.393  43.547   5.406  1.00  0.00     0.211 HD
ENDBRANCH   2  22
BRANCH   3  24
ATOM     24  O   UNL     1      73.386  44.621   3.442  1.00  0.00    -0.387 OA
ATOM     25  H   UNL     1      74.282  44.963   3.224  1.00  0.00     0.211 HD
ENDBRANCH   3  24
BRANCH   5  26
ATOM     26  O   UNL     1      70.348  44.703   7.259  1.00  0.00    -0.454 OA
BRANCH  26  27
ATOM     27  C   UNL     1      69.810  44.097   8.412  1.00  0.00     0.214 A 
ATOM     28  C   UNL     1      68.382  43.981   8.480  1.00  0.00     0.180 A 
ATOM     29  C   UNL     1      70.522  42.996   8.971  1.00  0.00     0.239 A 
ATOM     30  O   UNL     1      67.867  42.723   8.427  1.00  0.00    -0.452 OA
ATOM     31  C   UNL     1      70.069  41.738   8.560  1.00  0.00     0.111 A 
ATOM     32  O   UNL     1      71.070  43.078  10.124  1.00  0.00    -0.285 OA
ATOM     33  C   UNL     1      68.651  41.621   8.363  1.00  0.00     0.146 A 
ATOM     34  C   UNL     1      70.891  40.643   8.274  1.00  0.00     0.134 A 
ATOM     35  C   UNL     1      68.095  40.354   8.093  1.00  0.00     0.094 A 
ATOM     36  C   UNL     1      70.305  39.434   7.825  1.00  0.00     0.093 A 
ATOM     37  C   UNL     1      68.922  39.257   7.795  1.00  0.00     0.123 A 
BRANCH  28  38
ATOM     38  C   UNL     1      67.479  45.184   8.389  1.00  0.00     0.025 A 
ATOM     39  C   UNL     1      67.819  46.343   7.647  1.00  0.00     0.062 A 
ATOM     40  C   UNL     1      66.212  45.126   9.004  1.00  0.00     0.016 A 
ATOM     41  C   UNL     1      66.890  47.362   7.462  1.00  0.00     0.158 A 
ATOM     42  C   UNL     1      65.295  46.161   8.829  1.00  0.00     0.051 A 
ATOM     43  C   UNL     1      65.599  47.257   8.030  1.00  0.00     0.157 A 
BRANCH  41  44
ATOM     44  O   UNL     1      67.239  48.443   6.646  1.00  0.00    -0.504 OA
ATOM     45  H   UNL     1      67.322  49.395   7.000  1.00  0.00     0.293 HD
ENDBRANCH  41  44
BRANCH  43  46
ATOM     46  O   UNL     1      64.599  48.199   7.831  1.00  0.00    -0.504 OA
ATOM     47  H   UNL     1      64.538  48.830   7.033  1.00  0.00     0.293 HD
ENDBRANCH  43  46
ENDBRANCH  28  38
BRANCH  34  48
ATOM     48  O   UNL     1      72.292  40.749   8.408  1.00  0.00    -0.507 OA
ATOM     49  H   UNL     1      72.701  41.465   8.992  1.00  0.00     0.293 HD
ENDBRANCH  34  48
BRANCH  37  50
ATOM     50  O   UNL     1      68.427  38.023   7.370  1.00  0.00    -0.508 OA
ATOM     51  H   UNL     1      68.114  37.350   8.048  1.00  0.00     0.293 HD
ENDBRANCH  37  50
ENDBRANCH  26  27
ENDBRANCH   5  26
BRANCH   4  52
ATOM     52  O   UNL     1      71.656  43.158   4.840  1.00  0.00    -0.384 OA
ATOM     53  H   UNL     1      71.652  42.604   5.693  1.00  0.00     0.211 HD
ENDBRANCH   4  52
TORSDOF 16
ENDMDL
MODEL 7
REMARK VINA RESULT:    -5.979      2.321      7.678
REMARK INTER + INTRA:         -12.361
REMARK INTER:                 -10.472
REMARK INTRA:                  -1.890
REMARK UNBOUND:                -2.537
REMARK SMILES C[C@@H]1O[C@H](OC[C@H]2O[C@@H](Oc3c(-c4ccc(O)c(O)c4)oc4cc(O)cc(O)c4c3=O)[C@H](O)[C@H](O)[C@@H]2O)[C@@H](O)[C@H](O)[C@H]1O
REMARK SMILES IDX 7 1 36 2 34 3 32 4 9 5 8 6 6 7 5 8 4 9 1 10 2 11 42 12 3 13
REMARK SMILES IDX 40 14 38 15 43 16 41 18 39 20 37 22 35 24 10 26 11 27 12 28
REMARK SMILES IDX 30 29 21 30 29 31 31 32 22 33 27 34 23 35 26 36 24 37 13 38
REMARK SMILES IDX 20 39 14 40 18 41 15 42 16 43 19 44 17 46 28 48 25 50 33 52
REMARK H PARENT 43 17 41 19 39 21 37 23 35 25 19 45 17 47 28 49 25 51 33 53
REMARK Flexibility Score: inf
ROOT
ATOM      1  C   UNL     1      70.458  44.757   8.056  1.00  0.00     0.180 C 
ATOM      2  C   UNL     1      69.409  43.561   8.286  1.00  0.00     0.177 C 
ATOM      3  C   UNL     1      70.111  42.222   7.938  1.00  0.00     0.180 C 
ATOM      4  C   UNL     1      70.761  42.211   6.520  1.00  0.00     0.214 C 
ATOM      5  C   UNL     1      71.209  43.639   6.142  1.00  0.00     0.339 C 
ATOM      6  O   UNL     1      71.594  44.304   7.343  1.00  0.00    -0.332 OA
ENDROOT
BRANCH   1   7
ATOM      7  C   UNL     1      70.911  45.733   9.179  1.00  0.00     0.198 C 
BRANCH   7   8
ATOM      8  O   UNL     1      70.347  47.053   9.167  1.00  0.00    -0.347 OA
BRANCH   8   9
ATOM      9  C   UNL     1      69.898  47.400   7.860  1.00  0.00     0.281 C 
ATOM     10  C   UNL     1      66.793  49.054   8.861  1.00  0.00     0.041 C 
ATOM     11  C   UNL     1      68.146  49.040   8.144  1.00  0.00     0.150 C 
ATOM     12  C   UNL     1      69.222  49.831   8.935  1.00  0.00     0.174 C 
ATOM     13  O   UNL     1      68.486  47.665   7.929  1.00  0.00    -0.344 OA
ATOM     14  C   UNL     1      70.574  49.853   8.137  1.00  0.00     0.179 C 
ATOM     15  C   UNL     1      70.749  48.571   7.265  1.00  0.00     0.202 C 
BRANCH  12  16
ATOM     16  O   UNL     1      68.774  51.137   9.238  1.00  0.00    -0.388 OA
ATOM     17  H   UNL     1      69.632  51.660   9.398  1.00  0.00     0.211 HD
ENDBRANCH  12  16
BRANCH  14  18
ATOM     18  O   UNL     1      71.664  49.951   9.027  1.00  0.00    -0.387 OA
ATOM     19  H   UNL     1      72.179  49.110   8.952  1.00  0.00     0.211 HD
ENDBRANCH  14  18
BRANCH  15  20
ATOM     20  O   UNL     1      70.307  48.809   5.957  1.00  0.00    -0.385 OA
ATOM     21  H   UNL     1      70.579  48.063   5.348  1.00  0.00     0.211 HD
ENDBRANCH  15  20
ENDBRANCH   8   9
ENDBRANCH   7   8
ENDBRANCH   1   7
BRANCH   2  22
ATOM     22  O   UNL     1      68.334  43.727   7.366  1.00  0.00    -0.387 OA
ATOM     23  H   UNL     1      67.937  42.834   7.186  1.00  0.00     0.211 HD
ENDBRANCH   2  22
BRANCH   3  24
ATOM     24  O   UNL     1      69.207  41.145   8.076  1.00  0.00    -0.387 OA
ATOM     25  H   UNL     1      68.392  41.505   8.495  1.00  0.00     0.211 HD
ENDBRANCH   3  24
BRANCH   5  26
ATOM     26  O   UNL     1      72.341  43.639   5.288  1.00  0.00    -0.454 OA
BRANCH  26  27
ATOM     27  C   UNL     1      73.651  43.204   5.572  1.00  0.00     0.214 A 
ATOM     28  C   UNL     1      74.247  43.685   6.785  1.00  0.00     0.180 A 
ATOM     29  C   UNL     1      73.985  41.859   5.239  1.00  0.00     0.239 A 
ATOM     30  O   UNL     1      74.476  42.765   7.761  1.00  0.00    -0.452 OA
ATOM     31  C   UNL     1      73.860  40.948   6.293  1.00  0.00     0.111 A 
ATOM     32  O   UNL     1      74.847  41.597   4.331  1.00  0.00    -0.285 OA
ATOM     33  C   UNL     1      74.207  41.448   7.594  1.00  0.00     0.146 A 
ATOM     34  C   UNL     1      73.371  39.643   6.172  1.00  0.00     0.134 A 
ATOM     35  C   UNL     1      74.252  40.559   8.686  1.00  0.00     0.094 A 
ATOM     36  C   UNL     1      73.256  38.835   7.330  1.00  0.00     0.093 A 
ATOM     37  C   UNL     1      73.749  39.251   8.566  1.00  0.00     0.123 A 
BRANCH  28  38
ATOM     38  C   UNL     1      74.409  45.156   7.064  1.00  0.00     0.025 A 
ATOM     39  C   UNL     1      74.228  46.151   6.069  1.00  0.00     0.062 A 
ATOM     40  C   UNL     1      74.676  45.568   8.386  1.00  0.00     0.016 A 
ATOM     41  C   UNL     1      74.233  47.499   6.409  1.00  0.00     0.158 A 
ATOM     42  C   UNL     1      74.698  46.923   8.713  1.00  0.00     0.051 A 
ATOM     43  C   UNL     1      74.435  47.893   7.751  1.00  0.00     0.157 A 
BRANCH  41  44
ATOM     44  O   UNL     1      73.958  48.439   5.410  1.00  0.00    -0.504 OA
ATOM     45  H   UNL     1      73.041  48.523   4.972  1.00  0.00     0.293 HD
ENDBRANCH  41  44
BRANCH  43  46
ATOM     46  O   UNL     1      74.383  49.213   8.176  1.00  0.00    -0.504 OA
ATOM     47  H   UNL     1      73.872  49.961   7.707  1.00  0.00     0.293 HD
ENDBRANCH  43  46
ENDBRANCH  28  38
BRANCH  34  48
ATOM     48  O   UNL     1      72.972  39.145   4.913  1.00  0.00    -0.507 OA
ATOM     49  H   UNL     1      73.025  39.726   4.089  1.00  0.00     0.293 HD
ENDBRANCH  34  48
BRANCH  37  50
ATOM     50  O   UNL     1      73.625  38.380   9.649  1.00  0.00    -0.508 OA
ATOM     51  H   UNL     1      73.789  37.397   9.521  1.00  0.00     0.293 HD
ENDBRANCH  37  50
ENDBRANCH  26  27
ENDBRANCH   5  26
BRANCH   4  52
ATOM     52  O   UNL     1      69.852  41.720   5.557  1.00  0.00    -0.384 OA
ATOM     53  H   UNL     1      69.688  40.739   5.771  1.00  0.00     0.211 HD
ENDBRANCH   4  52
TORSDOF 16
ENDMDL
MODEL 8
REMARK VINA RESULT:    -5.912      1.751      7.595
REMARK INTER + INTRA:         -12.252
REMARK INTER:                 -10.452
REMARK INTRA:                  -1.799
REMARK UNBOUND:                -2.537
REMARK SMILES C[C@@H]1O[C@H](OC[C@H]2O[C@@H](Oc3c(-c4ccc(O)c(O)c4)oc4cc(O)cc(O)c4c3=O)[C@H](O)[C@H](O)[C@@H]2O)[C@@H](O)[C@H](O)[C@H]1O
REMARK SMILES IDX 7 1 36 2 34 3 32 4 9 5 8 6 6 7 5 8 4 9 1 10 2 11 42 12 3 13
REMARK SMILES IDX 40 14 38 15 43 16 41 18 39 20 37 22 35 24 10 26 11 27 12 28
REMARK SMILES IDX 30 29 21 30 29 31 31 32 22 33 27 34 23 35 26 36 24 37 13 38
REMARK SMILES IDX 20 39 14 40 18 41 15 42 16 43 19 44 17 46 28 48 25 50 33 52
REMARK H PARENT 43 17 41 19 39 21 37 23 35 25 19 45 17 47 28 49 25 51 33 53
REMARK Flexibility Score: inf
ROOT
ATOM      1  C   UNL     1      69.913  48.330   8.444  1.00  0.00     0.180 C 
ATOM      2  C   UNL     1      68.808  49.363   7.902  1.00  0.00     0.177 C 
ATOM      3  C   UNL     1      67.414  48.691   8.017  1.00  0.00     0.180 C 
ATOM      4  C   UNL     1      67.340  47.291   7.334  1.00  0.00     0.214 C 
ATOM      5  C   UNL     1      68.724  46.610   7.392  1.00  0.00     0.339 C 
ATOM      6  O   UNL     1      69.364  47.034   8.594  1.00  0.00    -0.332 OA
ENDROOT
BRANCH   1   7
ATOM      7  C   UNL     1      70.857  48.630   9.643  1.00  0.00     0.198 C 
BRANCH   7   8
ATOM      8  O   UNL     1      72.267  48.678   9.371  1.00  0.00    -0.347 OA
BRANCH   8   9
ATOM      9  C   UNL     1      72.902  47.471   9.779  1.00  0.00     0.281 C 
ATOM     10  C   UNL     1      71.943  45.444   6.889  1.00  0.00     0.041 C 
ATOM     11  C   UNL     1      72.991  46.045   7.829  1.00  0.00     0.150 C 
ATOM     12  C   UNL     1      73.730  47.242   7.174  1.00  0.00     0.174 C 
ATOM     13  O   UNL     1      72.311  46.385   9.044  1.00  0.00    -0.344 OA
ATOM     14  C   UNL     1      74.843  47.786   8.141  1.00  0.00     0.179 C 
ATOM     15  C   UNL     1      74.457  47.578   9.638  1.00  0.00     0.202 C 
BRANCH  12  16
ATOM     16  O   UNL     1      74.263  46.884   5.914  1.00  0.00    -0.388 OA
ATOM     17  H   UNL     1      74.737  47.728   5.599  1.00  0.00     0.211 HD
ENDBRANCH  12  16
BRANCH  14  18
ATOM     18  O   UNL     1      75.057  49.161   7.911  1.00  0.00    -0.387 OA
ATOM     19  H   UNL     1      74.676  49.648   8.684  1.00  0.00     0.211 HD
ENDBRANCH  14  18
BRANCH  15  20
ATOM     20  O   UNL     1      75.021  46.391  10.124  1.00  0.00    -0.385 OA
ATOM     21  H   UNL     1      75.976  46.533  10.389  1.00  0.00     0.211 HD
ENDBRANCH  15  20
ENDBRANCH   8   9
ENDBRANCH   7   8
ENDBRANCH   1   7
BRANCH   2  22
ATOM     22  O   UNL     1      69.054  49.593   6.517  1.00  0.00    -0.387 OA
ATOM     23  H   UNL     1      68.430  50.300   6.203  1.00  0.00     0.211 HD
ENDBRANCH   2  22
BRANCH   3  24
ATOM     24  O   UNL     1      66.415  49.546   7.501  1.00  0.00    -0.387 OA
ATOM     25  H   UNL     1      65.727  49.640   8.199  1.00  0.00     0.211 HD
ENDBRANCH   3  24
BRANCH   5  26
ATOM     26  O   UNL     1      68.626  45.197   7.452  1.00  0.00    -0.454 OA
BRANCH  26  27
ATOM     27  C   UNL     1      68.439  44.380   8.584  1.00  0.00     0.214 A 
ATOM     28  C   UNL     1      67.155  43.758   8.734  1.00  0.00     0.180 A 
ATOM     29  C   UNL     1      69.539  43.578   9.006  1.00  0.00     0.239 A 
ATOM     30  O   UNL     1      67.113  42.404   8.612  1.00  0.00    -0.452 OA
ATOM     31  C   UNL     1      69.523  42.264   8.525  1.00  0.00     0.111 A 
ATOM     32  O   UNL     1      70.123  43.789  10.125  1.00  0.00    -0.285 OA
ATOM     33  C   UNL     1      68.225  41.659   8.410  1.00  0.00     0.146 A 
ATOM     34  C   UNL     1      70.648  41.551   8.100  1.00  0.00     0.134 A 
ATOM     35  C   UNL     1      68.128  40.293   8.076  1.00  0.00     0.094 A 
ATOM     36  C   UNL     1      70.488  40.237   7.593  1.00  0.00     0.093 A 
ATOM     37  C   UNL     1      69.258  39.581   7.638  1.00  0.00     0.123 A 
BRANCH  28  38
ATOM     38  C   UNL     1      65.883  44.564   8.797  1.00  0.00     0.025 A 
ATOM     39  C   UNL     1      65.783  45.786   9.509  1.00  0.00     0.062 A 
ATOM     40  C   UNL     1      64.767  44.124   8.056  1.00  0.00     0.016 A 
ATOM     41  C   UNL     1      64.640  46.571   9.409  1.00  0.00     0.158 A 
ATOM     42  C   UNL     1      63.618  44.908   7.978  1.00  0.00     0.051 A 
ATOM     43  C   UNL     1      63.555  46.147   8.607  1.00  0.00     0.157 A 
BRANCH  41  44
ATOM     44  O   UNL     1      64.624  47.812  10.055  1.00  0.00    -0.504 OA
ATOM     45  H   UNL     1      63.772  48.222  10.435  1.00  0.00     0.293 HD
ENDBRANCH  41  44
BRANCH  43  46
ATOM     46  O   UNL     1      62.412  46.907   8.404  1.00  0.00    -0.504 OA
ATOM     47  H   UNL     1      61.461  46.540   8.378  1.00  0.00     0.293 HD
ENDBRANCH  43  46
ENDBRANCH  28  38
BRANCH  34  48
ATOM     48  O   UNL     1      71.929  42.142   8.153  1.00  0.00    -0.507 OA
ATOM     49  H   UNL     1      72.535  42.133   7.344  1.00  0.00     0.293 HD
ENDBRANCH  34  48
BRANCH  37  50
ATOM     50  O   UNL     1      69.193  38.276   7.148  1.00  0.00    -0.508 OA
ATOM     51  H   UNL     1      69.179  38.114   6.156  1.00  0.00     0.293 HD
ENDBRANCH  37  50
ENDBRANCH  26  27
ENDBRANCH   5  26
BRANCH   4  52
ATOM     52  O   UNL     1      66.917  47.410   5.992  1.00  0.00    -0.384 OA
ATOM     53  H   UNL     1      66.039  47.924   5.998  1.00  0.00     0.211 HD
ENDBRANCH   4  52
TORSDOF 16
ENDMDL
MODEL 9
REMARK VINA RESULT:    -5.446      1.967      7.120
REMARK INTER + INTRA:         -11.486
REMARK INTER:                 -10.265
REMARK INTRA:                  -1.221
REMARK UNBOUND:                -2.537
REMARK SMILES C[C@@H]1O[C@H](OC[C@H]2O[C@@H](Oc3c(-c4ccc(O)c(O)c4)oc4cc(O)cc(O)c4c3=O)[C@H](O)[C@H](O)[C@@H]2O)[C@@H](O)[C@H](O)[C@H]1O
REMARK SMILES IDX 7 1 36 2 34 3 32 4 9 5 8 6 6 7 5 8 4 9 1 10 2 11 42 12 3 13
REMARK SMILES IDX 40 14 38 15 43 16 41 18 39 20 37 22 35 24 10 26 11 27 12 28
REMARK SMILES IDX 30 29 21 30 29 31 31 32 22 33 27 34 23 35 26 36 24 37 13 38
REMARK SMILES IDX 20 39 14 40 18 41 15 42 16 43 19 44 17 46 28 48 25 50 33 52
REMARK H PARENT 43 17 41 19 39 21 37 23 35 25 19 45 17 47 28 49 25 51 33 53
REMARK Flexibility Score: inf
ROOT
ATOM      1  C   UNL     1      68.113  44.692   8.625  1.00  0.00     0.180 C 
ATOM      2  C   UNL     1      67.942  43.095   8.655  1.00  0.00     0.177 C 
ATOM      3  C   UNL     1      69.344  42.451   8.485  1.00  0.00     0.180 C 
ATOM      4  C   UNL     1      70.117  42.967   7.232  1.00  0.00     0.214 C 
ATOM      5  C   UNL     1      69.703  44.423   6.929  1.00  0.00     0.339 C 
ATOM      6  O   UNL     1      69.403  45.056   8.171  1.00  0.00    -0.332 OA
ENDROOT
BRANCH   1   7
ATOM      7  C   UNL     1      67.699  45.625   9.800  1.00  0.00     0.198 C 
BRANCH   7   8
ATOM      8  O   UNL     1      67.429  46.999   9.482  1.00  0.00    -0.347 OA
BRANCH   8   9
ATOM      9  C   UNL     1      66.679  47.101   8.276  1.00  0.00     0.281 C 
ATOM     10  C   UNL     1      63.372  47.398   9.812  1.00  0.00     0.041 C 
ATOM     11  C   UNL     1      64.486  47.908   8.893  1.00  0.00     0.150 C 
ATOM     12  C   UNL     1      65.267  49.085   9.538  1.00  0.00     0.174 C 
ATOM     13  O   UNL     1      65.309  46.779   8.573  1.00  0.00    -0.344 OA
ATOM     14  C   UNL     1      66.352  49.625   8.540  1.00  0.00     0.179 C 
ATOM     15  C   UNL     1      66.884  48.498   7.601  1.00  0.00     0.202 C 
BRANCH  12  16
ATOM     16  O   UNL     1      64.388  50.110   9.958  1.00  0.00    -0.388 OA
ATOM     17  H   UNL     1      64.648  50.908   9.382  1.00  0.00     0.211 HD
ENDBRANCH  12  16
BRANCH  14  18
ATOM     18  O   UNL     1      67.437  50.176   9.253  1.00  0.00    -0.387 OA
ATOM     19  H   UNL     1      67.647  49.553   9.991  1.00  0.00     0.211 HD
ENDBRANCH  14  18
BRANCH  15  20
ATOM     20  O   UNL     1      66.183  48.504   6.389  1.00  0.00    -0.385 OA
ATOM     21  H   UNL     1      65.694  49.368   6.265  1.00  0.00     0.211 HD
ENDBRANCH  15  20
ENDBRANCH   8   9
ENDBRANCH   7   8
ENDBRANCH   1   7
BRANCH   2  22
ATOM     22  O   UNL     1      67.159  42.708   7.529  1.00  0.00    -0.387 OA
ATOM     23  H   UNL     1      66.767  41.814   7.715  1.00  0.00     0.211 HD
ENDBRANCH   2  22
BRANCH   3  24
ATOM     24  O   UNL     1      69.235  41.043   8.452  1.00  0.00    -0.387 OA
ATOM     25  H   UNL     1      69.686  40.738   7.632  1.00  0.00     0.211 HD
ENDBRANCH   3  24
BRANCH   5  26
ATOM     26  O   UNL     1      70.750  45.166   6.328  1.00  0.00    -0.454 OA
BRANCH  26  27
ATOM     27  C   UNL     1      72.119  45.176   6.662  1.00  0.00     0.214 A 
ATOM     28  C   UNL     1      72.467  45.660   7.966  1.00  0.00     0.180 A 
ATOM     29  C   UNL     1      72.917  44.090   6.200  1.00  0.00     0.239 A 
ATOM     30  O   UNL     1      72.974  44.750   8.842  1.00  0.00    -0.452 OA
ATOM     31  C   UNL     1      73.087  43.054   7.125  1.00  0.00     0.111 A 
ATOM     32  O   UNL     1      73.846  44.269   5.338  1.00  0.00    -0.285 OA
ATOM     33  C   UNL     1      73.192  43.459   8.500  1.00  0.00     0.146 A 
ATOM     34  C   UNL     1      73.094  41.691   6.813  1.00  0.00     0.134 A 
ATOM     35  C   UNL     1      73.512  42.497   9.479  1.00  0.00     0.094 A 
ATOM     36  C   UNL     1      73.234  40.740   7.854  1.00  0.00     0.093 A 
ATOM     37  C   UNL     1      73.508  41.126   9.166  1.00  0.00     0.123 A 
BRANCH  28  38
ATOM     38  C   UNL     1      72.089  47.043   8.430  1.00  0.00     0.025 A 
ATOM     39  C   UNL     1      72.676  48.218   7.896  1.00  0.00     0.062 A 
ATOM     40  C   UNL     1      71.055  47.179   9.378  1.00  0.00     0.016 A 
ATOM     41  C   UNL     1      72.185  49.473   8.240  1.00  0.00     0.158 A 
ATOM     42  C   UNL     1      70.583  48.442   9.731  1.00  0.00     0.051 A 
ATOM     43  C   UNL     1      71.103  49.589   9.141  1.00  0.00     0.157 A 
BRANCH  41  44
ATOM     44  O   UNL     1      72.736  50.598   7.617  1.00  0.00    -0.504 OA
ATOM     45  H   UNL     1      72.181  51.237   7.048  1.00  0.00     0.293 HD
ENDBRANCH  41  44
BRANCH  43  46
ATOM     46  O   UNL     1      70.515  50.800   9.478  1.00  0.00    -0.504 OA
ATOM     47  H   UNL     1      69.592  51.110   9.171  1.00  0.00     0.293 HD
ENDBRANCH  43  46
ENDBRANCH  28  38
BRANCH  34  48
ATOM     48  O   UNL     1      72.939  41.265   5.476  1.00  0.00    -0.507 OA
ATOM     49  H   UNL     1      72.494  40.384   5.264  1.00  0.00     0.293 HD
ENDBRANCH  34  48
BRANCH  37  50
ATOM     50  O   UNL     1      73.663  40.125  10.125  1.00  0.00    -0.508 OA
ATOM     51  H   UNL     1      72.934  39.447  10.263  1.00  0.00     0.293 HD
ENDBRANCH  37  50
ENDBRANCH  26  27
ENDBRANCH   5  26
BRANCH   4  52
ATOM     52  O   UNL     1      69.857  42.148   6.111  1.00  0.00    -0.384 OA
ATOM     53  H   UNL     1      70.622  41.482   6.043  1.00  0.00     0.211 HD
ENDBRANCH   4  52
TORSDOF 16
ENDMDL
