MODEL 1
REMARK VINA RESULT:    -4.983      0.000      0.000
REMARK INTER + INTRA:          -5.467
REMARK INTER:                  -5.420
REMARK INTRA:                  -0.047
REMARK UNBOUND:                -0.047
REMARK SMILES CCc1cccc(O)c1
REMARK SMILES IDX 3 1 9 2 7 3 6 4 5 5 4 6 2 7 1 8 8 9
REMARK H PARENT 8 10
REMARK Flexibility Score: inf
ROOT
ATOM      1  C   UNL     1      24.964  -0.961  24.210  1.00  0.00    -0.045 A 
ATOM      2  C   UNL     1      25.904  -0.486  25.140  1.00  0.00     0.049 A 
ATOM      3  C   UNL     1      27.035   0.220  24.705  1.00  0.00     0.115 A 
ATOM      4  C   UNL     1      27.222   0.459  23.339  1.00  0.00     0.046 A 
ATOM      5  C   UNL     1      26.283   0.000  22.411  1.00  0.00     0.004 A 
ATOM      6  C   UNL     1      25.155  -0.704  22.843  1.00  0.00     0.004 A 
ENDROOT
BRANCH   1   7
ATOM      7  C   UNL     1      23.733  -1.690  24.679  1.00  0.00     0.032 C 
ATOM      8  C   UNL     1      24.059  -3.141  25.016  1.00  0.00     0.009 C 
ENDBRANCH   1   7
BRANCH   3   9
ATOM      9  O   UNL     1      27.974   0.689  25.619  1.00  0.00    -0.508 OA
ATOM     10  H   UNL     1      27.815   1.535  26.156  1.00  0.00     0.293 HD
ENDBRANCH   3   9
TORSDOF 2
ENDMDL
MODEL 2
REMARK VINA RESULT:    -4.951      8.561     10.840
REMARK INTER + INTRA:          -5.432
REMARK INTER:                  -5.366
REMARK INTRA:                  -0.066
REMARK UNBOUND:                -0.047
REMARK SMILES CCc1cccc(O)c1
REMARK SMILES IDX 3 1 9 2 7 3 6 4 5 5 4 6 2 7 1 8 8 9
REMARK H PARENT 8 10
REMARK Flexibility Score: inf
ROOT
ATOM      1  C   UNL     1      18.610  -6.250  27.093  1.00  0.00    -0.045 A 
ATOM      2  C   UNL     1      17.580  -6.542  26.184  1.00  0.00     0.049 A 
ATOM      3  C   UNL     1      17.288  -7.872  25.849  1.00  0.00     0.115 A 
ATOM      4  C   UNL     1      18.022  -8.913  26.429  1.00  0.00     0.046 A 
ATOM      5  C   UNL     1      19.039  -8.628  27.344  1.00  0.00     0.004 A 
ATOM      6  C   UNL     1      19.331  -7.303  27.679  1.00  0.00     0.004 A 
ENDROOT
BRANCH   1   7
ATOM      7  C   UNL     1      18.902  -4.825  27.479  1.00  0.00     0.032 C 
ATOM      8  C   UNL     1      20.398  -4.540  27.403  1.00  0.00     0.009 C 
ENDBRANCH   1   7
BRANCH   3   9
ATOM      9  O   UNL     1      16.272  -8.170  24.944  1.00  0.00    -0.508 OA
ATOM     10  H   UNL     1      15.982  -9.126  24.769  1.00  0.00     0.293 HD
ENDBRANCH   3   9
TORSDOF 2
ENDMDL
MODEL 3
REMARK VINA RESULT:    -4.947     13.598     14.508
REMARK INTER + INTRA:          -5.428
REMARK INTER:                  -5.354
REMARK INTRA:                  -0.074
REMARK UNBOUND:                -0.047
REMARK SMILES CCc1cccc(O)c1
REMARK SMILES IDX 3 1 9 2 7 3 6 4 5 5 4 6 2 7 1 8 8 9
REMARK H PARENT 8 10
REMARK Flexibility Score: inf
ROOT
ATOM      1  C   UNL     1      15.970  -3.105  34.262  1.00  0.00    -0.045 A 
ATOM      2  C   UNL     1      16.172  -3.714  35.512  1.00  0.00     0.049 A 
ATOM      3  C   UNL     1      16.914  -4.900  35.610  1.00  0.00     0.115 A 
ATOM      4  C   UNL     1      17.462  -5.474  34.458  1.00  0.00     0.046 A 
ATOM      5  C   UNL     1      17.275  -4.865  33.214  1.00  0.00     0.004 A 
ATOM      6  C   UNL     1      16.536  -3.683  33.115  1.00  0.00     0.004 A 
ENDROOT
BRANCH   1   7
ATOM      7  C   UNL     1      15.202  -1.815  34.161  1.00  0.00     0.032 C 
ATOM      8  C   UNL     1      15.586  -1.055  32.895  1.00  0.00     0.009 C 
ENDBRANCH   1   7
BRANCH   3   9
ATOM      9  O   UNL     1      17.113  -5.513  36.844  1.00  0.00    -0.508 OA
ATOM     10  H   UNL     1      16.338  -5.883  37.383  1.00  0.00     0.293 HD
ENDBRANCH   3   9
TORSDOF 2
ENDMDL
MODEL 4
REMARK VINA RESULT:    -4.825      1.298      2.124
REMARK INTER + INTRA:          -5.295
REMARK INTER:                  -5.236
REMARK INTRA:                  -0.059
REMARK UNBOUND:                -0.047
REMARK SMILES CCc1cccc(O)c1
REMARK SMILES IDX 3 1 9 2 7 3 6 4 5 5 4 6 2 7 1 8 8 9
REMARK H PARENT 8 10
REMARK Flexibility Score: inf
ROOT
ATOM      1  C   UNL     1      24.699  -1.033  24.713  1.00  0.00    -0.045 A 
ATOM      2  C   UNL     1      25.417  -0.724  23.545  1.00  0.00     0.049 A 
ATOM      3  C   UNL     1      26.626  -0.017  23.624  1.00  0.00     0.115 A 
ATOM      4  C   UNL     1      27.122   0.375  24.872  1.00  0.00     0.046 A 
ATOM      5  C   UNL     1      26.418   0.058  26.038  1.00  0.00     0.004 A 
ATOM      6  C   UNL     1      25.214  -0.646  25.961  1.00  0.00     0.004 A 
ENDROOT
BRANCH   1   7
ATOM      7  C   UNL     1      23.420  -1.821  24.632  1.00  0.00     0.032 C 
ATOM      8  C   UNL     1      23.634  -3.252  25.112  1.00  0.00     0.009 C 
ENDBRANCH   1   7
BRANCH   3   9
ATOM      9  O   UNL     1      27.340   0.299  22.472  1.00  0.00    -0.508 OA
ATOM     10  H   UNL     1      28.006  -0.351  22.066  1.00  0.00     0.293 HD
ENDBRANCH   3   9
TORSDOF 2
ENDMDL
MODEL 5
REMARK VINA RESULT:    -4.737      7.299      8.266
REMARK INTER + INTRA:          -5.200
REMARK INTER:                  -5.150
REMARK INTRA:                  -0.050
REMARK UNBOUND:                -0.047
REMARK SMILES CCc1cccc(O)c1
REMARK SMILES IDX 3 1 9 2 7 3 6 4 5 5 4 6 2 7 1 8 8 9
REMARK H PARENT 8 10
REMARK Flexibility Score: inf
ROOT
ATOM      1  C   UNL     1      24.978   4.134  29.274  1.00  0.00    -0.045 A 
ATOM      2  C   UNL     1      23.713   3.826  29.801  1.00  0.00     0.049 A 
ATOM      3  C   UNL     1      22.989   4.792  30.515  1.00  0.00     0.115 A 
ATOM      4  C   UNL     1      23.528   6.070  30.697  1.00  0.00     0.046 A 
ATOM      5  C   UNL     1      24.780   6.387  30.163  1.00  0.00     0.004 A 
ATOM      6  C   UNL     1      25.503   5.425  29.451  1.00  0.00     0.004 A 
ENDROOT
BRANCH   1   7
ATOM      7  C   UNL     1      25.741   3.109  28.479  1.00  0.00     0.032 C 
ATOM      8  C   UNL     1      25.235   1.703  28.784  1.00  0.00     0.009 C 
ENDBRANCH   1   7
BRANCH   3   9
ATOM      9  O   UNL     1      21.737   4.493  31.046  1.00  0.00    -0.508 OA
ATOM     10  H   UNL     1      21.622   4.238  32.021  1.00  0.00     0.293 HD
ENDBRANCH   3   9
TORSDOF 2
ENDMDL
MODEL 6
REMARK VINA RESULT:    -4.730      6.328      7.391
REMARK INTER + INTRA:          -5.192
REMARK INTER:                  -5.141
REMARK INTRA:                  -0.051
REMARK UNBOUND:                -0.047
REMARK SMILES CCc1cccc(O)c1
REMARK SMILES IDX 3 1 9 2 7 3 6 4 5 5 4 6 2 7 1 8 8 9
REMARK H PARENT 8 10
REMARK Flexibility Score: inf
ROOT
ATOM      1  C   UNL     1      24.834   4.861  29.077  1.00  0.00    -0.045 A 
ATOM      2  C   UNL     1      24.323   3.601  29.431  1.00  0.00     0.049 A 
ATOM      3  C   UNL     1      25.020   2.433  29.091  1.00  0.00     0.115 A 
ATOM      4  C   UNL     1      26.235   2.524  28.402  1.00  0.00     0.046 A 
ATOM      5  C   UNL     1      26.755   3.775  28.060  1.00  0.00     0.004 A 
ATOM      6  C   UNL     1      26.061   4.941  28.398  1.00  0.00     0.004 A 
ENDROOT
BRANCH   1   7
ATOM      7  C   UNL     1      24.104   6.116  29.471  1.00  0.00     0.032 C 
ATOM      8  C   UNL     1      23.426   5.944  30.826  1.00  0.00     0.009 C 
ENDBRANCH   1   7
BRANCH   3   9
ATOM      9  O   UNL     1      24.517   1.181  29.433  1.00  0.00    -0.508 OA
ATOM     10  H   UNL     1      23.536   1.046  29.654  1.00  0.00     0.293 HD
ENDBRANCH   3   9
TORSDOF 2
ENDMDL
MODEL 7
REMARK VINA RESULT:    -4.718     13.614     14.832
REMARK INTER + INTRA:          -5.179
REMARK INTER:                  -5.109
REMARK INTRA:                  -0.070
REMARK UNBOUND:                -0.047
REMARK SMILES CCc1cccc(O)c1
REMARK SMILES IDX 3 1 9 2 7 3 6 4 5 5 4 6 2 7 1 8 8 9
REMARK H PARENT 8 10
REMARK Flexibility Score: inf
ROOT
ATOM      1  C   UNL     1      16.136  -3.799  34.511  1.00  0.00    -0.045 A 
ATOM      2  C   UNL     1      16.304  -2.803  33.534  1.00  0.00     0.049 A 
ATOM      3  C   UNL     1      15.436  -1.702  33.489  1.00  0.00     0.115 A 
ATOM      4  C   UNL     1      14.403  -1.592  34.425  1.00  0.00     0.046 A 
ATOM      5  C   UNL     1      14.239  -2.573  35.407  1.00  0.00     0.004 A 
ATOM      6  C   UNL     1      15.103  -3.671  35.454  1.00  0.00     0.004 A 
ENDROOT
BRANCH   1   7
ATOM      7  C   UNL     1      17.087  -4.963  34.581  1.00  0.00     0.032 C 
ATOM      8  C   UNL     1      17.545  -5.201  36.016  1.00  0.00     0.009 C 
ENDBRANCH   1   7
BRANCH   3   9
ATOM      9  O   UNL     1      15.593  -0.714  32.520  1.00  0.00    -0.508 OA
ATOM     10  H   UNL     1      14.840  -0.074  32.290  1.00  0.00     0.293 HD
ENDBRANCH   3   9
TORSDOF 2
ENDMDL
MODEL 8
REMARK VINA RESULT:    -4.715     13.558     15.248
REMARK INTER + INTRA:          -5.175
REMARK INTER:                  -5.125
REMARK INTRA:                  -0.050
REMARK UNBOUND:                -0.047
REMARK SMILES CCc1cccc(O)c1
REMARK SMILES IDX 3 1 9 2 7 3 6 4 5 5 4 6 2 7 1 8 8 9
REMARK H PARENT 8 10
REMARK Flexibility Score: inf
ROOT
ATOM      1  C   UNL     1      14.585  -2.897  35.353  1.00  0.00    -0.045 A 
ATOM      2  C   UNL     1      14.880  -1.850  34.463  1.00  0.00     0.049 A 
ATOM      3  C   UNL     1      15.874  -2.009  33.487  1.00  0.00     0.115 A 
ATOM      4  C   UNL     1      16.569  -3.219  33.393  1.00  0.00     0.046 A 
ATOM      5  C   UNL     1      16.270  -4.269  34.267  1.00  0.00     0.004 A 
ATOM      6  C   UNL     1      15.280  -4.112  35.241  1.00  0.00     0.004 A 
ENDROOT
BRANCH   1   7
ATOM      7  C   UNL     1      13.496  -2.738  36.379  1.00  0.00     0.032 C 
ATOM      8  C   UNL     1      12.167  -2.406  35.710  1.00  0.00     0.009 C 
ENDBRANCH   1   7
BRANCH   3   9
ATOM      9  O   UNL     1      16.176  -0.974  32.606  1.00  0.00    -0.508 OA
ATOM     10  H   UNL     1      15.689  -0.872  31.721  1.00  0.00     0.293 HD
ENDBRANCH   3   9
TORSDOF 2
ENDMDL
MODEL 9
REMARK VINA RESULT:    -4.630      8.588      9.849
REMARK INTER + INTRA:          -5.083
REMARK INTER:                  -5.036
REMARK INTRA:                  -0.047
REMARK UNBOUND:                -0.047
REMARK SMILES CCc1cccc(O)c1
REMARK SMILES IDX 3 1 9 2 7 3 6 4 5 5 4 6 2 7 1 8 8 9
REMARK H PARENT 8 10
REMARK Flexibility Score: inf
ROOT
ATOM      1  C   UNL     1      17.567  -6.208  26.611  1.00  0.00    -0.045 A 
ATOM      2  C   UNL     1      18.180  -4.985  26.933  1.00  0.00     0.049 A 
ATOM      3  C   UNL     1      19.391  -4.966  27.639  1.00  0.00     0.115 A 
ATOM      4  C   UNL     1      19.995  -6.170  28.018  1.00  0.00     0.046 A 
ATOM      5  C   UNL     1      19.396  -7.389  27.687  1.00  0.00     0.004 A 
ATOM      6  C   UNL     1      18.189  -7.410  26.984  1.00  0.00     0.004 A 
ENDROOT
BRANCH   1   7
ATOM      7  C   UNL     1      16.284  -6.230  25.825  1.00  0.00     0.032 C 
ATOM      8  C   UNL     1      15.288  -5.221  26.385  1.00  0.00     0.009 C 
ENDBRANCH   1   7
BRANCH   3   9
ATOM      9  O   UNL     1      20.002  -3.759  27.968  1.00  0.00    -0.508 OA
ATOM     10  H   UNL     1      20.895  -3.490  27.568  1.00  0.00     0.293 HD
ENDBRANCH   3   9
TORSDOF 2
ENDMDL
