MODEL 1
REMARK VINA RESULT:    -9.149      0.000      0.000
REMARK INTER + INTRA:         -13.341
REMARK INTER:                 -12.359
REMARK INTRA:                  -0.983
REMARK UNBOUND:                -0.983
REMARK SMILES O=c1c(-c2ccc(O)cc2)coc2c([C@H]3O[C@H](CO)[C@@H](O)[C@H](O)[C@@H]3O)c(O)ccc12
REMARK SMILES IDX 3 1 11 2 12 3 13 4 30 5 2 6 1 7 29 8 28 9 26 10 14 11 4 12
REMARK SMILES IDX 5 13 6 14 7 15 10 16 9 17 8 18 15 20 24 21 16 22 22 23 17 24
REMARK SMILES IDX 20 25 25 26 23 28 18 30 19 31 21 33 27 35
REMARK H PARENT 8 19 25 27 23 29 19 32 21 34 27 36
REMARK Flexibility Score: inf
ROOT
ATOM      1  C   UNL     1      82.490 -25.019  86.875  1.00  0.00     0.065 A 
ATOM      2  C   UNL     1      82.634 -25.765  85.681  1.00  0.00     0.208 A 
ATOM      3  O   UNL     1      81.509 -26.105  84.991  1.00  0.00    -0.463 OA
ATOM      4  C   UNL     1      80.228 -25.705  85.352  1.00  0.00     0.147 A 
ATOM      5  C   UNL     1      80.066 -24.919  86.505  1.00  0.00     0.066 A 
ATOM      6  C   UNL     1      81.194 -24.616  87.289  1.00  0.00     0.200 A 
ATOM      7  O   UNL     1      81.028 -24.006  88.375  1.00  0.00    -0.288 OA
ATOM      8  C   UNL     1      78.784 -24.471  86.864  1.00  0.00     0.020 A 
ATOM      9  C   UNL     1      77.687 -24.788  86.073  1.00  0.00     0.047 A 
ATOM     10  C   UNL     1      77.830 -25.564  84.924  1.00  0.00     0.125 A 
ATOM     11  C   UNL     1      79.109 -26.083  84.568  1.00  0.00     0.069 A 
ENDROOT
BRANCH   1  12
ATOM     12  C   UNL     1      83.756 -24.699  87.635  1.00  0.00    -0.011 A 
ATOM     13  C   UNL     1      84.878 -24.091  87.035  1.00  0.00     0.013 A 
ATOM     14  C   UNL     1      86.012 -23.765  87.791  1.00  0.00     0.047 A 
ATOM     15  C   UNL     1      86.065 -24.088  89.155  1.00  0.00     0.115 A 
ATOM     16  C   UNL     1      83.846 -25.037  89.010  1.00  0.00     0.013 A 
ATOM     17  C   UNL     1      84.982 -24.721  89.759  1.00  0.00     0.047 A 
BRANCH  15  18
ATOM     18  O   UNL     1      87.193 -23.791  89.911  1.00  0.00    -0.508 OA
ATOM     19  H   UNL     1      87.583 -22.844  89.904  1.00  0.00     0.293 HD
ENDBRANCH  15  18
ENDBRANCH   1  12
BRANCH  11  20
ATOM     20  C   UNL     1      79.245 -27.245  83.574  1.00  0.00     0.188 C 
ATOM     21  C   UNL     1      79.552 -26.645  82.161  1.00  0.00     0.179 C 
ATOM     22  O   UNL     1      78.127 -28.134  83.712  1.00  0.00    -0.362 OA
ATOM     23  C   UNL     1      79.145 -27.536  80.961  1.00  0.00     0.177 C 
ATOM     24  C   UNL     1      77.553 -28.616  82.513  1.00  0.00     0.176 C 
ATOM     25  C   UNL     1      78.593 -28.891  81.412  1.00  0.00     0.177 C 
BRANCH  21  26
ATOM     26  O   UNL     1      80.918 -26.309  82.097  1.00  0.00    -0.387 OA
ATOM     27  H   UNL     1      80.985 -25.323  82.011  1.00  0.00     0.211 HD
ENDBRANCH  21  26
BRANCH  23  28
ATOM     28  O   UNL     1      80.175 -27.689  80.017  1.00  0.00    -0.387 OA
ATOM     29  H   UNL     1      79.865 -27.282  79.159  1.00  0.00     0.211 HD
ENDBRANCH  23  28
BRANCH  24  30
ATOM     30  C   UNL     1      76.722 -29.881  82.862  1.00  0.00     0.191 C 
BRANCH  30  31
ATOM     31  O   UNL     1      77.363 -30.776  83.749  1.00  0.00    -0.394 OA
ATOM     32  H   UNL     1      77.752 -30.283  84.516  1.00  0.00     0.210 HD
ENDBRANCH  30  31
ENDBRANCH  24  30
BRANCH  25  33
ATOM     33  O   UNL     1      78.045 -29.585  80.308  1.00  0.00    -0.388 OA
ATOM     34  H   UNL     1      78.415 -29.193  79.469  1.00  0.00     0.211 HD
ENDBRANCH  25  33
ENDBRANCH  11  20
BRANCH  10  35
ATOM     35  O   UNL     1      76.671 -25.815  84.183  1.00  0.00    -0.507 OA
ATOM     36  H   UNL     1      75.731 -25.618  84.501  1.00  0.00     0.293 HD
ENDBRANCH  10  35
TORSDOF 9
ENDMDL
MODEL 2
REMARK VINA RESULT:    -9.030      2.116      4.514
REMARK INTER + INTRA:         -13.181
REMARK INTER:                 -12.139
REMARK INTRA:                  -1.042
REMARK UNBOUND:                -0.983
REMARK SMILES O=c1c(-c2ccc(O)cc2)coc2c([C@H]3O[C@H](CO)[C@@H](O)[C@H](O)[C@@H]3O)c(O)ccc12
REMARK SMILES IDX 3 1 11 2 12 3 13 4 30 5 2 6 1 7 29 8 28 9 26 10 14 11 4 12
REMARK SMILES IDX 5 13 6 14 7 15 10 16 9 17 8 18 15 20 24 21 16 22 22 23 17 24
REMARK SMILES IDX 20 25 25 26 23 28 18 30 19 31 21 33 27 35
REMARK H PARENT 8 19 25 27 23 29 19 32 21 34 27 36
REMARK Flexibility Score: inf
ROOT
ATOM      1  C   UNL     1      82.113 -25.534  87.090  1.00  0.00     0.065 A 
ATOM      2  C   UNL     1      80.878 -25.108  87.635  1.00  0.00     0.208 A 
ATOM      3  O   UNL     1      79.728 -25.515  87.026  1.00  0.00    -0.463 OA
ATOM      4  C   UNL     1      79.691 -26.380  85.939  1.00  0.00     0.147 A 
ATOM      5  C   UNL     1      80.904 -26.857  85.415  1.00  0.00     0.066 A 
ATOM      6  C   UNL     1      82.114 -26.396  85.964  1.00  0.00     0.200 A 
ATOM      7  O   UNL     1      83.193 -26.741  85.421  1.00  0.00    -0.288 OA
ATOM      8  C   UNL     1      80.886 -27.765  84.342  1.00  0.00     0.020 A 
ATOM      9  C   UNL     1      79.677 -28.200  83.817  1.00  0.00     0.047 A 
ATOM     10  C   UNL     1      78.464 -27.739  84.328  1.00  0.00     0.125 A 
ATOM     11  C   UNL     1      78.452 -26.773  85.375  1.00  0.00     0.069 A 
ENDROOT
BRANCH   1  12
ATOM     12  C   UNL     1      83.366 -25.027  87.766  1.00  0.00    -0.011 A 
ATOM     13  C   UNL     1      83.635 -25.231  89.135  1.00  0.00     0.013 A 
ATOM     14  C   UNL     1      84.835 -24.789  89.708  1.00  0.00     0.047 A 
ATOM     15  C   UNL     1      85.768 -24.086  88.931  1.00  0.00     0.115 A 
ATOM     16  C   UNL     1      84.315 -24.292  87.010  1.00  0.00     0.013 A 
ATOM     17  C   UNL     1      85.505 -23.842  87.587  1.00  0.00     0.047 A 
BRANCH  15  18
ATOM     18  O   UNL     1      86.952 -23.621  89.494  1.00  0.00    -0.508 OA
ATOM     19  H   UNL     1      87.831 -24.117  89.326  1.00  0.00     0.293 HD
ENDBRANCH  15  18
ENDBRANCH   1  12
BRANCH  11  20
ATOM     20  C   UNL     1      77.191 -25.952  85.683  1.00  0.00     0.188 C 
ATOM     21  C   UNL     1      76.429 -26.651  86.858  1.00  0.00     0.179 C 
ATOM     22  O   UNL     1      76.477 -25.687  84.467  1.00  0.00    -0.362 OA
ATOM     23  C   UNL     1      74.908 -26.364  86.925  1.00  0.00     0.177 C 
ATOM     24  C   UNL     1      75.071 -25.826  84.518  1.00  0.00     0.176 C 
ATOM     25  C   UNL     1      74.466 -25.362  85.855  1.00  0.00     0.177 C 
BRANCH  21  26
ATOM     26  O   UNL     1      77.058 -26.313  88.072  1.00  0.00    -0.387 OA
ATOM     27  H   UNL     1      77.856 -26.892  88.173  1.00  0.00     0.211 HD
ENDBRANCH  21  26
BRANCH  23  28
ATOM     28  O   UNL     1      74.479 -25.972  88.205  1.00  0.00    -0.387 OA
ATOM     29  H   UNL     1      75.271 -25.996  88.812  1.00  0.00     0.211 HD
ENDBRANCH  23  28
BRANCH  24  30
ATOM     30  C   UNL     1      74.476 -25.056  83.307  1.00  0.00     0.191 C 
BRANCH  30  31
ATOM     31  O   UNL     1      75.164 -23.865  82.976  1.00  0.00    -0.394 OA
ATOM     32  H   UNL     1      76.080 -23.878  83.354  1.00  0.00     0.210 HD
ENDBRANCH  30  31
ENDBRANCH  24  30
BRANCH  25  33
ATOM     33  O   UNL     1      73.053 -25.286  85.814  1.00  0.00    -0.388 OA
ATOM     34  H   UNL     1      72.769 -25.144  84.869  1.00  0.00     0.211 HD
ENDBRANCH  25  33
ENDBRANCH  11  20
BRANCH  10  35
ATOM     35  O   UNL     1      77.299 -28.250  83.745  1.00  0.00    -0.507 OA
ATOM     36  H   UNL     1      76.464 -28.503  84.255  1.00  0.00     0.293 HD
ENDBRANCH  10  35
TORSDOF 9
ENDMDL
MODEL 3
REMARK VINA RESULT:    -7.233      1.348      1.671
REMARK INTER + INTRA:         -10.753
REMARK INTER:                 -12.542
REMARK INTRA:                   1.789
REMARK UNBOUND:                -0.983
REMARK SMILES O=c1c(-c2ccc(O)cc2)coc2c([C@H]3O[C@H](CO)[C@@H](O)[C@H](O)[C@@H]3O)c(O)ccc12
REMARK SMILES IDX 3 1 11 2 12 3 13 4 30 5 2 6 1 7 29 8 28 9 26 10 14 11 4 12
REMARK SMILES IDX 5 13 6 14 7 15 10 16 9 17 8 18 15 20 24 21 16 22 22 23 17 24
REMARK SMILES IDX 20 25 25 26 23 28 18 30 19 31 21 33 27 35
REMARK H PARENT 8 19 25 27 23 29 19 32 21 34 27 36
REMARK Flexibility Score: inf
ROOT
ATOM      1  C   UNL     1      82.869 -24.712  87.516  1.00  0.00     0.065 A 
ATOM      2  C   UNL     1      82.843 -25.755  86.561  1.00  0.00     0.208 A 
ATOM      3  O   UNL     1      81.657 -26.053  85.960  1.00  0.00    -0.463 OA
ATOM      4  C   UNL     1      80.479 -25.348  86.178  1.00  0.00     0.147 A 
ATOM      5  C   UNL     1      80.494 -24.274  87.083  1.00  0.00     0.066 A 
ATOM      6  C   UNL     1      81.678 -23.987  87.784  1.00  0.00     0.200 A 
ATOM      7  O   UNL     1      81.655 -23.096  88.671  1.00  0.00    -0.288 OA
ATOM      8  C   UNL     1      79.323 -23.522  87.286  1.00  0.00     0.020 A 
ATOM      9  C   UNL     1      78.167 -23.829  86.583  1.00  0.00     0.047 A 
ATOM     10  C   UNL     1      78.136 -24.890  85.678  1.00  0.00     0.125 A 
ATOM     11  C   UNL     1      79.289 -25.706  85.496  1.00  0.00     0.069 A 
ENDROOT
BRANCH   1  12
ATOM     12  C   UNL     1      84.192 -24.440  88.194  1.00  0.00    -0.011 A 
ATOM     13  C   UNL     1      84.420 -24.696  89.562  1.00  0.00     0.013 A 
ATOM     14  C   UNL     1      85.679 -24.477  90.137  1.00  0.00     0.047 A 
ATOM     15  C   UNL     1      86.723 -23.947  89.363  1.00  0.00     0.115 A 
ATOM     16  C   UNL     1      85.257 -23.881  87.442  1.00  0.00     0.013 A 
ATOM     17  C   UNL     1      86.508 -23.653  88.020  1.00  0.00     0.047 A 
BRANCH  15  18
ATOM     18  O   UNL     1      87.970 -23.703  89.927  1.00  0.00    -0.508 OA
ATOM     19  H   UNL     1      88.133 -22.850  90.468  1.00  0.00     0.293 HD
ENDBRANCH  15  18
ENDBRANCH   1  12
BRANCH  11  20
ATOM     20  C   UNL     1      79.186 -27.092  84.842  1.00  0.00     0.188 C 
ATOM     21  C   UNL     1      80.459 -27.310  83.958  1.00  0.00     0.179 C 
ATOM     22  O   UNL     1      77.896 -27.244  84.232  1.00  0.00    -0.362 OA
ATOM     23  C   UNL     1      80.291 -28.315  82.791  1.00  0.00     0.177 C 
ATOM     24  C   UNL     1      77.870 -27.847  82.953  1.00  0.00     0.176 C 
ATOM     25  C   UNL     1      78.908 -28.971  82.794  1.00  0.00     0.177 C 
BRANCH  21  26
ATOM     26  O   UNL     1      81.532 -27.682  84.791  1.00  0.00    -0.387 OA
ATOM     27  H   UNL     1      81.486 -27.127  85.612  1.00  0.00     0.211 HD
ENDBRANCH  21  26
BRANCH  23  28
ATOM     28  O   UNL     1      81.316 -29.276  82.743  1.00  0.00    -0.387 OA
ATOM     29  H   UNL     1      81.393 -29.685  83.650  1.00  0.00     0.211 HD
ENDBRANCH  23  28
BRANCH  24  30
ATOM     30  C   UNL     1      76.422 -28.345  82.695  1.00  0.00     0.191 C 
BRANCH  30  31
ATOM     31  O   UNL     1      76.277 -29.752  82.704  1.00  0.00    -0.394 OA
ATOM     32  H   UNL     1      77.098 -30.186  82.354  1.00  0.00     0.210 HD
ENDBRANCH  30  31
ENDBRANCH  24  30
BRANCH  25  33
ATOM     33  O   UNL     1      78.722 -29.718  81.606  1.00  0.00    -0.388 OA
ATOM     34  H   UNL     1      79.616 -29.954  81.235  1.00  0.00     0.211 HD
ENDBRANCH  25  33
ENDBRANCH  11  20
BRANCH  10  35
ATOM     35  O   UNL     1      76.930 -25.109  85.004  1.00  0.00    -0.507 OA
ATOM     36  H   UNL     1      76.056 -24.650  85.223  1.00  0.00     0.293 HD
ENDBRANCH  10  35
TORSDOF 9
ENDMDL
MODEL 4
REMARK VINA RESULT:    -6.849      2.174      4.338
REMARK INTER + INTRA:         -10.235
REMARK INTER:                 -12.211
REMARK INTRA:                   1.976
REMARK UNBOUND:                -0.983
REMARK SMILES O=c1c(-c2ccc(O)cc2)coc2c([C@H]3O[C@H](CO)[C@@H](O)[C@H](O)[C@@H]3O)c(O)ccc12
REMARK SMILES IDX 3 1 11 2 12 3 13 4 30 5 2 6 1 7 29 8 28 9 26 10 14 11 4 12
REMARK SMILES IDX 5 13 6 14 7 15 10 16 9 17 8 18 15 20 24 21 16 22 22 23 17 24
REMARK SMILES IDX 20 25 25 26 23 28 18 30 19 31 21 33 27 35
REMARK H PARENT 8 19 25 27 23 29 19 32 21 34 27 36
REMARK Flexibility Score: inf
ROOT
ATOM      1  C   UNL     1      83.158 -25.656  87.421  1.00  0.00     0.065 A 
ATOM      2  C   UNL     1      81.849 -25.377  87.881  1.00  0.00     0.208 A 
ATOM      3  O   UNL     1      80.798 -25.927  87.211  1.00  0.00    -0.463 OA
ATOM      4  C   UNL     1      80.934 -26.803  86.141  1.00  0.00     0.147 A 
ATOM      5  C   UNL     1      82.226 -27.136  85.702  1.00  0.00     0.066 A 
ATOM      6  C   UNL     1      83.334 -26.526  86.314  1.00  0.00     0.200 A 
ATOM      7  O   UNL     1      84.480 -26.744  85.845  1.00  0.00    -0.288 OA
ATOM      8  C   UNL     1      82.385 -28.053  84.648  1.00  0.00     0.020 A 
ATOM      9  C   UNL     1      81.273 -28.639  84.059  1.00  0.00     0.047 A 
ATOM     10  C   UNL     1      79.983 -28.322  84.485  1.00  0.00     0.125 A 
ATOM     11  C   UNL     1      79.789 -27.352  85.510  1.00  0.00     0.069 A 
ENDROOT
BRANCH   1  12
ATOM     12  C   UNL     1      84.297 -24.992  88.162  1.00  0.00    -0.011 A 
ATOM     13  C   UNL     1      84.450 -25.072  89.561  1.00  0.00     0.013 A 
ATOM     14  C   UNL     1      85.550 -24.484  90.201  1.00  0.00     0.047 A 
ATOM     15  C   UNL     1      86.492 -23.760  89.455  1.00  0.00     0.115 A 
ATOM     16  C   UNL     1      85.250 -24.233  87.436  1.00  0.00     0.013 A 
ATOM     17  C   UNL     1      86.339 -23.639  88.078  1.00  0.00     0.047 A 
BRANCH  15  18
ATOM     18  O   UNL     1      87.575 -23.153  90.081  1.00  0.00    -0.508 OA
ATOM     19  H   UNL     1      88.299 -23.723  90.527  1.00  0.00     0.293 HD
ENDBRANCH  15  18
ENDBRANCH   1  12
BRANCH  11  20
ATOM     20  C   UNL     1      78.421 -26.686  85.724  1.00  0.00     0.188 C 
ATOM     21  C   UNL     1      77.675 -26.652  84.348  1.00  0.00     0.179 C 
ATOM     22  O   UNL     1      78.589 -25.456  86.442  1.00  0.00    -0.362 OA
ATOM     23  C   UNL     1      76.602 -25.544  84.204  1.00  0.00     0.177 C 
ATOM     24  C   UNL     1      77.830 -24.352  85.988  1.00  0.00     0.176 C 
ATOM     25  C   UNL     1      76.425 -24.745  85.498  1.00  0.00     0.177 C 
BRANCH  21  26
ATOM     26  O   UNL     1      77.121 -27.924  84.100  1.00  0.00    -0.387 OA
ATOM     27  H   UNL     1      76.292 -28.004  84.638  1.00  0.00     0.211 HD
ENDBRANCH  21  26
BRANCH  23  28
ATOM     28  O   UNL     1      75.372 -26.030  83.727  1.00  0.00    -0.387 OA
ATOM     29  H   UNL     1      74.878 -25.262  83.323  1.00  0.00     0.211 HD
ENDBRANCH  23  28
BRANCH  24  30
ATOM     30  C   UNL     1      77.779 -23.308  87.137  1.00  0.00     0.191 C 
BRANCH  30  31
ATOM     31  O   UNL     1      78.978 -23.196  87.878  1.00  0.00    -0.394 OA
ATOM     32  H   UNL     1      79.652 -22.676  87.369  1.00  0.00     0.210 HD
ENDBRANCH  30  31
ENDBRANCH  24  30
BRANCH  25  33
ATOM     33  O   UNL     1      75.596 -23.621  85.266  1.00  0.00    -0.388 OA
ATOM     34  H   UNL     1      75.516 -23.483  84.282  1.00  0.00     0.211 HD
ENDBRANCH  25  33
ENDBRANCH  11  20
BRANCH  10  35
ATOM     35  O   UNL     1      78.928 -28.978  83.843  1.00  0.00    -0.507 OA
ATOM     36  H   UNL     1      78.543 -29.867  84.129  1.00  0.00     0.293 HD
ENDBRANCH  10  35
TORSDOF 9
ENDMDL
MODEL 5
REMARK VINA RESULT:    -6.737      1.552      2.523
REMARK INTER + INTRA:         -10.083
REMARK INTER:                 -12.083
REMARK INTRA:                   2.000
REMARK UNBOUND:                -0.983
REMARK SMILES O=c1c(-c2ccc(O)cc2)coc2c([C@H]3O[C@H](CO)[C@@H](O)[C@H](O)[C@@H]3O)c(O)ccc12
REMARK SMILES IDX 3 1 11 2 12 3 13 4 30 5 2 6 1 7 29 8 28 9 26 10 14 11 4 12
REMARK SMILES IDX 5 13 6 14 7 15 10 16 9 17 8 18 15 20 24 21 16 22 22 23 17 24
REMARK SMILES IDX 20 25 25 26 23 28 18 30 19 31 21 33 27 35
REMARK H PARENT 8 19 25 27 23 29 19 32 21 34 27 36
REMARK Flexibility Score: inf
ROOT
ATOM      1  C   UNL     1      82.915 -24.448  87.390  1.00  0.00     0.065 A 
ATOM      2  C   UNL     1      82.926 -25.141  86.157  1.00  0.00     0.208 A 
ATOM      3  O   UNL     1      81.740 -25.338  85.514  1.00  0.00    -0.463 OA
ATOM      4  C   UNL     1      80.524 -24.838  85.963  1.00  0.00     0.147 A 
ATOM      5  C   UNL     1      80.497 -24.101  87.158  1.00  0.00     0.066 A 
ATOM      6  C   UNL     1      81.686 -23.946  87.892  1.00  0.00     0.200 A 
ATOM      7  O   UNL     1      81.635 -23.380  89.013  1.00  0.00    -0.288 OA
ATOM      8  C   UNL     1      79.283 -23.552  87.607  1.00  0.00     0.020 A 
ATOM      9  C   UNL     1      78.123 -23.723  86.864  1.00  0.00     0.047 A 
ATOM     10  C   UNL     1      78.133 -24.450  85.674  1.00  0.00     0.125 A 
ATOM     11  C   UNL     1      79.335 -25.067  85.225  1.00  0.00     0.069 A 
ENDROOT
BRANCH   1  12
ATOM     12  C   UNL     1      84.242 -24.287  88.094  1.00  0.00    -0.011 A 
ATOM     13  C   UNL     1      84.439 -24.634  89.447  1.00  0.00     0.013 A 
ATOM     14  C   UNL     1      85.701 -24.517  90.045  1.00  0.00     0.047 A 
ATOM     15  C   UNL     1      86.781 -24.001  89.313  1.00  0.00     0.115 A 
ATOM     16  C   UNL     1      85.345 -23.745  87.385  1.00  0.00     0.013 A 
ATOM     17  C   UNL     1      86.599 -23.619  87.988  1.00  0.00     0.047 A 
BRANCH  15  18
ATOM     18  O   UNL     1      88.032 -23.858  89.902  1.00  0.00    -0.508 OA
ATOM     19  H   UNL     1      88.300 -22.970  90.335  1.00  0.00     0.293 HD
ENDBRANCH  15  18
ENDBRANCH   1  12
BRANCH  11  20
ATOM     20  C   UNL     1      79.308 -26.185  84.171  1.00  0.00     0.188 C 
ATOM     21  C   UNL     1      77.906 -26.878  84.231  1.00  0.00     0.179 C 
ATOM     22  O   UNL     1      80.481 -27.001  84.301  1.00  0.00    -0.362 OA
ATOM     23  C   UNL     1      77.867 -28.339  83.718  1.00  0.00     0.177 C 
ATOM     24  C   UNL     1      80.291 -28.399  84.197  1.00  0.00     0.176 C 
ATOM     25  C   UNL     1      79.221 -28.788  83.162  1.00  0.00     0.177 C 
BRANCH  21  26
ATOM     26  O   UNL     1      76.974 -26.078  83.542  1.00  0.00    -0.387 OA
ATOM     27  H   UNL     1      76.636 -26.601  82.770  1.00  0.00     0.211 HD
ENDBRANCH  21  26
BRANCH  23  28
ATOM     28  O   UNL     1      76.831 -28.570  82.797  1.00  0.00    -0.387 OA
ATOM     29  H   UNL     1      76.928 -29.504  82.457  1.00  0.00     0.211 HD
ENDBRANCH  23  28
BRANCH  24  30
ATOM     30  C   UNL     1      81.670 -29.041  83.885  1.00  0.00     0.191 C 
BRANCH  30  31
ATOM     31  O   UNL     1      82.777 -28.337  84.414  1.00  0.00    -0.394 OA
ATOM     32  H   UNL     1      82.494 -27.772  85.179  1.00  0.00     0.210 HD
ENDBRANCH  30  31
ENDBRANCH  24  30
BRANCH  25  33
ATOM     33  O   UNL     1      79.201 -30.179  82.899  1.00  0.00    -0.388 OA
ATOM     34  H   UNL     1      79.540 -30.332  81.974  1.00  0.00     0.211 HD
ENDBRANCH  25  33
ENDBRANCH  11  20
BRANCH  10  35
ATOM     35  O   UNL     1      76.919 -24.551  84.987  1.00  0.00    -0.507 OA
ATOM     36  H   UNL     1      76.082 -24.033  85.218  1.00  0.00     0.293 HD
ENDBRANCH  10  35
TORSDOF 9
ENDMDL
MODEL 6
REMARK VINA RESULT:    -6.389      1.319      2.528
REMARK INTER + INTRA:          -9.613
REMARK INTER:                  -9.721
REMARK INTRA:                   0.108
REMARK UNBOUND:                -0.983
REMARK SMILES O=c1c(-c2ccc(O)cc2)coc2c([C@H]3O[C@H](CO)[C@@H](O)[C@H](O)[C@@H]3O)c(O)ccc12
REMARK SMILES IDX 3 1 11 2 12 3 13 4 30 5 2 6 1 7 29 8 28 9 26 10 14 11 4 12
REMARK SMILES IDX 5 13 6 14 7 15 10 16 9 17 8 18 15 20 24 21 16 22 22 23 17 24
REMARK SMILES IDX 20 25 25 26 23 28 18 30 19 31 21 33 27 35
REMARK H PARENT 8 19 25 27 23 29 19 32 21 34 27 36
REMARK Flexibility Score: inf
ROOT
ATOM      1  C   UNL     1      81.497 -25.260  86.361  1.00  0.00     0.065 A 
ATOM      2  C   UNL     1      81.443 -25.524  84.973  1.00  0.00     0.208 A 
ATOM      3  O   UNL     1      80.248 -25.890  84.430  1.00  0.00    -0.463 OA
ATOM      4  C   UNL     1      79.059 -25.953  85.146  1.00  0.00     0.147 A 
ATOM      5  C   UNL     1      79.079 -25.643  86.516  1.00  0.00     0.066 A 
ATOM      6  C   UNL     1      80.307 -25.341  87.130  1.00  0.00     0.200 A 
ATOM      7  O   UNL     1      80.335 -25.172  88.375  1.00  0.00    -0.288 OA
ATOM      8  C   UNL     1      77.880 -25.662  87.249  1.00  0.00     0.020 A 
ATOM      9  C   UNL     1      76.682 -25.967  86.618  1.00  0.00     0.047 A 
ATOM     10  C   UNL     1      76.643 -26.274  85.258  1.00  0.00     0.125 A 
ATOM     11  C   UNL     1      77.850 -26.322  84.504  1.00  0.00     0.069 A 
ENDROOT
BRANCH   1  12
ATOM     12  C   UNL     1      82.849 -24.900  86.935  1.00  0.00    -0.011 A 
ATOM     13  C   UNL     1      83.953 -24.546  86.132  1.00  0.00     0.013 A 
ATOM     14  C   UNL     1      85.173 -24.170  86.709  1.00  0.00     0.047 A 
ATOM     15  C   UNL     1      85.328 -24.192  88.103  1.00  0.00     0.115 A 
ATOM     16  C   UNL     1      83.041 -24.938  88.340  1.00  0.00     0.013 A 
ATOM     17  C   UNL     1      84.262 -24.573  88.912  1.00  0.00     0.047 A 
BRANCH  15  18
ATOM     18  O   UNL     1      86.541 -23.843  88.687  1.00  0.00    -0.508 OA
ATOM     19  H   UNL     1      87.387 -23.776  88.115  1.00  0.00     0.293 HD
ENDBRANCH  15  18
ENDBRANCH   1  12
BRANCH  11  20
ATOM     20  C   UNL     1      77.908 -27.033  83.143  1.00  0.00     0.188 C 
ATOM     21  C   UNL     1      78.378 -28.507  83.383  1.00  0.00     0.179 C 
ATOM     22  O   UNL     1      78.635 -26.226  82.206  1.00  0.00    -0.362 OA
ATOM     23  C   UNL     1      79.059 -29.190  82.171  1.00  0.00     0.177 C 
ATOM     24  C   UNL     1      79.550 -26.904  81.367  1.00  0.00     0.176 C 
ATOM     25  C   UNL     1      79.054 -28.294  80.929  1.00  0.00     0.177 C 
BRANCH  21  26
ATOM     26  O   UNL     1      77.282 -29.265  83.838  1.00  0.00    -0.387 OA
ATOM     27  H   UNL     1      77.464 -29.529  84.776  1.00  0.00     0.211 HD
ENDBRANCH  21  26
BRANCH  23  28
ATOM     28  O   UNL     1      78.531 -30.461  81.889  1.00  0.00    -0.387 OA
ATOM     29  H   UNL     1      78.013 -30.394  81.038  1.00  0.00     0.211 HD
ENDBRANCH  23  28
BRANCH  24  30
ATOM     30  C   UNL     1      79.854 -25.982  80.155  1.00  0.00     0.191 C 
BRANCH  30  31
ATOM     31  O   UNL     1      81.228 -25.709  79.957  1.00  0.00    -0.394 OA
ATOM     32  H   UNL     1      81.556 -26.163  79.139  1.00  0.00     0.210 HD
ENDBRANCH  30  31
ENDBRANCH  24  30
BRANCH  25  33
ATOM     33  O   UNL     1      79.860 -28.863  79.915  1.00  0.00    -0.388 OA
ATOM     34  H   UNL     1      79.510 -28.571  79.029  1.00  0.00     0.211 HD
ENDBRANCH  25  33
ENDBRANCH  11  20
BRANCH  10  35
ATOM     35  O   UNL     1      75.386 -26.550  84.709  1.00  0.00    -0.507 OA
ATOM     36  H   UNL     1      75.010 -27.477  84.570  1.00  0.00     0.293 HD
ENDBRANCH  10  35
TORSDOF 9
ENDMDL
