MODEL 1
REMARK VINA RESULT:    -3.622      0.000      0.000
REMARK INTER + INTRA:          -6.803
REMARK INTER:                  -5.739
REMARK INTRA:                  -1.063
REMARK UNBOUND:                -1.063
REMARK SMILES CCCCCCCCCCCC(=O)[O-]
REMARK SMILES IDX 7 1 8 2 9 3 10 4 11 5 12 6 13 7 14 8 6 9 5 10 4 11 3 12 2 13
REMARK SMILES IDX 1 14
REMARK H PARENT
REMARK Flexibility Score: inf
ROOT
ATOM      1  C   UNL     1     -16.284  45.511  -8.418  1.00  0.00     0.000 C 
ENDROOT
BRANCH   1   2
ATOM      2  C   UNL     1     -16.139  44.129  -7.759  1.00  0.00     0.000 C 
BRANCH   2   3
ATOM      3  C   UNL     1     -17.322  43.787  -6.836  1.00  0.00     0.000 C 
BRANCH   3   4
ATOM      4  C   UNL     1     -16.872  43.331  -5.436  1.00  0.00     0.006 C 
BRANCH   4   5
ATOM      5  C   UNL     1     -17.787  42.280  -4.786  1.00  0.00     0.053 C 
BRANCH   5   6
ATOM      6  C   UNL     1     -18.663  42.877  -3.729  1.00  0.00     0.041 C 
ATOM      7  O   UNL     1     -18.690  44.124  -3.556  1.00  0.00    -0.550 OA
ATOM      8  O   UNL     1     -19.427  42.054  -2.912  1.00  0.00    -0.550 OA
ENDBRANCH   5   6
ENDBRANCH   4   5
ENDBRANCH   3   4
ENDBRANCH   2   3
ENDBRANCH   1   2
BRANCH   1   9
ATOM      9  C   UNL     1     -16.701  45.426  -9.893  1.00  0.00     0.000 C 
BRANCH   9  10
ATOM     10  C   UNL     1     -18.205  45.688 -10.053  1.00  0.00    -0.000 C 
BRANCH  10  11
ATOM     11  C   UNL     1     -18.936  44.542 -10.770  1.00  0.00    -0.000 C 
BRANCH  11  12
ATOM     12  C   UNL     1     -19.692  43.622  -9.799  1.00  0.00    -0.000 C 
BRANCH  12  13
ATOM     13  C   UNL     1     -18.946  42.295  -9.610  1.00  0.00    -0.003 C 
ATOM     14  C   UNL     1     -17.999  42.024 -10.776  1.00  0.00     0.004 C 
ENDBRANCH  12  13
ENDBRANCH  11  12
ENDBRANCH  10  11
ENDBRANCH   9  10
ENDBRANCH   1   9
TORSDOF 10
ENDMDL
MODEL 2
REMARK VINA RESULT:    -3.487      1.083      2.617
REMARK INTER + INTRA:          -6.589
REMARK INTER:                  -5.302
REMARK INTRA:                  -1.288
REMARK UNBOUND:                -1.063
REMARK SMILES CCCCCCCCCCCC(=O)[O-]
REMARK SMILES IDX 7 1 8 2 9 3 10 4 11 5 12 6 13 7 14 8 6 9 5 10 4 11 3 12 2 13
REMARK SMILES IDX 1 14
REMARK H PARENT
REMARK Flexibility Score: inf
ROOT
ATOM      1  C   UNL     1     -19.424  44.379  -8.583  1.00  0.00     0.000 C 
ENDROOT
BRANCH   1   2
ATOM      2  C   UNL     1     -18.734  44.494  -7.214  1.00  0.00     0.000 C 
BRANCH   2   3
ATOM      3  C   UNL     1     -17.695  43.382  -6.981  1.00  0.00     0.000 C 
BRANCH   3   4
ATOM      4  C   UNL     1     -17.148  43.371  -5.542  1.00  0.00     0.006 C 
BRANCH   4   5
ATOM      5  C   UNL     1     -17.810  42.335  -4.619  1.00  0.00     0.053 C 
BRANCH   5   6
ATOM      6  C   UNL     1     -18.736  42.975  -3.631  1.00  0.00     0.041 C 
ATOM      7  O   UNL     1     -18.926  44.220  -3.653  1.00  0.00    -0.550 OA
ATOM      8  O   UNL     1     -19.366  42.201  -2.666  1.00  0.00    -0.550 OA
ENDBRANCH   5   6
ENDBRANCH   4   5
ENDBRANCH   3   4
ENDBRANCH   2   3
ENDBRANCH   1   2
BRANCH   1   9
ATOM      9  C   UNL     1     -19.138  43.042  -9.284  1.00  0.00     0.000 C 
BRANCH   9  10
ATOM     10  C   UNL     1     -18.494  43.272 -10.658  1.00  0.00    -0.000 C 
BRANCH  10  11
ATOM     11  C   UNL     1     -17.507  44.451 -10.663  1.00  0.00    -0.000 C 
BRANCH  11  12
ATOM     12  C   UNL     1     -16.043  43.998 -10.566  1.00  0.00    -0.000 C 
BRANCH  12  13
ATOM     13  C   UNL     1     -15.305  44.763  -9.460  1.00  0.00    -0.003 C 
ATOM     14  C   UNL     1     -15.998  46.087  -9.149  1.00  0.00     0.004 C 
ENDBRANCH  12  13
ENDBRANCH  11  12
ENDBRANCH  10  11
ENDBRANCH   9  10
ENDBRANCH   1   9
TORSDOF 10
ENDMDL
MODEL 3
REMARK VINA RESULT:    -3.479      3.231      5.887
REMARK INTER + INTRA:          -6.577
REMARK INTER:                  -5.459
REMARK INTRA:                  -1.117
REMARK UNBOUND:                -1.063
REMARK SMILES CCCCCCCCCCCC(=O)[O-]
REMARK SMILES IDX 7 1 8 2 9 3 10 4 11 5 12 6 13 7 14 8 6 9 5 10 4 11 3 12 2 13
REMARK SMILES IDX 1 14
REMARK H PARENT
REMARK Flexibility Score: inf
ROOT
ATOM      1  C   UNL     1     -18.764  44.598  -7.647  1.00  0.00     0.000 C 
ENDROOT
BRANCH   1   2
ATOM      2  C   UNL     1     -19.664  44.315  -8.861  1.00  0.00     0.000 C 
BRANCH   2   3
ATOM      3  C   UNL     1     -19.314  42.991  -9.561  1.00  0.00     0.000 C 
BRANCH   3   4
ATOM      4  C   UNL     1     -18.558  43.200 -10.886  1.00  0.00     0.006 C 
BRANCH   4   5
ATOM      5  C   UNL     1     -17.038  42.988 -10.792  1.00  0.00     0.053 C 
BRANCH   5   6
ATOM      6  C   UNL     1     -16.314  44.257 -10.465  1.00  0.00     0.041 C 
ATOM      7  O   UNL     1     -15.174  44.218  -9.932  1.00  0.00    -0.550 OA
ATOM      8  O   UNL     1     -16.912  45.484 -10.720  1.00  0.00    -0.550 OA
ENDBRANCH   5   6
ENDBRANCH   4   5
ENDBRANCH   3   4
ENDBRANCH   2   3
ENDBRANCH   1   2
BRANCH   1   9
ATOM      9  C   UNL     1     -17.986  43.358  -7.182  1.00  0.00     0.000 C 
BRANCH   9  10
ATOM     10  C   UNL     1     -16.679  43.762  -6.485  1.00  0.00    -0.000 C 
BRANCH  10  11
ATOM     11  C   UNL     1     -16.601  43.267  -5.032  1.00  0.00    -0.000 C 
BRANCH  11  12
ATOM     12  C   UNL     1     -17.565  42.105  -4.750  1.00  0.00    -0.000 C 
BRANCH  12  13
ATOM     13  C   UNL     1     -18.462  42.418  -3.546  1.00  0.00    -0.003 C 
ATOM     14  C   UNL     1     -18.966  43.858  -3.592  1.00  0.00     0.004 C 
ENDBRANCH  12  13
ENDBRANCH  11  12
ENDBRANCH  10  11
ENDBRANCH   9  10
ENDBRANCH   1   9
TORSDOF 10
ENDMDL
MODEL 4
REMARK VINA RESULT:    -3.434      2.574      5.465
REMARK INTER + INTRA:          -6.505
REMARK INTER:                  -5.781
REMARK INTRA:                  -0.723
REMARK UNBOUND:                -1.063
REMARK SMILES CCCCCCCCCCCC(=O)[O-]
REMARK SMILES IDX 7 1 8 2 9 3 10 4 11 5 12 6 13 7 14 8 6 9 5 10 4 11 3 12 2 13
REMARK SMILES IDX 1 14
REMARK H PARENT
REMARK Flexibility Score: inf
ROOT
ATOM      1  C   UNL     1     -16.229  44.848  -7.908  1.00  0.00     0.000 C 
ENDROOT
BRANCH   1   2
ATOM      2  C   UNL     1     -15.877  44.205  -9.260  1.00  0.00     0.000 C 
BRANCH   2   3
ATOM      3  C   UNL     1     -17.061  44.209 -10.243  1.00  0.00     0.000 C 
BRANCH   3   4
ATOM      4  C   UNL     1     -17.644  42.804 -10.477  1.00  0.00     0.006 C 
BRANCH   4   5
ATOM      5  C   UNL     1     -19.019  42.570  -9.829  1.00  0.00     0.053 C 
BRANCH   5   6
ATOM      6  C   UNL     1     -19.812  43.835  -9.725  1.00  0.00     0.041 C 
ATOM      7  O   UNL     1     -19.971  44.394  -8.608  1.00  0.00    -0.550 OA
ATOM      8  O   UNL     1     -20.404  44.380 -10.856  1.00  0.00    -0.550 OA
ENDBRANCH   5   6
ENDBRANCH   4   5
ENDBRANCH   3   4
ENDBRANCH   2   3
ENDBRANCH   1   2
BRANCH   1   9
ATOM      9  C   UNL     1     -16.990  43.894  -6.976  1.00  0.00     0.000 C 
BRANCH   9  10
ATOM     10  C   UNL     1     -16.065  43.346  -5.880  1.00  0.00    -0.000 C 
BRANCH  10  11
ATOM     11  C   UNL     1     -16.779  43.173  -4.530  1.00  0.00    -0.000 C 
BRANCH  11  12
ATOM     12  C   UNL     1     -17.810  42.035  -4.547  1.00  0.00    -0.000 C 
BRANCH  12  13
ATOM     13  C   UNL     1     -18.989  42.351  -3.618  1.00  0.00    -0.003 C 
ATOM     14  C   UNL     1     -18.984  43.819  -3.200  1.00  0.00     0.004 C 
ENDBRANCH  12  13
ENDBRANCH  11  12
ENDBRANCH  10  11
ENDBRANCH   9  10
ENDBRANCH   1   9
TORSDOF 10
ENDMDL
MODEL 5
REMARK VINA RESULT:    -3.409      2.851      5.619
REMARK INTER + INTRA:          -6.465
REMARK INTER:                  -5.414
REMARK INTRA:                  -1.051
REMARK UNBOUND:                -1.063
REMARK SMILES CCCCCCCCCCCC(=O)[O-]
REMARK SMILES IDX 7 1 8 2 9 3 10 4 11 5 12 6 13 7 14 8 6 9 5 10 4 11 3 12 2 13
REMARK SMILES IDX 1 14
REMARK H PARENT
REMARK Flexibility Score: inf
ROOT
ATOM      1  C   UNL     1     -19.304  44.494  -8.504  1.00  0.00     0.000 C 
ENDROOT
BRANCH   1   2
ATOM      2  C   UNL     1     -19.100  43.145  -9.212  1.00  0.00     0.000 C 
BRANCH   2   3
ATOM      3  C   UNL     1     -18.404  43.293 -10.577  1.00  0.00     0.000 C 
BRANCH   3   4
ATOM      4  C   UNL     1     -17.410  44.468 -10.613  1.00  0.00     0.006 C 
BRANCH   4   5
ATOM      5  C   UNL     1     -15.954  44.080 -10.308  1.00  0.00     0.053 C 
BRANCH   5   6
ATOM      6  C   UNL     1     -15.393  44.864  -9.163  1.00  0.00     0.041 C 
ATOM      7  O   UNL     1     -14.349  44.473  -8.578  1.00  0.00    -0.550 OA
ATOM      8  O   UNL     1     -16.040  46.010  -8.721  1.00  0.00    -0.550 OA
ENDBRANCH   5   6
ENDBRANCH   4   5
ENDBRANCH   3   4
ENDBRANCH   2   3
ENDBRANCH   1   2
BRANCH   1   9
ATOM      9  C   UNL     1     -18.847  44.471  -7.038  1.00  0.00     0.000 C 
BRANCH   9  10
ATOM     10  C   UNL     1     -17.708  43.461  -6.835  1.00  0.00    -0.000 C 
BRANCH  10  11
ATOM     11  C   UNL     1     -17.331  43.278  -5.357  1.00  0.00    -0.000 C 
BRANCH  11  12
ATOM     12  C   UNL     1     -17.891  41.978  -4.759  1.00  0.00    -0.000 C 
BRANCH  12  13
ATOM     13  C   UNL     1     -18.821  42.275  -3.576  1.00  0.00    -0.003 C 
ATOM     14  C   UNL     1     -18.926  43.776  -3.321  1.00  0.00     0.004 C 
ENDBRANCH  12  13
ENDBRANCH  11  12
ENDBRANCH  10  11
ENDBRANCH   9  10
ENDBRANCH   1   9
TORSDOF 10
ENDMDL
MODEL 6
REMARK VINA RESULT:    -3.402      2.717      5.663
REMARK INTER + INTRA:          -6.454
REMARK INTER:                  -5.731
REMARK INTRA:                  -0.723
REMARK UNBOUND:                -1.063
REMARK SMILES CCCCCCCCCCCC(=O)[O-]
REMARK SMILES IDX 7 1 8 2 9 3 10 4 11 5 12 6 13 7 14 8 6 9 5 10 4 11 3 12 2 13
REMARK SMILES IDX 1 14
REMARK H PARENT
REMARK Flexibility Score: inf
ROOT
ATOM      1  C   UNL     1     -15.692  44.173  -7.983  1.00  0.00     0.000 C 
ENDROOT
BRANCH   1   2
ATOM      2  C   UNL     1     -16.530  45.384  -8.423  1.00  0.00     0.000 C 
BRANCH   2   3
ATOM      3  C   UNL     1     -16.499  45.604  -9.946  1.00  0.00     0.000 C 
BRANCH   3   4
ATOM      4  C   UNL     1     -17.845  45.283 -10.620  1.00  0.00     0.006 C 
BRANCH   4   5
ATOM      5  C   UNL     1     -18.950  44.829  -9.652  1.00  0.00     0.053 C 
BRANCH   5   6
ATOM      6  C   UNL     1     -19.411  43.435  -9.942  1.00  0.00     0.041 C 
ATOM      7  O   UNL     1     -18.825  42.451  -9.417  1.00  0.00    -0.550 OA
ATOM      8  O   UNL     1     -20.468  43.219 -10.816  1.00  0.00    -0.550 OA
ENDBRANCH   5   6
ENDBRANCH   4   5
ENDBRANCH   3   4
ENDBRANCH   2   3
ENDBRANCH   1   2
BRANCH   1   9
ATOM      9  C   UNL     1     -15.870  43.834  -6.496  1.00  0.00     0.000 C 
BRANCH   9  10
ATOM     10  C   UNL     1     -17.286  43.307  -6.220  1.00  0.00    -0.000 C 
BRANCH  10  11
ATOM     11  C   UNL     1     -17.342  42.355  -5.015  1.00  0.00    -0.000 C 
BRANCH  11  12
ATOM     12  C   UNL     1     -17.296  43.097  -3.671  1.00  0.00    -0.000 C 
BRANCH  12  13
ATOM     13  C   UNL     1     -18.691  43.598  -3.275  1.00  0.00    -0.003 C 
ATOM     14  C   UNL     1     -19.620  42.435  -2.938  1.00  0.00     0.004 C 
ENDBRANCH  12  13
ENDBRANCH  11  12
ENDBRANCH  10  11
ENDBRANCH   9  10
ENDBRANCH   1   9
TORSDOF 10
ENDMDL
MODEL 7
REMARK VINA RESULT:    -3.271      1.361      2.997
REMARK INTER + INTRA:          -6.247
REMARK INTER:                  -5.023
REMARK INTRA:                  -1.224
REMARK UNBOUND:                -1.063
REMARK SMILES CCCCCCCCCCCC(=O)[O-]
REMARK SMILES IDX 7 1 8 2 9 3 10 4 11 5 12 6 13 7 14 8 6 9 5 10 4 11 3 12 2 13
REMARK SMILES IDX 1 14
REMARK H PARENT
REMARK Flexibility Score: inf
ROOT
ATOM      1  C   UNL     1     -18.718  43.040  -8.618  1.00  0.00     0.000 C 
ENDROOT
BRANCH   1   2
ATOM      2  C   UNL     1     -19.305  44.453  -8.469  1.00  0.00     0.000 C 
BRANCH   2   3
ATOM      3  C   UNL     1     -19.389  44.907  -7.001  1.00  0.00     0.000 C 
BRANCH   3   4
ATOM      4  C   UNL     1     -18.730  43.909  -6.031  1.00  0.00     0.006 C 
BRANCH   4   5
ATOM      5  C   UNL     1     -19.128  44.097  -4.558  1.00  0.00     0.053 C 
BRANCH   5   6
ATOM      6  C   UNL     1     -18.407  43.143  -3.657  1.00  0.00     0.041 C 
ATOM      7  O   UNL     1     -17.149  43.129  -3.624  1.00  0.00    -0.550 OA
ATOM      8  O   UNL     1     -19.125  42.248  -2.875  1.00  0.00    -0.550 OA
ENDBRANCH   5   6
ENDBRANCH   4   5
ENDBRANCH   3   4
ENDBRANCH   2   3
ENDBRANCH   1   2
BRANCH   1   9
ATOM      9  C   UNL     1     -18.435  42.664 -10.080  1.00  0.00     0.000 C 
BRANCH   9  10
ATOM     10  C   UNL     1     -17.711  43.806 -10.808  1.00  0.00    -0.000 C 
BRANCH  10  11
ATOM     11  C   UNL     1     -16.216  43.883 -10.456  1.00  0.00    -0.000 C 
BRANCH  11  12
ATOM     12  C   UNL     1     -15.748  45.318 -10.170  1.00  0.00    -0.000 C 
BRANCH  12  13
ATOM     13  C   UNL     1     -15.894  45.654  -8.681  1.00  0.00    -0.003 C 
ATOM     14  C   UNL     1     -15.421  44.498  -7.805  1.00  0.00     0.004 C 
ENDBRANCH  12  13
ENDBRANCH  11  12
ENDBRANCH  10  11
ENDBRANCH   9  10
ENDBRANCH   1   9
TORSDOF 10
ENDMDL
MODEL 8
REMARK VINA RESULT:    -3.184      3.416      6.171
REMARK INTER + INTRA:          -6.108
REMARK INTER:                  -5.330
REMARK INTRA:                  -0.778
REMARK UNBOUND:                -1.063
REMARK SMILES CCCCCCCCCCCC(=O)[O-]
REMARK SMILES IDX 7 1 8 2 9 3 10 4 11 5 12 6 13 7 14 8 6 9 5 10 4 11 3 12 2 13
REMARK SMILES IDX 1 14
REMARK H PARENT
REMARK Flexibility Score: inf
ROOT
ATOM      1  C   UNL     1     -16.827  44.433  -7.640  1.00  0.00     0.000 C 
ENDROOT
BRANCH   1   2
ATOM      2  C   UNL     1     -18.181  43.705  -7.610  1.00  0.00     0.000 C 
BRANCH   2   3
ATOM      3  C   UNL     1     -19.289  44.485  -8.340  1.00  0.00     0.000 C 
BRANCH   3   4
ATOM      4  C   UNL     1     -19.694  43.833  -9.675  1.00  0.00     0.006 C 
BRANCH   4   5
ATOM      5  C   UNL     1     -19.846  44.820 -10.844  1.00  0.00     0.053 C 
BRANCH   5   6
ATOM      6  C   UNL     1     -18.634  45.684 -11.010  1.00  0.00     0.041 C 
ATOM      7  O   UNL     1     -18.754  46.932 -11.124  1.00  0.00    -0.550 OA
ATOM      8  O   UNL     1     -17.372  45.107 -11.070  1.00  0.00    -0.550 OA
ENDBRANCH   5   6
ENDBRANCH   4   5
ENDBRANCH   3   4
ENDBRANCH   2   3
ENDBRANCH   1   2
BRANCH   1   9
ATOM      9  C   UNL     1     -15.785  43.789  -6.714  1.00  0.00     0.000 C 
BRANCH   9  10
ATOM     10  C   UNL     1     -16.466  42.954  -5.621  1.00  0.00    -0.000 C 
BRANCH  10  11
ATOM     11  C   UNL     1     -16.173  43.476  -4.205  1.00  0.00    -0.000 C 
BRANCH  11  12
ATOM     12  C   UNL     1     -17.307  43.167  -3.215  1.00  0.00    -0.000 C 
BRANCH  12  13
ATOM     13  C   UNL     1     -18.667  43.165  -3.923  1.00  0.00    -0.003 C 
ATOM     14  C   UNL     1     -19.725  42.455  -3.083  1.00  0.00     0.004 C 
ENDBRANCH  12  13
ENDBRANCH  11  12
ENDBRANCH  10  11
ENDBRANCH   9  10
ENDBRANCH   1   9
TORSDOF 10
ENDMDL
MODEL 9
REMARK VINA RESULT:    -3.162      2.812      5.511
REMARK INTER + INTRA:          -6.074
REMARK INTER:                  -4.979
REMARK INTRA:                  -1.095
REMARK UNBOUND:                -1.063
REMARK SMILES CCCCCCCCCCCC(=O)[O-]
REMARK SMILES IDX 7 1 8 2 9 3 10 4 11 5 12 6 13 7 14 8 6 9 5 10 4 11 3 12 2 13
REMARK SMILES IDX 1 14
REMARK H PARENT
REMARK Flexibility Score: inf
ROOT
ATOM      1  C   UNL     1     -19.322  43.136  -9.269  1.00  0.00     0.000 C 
ENDROOT
BRANCH   1   2
ATOM      2  C   UNL     1     -18.781  43.054 -10.706  1.00  0.00     0.000 C 
BRANCH   2   3
ATOM      3  C   UNL     1     -17.290  42.676 -10.755  1.00  0.00     0.000 C 
BRANCH   3   4
ATOM      4  C   UNL     1     -16.380  43.883 -11.044  1.00  0.00     0.006 C 
BRANCH   4   5
ATOM      5  C   UNL     1     -15.661  44.447  -9.807  1.00  0.00     0.053 C 
BRANCH   5   6
ATOM      6  C   UNL     1     -16.069  45.858  -9.515  1.00  0.00     0.041 C 
ATOM      7  O   UNL     1     -16.035  46.297  -8.336  1.00  0.00    -0.550 OA
ATOM      8  O   UNL     1     -16.518  46.678 -10.542  1.00  0.00    -0.550 OA
ENDBRANCH   5   6
ENDBRANCH   4   5
ENDBRANCH   3   4
ENDBRANCH   2   3
ENDBRANCH   1   2
BRANCH   1   9
ATOM      9  C   UNL     1     -19.279  44.561  -8.698  1.00  0.00     0.000 C 
BRANCH   9  10
ATOM     10  C   UNL     1     -18.844  44.548  -7.226  1.00  0.00    -0.000 C 
BRANCH  10  11
ATOM     11  C   UNL     1     -17.849  43.419  -6.910  1.00  0.00    -0.000 C 
BRANCH  11  12
ATOM     12  C   UNL     1     -17.392  43.426  -5.443  1.00  0.00    -0.000 C 
BRANCH  12  13
ATOM     13  C   UNL     1     -17.849  42.152  -4.722  1.00  0.00    -0.003 C 
ATOM     14  C   UNL     1     -18.810  42.479  -3.582  1.00  0.00     0.004 C 
ENDBRANCH  12  13
ENDBRANCH  11  12
ENDBRANCH  10  11
ENDBRANCH   9  10
ENDBRANCH   1   9
TORSDOF 10
ENDMDL
