MODEL 1
REMARK VINA RESULT:    -5.356      0.000      0.000
REMARK INTER + INTRA:          -8.257
REMARK INTER:                  -7.861
REMARK INTRA:                  -0.396
REMARK UNBOUND:                -0.396
REMARK SMILES O=C([O-])CCCCCCCC(=O)[O-]
REMARK SMILES IDX 7 1 6 2 5 3 4 4 2 5 1 6 3 7 8 8 9 9 10 10 11 11 12 12 13 13
REMARK H PARENT
REMARK Flexibility Score: inf
ROOT
ATOM      1  C   UNL     1      24.230 -12.252  17.790  1.00  0.00     0.000 C 
ENDROOT
BRANCH   1   2
ATOM      2  C   UNL     1      24.112 -12.279  16.260  1.00  0.00     0.000 C 
BRANCH   2   3
ATOM      3  C   UNL     1      24.678 -10.991  15.643  1.00  0.00     0.006 C 
BRANCH   3   4
ATOM      4  C   UNL     1      26.039 -11.218  14.972  1.00  0.00     0.053 C 
BRANCH   4   5
ATOM      5  C   UNL     1      27.166 -10.712  15.818  1.00  0.00     0.041 C 
ATOM      6  O   UNL     1      27.603  -9.542  15.661  1.00  0.00    -0.550 OA
ATOM      7  O   UNL     1      27.756 -11.546  16.760  1.00  0.00    -0.550 OA
ENDBRANCH   4   5
ENDBRANCH   3   4
ENDBRANCH   2   3
ENDBRANCH   1   2
BRANCH   1   8
ATOM      8  C   UNL     1      22.958 -12.808  18.447  1.00  0.00     0.000 C 
BRANCH   8   9
ATOM      9  C   UNL     1      22.316 -11.813  19.427  1.00  0.00     0.006 C 
BRANCH   9  10
ATOM     10  C   UNL     1      22.814 -11.996  20.867  1.00  0.00     0.053 C 
BRANCH  10  11
ATOM     11  C   UNL     1      23.310 -10.698  21.417  1.00  0.00     0.041 C 
ATOM     12  O   UNL     1      23.014 -10.353  22.592  1.00  0.00    -0.550 OA
ATOM     13  O   UNL     1      24.141  -9.889  20.652  1.00  0.00    -0.550 OA
ENDBRANCH  10  11
ENDBRANCH   9  10
ENDBRANCH   8   9
ENDBRANCH   1   8
TORSDOF 8
ENDMDL
MODEL 2
REMARK VINA RESULT:    -5.297      0.506      5.735
REMARK INTER + INTRA:          -8.171
REMARK INTER:                  -7.832
REMARK INTRA:                  -0.339
REMARK UNBOUND:                -0.396
REMARK SMILES O=C([O-])CCCCCCCC(=O)[O-]
REMARK SMILES IDX 7 1 6 2 5 3 4 4 2 5 1 6 3 7 8 8 9 9 10 10 11 11 12 12 13 13
REMARK H PARENT
REMARK Flexibility Score: inf
ROOT
ATOM      1  C   UNL     1      24.161 -12.951  17.417  1.00  0.00     0.000 C 
ENDROOT
BRANCH   1   2
ATOM      2  C   UNL     1      22.938 -12.460  18.202  1.00  0.00     0.000 C 
BRANCH   2   3
ATOM      3  C   UNL     1      23.084 -12.773  19.699  1.00  0.00     0.006 C 
BRANCH   3   4
ATOM      4  C   UNL     1      22.343 -11.757  20.579  1.00  0.00     0.053 C 
BRANCH   4   5
ATOM      5  C   UNL     1      23.287 -10.791  21.226  1.00  0.00     0.041 C 
ATOM      6  O   UNL     1      23.345 -10.702  22.480  1.00  0.00    -0.550 OA
ATOM      7  O   UNL     1      24.082  -9.965  20.440  1.00  0.00    -0.550 OA
ENDBRANCH   4   5
ENDBRANCH   3   4
ENDBRANCH   2   3
ENDBRANCH   1   2
BRANCH   1   8
ATOM      8  C   UNL     1      24.104 -12.472  15.959  1.00  0.00     0.000 C 
BRANCH   8   9
ATOM      9  C   UNL     1      24.714 -11.073  15.772  1.00  0.00     0.006 C 
BRANCH   9  10
ATOM     10  C   UNL     1      26.027 -11.102  14.979  1.00  0.00     0.053 C 
BRANCH  10  11
ATOM     11  C   UNL     1      27.171 -10.686  15.847  1.00  0.00     0.041 C 
ATOM     12  O   UNL     1      27.650 -11.489  16.691  1.00  0.00    -0.550 OA
ATOM     13  O   UNL     1      27.744  -9.430  15.691  1.00  0.00    -0.550 OA
ENDBRANCH  10  11
ENDBRANCH   9  10
ENDBRANCH   8   9
ENDBRANCH   1   8
TORSDOF 8
ENDMDL
MODEL 3
REMARK VINA RESULT:    -5.048      1.484      1.899
REMARK INTER + INTRA:          -7.805
REMARK INTER:                  -7.442
REMARK INTRA:                  -0.363
REMARK UNBOUND:                -0.396
REMARK SMILES O=C([O-])CCCCCCCC(=O)[O-]
REMARK SMILES IDX 7 1 6 2 5 3 4 4 2 5 1 6 3 7 8 8 9 9 10 10 11 11 12 12 13 13
REMARK H PARENT
REMARK Flexibility Score: inf
ROOT
ATOM      1  C   UNL     1      23.727 -12.518  16.315  1.00  0.00     0.000 C 
ENDROOT
BRANCH   1   2
ATOM      2  C   UNL     1      24.801 -11.518  15.869  1.00  0.00     0.000 C 
BRANCH   2   3
ATOM      3  C   UNL     1      25.380 -10.759  17.074  1.00  0.00     0.006 C 
BRANCH   3   4
ATOM      4  C   UNL     1      26.910 -10.663  17.017  1.00  0.00     0.053 C 
BRANCH   4   5
ATOM      5  C   UNL     1      27.430  -9.563  17.891  1.00  0.00     0.041 C 
ATOM      6  O   UNL     1      27.372  -9.666  19.144  1.00  0.00    -0.550 OA
ATOM      7  O   UNL     1      27.949  -8.408  17.318  1.00  0.00    -0.550 OA
ENDBRANCH   4   5
ENDBRANCH   3   4
ENDBRANCH   2   3
ENDBRANCH   1   2
BRANCH   1   8
ATOM      8  C   UNL     1      23.862 -12.838  17.811  1.00  0.00     0.000 C 
BRANCH   8   9
ATOM      9  C   UNL     1      22.610 -12.452  18.614  1.00  0.00     0.006 C 
BRANCH   9  10
ATOM     10  C   UNL     1      22.737 -12.789  20.106  1.00  0.00     0.053 C 
BRANCH  10  11
ATOM     11  C   UNL     1      22.959 -11.544  20.905  1.00  0.00     0.041 C 
ATOM     12  O   UNL     1      22.763 -11.547  22.149  1.00  0.00    -0.550 OA
ATOM     13  O   UNL     1      23.431 -10.394  20.285  1.00  0.00    -0.550 OA
ENDBRANCH  10  11
ENDBRANCH   9  10
ENDBRANCH   8   9
ENDBRANCH   1   8
TORSDOF 8
ENDMDL
MODEL 4
REMARK VINA RESULT:    -4.932      1.124      1.284
REMARK INTER + INTRA:          -7.635
REMARK INTER:                  -7.368
REMARK INTRA:                  -0.267
REMARK UNBOUND:                -0.396
REMARK SMILES O=C([O-])CCCCCCCC(=O)[O-]
REMARK SMILES IDX 7 1 6 2 5 3 4 4 2 5 1 6 3 7 8 8 9 9 10 10 11 11 12 12 13 13
REMARK H PARENT
REMARK Flexibility Score: inf
ROOT
ATOM      1  C   UNL     1      23.955 -12.738  16.367  1.00  0.00     0.000 C 
ENDROOT
BRANCH   1   2
ATOM      2  C   UNL     1      24.439 -11.450  15.687  1.00  0.00     0.000 C 
BRANCH   2   3
ATOM      3  C   UNL     1      25.902 -11.153  16.049  1.00  0.00     0.006 C 
BRANCH   3   4
ATOM      4  C   UNL     1      26.803 -11.078  14.809  1.00  0.00     0.053 C 
BRANCH   4   5
ATOM      5  C   UNL     1      28.249 -10.959  15.179  1.00  0.00     0.041 C 
ATOM      6  O   UNL     1      29.144 -11.226  14.335  1.00  0.00    -0.550 OA
ATOM      7  O   UNL     1      28.607 -10.585  16.468  1.00  0.00    -0.550 OA
ENDBRANCH   4   5
ENDBRANCH   3   4
ENDBRANCH   2   3
ENDBRANCH   1   2
BRANCH   1   8
ATOM      8  C   UNL     1      22.970 -12.422  17.501  1.00  0.00     0.000 C 
BRANCH   8   9
ATOM      9  C   UNL     1      23.667 -12.255  18.861  1.00  0.00     0.006 C 
BRANCH   9  10
ATOM     10  C   UNL     1      22.674 -12.104  20.020  1.00  0.00     0.053 C 
BRANCH  10  11
ATOM     11  C   UNL     1      23.108 -11.008  20.941  1.00  0.00     0.041 C 
ATOM     12  O   UNL     1      22.797 -11.044  22.160  1.00  0.00    -0.550 OA
ATOM     13  O   UNL     1      23.900  -9.971  20.463  1.00  0.00    -0.550 OA
ENDBRANCH  10  11
ENDBRANCH   9  10
ENDBRANCH   8   9
ENDBRANCH   1   8
TORSDOF 8
ENDMDL
MODEL 5
REMARK VINA RESULT:    -4.905      1.142      5.411
REMARK INTER + INTRA:          -7.595
REMARK INTER:                  -7.007
REMARK INTRA:                  -0.588
REMARK UNBOUND:                -0.396
REMARK SMILES O=C([O-])CCCCCCCC(=O)[O-]
REMARK SMILES IDX 7 1 6 2 5 3 4 4 2 5 1 6 3 7 8 8 9 9 10 10 11 11 12 12 13 13
REMARK H PARENT
REMARK Flexibility Score: inf
ROOT
ATOM      1  C   UNL     1      24.048 -12.463  15.802  1.00  0.00     0.000 C 
ENDROOT
BRANCH   1   2
ATOM      2  C   UNL     1      24.179 -12.981  17.241  1.00  0.00     0.000 C 
BRANCH   2   3
ATOM      3  C   UNL     1      24.027 -11.835  18.253  1.00  0.00     0.006 C 
BRANCH   3   4
ATOM      4  C   UNL     1      22.856 -12.066  19.218  1.00  0.00     0.053 C 
BRANCH   4   5
ATOM      5  C   UNL     1      23.053 -11.342  20.514  1.00  0.00     0.041 C 
ATOM      6  O   UNL     1      22.772 -11.904  21.605  1.00  0.00    -0.550 OA
ATOM      7  O   UNL     1      23.517 -10.032  20.514  1.00  0.00    -0.550 OA
ENDBRANCH   4   5
ENDBRANCH   3   4
ENDBRANCH   2   3
ENDBRANCH   1   2
BRANCH   1   8
ATOM      8  C   UNL     1      24.704 -11.083  15.654  1.00  0.00     0.000 C 
BRANCH   8   9
ATOM      9  C   UNL     1      26.160 -11.170  15.169  1.00  0.00     0.006 C 
BRANCH   9  10
ATOM     10  C   UNL     1      27.103 -10.256  15.963  1.00  0.00     0.053 C 
BRANCH  10  11
ATOM     11  C   UNL     1      27.524 -10.918  17.236  1.00  0.00     0.041 C 
ATOM     12  O   UNL     1      27.924 -12.112  17.226  1.00  0.00    -0.550 OA
ATOM     13  O   UNL     1      27.523 -10.202  18.427  1.00  0.00    -0.550 OA
ENDBRANCH  10  11
ENDBRANCH   9  10
ENDBRANCH   8   9
ENDBRANCH   1   8
TORSDOF 8
ENDMDL
MODEL 6
REMARK VINA RESULT:    -4.773      1.319      2.063
REMARK INTER + INTRA:          -7.401
REMARK INTER:                  -7.001
REMARK INTRA:                  -0.400
REMARK UNBOUND:                -0.396
REMARK SMILES O=C([O-])CCCCCCCC(=O)[O-]
REMARK SMILES IDX 7 1 6 2 5 3 4 4 2 5 1 6 3 7 8 8 9 9 10 10 11 11 12 12 13 13
REMARK H PARENT
REMARK Flexibility Score: inf
ROOT
ATOM      1  C   UNL     1      24.259 -11.946  15.692  1.00  0.00     0.000 C 
ENDROOT
BRANCH   1   2
ATOM      2  C   UNL     1      25.331 -11.156  16.453  1.00  0.00     0.000 C 
BRANCH   2   3
ATOM      3  C   UNL     1      26.614 -11.025  15.618  1.00  0.00     0.006 C 
BRANCH   3   4
ATOM      4  C   UNL     1      27.873 -10.968  16.494  1.00  0.00     0.053 C 
BRANCH   4   5
ATOM      5  C   UNL     1      28.060  -9.616  17.109  1.00  0.00     0.041 C 
ATOM      6  O   UNL     1      28.058  -9.481  18.361  1.00  0.00    -0.550 OA
ATOM      7  O   UNL     1      28.204  -8.497  16.298  1.00  0.00    -0.550 OA
ENDBRANCH   4   5
ENDBRANCH   3   4
ENDBRANCH   2   3
ENDBRANCH   1   2
BRANCH   1   8
ATOM      8  C   UNL     1      23.265 -12.598  16.664  1.00  0.00     0.000 C 
BRANCH   8   9
ATOM      9  C   UNL     1      23.744 -12.547  18.123  1.00  0.00     0.006 C 
BRANCH   9  10
ATOM     10  C   UNL     1      22.585 -12.451  19.124  1.00  0.00     0.053 C 
BRANCH  10  11
ATOM     11  C   UNL     1      22.955 -11.563  20.268  1.00  0.00     0.041 C 
ATOM     12  O   UNL     1      22.616 -11.868  21.442  1.00  0.00    -0.550 OA
ATOM     13  O   UNL     1      23.719 -10.424  20.047  1.00  0.00    -0.550 OA
ENDBRANCH  10  11
ENDBRANCH   9  10
ENDBRANCH   8   9
ENDBRANCH   1   8
TORSDOF 8
ENDMDL
MODEL 7
REMARK VINA RESULT:    -4.750      2.062      5.295
REMARK INTER + INTRA:          -7.368
REMARK INTER:                  -6.915
REMARK INTRA:                  -0.453
REMARK UNBOUND:                -0.396
REMARK SMILES O=C([O-])CCCCCCCC(=O)[O-]
REMARK SMILES IDX 7 1 6 2 5 3 4 4 2 5 1 6 3 7 8 8 9 9 10 10 11 11 12 12 13 13
REMARK H PARENT
REMARK Flexibility Score: inf
ROOT
ATOM      1  C   UNL     1      24.667 -11.354  16.312  1.00  0.00     0.000 C 
ENDROOT
BRANCH   1   2
ATOM      2  C   UNL     1      23.728 -12.510  16.683  1.00  0.00     0.000 C 
BRANCH   2   3
ATOM      3  C   UNL     1      23.808 -12.823  18.185  1.00  0.00     0.006 C 
BRANCH   3   4
ATOM      4  C   UNL     1      22.517 -12.447  18.925  1.00  0.00     0.053 C 
BRANCH   4   5
ATOM      5  C   UNL     1      22.793 -11.593  20.123  1.00  0.00     0.041 C 
ATOM      6  O   UNL     1      23.543 -10.586  20.027  1.00  0.00    -0.550 OA
ATOM      7  O   UNL     1      22.247 -11.928  21.356  1.00  0.00    -0.550 OA
ENDBRANCH   4   5
ENDBRANCH   3   4
ENDBRANCH   2   3
ENDBRANCH   1   2
BRANCH   1   8
ATOM      8  C   UNL     1      25.880 -11.310  17.252  1.00  0.00     0.000 C 
BRANCH   8   9
ATOM      9  C   UNL     1      26.052  -9.942  17.932  1.00  0.00     0.006 C 
BRANCH   9  10
ATOM     10  C   UNL     1      27.352  -9.842  18.740  1.00  0.00     0.053 C 
BRANCH  10  11
ATOM     11  C   UNL     1      28.280  -8.850  18.116  1.00  0.00     0.041 C 
ATOM     12  O   UNL     1      29.297  -9.242  17.485  1.00  0.00    -0.550 OA
ATOM     13  O   UNL     1      27.997  -7.491  18.188  1.00  0.00    -0.550 OA
ENDBRANCH  10  11
ENDBRANCH   9  10
ENDBRANCH   8   9
ENDBRANCH   1   8
TORSDOF 8
ENDMDL
MODEL 8
REMARK VINA RESULT:    -4.504      2.107      5.667
REMARK INTER + INTRA:          -7.007
REMARK INTER:                  -6.672
REMARK INTRA:                  -0.335
REMARK UNBOUND:                -0.396
REMARK SMILES O=C([O-])CCCCCCCC(=O)[O-]
REMARK SMILES IDX 7 1 6 2 5 3 4 4 2 5 1 6 3 7 8 8 9 9 10 10 11 11 12 12 13 13
REMARK H PARENT
REMARK Flexibility Score: inf
ROOT
ATOM      1  C   UNL     1      24.886 -11.470  15.646  1.00  0.00     0.000 C 
ENDROOT
BRANCH   1   2
ATOM      2  C   UNL     1      23.785 -12.445  16.083  1.00  0.00     0.000 C 
BRANCH   2   3
ATOM      3  C   UNL     1      24.018 -12.927  17.523  1.00  0.00     0.006 C 
BRANCH   3   4
ATOM      4  C   UNL     1      22.910 -12.460  18.477  1.00  0.00     0.053 C 
BRANCH   4   5
ATOM      5  C   UNL     1      22.953 -13.195  19.781  1.00  0.00     0.041 C 
ATOM      6  O   UNL     1      23.281 -14.410  19.814  1.00  0.00    -0.550 OA
ATOM      7  O   UNL     1      22.600 -12.545  20.957  1.00  0.00    -0.550 OA
ENDBRANCH   4   5
ENDBRANCH   3   4
ENDBRANCH   2   3
ENDBRANCH   1   2
BRANCH   1   8
ATOM      8  C   UNL     1      25.944 -11.308  16.747  1.00  0.00     0.000 C 
BRANCH   8   9
ATOM      9  C   UNL     1      27.363 -11.128  16.182  1.00  0.00     0.006 C 
BRANCH   9  10
ATOM     10  C   UNL     1      27.735  -9.654  15.976  1.00  0.00     0.053 C 
BRANCH  10  11
ATOM     11  C   UNL     1      28.336  -9.088  17.222  1.00  0.00     0.041 C 
ATOM     12  O   UNL     1      27.614  -8.469  18.048  1.00  0.00    -0.550 OA
ATOM     13  O   UNL     1      29.683  -9.286  17.498  1.00  0.00    -0.550 OA
ENDBRANCH  10  11
ENDBRANCH   9  10
ENDBRANCH   8   9
ENDBRANCH   1   8
TORSDOF 8
ENDMDL
MODEL 9
REMARK VINA RESULT:    -4.383      2.816      4.519
REMARK INTER + INTRA:          -6.829
REMARK INTER:                  -6.239
REMARK INTRA:                  -0.590
REMARK UNBOUND:                -0.396
REMARK SMILES O=C([O-])CCCCCCCC(=O)[O-]
REMARK SMILES IDX 7 1 6 2 5 3 4 4 2 5 1 6 3 7 8 8 9 9 10 10 11 11 12 12 13 13
REMARK H PARENT
REMARK Flexibility Score: inf
ROOT
ATOM      1  C   UNL     1      27.474 -11.089  15.464  1.00  0.00     0.000 C 
ENDROOT
BRANCH   1   2
ATOM      2  C   UNL     1      27.714  -9.702  16.072  1.00  0.00     0.000 C 
BRANCH   2   3
ATOM      3  C   UNL     1      28.077  -9.809  17.561  1.00  0.00     0.006 C 
BRANCH   3   4
ATOM      4  C   UNL     1      27.573  -8.605  18.369  1.00  0.00     0.053 C 
BRANCH   4   5
ATOM      5  C   UNL     1      28.302  -7.349  18.006  1.00  0.00     0.041 C 
ATOM      6  O   UNL     1      27.663  -6.298  17.737  1.00  0.00    -0.550 OA
ATOM      7  O   UNL     1      29.690  -7.347  17.933  1.00  0.00    -0.550 OA
ENDBRANCH   4   5
ENDBRANCH   3   4
ENDBRANCH   2   3
ENDBRANCH   1   2
BRANCH   1   8
ATOM      8  C   UNL     1      26.200 -11.100  14.606  1.00  0.00     0.000 C 
BRANCH   8   9
ATOM      9  C   UNL     1      24.926 -10.880  15.437  1.00  0.00     0.006 C 
BRANCH   9  10
ATOM     10  C   UNL     1      24.327 -12.193  15.960  1.00  0.00     0.053 C 
BRANCH  10  11
ATOM     11  C   UNL     1      24.408 -12.246  17.453  1.00  0.00     0.041 C 
ATOM     12  O   UNL     1      24.136 -13.312  18.064  1.00  0.00    -0.550 OA
ATOM     13  O   UNL     1      24.833 -11.132  18.167  1.00  0.00    -0.550 OA
ENDBRANCH  10  11
ENDBRANCH   9  10
ENDBRANCH   8   9
ENDBRANCH   1   8
TORSDOF 8
ENDMDL
