MODEL 1
REMARK VINA RESULT:    -5.716      0.000      0.000
REMARK INTER + INTRA:          -6.595
REMARK INTER:                  -6.385
REMARK INTRA:                  -0.210
REMARK UNBOUND:                -0.210
REMARK SMILES CC(C)c1ccc(C(=O)[O-])cc1
REMARK SMILES IDX 7 1 6 2 11 3 5 4 12 5 4 6 8 7 9 8 10 9 2 10 1 11 3 12
REMARK H PARENT
REMARK Flexibility Score: inf
ROOT
ATOM      1  C   UNL     1     -14.921  -5.462  29.278  1.00  0.00    -0.003 A 
ATOM      2  C   UNL     1     -15.206  -6.001  30.544  1.00  0.00     0.010 A 
ATOM      3  C   UNL     1     -15.243  -6.210  28.133  1.00  0.00     0.010 A 
ATOM      4  C   UNL     1     -15.801  -7.260  30.662  1.00  0.00     0.004 A 
ATOM      5  C   UNL     1     -15.838  -7.470  28.251  1.00  0.00     0.004 A 
ATOM      6  C   UNL     1     -16.124  -8.009  29.515  1.00  0.00    -0.045 A 
ENDROOT
BRANCH   1   7
ATOM      7  C   UNL     1     -14.292  -4.129  29.158  1.00  0.00     0.071 C 
ATOM      8  O   UNL     1     -14.410  -3.458  28.098  1.00  0.00    -0.545 OA
ATOM      9  O   UNL     1     -13.561  -3.597  30.213  1.00  0.00    -0.545 OA
ENDBRANCH   1   7
BRANCH   6  10
ATOM     10  C   UNL     1     -16.770  -9.377  29.630  1.00  0.00     0.013 C 
ATOM     11  C   UNL     1     -17.826  -9.584  28.537  1.00  0.00     0.012 C 
ATOM     12  C   UNL     1     -15.717 -10.490  29.598  1.00  0.00     0.012 C 
ENDBRANCH   6  10
TORSDOF 2
ENDMDL
MODEL 2
REMARK VINA RESULT:    -5.674      1.345      2.195
REMARK INTER + INTRA:          -6.548
REMARK INTER:                  -6.343
REMARK INTRA:                  -0.206
REMARK UNBOUND:                -0.210
REMARK SMILES CC(C)c1ccc(C(=O)[O-])cc1
REMARK SMILES IDX 7 1 6 2 11 3 5 4 12 5 4 6 8 7 9 8 10 9 2 10 1 11 3 12
REMARK H PARENT
REMARK Flexibility Score: inf
ROOT
ATOM      1  C   UNL     1     -14.127  -4.522  29.632  1.00  0.00    -0.003 A 
ATOM      2  C   UNL     1     -14.482  -4.896  28.325  1.00  0.00     0.010 A 
ATOM      3  C   UNL     1     -14.483  -5.363  30.700  1.00  0.00     0.010 A 
ATOM      4  C   UNL     1     -15.179  -6.085  28.092  1.00  0.00     0.004 A 
ATOM      5  C   UNL     1     -15.180  -6.552  30.467  1.00  0.00     0.004 A 
ATOM      6  C   UNL     1     -15.536  -6.927  29.161  1.00  0.00    -0.045 A 
ENDROOT
BRANCH   1   7
ATOM      7  C   UNL     1     -13.389  -3.264  29.874  1.00  0.00     0.071 C 
ATOM      8  O   UNL     1     -13.964  -2.277  30.407  1.00  0.00    -0.545 OA
ATOM      9  O   UNL     1     -12.050  -3.150  29.517  1.00  0.00    -0.545 OA
ENDBRANCH   1   7
BRANCH   6  10
ATOM     10  C   UNL     1     -16.292  -8.220  28.921  1.00  0.00     0.013 C 
ATOM     11  C   UNL     1     -15.365  -9.308  28.366  1.00  0.00     0.012 C 
ATOM     12  C   UNL     1     -16.998  -8.693  30.197  1.00  0.00     0.012 C 
ENDBRANCH   6  10
TORSDOF 2
ENDMDL
MODEL 3
REMARK VINA RESULT:    -5.671      1.353      1.726
REMARK INTER + INTRA:          -6.544
REMARK INTER:                  -6.339
REMARK INTRA:                  -0.205
REMARK UNBOUND:                -0.210
REMARK SMILES CC(C)c1ccc(C(=O)[O-])cc1
REMARK SMILES IDX 7 1 6 2 11 3 5 4 12 5 4 6 8 7 9 8 10 9 2 10 1 11 3 12
REMARK H PARENT
REMARK Flexibility Score: inf
ROOT
ATOM      1  C   UNL     1     -14.120  -4.502  29.611  1.00  0.00    -0.003 A 
ATOM      2  C   UNL     1     -14.485  -5.327  30.689  1.00  0.00     0.010 A 
ATOM      3  C   UNL     1     -14.465  -4.896  28.307  1.00  0.00     0.010 A 
ATOM      4  C   UNL     1     -15.180  -6.518  30.467  1.00  0.00     0.004 A 
ATOM      5  C   UNL     1     -15.161  -6.088  28.085  1.00  0.00     0.004 A 
ATOM      6  C   UNL     1     -15.526  -6.913  29.162  1.00  0.00    -0.045 A 
ENDROOT
BRANCH   1   7
ATOM      7  C   UNL     1     -13.385  -3.242  29.850  1.00  0.00     0.071 C 
ATOM      8  O   UNL     1     -13.948  -2.271  30.425  1.00  0.00    -0.545 OA
ATOM      9  O   UNL     1     -12.062  -3.109  29.445  1.00  0.00    -0.545 OA
ENDBRANCH   1   7
BRANCH   6  10
ATOM     10  C   UNL     1     -16.280  -8.205  28.908  1.00  0.00     0.013 C 
ATOM     11  C   UNL     1     -15.356  -9.278  28.320  1.00  0.00     0.012 C 
ATOM     12  C   UNL     1     -16.966  -8.705  30.184  1.00  0.00     0.012 C 
ENDBRANCH   6  10
TORSDOF 2
ENDMDL
MODEL 4
REMARK VINA RESULT:    -5.603      1.207      1.569
REMARK INTER + INTRA:          -6.469
REMARK INTER:                  -6.257
REMARK INTRA:                  -0.212
REMARK UNBOUND:                -0.210
REMARK SMILES CC(C)c1ccc(C(=O)[O-])cc1
REMARK SMILES IDX 7 1 6 2 11 3 5 4 12 5 4 6 8 7 9 8 10 9 2 10 1 11 3 12
REMARK H PARENT
REMARK Flexibility Score: inf
ROOT
ATOM      1  C   UNL     1     -15.296  -6.408  30.364  1.00  0.00    -0.003 A 
ATOM      2  C   UNL     1     -16.005  -7.237  31.249  1.00  0.00     0.010 A 
ATOM      3  C   UNL     1     -15.314  -6.706  28.991  1.00  0.00     0.010 A 
ATOM      4  C   UNL     1     -16.718  -8.340  30.772  1.00  0.00     0.004 A 
ATOM      5  C   UNL     1     -16.028  -7.810  28.513  1.00  0.00     0.004 A 
ATOM      6  C   UNL     1     -16.737  -8.639  29.397  1.00  0.00    -0.045 A 
ENDROOT
BRANCH   1   7
ATOM      7  C   UNL     1     -14.543  -5.241  30.873  1.00  0.00     0.071 C 
ATOM      8  O   UNL     1     -13.902  -4.498  30.083  1.00  0.00    -0.545 OA
ATOM      9  O   UNL     1     -14.532  -4.948  32.232  1.00  0.00    -0.545 OA
ENDBRANCH   1   7
BRANCH   6  10
ATOM     10  C   UNL     1     -17.507  -9.834  28.866  1.00  0.00     0.013 C 
ATOM     11  C   UNL     1     -18.083  -9.546  27.474  1.00  0.00     0.012 C 
ATOM     12  C   UNL     1     -16.634 -11.093  28.853  1.00  0.00     0.012 C 
ENDBRANCH   6  10
TORSDOF 2
ENDMDL
MODEL 5
REMARK VINA RESULT:    -5.600      1.202      2.055
REMARK INTER + INTRA:          -6.465
REMARK INTER:                  -6.254
REMARK INTRA:                  -0.211
REMARK UNBOUND:                -0.210
REMARK SMILES CC(C)c1ccc(C(=O)[O-])cc1
REMARK SMILES IDX 7 1 6 2 11 3 5 4 12 5 4 6 8 7 9 8 10 9 2 10 1 11 3 12
REMARK H PARENT
REMARK Flexibility Score: inf
ROOT
ATOM      1  C   UNL     1     -15.299  -6.400  30.361  1.00  0.00    -0.003 A 
ATOM      2  C   UNL     1     -15.314  -6.687  28.986  1.00  0.00     0.010 A 
ATOM      3  C   UNL     1     -16.016  -7.232  31.237  1.00  0.00     0.010 A 
ATOM      4  C   UNL     1     -16.030  -7.783  28.497  1.00  0.00     0.004 A 
ATOM      5  C   UNL     1     -16.732  -8.329  30.748  1.00  0.00     0.004 A 
ATOM      6  C   UNL     1     -16.748  -8.617  29.374  1.00  0.00    -0.045 A 
ENDROOT
BRANCH   1   7
ATOM      7  C   UNL     1     -14.540  -5.239  30.874  1.00  0.00     0.071 C 
ATOM      8  O   UNL     1     -13.914  -4.483  30.083  1.00  0.00    -0.545 OA
ATOM      9  O   UNL     1     -14.505  -4.964  32.236  1.00  0.00    -0.545 OA
ENDBRANCH   1   7
BRANCH   6  10
ATOM     10  C   UNL     1     -17.529  -9.810  28.856  1.00  0.00     0.013 C 
ATOM     11  C   UNL     1     -18.121  -9.524  27.470  1.00  0.00     0.012 C 
ATOM     12  C   UNL     1     -16.662 -11.073  28.836  1.00  0.00     0.012 C 
ENDBRANCH   6  10
TORSDOF 2
ENDMDL
MODEL 6
REMARK VINA RESULT:    -5.337      1.547      2.396
REMARK INTER + INTRA:          -6.171
REMARK INTER:                  -5.955
REMARK INTRA:                  -0.217
REMARK UNBOUND:                -0.210
REMARK SMILES CC(C)c1ccc(C(=O)[O-])cc1
REMARK SMILES IDX 7 1 6 2 11 3 5 4 12 5 4 6 8 7 9 8 10 9 2 10 1 11 3 12
REMARK H PARENT
REMARK Flexibility Score: inf
ROOT
ATOM      1  C   UNL     1     -13.843  -4.237  30.603  1.00  0.00    -0.003 A 
ATOM      2  C   UNL     1     -13.927  -4.825  31.877  1.00  0.00     0.010 A 
ATOM      3  C   UNL     1     -14.494  -4.858  29.524  1.00  0.00     0.010 A 
ATOM      4  C   UNL     1     -14.646  -6.008  32.067  1.00  0.00     0.004 A 
ATOM      5  C   UNL     1     -15.213  -6.042  29.714  1.00  0.00     0.004 A 
ATOM      6  C   UNL     1     -15.297  -6.630  30.987  1.00  0.00    -0.045 A 
ENDROOT
BRANCH   1   7
ATOM      7  C   UNL     1     -13.082  -2.984  30.407  1.00  0.00     0.071 C 
ATOM      8  O   UNL     1     -13.335  -2.227  29.432  1.00  0.00    -0.545 OA
ATOM      9  O   UNL     1     -12.076  -2.623  31.296  1.00  0.00    -0.545 OA
ENDBRANCH   1   7
BRANCH   6  10
ATOM     10  C   UNL     1     -16.080  -7.916  31.180  1.00  0.00     0.013 C 
ATOM     11  C   UNL     1     -17.162  -7.748  32.254  1.00  0.00     0.012 C 
ATOM     12  C   UNL     1     -16.685  -8.398  29.857  1.00  0.00     0.012 C 
ENDBRANCH   6  10
TORSDOF 2
ENDMDL
MODEL 7
REMARK VINA RESULT:    -5.323      1.644      2.789
REMARK INTER + INTRA:          -6.156
REMARK INTER:                  -5.949
REMARK INTRA:                  -0.207
REMARK UNBOUND:                -0.210
REMARK SMILES CC(C)c1ccc(C(=O)[O-])cc1
REMARK SMILES IDX 7 1 6 2 11 3 5 4 12 5 4 6 8 7 9 8 10 9 2 10 1 11 3 12
REMARK H PARENT
REMARK Flexibility Score: inf
ROOT
ATOM      1  C   UNL     1     -13.743  -4.290  30.361  1.00  0.00    -0.003 A 
ATOM      2  C   UNL     1     -14.499  -4.902  29.346  1.00  0.00     0.010 A 
ATOM      3  C   UNL     1     -13.757  -4.849  31.650  1.00  0.00     0.010 A 
ATOM      4  C   UNL     1     -15.252  -6.048  29.615  1.00  0.00     0.004 A 
ATOM      5  C   UNL     1     -14.510  -5.996  31.919  1.00  0.00     0.004 A 
ATOM      6  C   UNL     1     -15.266  -6.608  30.906  1.00  0.00    -0.045 A 
ENDROOT
BRANCH   1   7
ATOM      7  C   UNL     1     -12.947  -3.078  30.072  1.00  0.00     0.071 C 
ATOM      8  O   UNL     1     -11.809  -3.171  29.539  1.00  0.00    -0.545 OA
ATOM      9  O   UNL     1     -13.444  -1.817  30.382  1.00  0.00    -0.545 OA
ENDBRANCH   1   7
BRANCH   6  10
ATOM     10  C   UNL     1     -16.080  -7.852  31.211  1.00  0.00     0.013 C 
ATOM     11  C   UNL     1     -17.156  -7.564  32.265  1.00  0.00     0.012 C 
ATOM     12  C   UNL     1     -16.698  -8.435  29.935  1.00  0.00     0.012 C 
ENDBRANCH   6  10
TORSDOF 2
ENDMDL
MODEL 8
REMARK VINA RESULT:    -5.225      3.333      5.290
REMARK INTER + INTRA:          -6.046
REMARK INTER:                  -5.837
REMARK INTRA:                  -0.209
REMARK UNBOUND:                -0.210
REMARK SMILES CC(C)c1ccc(C(=O)[O-])cc1
REMARK SMILES IDX 7 1 6 2 11 3 5 4 12 5 4 6 8 7 9 8 10 9 2 10 1 11 3 12
REMARK H PARENT
REMARK Flexibility Score: inf
ROOT
ATOM      1  C   UNL     1     -16.621  -8.662  29.393  1.00  0.00    -0.003 A 
ATOM      2  C   UNL     1     -15.931  -7.833  28.491  1.00  0.00     0.010 A 
ATOM      3  C   UNL     1     -16.646  -8.313  30.754  1.00  0.00     0.010 A 
ATOM      4  C   UNL     1     -15.282  -6.681  28.941  1.00  0.00     0.004 A 
ATOM      5  C   UNL     1     -15.996  -7.160  31.204  1.00  0.00     0.004 A 
ATOM      6  C   UNL     1     -15.306  -6.332  30.304  1.00  0.00    -0.045 A 
ENDROOT
BRANCH   1   7
ATOM      7  C   UNL     1     -17.308  -9.880  28.912  1.00  0.00     0.071 C 
ATOM      8  O   UNL     1     -16.731 -11.000  28.955  1.00  0.00    -0.545 OA
ATOM      9  O   UNL     1     -18.601  -9.808  28.406  1.00  0.00    -0.545 OA
ENDBRANCH   1   7
BRANCH   6  10
ATOM     10  C   UNL     1     -14.604  -5.083  30.805  1.00  0.00     0.013 C 
ATOM     11  C   UNL     1     -13.585  -5.424  31.899  1.00  0.00     0.012 C 
ATOM     12  C   UNL     1     -13.942  -4.320  29.652  1.00  0.00     0.012 C 
ENDBRANCH   6  10
TORSDOF 2
ENDMDL
MODEL 9
REMARK VINA RESULT:    -5.220      2.749      5.578
REMARK INTER + INTRA:          -6.041
REMARK INTER:                  -5.830
REMARK INTRA:                  -0.210
REMARK UNBOUND:                -0.210
REMARK SMILES CC(C)c1ccc(C(=O)[O-])cc1
REMARK SMILES IDX 7 1 6 2 11 3 5 4 12 5 4 6 8 7 9 8 10 9 2 10 1 11 3 12
REMARK H PARENT
REMARK Flexibility Score: inf
ROOT
ATOM      1  C   UNL     1     -15.219  -6.286  29.992  1.00  0.00    -0.003 A 
ATOM      2  C   UNL     1     -14.951  -5.539  28.832  1.00  0.00     0.010 A 
ATOM      3  C   UNL     1     -14.578  -5.932  31.191  1.00  0.00     0.010 A 
ATOM      4  C   UNL     1     -14.063  -4.461  28.871  1.00  0.00     0.004 A 
ATOM      5  C   UNL     1     -13.689  -4.854  31.231  1.00  0.00     0.004 A 
ATOM      6  C   UNL     1     -13.421  -4.107  30.072  1.00  0.00    -0.045 A 
ENDROOT
BRANCH   1   7
ATOM      7  C   UNL     1     -16.161  -7.425  29.945  1.00  0.00     0.071 C 
ATOM      8  O   UNL     1     -16.744  -7.817  30.992  1.00  0.00    -0.545 OA
ATOM      9  O   UNL     1     -16.417  -8.080  28.747  1.00  0.00    -0.545 OA
ENDBRANCH   1   7
BRANCH   6  10
ATOM     10  C   UNL     1     -12.453  -2.939  30.128  1.00  0.00     0.013 C 
ATOM     11  C   UNL     1     -13.182  -1.633  30.469  1.00  0.00     0.012 C 
ATOM     12  C   UNL     1     -11.315  -3.211  31.117  1.00  0.00     0.012 C 
ENDBRANCH   6  10
TORSDOF 2
ENDMDL
