MODEL 1
REMARK VINA RESULT:    -4.755      0.000      0.000
REMARK INTER + INTRA:          -7.403
REMARK INTER:                  -7.256
REMARK INTRA:                  -0.147
REMARK UNBOUND:                -0.147
REMARK SMILES CC1=CCC[C@@H](C)C(=O)C[C@@H](C(C)C)C(=O)C1
REMARK SMILES IDX 8 1 9 2 6 3 7 4 5 5 4 6 3 7 2 8 1 9 10 11 11 12 15 13 16 14
REMARK SMILES IDX 17 15 12 17 13 18 14 19
REMARK H PARENT
REMARK Flexibility Score: 70.00
ROOT
ATOM      1  C   UNL     1     -11.675 -16.410  29.029  1.00  0.00     0.136 C 
ATOM      2  O   UNL     1     -10.556 -16.001  29.305  1.00  0.00    -0.299 OA
ENDROOT
BRANCH   1   3
ATOM      3  C   UNL     1     -11.829 -17.540  28.037  1.00  0.00     0.053 C 
ATOM      4  C   UNL     1     -10.964 -17.293  26.796  1.00  0.00     0.016 C 
BRANCH   3   5
ATOM      5  C   UNL     1     -13.327 -17.696  27.664  1.00  0.00     0.015 C 
BRANCH   5   6
ATOM      6  C   UNL     1     -14.012 -18.941  28.256  1.00  0.00     0.028 C 
BRANCH   6   7
ATOM      7  C   UNL     1     -13.159 -19.794  29.171  1.00  0.00    -0.028 C 
ATOM      8  C   UNL     1     -13.027 -19.656  30.512  1.00  0.00    -0.070 CG0
ATOM      9  C   UNL     1     -12.247 -20.715  31.250  1.00  0.00     0.039 C 
ATOM     10  G   UNL     1     -13.635 -18.513  31.305  1.00  0.00     0.000 G0
ENDBRANCH   6   7
ENDBRANCH   5   6
ENDBRANCH   3   5
ENDBRANCH   1   3
BRANCH   1  11
ATOM     11  C   UNL     1     -12.872 -15.776  29.697  1.00  0.00     0.087 C 
BRANCH  11  12
ATOM     12  C   UNL     1     -12.916 -15.922  31.249  1.00  0.00     0.066 C 
BRANCH  12  13
ATOM     13  C   UNL     1     -12.693 -17.375  31.678  1.00  0.00     0.140 C 
ATOM     14  O   UNL     1     -11.669 -17.647  32.288  1.00  0.00    -0.299 OA
BRANCH  13  15
ATOM     15  C   UNL     1     -13.637 -18.522  31.340  1.00  0.00     0.106 CG0
ATOM     16  G   UNL     1     -13.024 -19.642  30.517  1.00  0.00     0.000 G0
ENDBRANCH  13  15
ENDBRANCH  12  13
BRANCH  12  17
ATOM     17  C   UNL     1     -14.276 -15.395  31.815  1.00  0.00    -0.006 C 
ATOM     18  C   UNL     1     -14.954 -14.392  30.864  1.00  0.00     0.008 C 
ATOM     19  C   UNL     1     -14.108 -14.729  33.191  1.00  0.00     0.008 C 
ENDBRANCH  12  17
ENDBRANCH  11  12
ENDBRANCH   1  11
TORSDOF 1
ENDMDL
MODEL 2
REMARK VINA RESULT:    -4.561      1.480      3.776
REMARK INTER + INTRA:          -7.108
REMARK INTER:                  -7.163
REMARK INTRA:                   0.055
REMARK UNBOUND:                -0.147
REMARK SMILES CC1=CCC[C@@H](C)C(=O)C[C@@H](C(C)C)C(=O)C1
REMARK SMILES IDX 8 1 9 2 6 3 7 4 5 5 4 6 3 7 2 8 1 9 10 11 11 12 15 13 16 14
REMARK SMILES IDX 17 15 12 17 13 18 14 19
REMARK H PARENT
REMARK Flexibility Score: 70.00
ROOT
ATOM      1  C   UNL     1     -12.252 -15.989  31.362  1.00  0.00     0.136 C 
ATOM      2  O   UNL     1     -11.491 -15.723  32.282  1.00  0.00    -0.299 OA
ENDROOT
BRANCH   1   3
ATOM      3  C   UNL     1     -13.665 -16.431  31.670  1.00  0.00     0.053 C 
ATOM      4  C   UNL     1     -14.392 -15.375  32.509  1.00  0.00     0.016 C 
BRANCH   3   5
ATOM      5  C   UNL     1     -13.628 -17.805  32.390  1.00  0.00     0.015 C 
BRANCH   5   6
ATOM      6  C   UNL     1     -12.867 -18.909  31.635  1.00  0.00     0.028 C 
BRANCH   6   7
ATOM      7  C   UNL     1     -13.606 -19.547  30.477  1.00  0.00    -0.028 C 
ATOM      8  C   UNL     1     -13.142 -19.708  29.214  1.00  0.00    -0.070 CG0
ATOM      9  C   UNL     1     -13.985 -20.513  28.257  1.00  0.00     0.039 C 
ATOM     10  G   UNL     1     -11.822 -19.142  28.723  1.00  0.00     0.000 G0
ENDBRANCH   6   7
ENDBRANCH   5   6
ENDBRANCH   3   5
ENDBRANCH   1   3
BRANCH   1  11
ATOM     11  C   UNL     1     -11.756 -15.861  29.941  1.00  0.00     0.087 C 
BRANCH  11  12
ATOM     12  C   UNL     1     -12.638 -16.567  28.868  1.00  0.00     0.066 C 
BRANCH  12  13
ATOM     13  C   UNL     1     -11.881 -17.713  28.192  1.00  0.00     0.140 C 
ATOM     14  O   UNL     1     -11.335 -17.494  27.121  1.00  0.00    -0.299 OA
BRANCH  13  15
ATOM     15  C   UNL     1     -11.815 -19.135  28.737  1.00  0.00     0.106 CG0
ATOM     16  G   UNL     1     -13.142 -19.712  29.199  1.00  0.00     0.000 G0
ENDBRANCH  13  15
ENDBRANCH  12  13
BRANCH  12  17
ATOM     17  C   UNL     1     -13.131 -15.540  27.795  1.00  0.00    -0.006 C 
ATOM     18  C   UNL     1     -13.918 -14.375  28.422  1.00  0.00     0.008 C 
ATOM     19  C   UNL     1     -14.009 -16.204  26.722  1.00  0.00     0.008 C 
ENDBRANCH  12  17
ENDBRANCH  11  12
ENDBRANCH   1  11
TORSDOF 1
ENDMDL
MODEL 3
REMARK VINA RESULT:    -4.540      1.867      3.584
REMARK INTER + INTRA:          -7.075
REMARK INTER:                  -7.213
REMARK INTRA:                   0.138
REMARK UNBOUND:                -0.147
REMARK SMILES CC1=CCC[C@@H](C)C(=O)C[C@@H](C(C)C)C(=O)C1
REMARK SMILES IDX 8 1 9 2 6 3 7 4 5 5 4 6 3 7 2 8 1 9 10 11 11 12 15 13 16 14
REMARK SMILES IDX 17 15 12 17 13 18 14 19
REMARK H PARENT
REMARK Flexibility Score: 70.00
ROOT
ATOM      1  C   UNL     1     -12.941 -19.323  30.900  1.00  0.00     0.136 C 
ATOM      2  O   UNL     1     -12.686 -20.451  31.301  1.00  0.00    -0.299 OA
ENDROOT
BRANCH   1   3
ATOM      3  C   UNL     1     -13.144 -19.088  29.421  1.00  0.00     0.053 C 
ATOM      4  C   UNL     1     -13.986 -20.211  28.804  1.00  0.00     0.016 C 
BRANCH   3   5
ATOM      5  C   UNL     1     -11.762 -18.966  28.726  1.00  0.00     0.015 C 
BRANCH   5   6
ATOM      6  C   UNL     1     -11.691 -17.905  27.614  1.00  0.00     0.028 C 
BRANCH   6   7
ATOM      7  C   UNL     1     -12.739 -16.813  27.673  1.00  0.00    -0.028 C 
ATOM      8  C   UNL     1     -12.716 -15.715  28.464  1.00  0.00    -0.070 CG0
ATOM      9  C   UNL     1     -13.787 -14.675  28.248  1.00  0.00     0.039 C 
ATOM     10  G   UNL     1     -11.667 -15.468  29.534  1.00  0.00     0.000 G0
ENDBRANCH   6   7
ENDBRANCH   5   6
ENDBRANCH   3   5
ENDBRANCH   1   3
BRANCH   1  11
ATOM     11  C   UNL     1     -13.052 -18.199  31.902  1.00  0.00     0.087 C 
BRANCH  11  12
ATOM     12  C   UNL     1     -13.261 -16.783  31.284  1.00  0.00     0.066 C 
BRANCH  12  13
ATOM     13  C   UNL     1     -11.926 -16.147  30.886  1.00  0.00     0.140 C 
ATOM     14  O   UNL     1     -11.019 -16.148  31.704  1.00  0.00    -0.299 OA
BRANCH  13  15
ATOM     15  C   UNL     1     -11.671 -15.456  29.552  1.00  0.00     0.106 CG0
ATOM     16  G   UNL     1     -12.708 -15.723  28.477  1.00  0.00     0.000 G0
ENDBRANCH  13  15
ENDBRANCH  12  13
BRANCH  12  17
ATOM     17  C   UNL     1     -14.025 -15.851  32.282  1.00  0.00    -0.006 C 
ATOM     18  C   UNL     1     -15.055 -16.623  33.128  1.00  0.00     0.008 C 
ATOM     19  C   UNL     1     -14.747 -14.701  31.560  1.00  0.00     0.008 C 
ENDBRANCH  12  17
ENDBRANCH  11  12
ENDBRANCH   1  11
TORSDOF 1
ENDMDL
MODEL 4
REMARK VINA RESULT:    -4.524      1.682      4.119
REMARK INTER + INTRA:          -7.051
REMARK INTER:                  -7.611
REMARK INTRA:                   0.560
REMARK UNBOUND:                -0.147
REMARK SMILES CC1=CCC[C@@H](C)C(=O)C[C@@H](C(C)C)C(=O)C1
REMARK SMILES IDX 8 1 9 2 6 3 7 4 5 5 4 6 3 7 2 8 1 9 10 11 11 12 15 13 16 14
REMARK SMILES IDX 17 15 12 17 13 18 14 19
REMARK H PARENT
REMARK Flexibility Score: 70.00
ROOT
ATOM      1  C   UNL     1     -13.958 -15.126  30.412  1.00  0.00     0.136 C 
ATOM      2  O   UNL     1     -14.756 -14.202  30.483  1.00  0.00    -0.299 OA
ENDROOT
BRANCH   1   3
ATOM      3  C   UNL     1     -13.786 -16.052  31.595  1.00  0.00     0.053 C 
ATOM      4  C   UNL     1     -14.914 -15.846  32.612  1.00  0.00     0.016 C 
BRANCH   3   5
ATOM      5  C   UNL     1     -12.392 -15.816  32.234  1.00  0.00     0.015 C 
BRANCH   5   6
ATOM      6  C   UNL     1     -11.522 -17.078  32.367  1.00  0.00     0.028 C 
BRANCH   6   7
ATOM      7  C   UNL     1     -12.177 -18.380  31.955  1.00  0.00    -0.028 C 
ATOM      8  C   UNL     1     -11.945 -19.074  30.815  1.00  0.00    -0.070 CG0
ATOM      9  C   UNL     1     -12.592 -20.429  30.678  1.00  0.00     0.039 C 
ATOM     10  G   UNL     1     -11.060 -18.572  29.688  1.00  0.00     0.000 G0
ENDBRANCH   6   7
ENDBRANCH   5   6
ENDBRANCH   3   5
ENDBRANCH   1   3
BRANCH   1  11
ATOM     11  C   UNL     1     -13.171 -15.318  29.137  1.00  0.00     0.087 C 
BRANCH  11  12
ATOM     12  C   UNL     1     -12.886 -16.801  28.754  1.00  0.00     0.066 C 
BRANCH  12  13
ATOM     13  C   UNL     1     -11.457 -17.208  29.123  1.00  0.00     0.140 C 
ATOM     14  O   UNL     1     -10.557 -16.408  28.914  1.00  0.00    -0.299 OA
BRANCH  13  15
ATOM     15  C   UNL     1     -11.071 -18.572  29.680  1.00  0.00     0.106 CG0
ATOM     16  G   UNL     1     -11.947 -19.079  30.813  1.00  0.00     0.000 G0
ENDBRANCH  13  15
ENDBRANCH  12  13
BRANCH  12  17
ATOM     17  C   UNL     1     -13.136 -17.036  27.227  1.00  0.00    -0.006 C 
ATOM     18  C   UNL     1     -11.825 -17.071  26.421  1.00  0.00     0.008 C 
ATOM     19  C   UNL     1     -14.055 -15.961  26.622  1.00  0.00     0.008 C 
ENDBRANCH  12  17
ENDBRANCH  11  12
ENDBRANCH   1  11
TORSDOF 1
ENDMDL
MODEL 5
REMARK VINA RESULT:    -4.486      2.168      4.513
REMARK INTER + INTRA:          -6.994
REMARK INTER:                  -7.544
REMARK INTRA:                   0.551
REMARK UNBOUND:                -0.147
REMARK SMILES CC1=CCC[C@@H](C)C(=O)C[C@@H](C(C)C)C(=O)C1
REMARK SMILES IDX 8 1 9 2 6 3 7 4 5 5 4 6 3 7 2 8 1 9 10 11 11 12 15 13 16 14
REMARK SMILES IDX 17 15 12 17 13 18 14 19
REMARK H PARENT
REMARK Flexibility Score: 70.00
ROOT
ATOM      1  C   UNL     1     -13.073 -19.263  29.599  1.00  0.00     0.136 C 
ATOM      2  O   UNL     1     -12.917 -20.193  28.820  1.00  0.00    -0.299 OA
ENDROOT
BRANCH   1   3
ATOM      3  C   UNL     1     -13.128 -19.539  31.084  1.00  0.00     0.053 C 
ATOM      4  C   UNL     1     -13.675 -18.324  31.841  1.00  0.00     0.016 C 
BRANCH   3   5
ATOM      5  C   UNL     1     -11.713 -19.933  31.586  1.00  0.00     0.015 C 
BRANCH   5   6
ATOM      6  C   UNL     1     -10.572 -19.045  31.059  1.00  0.00     0.028 C 
BRANCH   6   7
ATOM      7  C   UNL     1     -10.154 -17.901  31.960  1.00  0.00    -0.028 C 
ATOM      8  C   UNL     1     -10.668 -16.649  31.965  1.00  0.00    -0.070 CG0
ATOM      9  C   UNL     1     -10.213 -15.710  33.054  1.00  0.00     0.039 C 
ATOM     10  G   UNL     1     -11.684 -16.151  30.952  1.00  0.00     0.000 G0
ENDBRANCH   6   7
ENDBRANCH   5   6
ENDBRANCH   3   5
ENDBRANCH   1   3
BRANCH   1  11
ATOM     11  C   UNL     1     -13.198 -17.862  29.050  1.00  0.00     0.087 C 
BRANCH  11  12
ATOM     12  C   UNL     1     -11.874 -17.245  28.507  1.00  0.00     0.066 C 
BRANCH  12  13
ATOM     13  C   UNL     1     -11.287 -16.231  29.492  1.00  0.00     0.140 C 
ATOM     14  O   UNL     1     -10.401 -15.486  29.097  1.00  0.00    -0.299 OA
BRANCH  13  15
ATOM     15  C   UNL     1     -11.691 -16.127  30.958  1.00  0.00     0.106 CG0
ATOM     16  G   UNL     1     -10.669 -16.655  31.949  1.00  0.00     0.000 G0
ENDBRANCH  13  15
ENDBRANCH  12  13
BRANCH  12  17
ATOM     17  C   UNL     1     -12.108 -16.571  27.115  1.00  0.00    -0.006 C 
ATOM     18  C   UNL     1     -13.604 -16.401  26.794  1.00  0.00     0.008 C 
ATOM     19  C   UNL     1     -11.448 -17.361  25.973  1.00  0.00     0.008 C 
ENDBRANCH  12  17
ENDBRANCH  11  12
ENDBRANCH   1  11
TORSDOF 1
ENDMDL
MODEL 6
REMARK VINA RESULT:    -4.216      2.370      4.462
REMARK INTER + INTRA:          -6.581
REMARK INTER:                  -6.372
REMARK INTRA:                  -0.209
REMARK UNBOUND:                -0.147
REMARK SMILES CC1=CCC[C@@H](C)C(=O)C[C@@H](C(C)C)C(=O)C1
REMARK SMILES IDX 8 1 9 2 6 3 7 4 5 5 4 6 3 7 2 8 1 9 10 11 11 12 15 13 16 14
REMARK SMILES IDX 17 15 12 17 13 18 14 19
REMARK H PARENT
REMARK Flexibility Score: 70.00
ROOT
ATOM      1  C   UNL     1     -13.488 -16.907  32.060  1.00  0.00     0.136 C 
ATOM      2  O   UNL     1     -14.367 -17.375  32.770  1.00  0.00    -0.299 OA
ENDROOT
BRANCH   1   3
ATOM      3  C   UNL     1     -13.659 -15.520  31.483  1.00  0.00     0.053 C 
ATOM      4  C   UNL     1     -14.736 -14.744  32.248  1.00  0.00     0.016 C 
BRANCH   3   5
ATOM      5  C   UNL     1     -14.000 -15.631  29.973  1.00  0.00     0.015 C 
BRANCH   5   6
ATOM      6  C   UNL     1     -12.902 -15.118  29.024  1.00  0.00     0.028 C 
BRANCH   6   7
ATOM      7  C   UNL     1     -12.531 -16.041  27.882  1.00  0.00    -0.028 C 
ATOM      8  C   UNL     1     -11.397 -16.774  27.774  1.00  0.00    -0.070 CG0
ATOM      9  C   UNL     1     -11.302 -17.748  26.626  1.00  0.00     0.039 C 
ATOM     10  G   UNL     1     -10.237 -16.682  28.749  1.00  0.00     0.000 G0
ENDBRANCH   6   7
ENDBRANCH   5   6
ENDBRANCH   3   5
ENDBRANCH   1   3
BRANCH   1  11
ATOM     11  C   UNL     1     -12.251 -17.730  31.788  1.00  0.00     0.087 C 
BRANCH  11  12
ATOM     12  C   UNL     1     -11.000 -16.914  31.343  1.00  0.00     0.066 C 
BRANCH  12  13
ATOM     13  C   UNL     1     -10.399 -17.476  30.052  1.00  0.00     0.140 C 
ATOM     14  O   UNL     1      -9.971 -18.621  30.064  1.00  0.00    -0.299 OA
BRANCH  13  15
ATOM     15  C   UNL     1     -10.240 -16.680  28.763  1.00  0.00     0.106 CG0
ATOM     16  G   UNL     1     -11.396 -16.796  27.785  1.00  0.00     0.000 G0
ENDBRANCH  13  15
ENDBRANCH  12  13
BRANCH  12  17
ATOM     17  C   UNL     1      -9.921 -16.894  32.476  1.00  0.00    -0.006 C 
ATOM     18  C   UNL     1      -9.966 -18.164  33.346  1.00  0.00     0.008 C 
ATOM     19  C   UNL     1     -10.069 -15.667  33.391  1.00  0.00     0.008 C 
ENDBRANCH  12  17
ENDBRANCH  11  12
ENDBRANCH   1  11
TORSDOF 1
ENDMDL
MODEL 7
REMARK VINA RESULT:    -4.138      1.729      3.487
REMARK INTER + INTRA:          -6.462
REMARK INTER:                  -6.335
REMARK INTRA:                  -0.127
REMARK UNBOUND:                -0.147
REMARK SMILES CC1=CCC[C@@H](C)C(=O)C[C@@H](C(C)C)C(=O)C1
REMARK SMILES IDX 8 1 9 2 6 3 7 4 5 5 4 6 3 7 2 8 1 9 10 11 11 12 15 13 16 14
REMARK SMILES IDX 17 15 12 17 13 18 14 19
REMARK H PARENT
REMARK Flexibility Score: 70.00
ROOT
ATOM      1  C   UNL     1     -12.984 -18.143  31.966  1.00  0.00     0.136 C 
ATOM      2  O   UNL     1     -14.004 -18.512  32.532  1.00  0.00    -0.299 OA
ENDROOT
BRANCH   1   3
ATOM      3  C   UNL     1     -11.999 -19.174  31.463  1.00  0.00     0.053 C 
ATOM      4  C   UNL     1     -10.700 -18.502  31.004  1.00  0.00     0.016 C 
BRANCH   3   5
ATOM      5  C   UNL     1     -12.652 -19.993  30.319  1.00  0.00     0.015 C 
BRANCH   5   6
ATOM      6  C   UNL     1     -13.365 -19.150  29.247  1.00  0.00     0.028 C 
BRANCH   6   7
ATOM      7  C   UNL     1     -12.523 -18.747  28.055  1.00  0.00    -0.028 C 
ATOM      8  C   UNL     1     -12.396 -17.500  27.541  1.00  0.00    -0.070 CG0
ATOM      9  C   UNL     1     -11.381 -17.295  26.445  1.00  0.00     0.039 C 
ATOM     10  G   UNL     1     -13.201 -16.305  28.021  1.00  0.00     0.000 G0
ENDBRANCH   6   7
ENDBRANCH   5   6
ENDBRANCH   3   5
ENDBRANCH   1   3
BRANCH   1  11
ATOM     11  C   UNL     1     -12.745 -16.664  31.780  1.00  0.00     0.087 C 
BRANCH  11  12
ATOM     12  C   UNL     1     -13.612 -15.989  30.674  1.00  0.00     0.066 C 
BRANCH  12  13
ATOM     13  C   UNL     1     -12.802 -15.757  29.396  1.00  0.00     0.140 C 
ATOM     14  O   UNL     1     -11.796 -15.065  29.466  1.00  0.00    -0.299 OA
BRANCH  13  15
ATOM     15  C   UNL     1     -13.199 -16.282  28.022  1.00  0.00     0.106 CG0
ATOM     16  G   UNL     1     -12.416 -17.491  27.541  1.00  0.00     0.000 G0
ENDBRANCH  13  15
ENDBRANCH  12  13
BRANCH  12  17
ATOM     17  C   UNL     1     -14.208 -14.637  31.187  1.00  0.00    -0.006 C 
ATOM     18  C   UNL     1     -14.978 -14.804  32.511  1.00  0.00     0.008 C 
ATOM     19  C   UNL     1     -15.145 -13.990  30.154  1.00  0.00     0.008 C 
ENDBRANCH  12  17
ENDBRANCH  11  12
ENDBRANCH   1  11
TORSDOF 1
ENDMDL
MODEL 8
REMARK VINA RESULT:    -3.924      2.251      2.724
REMARK INTER + INTRA:          -6.136
REMARK INTER:                  -6.055
REMARK INTRA:                  -0.081
REMARK UNBOUND:                -0.147
REMARK SMILES CC1=CCC[C@@H](C)C(=O)C[C@@H](C(C)C)C(=O)C1
REMARK SMILES IDX 8 1 9 2 6 3 7 4 5 5 4 6 3 7 2 8 1 9 10 11 11 12 15 13 16 14
REMARK SMILES IDX 17 15 12 17 13 18 14 19
REMARK H PARENT
REMARK Flexibility Score: 70.00
ROOT
ATOM      1  C   UNL     1     -13.312 -15.661  28.813  1.00  0.00     0.136 C 
ATOM      2  O   UNL     1     -13.851 -14.573  28.668  1.00  0.00    -0.299 OA
ENDROOT
BRANCH   1   3
ATOM      3  C   UNL     1     -12.564 -16.279  27.654  1.00  0.00     0.053 C 
ATOM      4  C   UNL     1     -13.449 -16.332  26.404  1.00  0.00     0.016 C 
BRANCH   3   5
ATOM      5  C   UNL     1     -12.066 -17.692  28.059  1.00  0.00     0.015 C 
BRANCH   5   6
ATOM      6  C   UNL     1     -10.562 -17.781  28.373  1.00  0.00     0.028 C 
BRANCH   6   7
ATOM      7  C   UNL     1     -10.201 -18.359  29.726  1.00  0.00    -0.028 C 
ATOM      8  C   UNL     1     -10.193 -17.699  30.908  1.00  0.00    -0.070 CG0
ATOM      9  C   UNL     1      -9.955 -18.508  32.158  1.00  0.00     0.039 C 
ATOM     10  G   UNL     1     -10.429 -16.205  31.042  1.00  0.00     0.000 G0
ENDBRANCH   6   7
ENDBRANCH   5   6
ENDBRANCH   3   5
ENDBRANCH   1   3
BRANCH   1  11
ATOM     11  C   UNL     1     -13.404 -16.352  30.153  1.00  0.00     0.087 C 
BRANCH  11  12
ATOM     12  C   UNL     1     -13.028 -15.466  31.379  1.00  0.00     0.066 C 
BRANCH  12  13
ATOM     13  C   UNL     1     -11.648 -15.835  31.929  1.00  0.00     0.140 C 
ATOM     14  O   UNL     1     -11.473 -15.780  33.138  1.00  0.00    -0.299 OA
BRANCH  13  15
ATOM     15  C   UNL     1     -10.451 -16.208  31.063  1.00  0.00     0.106 CG0
ATOM     16  G   UNL     1     -10.200 -17.698  30.915  1.00  0.00     0.000 G0
ENDBRANCH  13  15
ENDBRANCH  12  13
BRANCH  12  17
ATOM     17  C   UNL     1     -14.108 -15.591  32.504  1.00  0.00    -0.006 C 
ATOM     18  C   UNL     1     -14.541 -17.051  32.736  1.00  0.00     0.008 C 
ATOM     19  C   UNL     1     -15.359 -14.751  32.199  1.00  0.00     0.008 C 
ENDBRANCH  12  17
ENDBRANCH  11  12
ENDBRANCH   1  11
TORSDOF 1
ENDMDL
MODEL 9
REMARK VINA RESULT:    -3.843      1.796      3.829
REMARK INTER + INTRA:          -6.012
REMARK INTER:                  -6.203
REMARK INTRA:                   0.191
REMARK UNBOUND:                -0.147
REMARK SMILES CC1=CCC[C@@H](C)C(=O)C[C@@H](C(C)C)C(=O)C1
REMARK SMILES IDX 8 1 9 2 6 3 7 4 5 5 4 6 3 7 2 8 1 9 10 11 11 12 15 13 16 14
REMARK SMILES IDX 17 15 12 17 13 18 14 19
REMARK H PARENT
REMARK Flexibility Score: 70.00
ROOT
ATOM      1  C   UNL     1     -12.465 -15.817  30.176  1.00  0.00     0.136 C 
ATOM      2  O   UNL     1     -13.505 -15.175  30.197  1.00  0.00    -0.299 OA
ENDROOT
BRANCH   1   3
ATOM      3  C   UNL     1     -11.602 -15.874  31.416  1.00  0.00     0.053 C 
ATOM      4  C   UNL     1     -10.153 -16.215  31.053  1.00  0.00     0.016 C 
BRANCH   3   5
ATOM      5  C   UNL     1     -12.199 -16.907  32.408  1.00  0.00     0.015 C 
BRANCH   5   6
ATOM      6  C   UNL     1     -13.410 -17.690  31.873  1.00  0.00     0.028 C 
BRANCH   6   7
ATOM      7  C   UNL     1     -13.277 -19.199  31.878  1.00  0.00    -0.028 C 
ATOM      8  C   UNL     1     -12.651 -19.957  30.946  1.00  0.00    -0.070 CG0
ATOM      9  C   UNL     1     -12.501 -21.430  31.229  1.00  0.00     0.039 C 
ATOM     10  G   UNL     1     -12.080 -19.401  29.654  1.00  0.00     0.000 G0
ENDBRANCH   6   7
ENDBRANCH   5   6
ENDBRANCH   3   5
ENDBRANCH   1   3
BRANCH   1  11
ATOM     11  C   UNL     1     -12.077 -16.541  28.909  1.00  0.00     0.087 C 
BRANCH  11  12
ATOM     12  C   UNL     1     -13.214 -17.384  28.256  1.00  0.00     0.066 C 
BRANCH  12  13
ATOM     13  C   UNL     1     -13.114 -18.858  28.657  1.00  0.00     0.140 C 
ATOM     14  O   UNL     1     -13.939 -19.637  28.203  1.00  0.00    -0.299 OA
BRANCH  13  15
ATOM     15  C   UNL     1     -12.088 -19.412  29.637  1.00  0.00     0.106 CG0
ATOM     16  G   UNL     1     -12.661 -19.961  30.931  1.00  0.00     0.000 G0
ENDBRANCH  13  15
ENDBRANCH  12  13
BRANCH  12  17
ATOM     17  C   UNL     1     -13.179 -17.245  26.697  1.00  0.00    -0.006 C 
ATOM     18  C   UNL     1     -11.746 -17.087  26.158  1.00  0.00     0.008 C 
ATOM     19  C   UNL     1     -14.023 -16.057  26.206  1.00  0.00     0.008 C 
ENDBRANCH  12  17
ENDBRANCH  11  12
ENDBRANCH   1  11
TORSDOF 1
ENDMDL
