MODEL 1
REMARK VINA RESULT:    -3.246      0.000      0.000
REMARK INTER + INTRA:          -3.249
REMARK INTER:                  -4.005
REMARK INTRA:                   0.756
REMARK UNBOUND:                 0.756
REMARK SMILES CC1=CC=CC(C)(C)CC1=O
REMARK SMILES IDX 1 1 2 2 3 3 10 4 11 5 9 6 4 8 5 9 6 10 7 11 8 12
REMARK H PARENT
REMARK Flexibility Score: 80.00
ROOT
ATOM      1  C   UNL     1     -14.015   6.034 -16.596  1.00  0.00     0.048 C 
ATOM      2  C   UNL     1     -13.142   4.888 -16.143  1.00  0.00    -0.008 C 
ATOM      3  C   UNL     1     -13.677   3.647 -16.162  1.00  0.00     0.007 C 
ENDROOT
BRANCH   2   4
ATOM      4  C   UNL     1     -11.787   5.227 -15.640  1.00  0.00     0.159 C 
ATOM      5  O   UNL     1     -11.505   6.438 -15.424  1.00  0.00    -0.295 OA
BRANCH   4   6
ATOM      6  C   UNL     1     -10.720   4.207 -15.385  1.00  0.00     0.091 CG0
ATOM      7  G   UNL     1     -11.127   3.150 -14.337  1.00  0.00     0.000 G0
ENDBRANCH   4   6
ENDBRANCH   2   4
BRANCH   3   8
ATOM      8  C   UNL     1     -13.086   2.350 -15.758  1.00  0.00    -0.003 C 
ATOM      9  C   UNL     1     -12.022   2.113 -14.980  1.00  0.00    -0.020 C 
BRANCH   9  10
ATOM     10  C   UNL     1     -11.130   3.149 -14.339  1.00  0.00    -0.010 CG0
ATOM     11  C   UNL     1      -9.842   2.447 -13.852  1.00  0.00     0.016 C 
ATOM     12  C   UNL     1     -11.836   3.759 -13.104  1.00  0.00     0.016 C 
ATOM     13  G   UNL     1     -10.733   4.214 -15.383  1.00  0.00     0.000 G0
ENDBRANCH   9  10
ENDBRANCH   3   8
TORSDOF 0
ENDMDL
MODEL 2
REMARK VINA RESULT:    -3.203      5.373      6.076
REMARK INTER + INTRA:          -3.196
REMARK INTER:                  -3.962
REMARK INTRA:                   0.767
REMARK UNBOUND:                 0.756
REMARK SMILES CC1=CC=CC(C)(C)CC1=O
REMARK SMILES IDX 1 1 2 2 3 3 10 4 11 5 9 6 4 8 5 9 6 10 7 11 8 12
REMARK H PARENT
REMARK Flexibility Score: 80.00
ROOT
ATOM      1  C   UNL     1     -18.632   3.138 -14.052  1.00  0.00     0.048 C 
ATOM      2  C   UNL     1     -17.385   2.934 -13.225  1.00  0.00    -0.008 C 
ATOM      3  C   UNL     1     -16.290   2.452 -13.852  1.00  0.00     0.007 C 
ENDROOT
BRANCH   2   4
ATOM      4  C   UNL     1     -17.486   3.207 -11.769  1.00  0.00     0.159 C 
ATOM      5  O   UNL     1     -18.626   3.407 -11.266  1.00  0.00    -0.295 OA
BRANCH   4   6
ATOM      6  C   UNL     1     -16.300   3.275 -10.857  1.00  0.00     0.091 CG0
ATOM      7  G   UNL     1     -15.477   1.969 -10.831  1.00  0.00     0.000 G0
ENDBRANCH   4   6
ENDBRANCH   2   4
BRANCH   3   8
ATOM      8  C   UNL     1     -14.950   2.126 -13.311  1.00  0.00    -0.003 C 
ATOM      9  C   UNL     1     -14.582   1.909 -12.042  1.00  0.00    -0.020 C 
BRANCH   9  10
ATOM     10  C   UNL     1     -15.473   1.978 -10.825  1.00  0.00    -0.010 CG0
ATOM     11  C   UNL     1     -14.575   2.008  -9.566  1.00  0.00     0.016 C 
ATOM     12  C   UNL     1     -16.358   0.712 -10.748  1.00  0.00     0.016 C 
ATOM     13  G   UNL     1     -16.300   3.282 -10.857  1.00  0.00     0.000 G0
ENDBRANCH   9  10
ENDBRANCH   3   8
TORSDOF 0
ENDMDL
MODEL 3
REMARK VINA RESULT:    -3.165      1.800      2.853
REMARK INTER + INTRA:          -3.149
REMARK INTER:                  -3.900
REMARK INTRA:                   0.751
REMARK UNBOUND:                 0.756
REMARK SMILES CC1=CC=CC(C)(C)CC1=O
REMARK SMILES IDX 1 1 2 2 3 3 10 4 11 5 9 6 4 8 5 9 6 10 7 11 8 12
REMARK H PARENT
REMARK Flexibility Score: 80.00
ROOT
ATOM      1  C   UNL     1     -12.692   4.617 -16.888  1.00  0.00     0.048 C 
ATOM      2  C   UNL     1     -11.967   4.421 -15.577  1.00  0.00    -0.008 C 
ATOM      3  C   UNL     1     -11.186   5.431 -15.137  1.00  0.00     0.007 C 
ENDROOT
BRANCH   2   4
ATOM      4  C   UNL     1     -12.112   3.100 -14.915  1.00  0.00     0.159 C 
ATOM      5  O   UNL     1     -12.646   2.154 -15.557  1.00  0.00    -0.295 OA
BRANCH   4   6
ATOM      6  C   UNL     1     -11.668   2.827 -13.511  1.00  0.00     0.091 CG0
ATOM      7  G   UNL     1     -10.159   3.068 -13.291  1.00  0.00     0.000 G0
ENDBRANCH   4   6
ENDBRANCH   2   4
BRANCH   3   8
ATOM      8  C   UNL     1     -10.344   5.522 -13.921  1.00  0.00    -0.003 C 
ATOM      9  C   UNL     1      -9.889   4.539 -13.134  1.00  0.00    -0.020 C 
BRANCH   9  10
ATOM     10  C   UNL     1     -10.166   3.062 -13.292  1.00  0.00    -0.010 CG0
ATOM     11  C   UNL     1      -9.771   2.351 -11.977  1.00  0.00     0.016 C 
ATOM     12  C   UNL     1      -9.292   2.482 -14.428  1.00  0.00     0.016 C 
ATOM     13  G   UNL     1     -11.675   2.836 -13.527  1.00  0.00     0.000 G0
ENDBRANCH   9  10
ENDBRANCH   3   8
TORSDOF 0
ENDMDL
MODEL 4
REMARK VINA RESULT:    -2.921      1.700      2.607
REMARK INTER + INTRA:          -2.848
REMARK INTER:                  -3.875
REMARK INTRA:                   1.027
REMARK UNBOUND:                 0.756
REMARK SMILES CC1=CC=CC(C)(C)CC1=O
REMARK SMILES IDX 1 1 2 2 3 3 10 4 11 5 9 6 4 8 5 9 6 10 7 11 8 12
REMARK H PARENT
REMARK Flexibility Score: 80.00
ROOT
ATOM      1  C   UNL     1     -13.401   1.835 -15.909  1.00  0.00     0.048 C 
ATOM      2  C   UNL     1     -12.692   2.769 -14.958  1.00  0.00    -0.008 C 
ATOM      3  C   UNL     1     -12.782   2.505 -13.637  1.00  0.00     0.007 C 
ENDROOT
BRANCH   2   4
ATOM      4  C   UNL     1     -12.015   3.950 -15.550  1.00  0.00     0.159 C 
ATOM      5  O   UNL     1     -11.789   3.962 -16.792  1.00  0.00    -0.295 OA
BRANCH   4   6
ATOM      6  C   UNL     1     -11.567   5.134 -14.749  1.00  0.00     0.091 CG0
ATOM      7  G   UNL     1     -10.554   4.772 -13.642  1.00  0.00     0.000 G0
ENDBRANCH   4   6
ENDBRANCH   2   4
BRANCH   3   8
ATOM      8  C   UNL     1     -12.226   3.243 -12.479  1.00  0.00    -0.003 C 
ATOM      9  C   UNL     1     -11.302   4.213 -12.460  1.00  0.00    -0.020 C 
BRANCH   9  10
ATOM     10  C   UNL     1     -10.567   4.774 -13.654  1.00  0.00    -0.010 CG0
ATOM     11  C   UNL     1      -9.611   3.684 -14.193  1.00  0.00     0.016 C 
ATOM     12  C   UNL     1      -9.711   5.988 -13.223  1.00  0.00     0.016 C 
ATOM     13  G   UNL     1     -11.575   5.123 -14.770  1.00  0.00     0.000 G0
ENDBRANCH   9  10
ENDBRANCH   3   8
TORSDOF 0
ENDMDL
MODEL 5
REMARK VINA RESULT:    -2.879     16.429     18.228
REMARK INTER + INTRA:          -2.797
REMARK INTER:                  -3.541
REMARK INTRA:                   0.744
REMARK UNBOUND:                 0.756
REMARK SMILES CC1=CC=CC(C)(C)CC1=O
REMARK SMILES IDX 1 1 2 2 3 3 10 4 11 5 9 6 4 8 5 9 6 10 7 11 8 12
REMARK H PARENT
REMARK Flexibility Score: 80.00
ROOT
ATOM      1  C   UNL     1     -26.879   6.300 -20.438  1.00  0.00     0.048 C 
ATOM      2  C   UNL     1     -27.228   7.705 -20.867  1.00  0.00    -0.008 C 
ATOM      3  C   UNL     1     -28.124   8.384 -20.118  1.00  0.00     0.007 C 
ENDROOT
BRANCH   2   4
ATOM      4  C   UNL     1     -26.614   8.201 -22.124  1.00  0.00     0.159 C 
ATOM      5  O   UNL     1     -26.028   7.378 -22.880  1.00  0.00    -0.295 OA
BRANCH   4   6
ATOM      6  C   UNL     1     -26.637   9.639 -22.543  1.00  0.00     0.091 CG0
ATOM      7  G   UNL     1     -28.064  10.191 -22.746  1.00  0.00     0.000 G0
ENDBRANCH   4   6
ENDBRANCH   2   4
BRANCH   3   8
ATOM      8  C   UNL     1     -28.677   9.746 -20.298  1.00  0.00    -0.003 C 
ATOM      9  C   UNL     1     -28.680  10.518 -21.392  1.00  0.00    -0.020 C 
BRANCH   9  10
ATOM     10  C   UNL     1     -28.072  10.178 -22.732  1.00  0.00    -0.010 CG0
ATOM     11  C   UNL     1     -27.963  11.479 -23.560  1.00  0.00     0.016 C 
ATOM     12  C   UNL     1     -28.997   9.202 -23.497  1.00  0.00     0.016 C 
ATOM     13  G   UNL     1     -26.649   9.614 -22.531  1.00  0.00     0.000 G0
ENDBRANCH   9  10
ENDBRANCH   3   8
TORSDOF 0
ENDMDL
MODEL 6
REMARK VINA RESULT:    -2.745      2.561      3.487
REMARK INTER + INTRA:          -2.631
REMARK INTER:                  -3.390
REMARK INTRA:                   0.759
REMARK UNBOUND:                 0.756
REMARK SMILES CC1=CC=CC(C)(C)CC1=O
REMARK SMILES IDX 1 1 2 2 3 3 10 4 11 5 9 6 4 8 5 9 6 10 7 11 8 12
REMARK H PARENT
REMARK Flexibility Score: 80.00
ROOT
ATOM      1  C   UNL     1     -13.571   2.464 -14.984  1.00  0.00     0.048 C 
ATOM      2  C   UNL     1     -12.341   2.975 -14.272  1.00  0.00    -0.008 C 
ATOM      3  C   UNL     1     -11.315   3.415 -15.032  1.00  0.00     0.007 C 
ENDROOT
BRANCH   2   4
ATOM      4  C   UNL     1     -12.329   2.881 -12.790  1.00  0.00     0.159 C 
ATOM      5  O   UNL     1     -13.235   2.215 -12.217  1.00  0.00    -0.295 OA
BRANCH   4   6
ATOM      6  C   UNL     1     -11.303   3.548 -11.928  1.00  0.00     0.091 CG0
ATOM      7  G   UNL     1      -9.861   3.086 -12.228  1.00  0.00     0.000 G0
ENDBRANCH   4   6
ENDBRANCH   2   4
BRANCH   3   8
ATOM      8  C   UNL     1      -9.990   3.941 -14.628  1.00  0.00    -0.003 C 
ATOM      9  C   UNL     1      -9.349   3.809 -13.460  1.00  0.00    -0.020 C 
BRANCH   9  10
ATOM     10  C   UNL     1      -9.860   3.094 -12.232  1.00  0.00    -0.010 CG0
ATOM     11  C   UNL     1      -8.971   3.494 -11.032  1.00  0.00     0.016 C 
ATOM     12  C   UNL     1      -9.739   1.564 -12.425  1.00  0.00     0.016 C 
ATOM     13  G   UNL     1     -11.306   3.543 -11.931  1.00  0.00     0.000 G0
ENDBRANCH   9  10
ENDBRANCH   3   8
TORSDOF 0
ENDMDL
MODEL 7
REMARK VINA RESULT:    -2.742     16.365     17.591
REMARK INTER + INTRA:          -2.627
REMARK INTER:                  -3.368
REMARK INTRA:                   0.741
REMARK UNBOUND:                 0.756
REMARK SMILES CC1=CC=CC(C)(C)CC1=O
REMARK SMILES IDX 1 1 2 2 3 3 10 4 11 5 9 6 4 8 5 9 6 10 7 11 8 12
REMARK H PARENT
REMARK Flexibility Score: 80.00
ROOT
ATOM      1  C   UNL     1     -26.072  10.694 -23.395  1.00  0.00     0.048 C 
ATOM      2  C   UNL     1     -26.425   9.521 -22.512  1.00  0.00    -0.008 C 
ATOM      3  C   UNL     1     -25.596   8.454 -22.528  1.00  0.00     0.007 C 
ENDROOT
BRANCH   2   4
ATOM      4  C   UNL     1     -27.698   9.604 -21.753  1.00  0.00     0.159 C 
ATOM      5  O   UNL     1     -28.500  10.542 -22.013  1.00  0.00    -0.295 OA
BRANCH   4   6
ATOM      6  C   UNL     1     -28.083   8.636 -20.676  1.00  0.00     0.091 CG0
ATOM      7  G   UNL     1     -28.153   7.175 -21.168  1.00  0.00     0.000 G0
ENDBRANCH   4   6
ENDBRANCH   2   4
BRANCH   3   8
ATOM      8  C   UNL     1     -25.690   7.165 -21.803  1.00  0.00    -0.003 C 
ATOM      9  C   UNL     1     -26.757   6.597 -21.225  1.00  0.00    -0.020 C 
BRANCH   9  10
ATOM     10  C   UNL     1     -28.151   7.174 -21.152  1.00  0.00    -0.010 CG0
ATOM     11  C   UNL     1     -28.946   6.386 -20.086  1.00  0.00     0.016 C 
ATOM     12  C   UNL     1     -28.867   6.994 -22.511  1.00  0.00     0.016 C 
ATOM     13  G   UNL     1     -28.082   8.650 -20.706  1.00  0.00     0.000 G0
ENDBRANCH   9  10
ENDBRANCH   3   8
TORSDOF 0
ENDMDL
MODEL 8
REMARK VINA RESULT:    -2.673     16.513     18.390
REMARK INTER + INTRA:          -2.542
REMARK INTER:                  -3.294
REMARK INTRA:                   0.751
REMARK UNBOUND:                 0.756
REMARK SMILES CC1=CC=CC(C)(C)CC1=O
REMARK SMILES IDX 1 1 2 2 3 3 10 4 11 5 9 6 4 8 5 9 6 10 7 11 8 12
REMARK H PARENT
REMARK Flexibility Score: 80.00
ROOT
ATOM      1  C   UNL     1     -26.409   6.768 -20.403  1.00  0.00     0.048 C 
ATOM      2  C   UNL     1     -26.966   7.430 -21.640  1.00  0.00    -0.008 C 
ATOM      3  C   UNL     1     -26.548   6.970 -22.839  1.00  0.00     0.007 C 
ENDROOT
BRANCH   2   4
ATOM      4  C   UNL     1     -27.873   8.588 -21.438  1.00  0.00     0.159 C 
ATOM      5  O   UNL     1     -28.003   9.061 -20.275  1.00  0.00    -0.295 OA
BRANCH   4   6
ATOM      6  C   UNL     1     -28.661   9.223 -22.541  1.00  0.00     0.091 CG0
ATOM      7  G   UNL     1     -27.780   9.746 -23.696  1.00  0.00     0.000 G0
ENDBRANCH   4   6
ENDBRANCH   2   4
BRANCH   3   8
ATOM      8  C   UNL     1     -26.890   7.427 -24.206  1.00  0.00    -0.003 C 
ATOM      9  C   UNL     1     -27.402   8.600 -24.600  1.00  0.00    -0.020 C 
BRANCH   9  10
ATOM     10  C   UNL     1     -27.790   9.755 -23.708  1.00  0.00    -0.010 CG0
ATOM     11  C   UNL     1     -28.654  10.737 -24.533  1.00  0.00     0.016 C 
ATOM     12  C   UNL     1     -26.523  10.510 -23.243  1.00  0.00     0.016 C 
ATOM     13  G   UNL     1     -28.643   9.239 -22.529  1.00  0.00     0.000 G0
ENDBRANCH   9  10
ENDBRANCH   3   8
TORSDOF 0
ENDMDL
MODEL 9
REMARK VINA RESULT:    -2.651     16.308     17.177
REMARK INTER + INTRA:          -2.515
REMARK INTER:                  -3.266
REMARK INTRA:                   0.751
REMARK UNBOUND:                 0.756
REMARK SMILES CC1=CC=CC(C)(C)CC1=O
REMARK SMILES IDX 1 1 2 2 3 3 10 4 11 5 9 6 4 8 5 9 6 10 7 11 8 12
REMARK H PARENT
REMARK Flexibility Score: 80.00
ROOT
ATOM      1  C   UNL     1     -25.888  10.082 -22.928  1.00  0.00     0.048 C 
ATOM      2  C   UNL     1     -26.722   8.860 -22.626  1.00  0.00    -0.008 C 
ATOM      3  C   UNL     1     -28.060   9.023 -22.535  1.00  0.00     0.007 C 
ENDROOT
BRANCH   2   4
ATOM      4  C   UNL     1     -25.996   7.589 -22.378  1.00  0.00     0.159 C 
ATOM      5  O   UNL     1     -24.747   7.627 -22.208  1.00  0.00    -0.295 OA
BRANCH   4   6
ATOM      6  C   UNL     1     -26.666   6.250 -22.333  1.00  0.00     0.091 CG0
ATOM      7  G   UNL     1     -27.744   6.146 -21.232  1.00  0.00     0.000 G0
ENDBRANCH   4   6
ENDBRANCH   2   4
BRANCH   3   8
ATOM      8  C   UNL     1     -29.120   8.034 -22.230  1.00  0.00    -0.003 C 
ATOM      9  C   UNL     1     -29.009   6.823 -21.667  1.00  0.00    -0.020 C 
BRANCH   9  10
ATOM     10  C   UNL     1     -27.729   6.153 -21.228  1.00  0.00    -0.010 CG0
ATOM     11  C   UNL     1     -28.020   4.651 -21.004  1.00  0.00     0.016 C 
ATOM     12  C   UNL     1     -27.256   6.752 -19.883  1.00  0.00     0.016 C 
ATOM     13  G   UNL     1     -26.667   6.275 -22.341  1.00  0.00     0.000 G0
ENDBRANCH   9  10
ENDBRANCH   3   8
TORSDOF 0
ENDMDL
