MODEL 1
REMARK VINA RESULT:    -3.139      0.000      0.000
REMARK INTER + INTRA:          -3.139
REMARK INTER:                  -3.139
REMARK INTRA:                   0.000
REMARK UNBOUND:                 0.000
REMARK SMILES CC1(C)O[C@]2(C)CC[C@H]1CC2
REMARK SMILES IDX 1 1 2 2 9 3 8 4 7 5 5 6 4 7 11 8 10 9 6 10 3 11
REMARK H PARENT
REMARK Flexibility Score: inf
ROOT
ATOM      1  C   UNL     1     119.932 113.223 114.722  1.00  0.00     0.042 C 
ATOM      2  C   UNL     1     119.080 114.486 114.469  1.00  0.00     0.066 C 
ATOM      3  C   UNL     1     119.628 115.290 113.229  1.00  0.00     0.021 C 
ATOM      4  C   UNL     1     118.709 116.513 112.992  1.00  0.00     0.009 C 
ATOM      5  C   UNL     1     117.238 116.036 112.921  1.00  0.00     0.035 C 
ATOM      6  C   UNL     1     117.181 114.484 113.020  1.00  0.00     0.066 C 
ATOM      7  O   UNL     1     117.719 114.074 114.279  1.00  0.00    -0.369 OA
ATOM      8  C   UNL     1     118.040 113.873 111.875  1.00  0.00     0.035 C 
ATOM      9  C   UNL     1     119.491 114.401 111.969  1.00  0.00     0.009 C 
ATOM     10  C   UNL     1     115.732 113.996 112.918  1.00  0.00     0.042 C 
ATOM     11  C   UNL     1     119.144 115.347 115.750  1.00  0.00     0.042 C 
ENDROOT
TORSDOF 0
ENDMDL
MODEL 2
REMARK VINA RESULT:    -3.139      1.290      2.939
REMARK INTER + INTRA:          -3.139
REMARK INTER:                  -3.139
REMARK INTRA:                   0.000
REMARK UNBOUND:                 0.000
REMARK SMILES CC1(C)O[C@]2(C)CC[C@H]1CC2
REMARK SMILES IDX 1 1 2 2 9 3 8 4 7 5 5 6 4 7 11 8 10 9 6 10 3 11
REMARK H PARENT
REMARK Flexibility Score: inf
ROOT
ATOM      1  C   UNL     1     116.449 113.968 111.875  1.00  0.00     0.042 C 
ATOM      2  C   UNL     1     117.112 114.597 113.120  1.00  0.00     0.066 C 
ATOM      3  C   UNL     1     118.524 113.948 113.387  1.00  0.00     0.021 C 
ATOM      4  C   UNL     1     119.162 114.649 114.611  1.00  0.00     0.009 C 
ATOM      5  C   UNL     1     119.127 116.182 114.394  1.00  0.00     0.035 C 
ATOM      6  C   UNL     1     118.548 116.502 112.985  1.00  0.00     0.066 C 
ATOM      7  O   UNL     1     117.208 116.013 112.907  1.00  0.00    -0.369 OA
ATOM      8  C   UNL     1     119.415 115.788 111.909  1.00  0.00     0.035 C 
ATOM      9  C   UNL     1     119.445 114.265 112.184  1.00  0.00     0.009 C 
ATOM     10  C   UNL     1     118.538 118.015 112.744  1.00  0.00     0.042 C 
ATOM     11  C   UNL     1     116.165 114.356 114.315  1.00  0.00     0.042 C 
ENDROOT
TORSDOF 0
ENDMDL
MODEL 3
REMARK VINA RESULT:    -3.059      1.211      2.586
REMARK INTER + INTRA:          -3.059
REMARK INTER:                  -3.059
REMARK INTRA:                   0.000
REMARK UNBOUND:                 0.000
REMARK SMILES CC1(C)O[C@]2(C)CC[C@H]1CC2
REMARK SMILES IDX 1 1 2 2 9 3 8 4 7 5 5 6 4 7 11 8 10 9 6 10 3 11
REMARK H PARENT
REMARK Flexibility Score: inf
ROOT
ATOM      1  C   UNL     1     118.865 117.173 114.414  1.00  0.00     0.042 C 
ATOM      2  C   UNL     1     118.583 116.299 113.172  1.00  0.00     0.066 C 
ATOM      3  C   UNL     1     119.304 114.902 113.298  1.00  0.00     0.021 C 
ATOM      4  C   UNL     1     118.946 114.052 112.055  1.00  0.00     0.009 C 
ATOM      5  C   UNL     1     117.408 114.032 111.879  1.00  0.00     0.035 C 
ATOM      6  C   UNL     1     116.733 114.792 113.056  1.00  0.00     0.066 C 
ATOM      7  O   UNL     1     117.161 116.155 113.041  1.00  0.00    -0.369 OA
ATOM      8  C   UNL     1     117.167 114.135 114.398  1.00  0.00     0.035 C 
ATOM      9  C   UNL     1     118.710 114.152 114.515  1.00  0.00     0.009 C 
ATOM     10  C   UNL     1     115.208 114.751 112.912  1.00  0.00     0.042 C 
ATOM     11  C   UNL     1     119.101 117.072 111.940  1.00  0.00     0.042 C 
ENDROOT
TORSDOF 0
ENDMDL
MODEL 4
REMARK VINA RESULT:    -3.042      2.760      4.682
REMARK INTER + INTRA:          -3.042
REMARK INTER:                  -3.042
REMARK INTRA:                   0.000
REMARK UNBOUND:                 0.000
REMARK SMILES CC1(C)O[C@]2(C)CC[C@H]1CC2
REMARK SMILES IDX 1 1 2 2 9 3 8 4 7 5 5 6 4 7 11 8 10 9 6 10 3 11
REMARK H PARENT
REMARK Flexibility Score: inf
ROOT
ATOM      1  C   UNL     1     115.552 118.468 114.219  1.00  0.00     0.042 C 
ATOM      2  C   UNL     1     116.567 118.652 113.070  1.00  0.00     0.066 C 
ATOM      3  C   UNL     1     117.747 119.599 113.516  1.00  0.00     0.021 C 
ATOM      4  C   UNL     1     118.757 119.707 112.348  1.00  0.00     0.009 C 
ATOM      5  C   UNL     1     119.141 118.283 111.875  1.00  0.00     0.035 C 
ATOM      6  C   UNL     1     118.459 117.223 112.787  1.00  0.00     0.066 C 
ATOM      7  O   UNL     1     117.040 117.355 112.680  1.00  0.00    -0.369 OA
ATOM      8  C   UNL     1     118.886 117.475 114.261  1.00  0.00     0.035 C 
ATOM      9  C   UNL     1     118.509 118.917 114.678  1.00  0.00     0.009 C 
ATOM     10  C   UNL     1     118.858 115.809 112.350  1.00  0.00     0.042 C 
ATOM     11  C   UNL     1     115.801 119.261 111.875  1.00  0.00     0.042 C 
ENDROOT
TORSDOF 0
ENDMDL
MODEL 5
REMARK VINA RESULT:    -3.017      2.855      4.202
REMARK INTER + INTRA:          -3.017
REMARK INTER:                  -3.017
REMARK INTRA:                   0.000
REMARK UNBOUND:                 0.000
REMARK SMILES CC1(C)O[C@]2(C)CC[C@H]1CC2
REMARK SMILES IDX 1 1 2 2 9 3 8 4 7 5 5 6 4 7 11 8 10 9 6 10 3 11
REMARK H PARENT
REMARK Flexibility Score: inf
ROOT
ATOM      1  C   UNL     1     119.672 119.689 114.814  1.00  0.00     0.042 C 
ATOM      2  C   UNL     1     118.343 119.070 114.327  1.00  0.00     0.066 C 
ATOM      3  C   UNL     1     117.888 119.726 112.968  1.00  0.00     0.021 C 
ATOM      4  C   UNL     1     116.583 119.035 112.503  1.00  0.00     0.009 C 
ATOM      5  C   UNL     1     116.794 117.501 112.503  1.00  0.00     0.035 C 
ATOM      6  C   UNL     1     118.266 117.170 112.881  1.00  0.00     0.066 C 
ATOM      7  O   UNL     1     118.532 117.653 114.199  1.00  0.00    -0.369 OA
ATOM      8  C   UNL     1     119.217 117.881 111.876  1.00  0.00     0.035 C 
ATOM      9  C   UNL     1     118.950 119.405 111.889  1.00  0.00     0.009 C 
ATOM     10  C   UNL     1     118.497 115.656 112.853  1.00  0.00     0.042 C 
ATOM     11  C   UNL     1     117.292 119.315 115.431  1.00  0.00     0.042 C 
ENDROOT
TORSDOF 0
ENDMDL
MODEL 6
REMARK VINA RESULT:    -3.016      2.832      4.089
REMARK INTER + INTRA:          -3.016
REMARK INTER:                  -3.016
REMARK INTRA:                   0.000
REMARK UNBOUND:                 0.000
REMARK SMILES CC1(C)O[C@]2(C)CC[C@H]1CC2
REMARK SMILES IDX 1 1 2 2 9 3 8 4 7 5 5 6 4 7 11 8 10 9 6 10 3 11
REMARK H PARENT
REMARK Flexibility Score: inf
ROOT
ATOM      1  C   UNL     1     119.204 116.578 112.095  1.00  0.00     0.042 C 
ATOM      2  C   UNL     1     118.302 117.198 113.184  1.00  0.00     0.066 C 
ATOM      3  C   UNL     1     118.912 118.555 113.707  1.00  0.00     0.021 C 
ATOM      4  C   UNL     1     117.944 119.155 114.755  1.00  0.00     0.009 C 
ATOM      5  C   UNL     1     116.518 119.215 114.155  1.00  0.00     0.035 C 
ATOM      6  C   UNL     1     116.549 118.739 112.674  1.00  0.00     0.066 C 
ATOM      7  O   UNL     1     116.992 117.381 112.627  1.00  0.00    -0.369 OA
ATOM      8  C   UNL     1     117.546 119.629 111.878  1.00  0.00     0.035 C 
ATOM      9  C   UNL     1     118.948 119.561 112.532  1.00  0.00     0.009 C 
ATOM     10  C   UNL     1     115.149 118.824 112.057  1.00  0.00     0.042 C 
ATOM     11  C   UNL     1     118.194 116.170 114.331  1.00  0.00     0.042 C 
ENDROOT
TORSDOF 0
ENDMDL
MODEL 7
REMARK VINA RESULT:    -3.015      2.955      4.801
REMARK INTER + INTRA:          -3.015
REMARK INTER:                  -3.015
REMARK INTRA:                   0.000
REMARK UNBOUND:                 0.000
REMARK SMILES CC1(C)O[C@]2(C)CC[C@H]1CC2
REMARK SMILES IDX 1 1 2 2 9 3 8 4 7 5 5 6 4 7 11 8 10 9 6 10 3 11
REMARK H PARENT
REMARK Flexibility Score: inf
ROOT
ATOM      1  C   UNL     1     117.903 115.972 113.918  1.00  0.00     0.042 C 
ATOM      2  C   UNL     1     118.336 117.207 113.100  1.00  0.00     0.066 C 
ATOM      3  C   UNL     1     117.078 118.043 112.644  1.00  0.00     0.021 C 
ATOM      4  C   UNL     1     117.572 119.292 111.875  1.00  0.00     0.009 C 
ATOM      5  C   UNL     1     118.629 120.031 112.731  1.00  0.00     0.035 C 
ATOM      6  C   UNL     1     118.776 119.327 114.111  1.00  0.00     0.066 C 
ATOM      7  O   UNL     1     119.230 117.987 113.908  1.00  0.00    -0.369 OA
ATOM      8  C   UNL     1     117.388 119.295 114.812  1.00  0.00     0.035 C 
ATOM      9  C   UNL     1     116.359 118.574 113.907  1.00  0.00     0.009 C 
ATOM     10  C   UNL     1     119.796 120.068 114.981  1.00  0.00     0.042 C 
ATOM     11  C   UNL     1     119.123 116.694 111.875  1.00  0.00     0.042 C 
ENDROOT
TORSDOF 0
ENDMDL
MODEL 8
REMARK VINA RESULT:    -2.949      4.155      5.620
REMARK INTER + INTRA:          -2.949
REMARK INTER:                  -2.949
REMARK INTRA:                   0.000
REMARK UNBOUND:                 0.000
REMARK SMILES CC1(C)O[C@]2(C)CC[C@H]1CC2
REMARK SMILES IDX 1 1 2 2 9 3 8 4 7 5 5 6 4 7 11 8 10 9 6 10 3 11
REMARK H PARENT
REMARK Flexibility Score: inf
ROOT
ATOM      1  C   UNL     1     114.515 115.896 114.476  1.00  0.00     0.042 C 
ATOM      2  C   UNL     1     114.685 116.769 113.214  1.00  0.00     0.066 C 
ATOM      3  C   UNL     1     113.640 117.950 113.208  1.00  0.00     0.021 C 
ATOM      4  C   UNL     1     113.889 118.819 111.951  1.00  0.00     0.009 C 
ATOM      5  C   UNL     1     115.386 119.208 111.891  1.00  0.00     0.035 C 
ATOM      6  C   UNL     1     116.120 118.677 113.156  1.00  0.00     0.066 C 
ATOM      7  O   UNL     1     116.036 117.251 113.183  1.00  0.00    -0.369 OA
ATOM      8  C   UNL     1     115.426 119.254 114.423  1.00  0.00     0.035 C 
ATOM      9  C   UNL     1     113.928 118.865 114.423  1.00  0.00     0.009 C 
ATOM     10  C   UNL     1     117.597 119.085 113.125  1.00  0.00     0.042 C 
ATOM     11  C   UNL     1     114.477 115.850 111.990  1.00  0.00     0.042 C 
ENDROOT
TORSDOF 0
ENDMDL
