MODEL 1
REMARK VINA RESULT:    -4.911      0.000      0.000
REMARK INTER + INTRA:         -11.036
REMARK INTER:                  -8.931
REMARK INTRA:                  -2.105
REMARK UNBOUND:                -2.105
REMARK SMILES CCCCCCCCCCCCCC[C@H](C)C(=O)[O-]
REMARK SMILES IDX 9 1 10 2 11 3 12 4 13 5 14 6 15 7 16 8 17 9 18 10 19 11 8 12
REMARK SMILES IDX 7 13 6 14 5 15 4 16 3 17 2 18 1 19
REMARK H PARENT
REMARK Flexibility Score: inf
ROOT
ATOM      1  C   UNL     1      64.034  29.904  10.405  1.00  0.00     0.000 C 
ENDROOT
BRANCH   1   2
ATOM      2  C   UNL     1      64.569  31.204   9.780  1.00  0.00     0.000 C 
BRANCH   2   3
ATOM      3  C   UNL     1      64.905  32.296  10.818  1.00  0.00     0.000 C 
BRANCH   3   4
ATOM      4  C   UNL     1      63.940  32.273  12.017  1.00  0.00     0.000 C 
BRANCH   4   5
ATOM      5  C   UNL     1      64.440  33.116  13.202  1.00  0.00     0.001 C 
BRANCH   5   6
ATOM      6  C   UNL     1      63.374  33.284  14.300  1.00  0.00     0.009 C 
BRANCH   6   7
ATOM      7  C   UNL     1      62.183  32.316  14.126  1.00  0.00     0.032 C 
ATOM      8  C   UNL     1      60.828  33.035  14.195  1.00  0.00     0.014 C 
BRANCH   7   9
ATOM      9  C   UNL     1      62.238  31.239  15.176  1.00  0.00     0.044 C 
ATOM     10  O   UNL     1      63.344  30.864  15.648  1.00  0.00    -0.550 OA
ATOM     11  O   UNL     1      61.064  30.653  15.631  1.00  0.00    -0.550 OA
ENDBRANCH   7   9
ENDBRANCH   6   7
ENDBRANCH   5   6
ENDBRANCH   4   5
ENDBRANCH   3   4
ENDBRANCH   2   3
ENDBRANCH   1   2
BRANCH   1  12
ATOM     12  C   UNL     1      63.401  28.960   9.373  1.00  0.00     0.000 C 
BRANCH  12  13
ATOM     13  C   UNL     1      62.059  29.509   8.875  1.00  0.00    -0.000 C 
BRANCH  13  14
ATOM     14  C   UNL     1      60.894  28.641   9.373  1.00  0.00    -0.000 C 
BRANCH  14  15
ATOM     15  C   UNL     1      59.811  29.461  10.094  1.00  0.00    -0.000 C 
BRANCH  15  16
ATOM     16  C   UNL     1      60.313  30.079  11.408  1.00  0.00    -0.000 C 
BRANCH  16  17
ATOM     17  C   UNL     1      59.655  29.404  12.618  1.00  0.00    -0.000 C 
BRANCH  17  18
ATOM     18  C   UNL     1      60.465  28.185  13.076  1.00  0.00    -0.003 C 
ATOM     19  C   UNL     1      61.963  28.465  13.018  1.00  0.00     0.004 C 
ENDBRANCH  17  18
ENDBRANCH  16  17
ENDBRANCH  15  16
ENDBRANCH  14  15
ENDBRANCH  13  14
ENDBRANCH  12  13
ENDBRANCH   1  12
TORSDOF 14
ENDMDL
MODEL 2
REMARK VINA RESULT:    -4.847      1.821      5.157
REMARK INTER + INTRA:         -10.919
REMARK INTER:                  -8.553
REMARK INTRA:                  -2.365
REMARK UNBOUND:                -2.105
REMARK SMILES CCCCCCCCCCCCCC[C@H](C)C(=O)[O-]
REMARK SMILES IDX 9 1 10 2 11 3 12 4 13 5 14 6 15 7 16 8 17 9 18 10 19 11 8 12
REMARK SMILES IDX 7 13 6 14 5 15 4 16 3 17 2 18 1 19
REMARK H PARENT
REMARK Flexibility Score: inf
ROOT
ATOM      1  C   UNL     1      63.501  30.660  13.251  1.00  0.00     0.000 C 
ENDROOT
BRANCH   1   2
ATOM      2  C   UNL     1      63.618  29.487  12.262  1.00  0.00     0.000 C 
BRANCH   2   3
ATOM      3  C   UNL     1      63.884  29.930  10.808  1.00  0.00     0.000 C 
BRANCH   3   4
ATOM      4  C   UNL     1      63.172  29.025   9.786  1.00  0.00     0.000 C 
BRANCH   4   5
ATOM      5  C   UNL     1      61.684  29.371   9.617  1.00  0.00     0.001 C 
BRANCH   5   6
ATOM      6  C   UNL     1      60.759  28.389  10.360  1.00  0.00     0.009 C 
BRANCH   6   7
ATOM      7  C   UNL     1      59.726  29.108  11.256  1.00  0.00     0.032 C 
ATOM      8  C   UNL     1      60.119  30.561  11.553  1.00  0.00     0.014 C 
BRANCH   7   9
ATOM      9  C   UNL     1      59.555  28.356  12.548  1.00  0.00     0.044 C 
ATOM     10  O   UNL     1      60.541  28.155  13.305  1.00  0.00    -0.550 OA
ATOM     11  O   UNL     1      58.302  27.879  12.912  1.00  0.00    -0.550 OA
ENDBRANCH   7   9
ENDBRANCH   6   7
ENDBRANCH   5   6
ENDBRANCH   4   5
ENDBRANCH   3   4
ENDBRANCH   2   3
ENDBRANCH   1   2
BRANCH   1  12
ATOM     12  C   UNL     1      63.390  32.022  12.552  1.00  0.00     0.000 C 
BRANCH  12  13
ATOM     13  C   UNL     1      63.993  33.135  13.418  1.00  0.00    -0.000 C 
BRANCH  13  14
ATOM     14  C   UNL     1      63.922  32.769  14.908  1.00  0.00    -0.000 C 
BRANCH  14  15
ATOM     15  C   UNL     1      63.259  33.866  15.757  1.00  0.00    -0.000 C 
BRANCH  15  16
ATOM     16  C   UNL     1      61.883  33.447  16.297  1.00  0.00    -0.000 C 
BRANCH  16  17
ATOM     17  C   UNL     1      60.778  33.750  15.279  1.00  0.00    -0.000 C 
BRANCH  17  18
ATOM     18  C   UNL     1      60.187  32.456  14.706  1.00  0.00    -0.003 C 
ATOM     19  C   UNL     1      60.642  31.241  15.507  1.00  0.00     0.004 C 
ENDBRANCH  17  18
ENDBRANCH  16  17
ENDBRANCH  15  16
ENDBRANCH  14  15
ENDBRANCH  13  14
ENDBRANCH  12  13
ENDBRANCH   1  12
TORSDOF 14
ENDMDL
MODEL 3
REMARK VINA RESULT:    -4.796     12.422     14.234
REMARK INTER + INTRA:         -10.826
REMARK INTER:                  -8.169
REMARK INTRA:                  -2.657
REMARK UNBOUND:                -2.105
REMARK SMILES CCCCCCCCCCCCCC[C@H](C)C(=O)[O-]
REMARK SMILES IDX 9 1 10 2 11 3 12 4 13 5 14 6 15 7 16 8 17 9 18 10 19 11 8 12
REMARK SMILES IDX 7 13 6 14 5 15 4 16 3 17 2 18 1 19
REMARK H PARENT
REMARK Flexibility Score: inf
ROOT
ATOM      1  C   UNL     1      66.121  27.720  23.861  1.00  0.00     0.000 C 
ENDROOT
BRANCH   1   2
ATOM      2  C   UNL     1      65.398  28.940  23.264  1.00  0.00     0.000 C 
BRANCH   2   3
ATOM      3  C   UNL     1      65.317  30.143  24.229  1.00  0.00     0.000 C 
BRANCH   3   4
ATOM      4  C   UNL     1      63.873  30.639  24.417  1.00  0.00     0.000 C 
BRANCH   4   5
ATOM      5  C   UNL     1      63.475  30.775  25.896  1.00  0.00     0.001 C 
BRANCH   5   6
ATOM      6  C   UNL     1      64.061  29.653  26.772  1.00  0.00     0.009 C 
BRANCH   6   7
ATOM      7  C   UNL     1      64.197  30.066  28.255  1.00  0.00     0.032 C 
ATOM      8  C   UNL     1      62.948  30.788  28.778  1.00  0.00     0.014 C 
BRANCH   7   9
ATOM      9  C   UNL     1      65.403  30.947  28.434  1.00  0.00     0.044 C 
ATOM     10  O   UNL     1      66.537  30.566  28.039  1.00  0.00    -0.550 OA
ATOM     11  O   UNL     1      65.270  32.191  29.038  1.00  0.00    -0.550 OA
ENDBRANCH   7   9
ENDBRANCH   6   7
ENDBRANCH   5   6
ENDBRANCH   4   5
ENDBRANCH   3   4
ENDBRANCH   2   3
ENDBRANCH   1   2
BRANCH   1  12
ATOM     12  C   UNL     1      65.226  26.475  23.939  1.00  0.00     0.000 C 
BRANCH  12  13
ATOM     13  C   UNL     1      64.447  26.438  25.259  1.00  0.00    -0.000 C 
BRANCH  13  14
ATOM     14  C   UNL     1      62.941  26.280  25.002  1.00  0.00    -0.000 C 
BRANCH  14  15
ATOM     15  C   UNL     1      62.320  27.522  24.341  1.00  0.00    -0.000 C 
BRANCH  15  16
ATOM     16  C   UNL     1      61.083  28.036  25.092  1.00  0.00    -0.000 C 
BRANCH  16  17
ATOM     17  C   UNL     1      60.763  27.146  26.299  1.00  0.00    -0.000 C 
BRANCH  17  18
ATOM     18  C   UNL     1      60.957  27.911  27.614  1.00  0.00    -0.003 C 
ATOM     19  C   UNL     1      61.841  27.129  28.581  1.00  0.00     0.004 C 
ENDBRANCH  17  18
ENDBRANCH  16  17
ENDBRANCH  15  16
ENDBRANCH  14  15
ENDBRANCH  13  14
ENDBRANCH  12  13
ENDBRANCH   1  12
TORSDOF 14
ENDMDL
MODEL 4
REMARK VINA RESULT:    -4.785     11.073     14.279
REMARK INTER + INTRA:         -10.807
REMARK INTER:                  -8.483
REMARK INTRA:                  -2.324
REMARK UNBOUND:                -2.105
REMARK SMILES CCCCCCCCCCCCCC[C@H](C)C(=O)[O-]
REMARK SMILES IDX 9 1 10 2 11 3 12 4 13 5 14 6 15 7 16 8 17 9 18 10 19 11 8 12
REMARK SMILES IDX 7 13 6 14 5 15 4 16 3 17 2 18 1 19
REMARK H PARENT
REMARK Flexibility Score: inf
ROOT
ATOM      1  C   UNL     1      61.248  28.314  24.664  1.00  0.00     0.000 C 
ENDROOT
BRANCH   1   2
ATOM      2  C   UNL     1      61.399  26.993  25.438  1.00  0.00     0.000 C 
BRANCH   2   3
ATOM      3  C   UNL     1      62.812  26.774  26.017  1.00  0.00     0.000 C 
BRANCH   3   4
ATOM      4  C   UNL     1      63.728  26.016  25.040  1.00  0.00     0.000 C 
BRANCH   4   5
ATOM      5  C   UNL     1      65.007  26.796  24.692  1.00  0.00     0.001 C 
BRANCH   5   6
ATOM      6  C   UNL     1      65.055  27.227  23.215  1.00  0.00     0.009 C 
BRANCH   6   7
ATOM      7  C   UNL     1      66.480  27.602  22.752  1.00  0.00     0.032 C 
ATOM      8  C   UNL     1      66.760  29.107  22.879  1.00  0.00     0.014 C 
BRANCH   7   9
ATOM      9  C   UNL     1      66.688  27.168  21.326  1.00  0.00     0.044 C 
ATOM     10  O   UNL     1      66.479  25.974  20.986  1.00  0.00    -0.550 OA
ATOM     11  O   UNL     1      67.114  28.088  20.376  1.00  0.00    -0.550 OA
ENDBRANCH   7   9
ENDBRANCH   6   7
ENDBRANCH   5   6
ENDBRANCH   4   5
ENDBRANCH   3   4
ENDBRANCH   2   3
ENDBRANCH   1   2
BRANCH   1  12
ATOM     12  C   UNL     1      61.879  29.509  25.393  1.00  0.00     0.000 C 
BRANCH  12  13
ATOM     13  C   UNL     1      63.128  30.006  24.655  1.00  0.00    -0.000 C 
BRANCH  13  14
ATOM     14  C   UNL     1      64.212  30.448  25.650  1.00  0.00    -0.000 C 
BRANCH  14  15
ATOM     15  C   UNL     1      64.012  29.846  27.050  1.00  0.00    -0.000 C 
BRANCH  15  16
ATOM     16  C   UNL     1      63.790  30.917  28.129  1.00  0.00    -0.000 C 
BRANCH  16  17
ATOM     17  C   UNL     1      62.618  30.541  29.043  1.00  0.00    -0.000 C 
BRANCH  17  18
ATOM     18  C   UNL     1      62.326  29.037  28.974  1.00  0.00    -0.003 C 
ATOM     19  C   UNL     1      60.825  28.769  28.936  1.00  0.00     0.004 C 
ENDBRANCH  17  18
ENDBRANCH  16  17
ENDBRANCH  15  16
ENDBRANCH  14  15
ENDBRANCH  13  14
ENDBRANCH  12  13
ENDBRANCH   1  12
TORSDOF 14
ENDMDL
MODEL 5
REMARK VINA RESULT:    -4.777      2.211      3.438
REMARK INTER + INTRA:         -10.791
REMARK INTER:                  -8.789
REMARK INTRA:                  -2.002
REMARK UNBOUND:                -2.105
REMARK SMILES CCCCCCCCCCCCCC[C@H](C)C(=O)[O-]
REMARK SMILES IDX 9 1 10 2 11 3 12 4 13 5 14 6 15 7 16 8 17 9 18 10 19 11 8 12
REMARK SMILES IDX 7 13 6 14 5 15 4 16 3 17 2 18 1 19
REMARK H PARENT
REMARK Flexibility Score: inf
ROOT
ATOM      1  C   UNL     1      63.562  31.555  12.702  1.00  0.00     0.000 C 
ENDROOT
BRANCH   1   2
ATOM      2  C   UNL     1      62.237  31.308  13.446  1.00  0.00     0.000 C 
BRANCH   2   3
ATOM      3  C   UNL     1      61.122  32.307  13.070  1.00  0.00     0.000 C 
BRANCH   3   4
ATOM      4  C   UNL     1      60.129  32.528  14.224  1.00  0.00     0.000 C 
BRANCH   4   5
ATOM      5  C   UNL     1      60.521  33.706  15.132  1.00  0.00     0.001 C 
BRANCH   5   6
ATOM      6  C   UNL     1      61.275  33.254  16.396  1.00  0.00     0.009 C 
BRANCH   6   7
ATOM      7  C   UNL     1      62.665  33.914  16.526  1.00  0.00     0.032 C 
ATOM      8  C   UNL     1      63.810  32.905  16.357  1.00  0.00     0.014 C 
BRANCH   7   9
ATOM      9  C   UNL     1      62.787  34.598  17.861  1.00  0.00     0.044 C 
ATOM     10  O   UNL     1      63.872  35.137  18.206  1.00  0.00    -0.550 OA
ATOM     11  O   UNL     1      61.697  34.639  18.721  1.00  0.00    -0.550 OA
ENDBRANCH   7   9
ENDBRANCH   6   7
ENDBRANCH   5   6
ENDBRANCH   4   5
ENDBRANCH   3   4
ENDBRANCH   2   3
ENDBRANCH   1   2
BRANCH   1  12
ATOM     12  C   UNL     1      64.047  30.326  11.921  1.00  0.00     0.000 C 
BRANCH  12  13
ATOM     13  C   UNL     1      63.625  30.408  10.450  1.00  0.00    -0.000 C 
BRANCH  13  14
ATOM     14  C   UNL     1      63.267  29.017   9.905  1.00  0.00    -0.000 C 
BRANCH  14  15
ATOM     15  C   UNL     1      61.915  28.999   9.172  1.00  0.00    -0.000 C 
BRANCH  15  16
ATOM     16  C   UNL     1      60.787  28.400  10.026  1.00  0.00    -0.000 C 
BRANCH  16  17
ATOM     17  C   UNL     1      60.030  29.497  10.784  1.00  0.00    -0.000 C 
BRANCH  17  18
ATOM     18  C   UNL     1      59.574  29.001  12.161  1.00  0.00    -0.003 C 
ATOM     19  C   UNL     1      60.679  28.214  12.857  1.00  0.00     0.004 C 
ENDBRANCH  17  18
ENDBRANCH  16  17
ENDBRANCH  15  16
ENDBRANCH  14  15
ENDBRANCH  13  14
ENDBRANCH  12  13
ENDBRANCH   1  12
TORSDOF 14
ENDMDL
MODEL 6
REMARK VINA RESULT:    -4.768     12.077     15.240
REMARK INTER + INTRA:         -10.775
REMARK INTER:                  -8.588
REMARK INTRA:                  -2.187
REMARK UNBOUND:                -2.105
REMARK SMILES CCCCCCCCCCCCCC[C@H](C)C(=O)[O-]
REMARK SMILES IDX 9 1 10 2 11 3 12 4 13 5 14 6 15 7 16 8 17 9 18 10 19 11 8 12
REMARK SMILES IDX 7 13 6 14 5 15 4 16 3 17 2 18 1 19
REMARK H PARENT
REMARK Flexibility Score: inf
ROOT
ATOM      1  C   UNL     1      60.748  27.625  28.433  1.00  0.00     0.000 C 
ENDROOT
BRANCH   1   2
ATOM      2  C   UNL     1      61.625  27.310  27.209  1.00  0.00     0.000 C 
BRANCH   2   3
ATOM      3  C   UNL     1      60.848  27.311  25.876  1.00  0.00     0.000 C 
BRANCH   3   4
ATOM      4  C   UNL     1      61.341  28.410  24.918  1.00  0.00     0.000 C 
BRANCH   4   5
ATOM      5  C   UNL     1      62.874  28.480  24.827  1.00  0.00     0.001 C 
BRANCH   5   6
ATOM      6  C   UNL     1      63.423  27.820  23.549  1.00  0.00     0.009 C 
BRANCH   6   7
ATOM      7  C   UNL     1      64.185  26.508  23.837  1.00  0.00     0.032 C 
ATOM      8  C   UNL     1      64.564  26.364  25.318  1.00  0.00     0.014 C 
BRANCH   7   9
ATOM      9  C   UNL     1      65.426  26.438  22.989  1.00  0.00     0.044 C 
ATOM     10  O   UNL     1      65.958  27.491  22.548  1.00  0.00    -0.550 OA
ATOM     11  O   UNL     1      65.993  25.206  22.689  1.00  0.00    -0.550 OA
ENDBRANCH   7   9
ENDBRANCH   6   7
ENDBRANCH   5   6
ENDBRANCH   4   5
ENDBRANCH   3   4
ENDBRANCH   2   3
ENDBRANCH   1   2
BRANCH   1  12
ATOM     12  C   UNL     1      61.098  28.968  29.090  1.00  0.00     0.000 C 
BRANCH  12  13
ATOM     13  C   UNL     1      62.611  29.215  29.064  1.00  0.00    -0.000 C 
BRANCH  13  14
ATOM     14  C   UNL     1      62.920  30.719  29.022  1.00  0.00    -0.000 C 
BRANCH  14  15
ATOM     15  C   UNL     1      64.261  31.028  28.337  1.00  0.00    -0.000 C 
BRANCH  15  16
ATOM     16  C   UNL     1      64.828  29.823  27.572  1.00  0.00    -0.000 C 
BRANCH  16  17
ATOM     17  C   UNL     1      66.226  30.130  27.022  1.00  0.00    -0.000 C 
BRANCH  17  18
ATOM     18  C   UNL     1      66.470  29.397  25.697  1.00  0.00    -0.003 C 
ATOM     19  C   UNL     1      66.266  30.328  24.507  1.00  0.00     0.004 C 
ENDBRANCH  17  18
ENDBRANCH  16  17
ENDBRANCH  15  16
ENDBRANCH  14  15
ENDBRANCH  13  14
ENDBRANCH  12  13
ENDBRANCH   1  12
TORSDOF 14
ENDMDL
MODEL 7
REMARK VINA RESULT:    -4.751     11.841     14.498
REMARK INTER + INTRA:         -10.744
REMARK INTER:                  -8.614
REMARK INTRA:                  -2.130
REMARK UNBOUND:                -2.105
REMARK SMILES CCCCCCCCCCCCCC[C@H](C)C(=O)[O-]
REMARK SMILES IDX 9 1 10 2 11 3 12 4 13 5 14 6 15 7 16 8 17 9 18 10 19 11 8 12
REMARK SMILES IDX 7 13 6 14 5 15 4 16 3 17 2 18 1 19
REMARK H PARENT
REMARK Flexibility Score: inf
ROOT
ATOM      1  C   UNL     1      64.658  30.390  27.695  1.00  0.00     0.000 C 
ENDROOT
BRANCH   1   2
ATOM      2  C   UNL     1      65.377  29.365  26.802  1.00  0.00     0.000 C 
BRANCH   2   3
ATOM      3  C   UNL     1      66.474  29.984  25.910  1.00  0.00     0.000 C 
BRANCH   3   4
ATOM      4  C   UNL     1      66.038  30.080  24.437  1.00  0.00     0.000 C 
BRANCH   4   5
ATOM      5  C   UNL     1      66.663  28.985  23.557  1.00  0.00     0.001 C 
BRANCH   5   6
ATOM      6  C   UNL     1      65.606  28.064  22.918  1.00  0.00     0.009 C 
BRANCH   6   7
ATOM      7  C   UNL     1      65.830  26.575  23.263  1.00  0.00     0.032 C 
ATOM      8  C   UNL     1      65.997  25.703  22.011  1.00  0.00     0.014 C 
BRANCH   7   9
ATOM      9  C   UNL     1      64.681  26.061  24.088  1.00  0.00     0.044 C 
ATOM     10  O   UNL     1      63.684  25.528  23.532  1.00  0.00    -0.550 OA
ATOM     11  O   UNL     1      64.718  26.171  25.472  1.00  0.00    -0.550 OA
ENDBRANCH   7   9
ENDBRANCH   6   7
ENDBRANCH   5   6
ENDBRANCH   4   5
ENDBRANCH   3   4
ENDBRANCH   2   3
ENDBRANCH   1   2
BRANCH   1  12
ATOM     12  C   UNL     1      63.726  29.736  28.725  1.00  0.00     0.000 C 
BRANCH  12  13
ATOM     13  C   UNL     1      62.276  30.195  28.524  1.00  0.00    -0.000 C 
BRANCH  13  14
ATOM     14  C   UNL     1      61.337  28.989  28.372  1.00  0.00    -0.000 C 
BRANCH  14  15
ATOM     15  C   UNL     1      62.095  27.677  28.111  1.00  0.00    -0.000 C 
BRANCH  15  16
ATOM     16  C   UNL     1      61.642  26.978  26.820  1.00  0.00    -0.000 C 
BRANCH  16  17
ATOM     17  C   UNL     1      60.863  27.942  25.917  1.00  0.00    -0.000 C 
BRANCH  17  18
ATOM     18  C   UNL     1      61.664  28.282  24.654  1.00  0.00    -0.003 C 
ATOM     19  C   UNL     1      62.334  29.647  24.777  1.00  0.00     0.004 C 
ENDBRANCH  17  18
ENDBRANCH  16  17
ENDBRANCH  15  16
ENDBRANCH  14  15
ENDBRANCH  13  14
ENDBRANCH  12  13
ENDBRANCH   1  12
TORSDOF 14
ENDMDL
MODEL 8
REMARK VINA RESULT:    -4.722     11.904     14.523
REMARK INTER + INTRA:         -10.692
REMARK INTER:                  -8.090
REMARK INTRA:                  -2.602
REMARK UNBOUND:                -2.105
REMARK SMILES CCCCCCCCCCCCCC[C@H](C)C(=O)[O-]
REMARK SMILES IDX 9 1 10 2 11 3 12 4 13 5 14 6 15 7 16 8 17 9 18 10 19 11 8 12
REMARK SMILES IDX 7 13 6 14 5 15 4 16 3 17 2 18 1 19
REMARK H PARENT
REMARK Flexibility Score: inf
ROOT
ATOM      1  C   UNL     1      61.487  29.395  25.355  1.00  0.00     0.000 C 
ENDROOT
BRANCH   1   2
ATOM      2  C   UNL     1      62.754  30.209  25.041  1.00  0.00     0.000 C 
BRANCH   2   3
ATOM      3  C   UNL     1      63.722  29.497  24.073  1.00  0.00     0.000 C 
BRANCH   3   4
ATOM      4  C   UNL     1      65.196  29.777  24.415  1.00  0.00     0.000 C 
BRANCH   4   5
ATOM      5  C   UNL     1      66.070  28.513  24.373  1.00  0.00     0.001 C 
BRANCH   5   6
ATOM      6  C   UNL     1      65.307  27.250  24.812  1.00  0.00     0.009 C 
BRANCH   6   7
ATOM      7  C   UNL     1      65.283  26.159  23.717  1.00  0.00     0.032 C 
ATOM      8  C   UNL     1      66.118  26.545  22.488  1.00  0.00     0.014 C 
BRANCH   7   9
ATOM      9  C   UNL     1      63.865  25.882  23.299  1.00  0.00     0.044 C 
ATOM     10  O   UNL     1      63.171  25.032  23.916  1.00  0.00    -0.550 OA
ATOM     11  O   UNL     1      63.312  26.568  22.224  1.00  0.00    -0.550 OA
ENDBRANCH   7   9
ENDBRANCH   6   7
ENDBRANCH   5   6
ENDBRANCH   4   5
ENDBRANCH   3   4
ENDBRANCH   2   3
ENDBRANCH   1   2
BRANCH   1  12
ATOM     12  C   UNL     1      61.712  27.879  25.263  1.00  0.00     0.000 C 
BRANCH  12  13
ATOM     13  C   UNL     1      62.094  27.296  26.629  1.00  0.00    -0.000 C 
BRANCH  13  14
ATOM     14  C   UNL     1      61.397  28.060  27.765  1.00  0.00    -0.000 C 
BRANCH  14  15
ATOM     15  C   UNL     1      62.389  28.614  28.801  1.00  0.00    -0.000 C 
BRANCH  15  16
ATOM     16  C   UNL     1      62.258  30.133  28.993  1.00  0.00    -0.000 C 
BRANCH  16  17
ATOM     17  C   UNL     1      63.537  30.855  28.552  1.00  0.00    -0.000 C 
BRANCH  17  18
ATOM     18  C   UNL     1      64.628  29.851  28.161  1.00  0.00    -0.003 C 
ATOM     19  C   UNL     1      65.989  30.532  28.050  1.00  0.00     0.004 C 
ENDBRANCH  17  18
ENDBRANCH  16  17
ENDBRANCH  15  16
ENDBRANCH  14  15
ENDBRANCH  13  14
ENDBRANCH  12  13
ENDBRANCH   1  12
TORSDOF 14
ENDMDL
MODEL 9
REMARK VINA RESULT:    -4.722      1.195      4.403
REMARK INTER + INTRA:         -10.692
REMARK INTER:                  -8.419
REMARK INTRA:                  -2.272
REMARK UNBOUND:                -2.105
REMARK SMILES CCCCCCCCCCCCCC[C@H](C)C(=O)[O-]
REMARK SMILES IDX 9 1 10 2 11 3 12 4 13 5 14 6 15 7 16 8 17 9 18 10 19 11 8 12
REMARK SMILES IDX 7 13 6 14 5 15 4 16 3 17 2 18 1 19
REMARK H PARENT
REMARK Flexibility Score: inf
ROOT
ATOM      1  C   UNL     1      63.179  28.982   9.700  1.00  0.00     0.000 C 
ENDROOT
BRANCH   1   2
ATOM      2  C   UNL     1      61.901  28.627   8.920  1.00  0.00     0.000 C 
BRANCH   2   3
ATOM      3  C   UNL     1      60.805  29.710   9.004  1.00  0.00     0.000 C 
BRANCH   3   4
ATOM      4  C   UNL     1      60.441  30.055  10.459  1.00  0.00     0.000 C 
BRANCH   4   5
ATOM      5  C   UNL     1      59.587  28.969  11.135  1.00  0.00     0.001 C 
BRANCH   5   6
ATOM      6  C   UNL     1      60.154  28.532  12.498  1.00  0.00     0.009 C 
BRANCH   6   7
ATOM      7  C   UNL     1      61.289  29.456  12.993  1.00  0.00     0.032 C 
ATOM      8  C   UNL     1      62.538  28.671  13.420  1.00  0.00     0.014 C 
BRANCH   7   9
ATOM      9  C   UNL     1      60.803  30.297  14.142  1.00  0.00     0.044 C 
ATOM     10  O   UNL     1      61.265  30.123  15.301  1.00  0.00    -0.550 OA
ATOM     11  O   UNL     1      59.840  31.275  13.927  1.00  0.00    -0.550 OA
ENDBRANCH   7   9
ENDBRANCH   6   7
ENDBRANCH   5   6
ENDBRANCH   4   5
ENDBRANCH   3   4
ENDBRANCH   2   3
ENDBRANCH   1   2
BRANCH   1  12
ATOM     12  C   UNL     1      64.148  29.857   8.894  1.00  0.00     0.000 C 
BRANCH  12  13
ATOM     13  C   UNL     1      64.601  31.073   9.711  1.00  0.00    -0.000 C 
BRANCH  13  14
ATOM     14  C   UNL     1      64.060  31.000  11.147  1.00  0.00    -0.000 C 
BRANCH  14  15
ATOM     15  C   UNL     1      64.168  32.342  11.889  1.00  0.00    -0.000 C 
BRANCH  15  16
ATOM     16  C   UNL     1      64.038  32.188  13.413  1.00  0.00    -0.000 C 
BRANCH  16  17
ATOM     17  C   UNL     1      62.922  33.087  13.961  1.00  0.00    -0.000 C 
BRANCH  17  18
ATOM     18  C   UNL     1      63.168  33.432  15.435  1.00  0.00    -0.003 C 
ATOM     19  C   UNL     1      63.921  32.311  16.145  1.00  0.00     0.004 C 
ENDBRANCH  17  18
ENDBRANCH  16  17
ENDBRANCH  15  16
ENDBRANCH  14  15
ENDBRANCH  13  14
ENDBRANCH  12  13
ENDBRANCH   1  12
TORSDOF 14
ENDMDL
