MODEL 1
REMARK VINA RESULT:    -5.532      0.000      0.000
REMARK INTER + INTRA:          -5.532
REMARK INTER:                  -5.532
REMARK INTRA:                   0.000
REMARK UNBOUND:                 0.000
REMARK SMILES C=C1CCCC(C)(C)[C@]12CC=C(C)CC2
REMARK SMILES IDX 13 1 12 2 11 3 10 4 9 5 15 6 14 7 2 8 1 9 3 10 4 11 5 12
REMARK SMILES IDX 6 13 7 14 8 15
REMARK H PARENT
REMARK Flexibility Score: inf
ROOT
ATOM      1  C   UNL     1      -1.558  -0.847  14.508  1.00  0.00     0.039 C 
ATOM      2  C   UNL     1      -1.798   0.524  13.940  1.00  0.00    -0.077 C 
ATOM      3  C   UNL     1      -0.964   1.029  13.020  1.00  0.00    -0.027 C 
ATOM      4  C   UNL     1      -1.217   2.408  12.463  1.00  0.00     0.039 C 
ATOM      5  C   UNL     1      -1.569   3.479  13.569  1.00  0.00    -0.000 C 
ATOM      6  C   UNL     1      -2.310   2.783  14.792  1.00  0.00     0.017 C 
ATOM      7  C   UNL     1      -2.905   1.407  14.456  1.00  0.00     0.031 C 
ATOM      8  C   UNL     1      -2.491   4.515  12.870  1.00  0.00    -0.070 C 
ATOM      9  C   UNL     1      -3.838   4.426  12.879  1.00  0.00     0.008 C 
ATOM     10  C   UNL     1      -1.875   5.476  11.871  1.00  0.00     0.031 C 
ATOM     11  C   UNL     1      -0.656   6.180  12.451  1.00  0.00     0.005 C 
ATOM     12  C   UNL     1       0.351   5.169  12.996  1.00  0.00     0.008 C 
ATOM     13  C   UNL     1      -0.255   4.239  14.095  1.00  0.00    -0.026 C 
ATOM     14  C   UNL     1      -0.580   5.121  15.339  1.00  0.00     0.012 C 
ATOM     15  C   UNL     1       0.870   3.250  14.507  1.00  0.00     0.012 C 
ENDROOT
TORSDOF 0
ENDMDL
MODEL 2
REMARK VINA RESULT:    -5.394      1.675      2.869
REMARK INTER + INTRA:          -5.394
REMARK INTER:                  -5.394
REMARK INTRA:                   0.000
REMARK UNBOUND:                 0.000
REMARK SMILES C=C1CCCC(C)(C)[C@]12CC=C(C)CC2
REMARK SMILES IDX 13 1 12 2 11 3 10 4 9 5 15 6 14 7 2 8 1 9 3 10 4 11 5 12
REMARK SMILES IDX 6 13 7 14 8 15
REMARK H PARENT
REMARK Flexibility Score: inf
ROOT
ATOM      1  C   UNL     1      -1.185  -0.079  11.866  1.00  0.00     0.039 C 
ATOM      2  C   UNL     1      -0.887   1.388  11.744  1.00  0.00    -0.077 C 
ATOM      3  C   UNL     1      -0.230   2.028  12.723  1.00  0.00    -0.027 C 
ATOM      4  C   UNL     1       0.057   3.502  12.586  1.00  0.00     0.039 C 
ATOM      5  C   UNL     1      -1.182   4.342  12.082  1.00  0.00    -0.000 C 
ATOM      6  C   UNL     1      -2.106   3.449  11.144  1.00  0.00     0.017 C 
ATOM      7  C   UNL     1      -1.403   2.202  10.585  1.00  0.00     0.031 C 
ATOM      8  C   UNL     1      -0.585   5.545  11.302  1.00  0.00    -0.070 C 
ATOM      9  C   UNL     1      -0.371   5.523   9.969  1.00  0.00     0.008 C 
ATOM     10  C   UNL     1       0.085   6.656  12.086  1.00  0.00     0.031 C 
ATOM     11  C   UNL     1      -0.807   7.164  13.210  1.00  0.00     0.005 C 
ATOM     12  C   UNL     1      -1.274   6.013  14.099  1.00  0.00     0.008 C 
ATOM     13  C   UNL     1      -2.048   4.910  13.310  1.00  0.00    -0.026 C 
ATOM     14  C   UNL     1      -3.386   5.535  12.808  1.00  0.00     0.012 C 
ATOM     15  C   UNL     1      -2.409   3.803  14.337  1.00  0.00     0.012 C 
ENDROOT
TORSDOF 0
ENDMDL
MODEL 3
REMARK VINA RESULT:    -5.386      1.172      4.430
REMARK INTER + INTRA:          -5.386
REMARK INTER:                  -5.386
REMARK INTRA:                   0.000
REMARK UNBOUND:                 0.000
REMARK SMILES C=C1CCCC(C)(C)[C@]12CC=C(C)CC2
REMARK SMILES IDX 13 1 12 2 11 3 10 4 9 5 15 6 14 7 2 8 1 9 3 10 4 11 5 12
REMARK SMILES IDX 6 13 7 14 8 15
REMARK H PARENT
REMARK Flexibility Score: inf
ROOT
ATOM      1  C   UNL     1      -2.612   7.273  10.758  1.00  0.00     0.039 C 
ATOM      2  C   UNL     1      -2.394   5.884  11.289  1.00  0.00    -0.077 C 
ATOM      3  C   UNL     1      -3.078   5.454  12.359  1.00  0.00    -0.027 C 
ATOM      4  C   UNL     1      -2.844   4.059  12.882  1.00  0.00     0.039 C 
ATOM      5  C   UNL     1      -1.315   3.673  12.985  1.00  0.00    -0.000 C 
ATOM      6  C   UNL     1      -0.479   4.437  11.867  1.00  0.00     0.017 C 
ATOM      7  C   UNL     1      -1.336   4.978  10.712  1.00  0.00     0.031 C 
ATOM      8  C   UNL     1      -1.257   2.135  12.777  1.00  0.00    -0.070 C 
ATOM      9  C   UNL     1      -1.066   1.563  11.569  1.00  0.00     0.008 C 
ATOM     10  C   UNL     1      -1.751   1.234  13.892  1.00  0.00     0.031 C 
ATOM     11  C   UNL     1      -1.116   1.598  15.227  1.00  0.00     0.005 C 
ATOM     12  C   UNL     1      -1.309   3.081  15.538  1.00  0.00     0.008 C 
ATOM     13  C   UNL     1      -0.717   4.015  14.436  1.00  0.00    -0.026 C 
ATOM     14  C   UNL     1       0.834   3.848  14.453  1.00  0.00     0.012 C 
ATOM     15  C   UNL     1      -1.033   5.471  14.873  1.00  0.00     0.012 C 
ENDROOT
TORSDOF 0
ENDMDL
MODEL 4
REMARK VINA RESULT:    -5.346      1.460      4.397
REMARK INTER + INTRA:          -5.346
REMARK INTER:                  -5.346
REMARK INTRA:                   0.000
REMARK UNBOUND:                 0.000
REMARK SMILES C=C1CCCC(C)(C)[C@]12CC=C(C)CC2
REMARK SMILES IDX 13 1 12 2 11 3 10 4 9 5 15 6 14 7 2 8 1 9 3 10 4 11 5 12
REMARK SMILES IDX 6 13 7 14 8 15
REMARK H PARENT
REMARK Flexibility Score: inf
ROOT
ATOM      1  C   UNL     1       1.251   7.322  14.966  1.00  0.00     0.039 C 
ATOM      2  C   UNL     1       0.704   5.973  14.594  1.00  0.00    -0.077 C 
ATOM      3  C   UNL     1       1.281   5.255  13.619  1.00  0.00    -0.027 C 
ATOM      4  C   UNL     1       0.717   3.905  13.256  1.00  0.00     0.039 C 
ATOM      5  C   UNL     1      -0.857   3.894  13.123  1.00  0.00    -0.000 C 
ATOM      6  C   UNL     1      -1.498   4.976  14.098  1.00  0.00     0.017 C 
ATOM      7  C   UNL     1      -0.556   5.435  15.222  1.00  0.00     0.031 C 
ATOM      8  C   UNL     1      -1.300   2.456  13.510  1.00  0.00    -0.070 C 
ATOM      9  C   UNL     1      -1.651   2.108  14.766  1.00  0.00     0.008 C 
ATOM     10  C   UNL     1      -1.025   1.326  12.537  1.00  0.00     0.031 C 
ATOM     11  C   UNL     1      -1.523   1.660  11.138  1.00  0.00     0.005 C 
ATOM     12  C   UNL     1      -0.962   2.998  10.662  1.00  0.00     0.008 C 
ATOM     13  C   UNL     1      -1.324   4.182  11.613  1.00  0.00    -0.026 C 
ATOM     14  C   UNL     1      -2.867   4.398  11.538  1.00  0.00     0.012 C 
ATOM     15  C   UNL     1      -0.648   5.449  11.021  1.00  0.00     0.012 C 
ENDROOT
TORSDOF 0
ENDMDL
MODEL 5
REMARK VINA RESULT:    -5.168      2.081      4.492
REMARK INTER + INTRA:          -5.168
REMARK INTER:                  -5.168
REMARK INTRA:                   0.000
REMARK UNBOUND:                 0.000
REMARK SMILES C=C1CCCC(C)(C)[C@]12CC=C(C)CC2
REMARK SMILES IDX 13 1 12 2 11 3 10 4 9 5 15 6 14 7 2 8 1 9 3 10 4 11 5 12
REMARK SMILES IDX 6 13 7 14 8 15
REMARK H PARENT
REMARK Flexibility Score: inf
ROOT
ATOM      1  C   UNL     1      -6.194   6.056  11.066  1.00  0.00     0.039 C 
ATOM      2  C   UNL     1      -4.933   5.283  11.331  1.00  0.00    -0.077 C 
ATOM      3  C   UNL     1      -4.477   5.144  12.585  1.00  0.00    -0.027 C 
ATOM      4  C   UNL     1      -3.208   4.368  12.833  1.00  0.00     0.039 C 
ATOM      5  C   UNL     1      -2.040   4.733  11.835  1.00  0.00    -0.000 C 
ATOM      6  C   UNL     1      -2.638   5.179  10.429  1.00  0.00     0.017 C 
ATOM      7  C   UNL     1      -4.093   4.737  10.205  1.00  0.00     0.031 C 
ATOM      8  C   UNL     1      -1.186   3.443  11.699  1.00  0.00    -0.070 C 
ATOM      9  C   UNL     1      -1.392   2.524  10.732  1.00  0.00     0.008 C 
ATOM     10  C   UNL     1      -0.309   3.028  12.864  1.00  0.00     0.031 C 
ATOM     11  C   UNL     1       0.567   4.177  13.342  1.00  0.00     0.005 C 
ATOM     12  C   UNL     1      -0.274   5.415  13.648  1.00  0.00     0.008 C 
ATOM     13  C   UNL     1      -1.107   5.903  12.420  1.00  0.00    -0.026 C 
ATOM     14  C   UNL     1      -0.106   6.413  11.338  1.00  0.00     0.012 C 
ATOM     15  C   UNL     1      -1.933   7.126  12.904  1.00  0.00     0.012 C 
ENDROOT
TORSDOF 0
ENDMDL
MODEL 6
REMARK VINA RESULT:    -5.062      1.303      3.342
REMARK INTER + INTRA:          -5.062
REMARK INTER:                  -5.062
REMARK INTRA:                   0.000
REMARK UNBOUND:                 0.000
REMARK SMILES C=C1CCCC(C)(C)[C@]12CC=C(C)CC2
REMARK SMILES IDX 13 1 12 2 11 3 10 4 9 5 15 6 14 7 2 8 1 9 3 10 4 11 5 12
REMARK SMILES IDX 6 13 7 14 8 15
REMARK H PARENT
REMARK Flexibility Score: inf
ROOT
ATOM      1  C   UNL     1      -1.844   0.815  14.462  1.00  0.00     0.039 C 
ATOM      2  C   UNL     1      -1.287   2.201  14.301  1.00  0.00    -0.077 C 
ATOM      3  C   UNL     1      -2.067   3.272  14.511  1.00  0.00    -0.027 C 
ATOM      4  C   UNL     1      -1.493   4.656  14.340  1.00  0.00     0.039 C 
ATOM      5  C   UNL     1      -0.629   4.823  13.028  1.00  0.00    -0.000 C 
ATOM      6  C   UNL     1       0.057   3.440  12.642  1.00  0.00     0.017 C 
ATOM      7  C   UNL     1       0.116   2.431  13.800  1.00  0.00     0.031 C 
ATOM      8  C   UNL     1       0.434   5.904  13.361  1.00  0.00    -0.070 C 
ATOM      9  C   UNL     1       1.663   5.606  13.835  1.00  0.00     0.008 C 
ATOM     10  C   UNL     1      -0.012   7.349  13.474  1.00  0.00     0.031 C 
ATOM     11  C   UNL     1      -0.822   7.780  12.260  1.00  0.00     0.005 C 
ATOM     12  C   UNL     1      -1.984   6.822  12.009  1.00  0.00     0.008 C 
ATOM     13  C   UNL     1      -1.521   5.346  11.798  1.00  0.00    -0.026 C 
ATOM     14  C   UNL     1      -0.718   5.286  10.462  1.00  0.00     0.012 C 
ATOM     15  C   UNL     1      -2.809   4.500  11.605  1.00  0.00     0.012 C 
ENDROOT
TORSDOF 0
ENDMDL
MODEL 7
REMARK VINA RESULT:    -5.059      1.763      3.519
REMARK INTER + INTRA:          -5.059
REMARK INTER:                  -5.059
REMARK INTRA:                   0.000
REMARK UNBOUND:                 0.000
REMARK SMILES C=C1CCCC(C)(C)[C@]12CC=C(C)CC2
REMARK SMILES IDX 13 1 12 2 11 3 10 4 9 5 15 6 14 7 2 8 1 9 3 10 4 11 5 12
REMARK SMILES IDX 6 13 7 14 8 15
REMARK H PARENT
REMARK Flexibility Score: inf
ROOT
ATOM      1  C   UNL     1      -0.529   2.451  15.591  1.00  0.00     0.039 C 
ATOM      2  C   UNL     1      -1.350   3.456  14.833  1.00  0.00    -0.077 C 
ATOM      3  C   UNL     1      -2.415   3.059  14.121  1.00  0.00    -0.027 C 
ATOM      4  C   UNL     1      -3.225   4.080  13.363  1.00  0.00     0.039 C 
ATOM      5  C   UNL     1      -2.343   5.109  12.551  1.00  0.00    -0.000 C 
ATOM      6  C   UNL     1      -0.950   5.336  13.285  1.00  0.00     0.017 C 
ATOM      7  C   UNL     1      -0.947   4.907  14.760  1.00  0.00     0.031 C 
ATOM      8  C   UNL     1      -3.171   6.422  12.500  1.00  0.00    -0.070 C 
ATOM      9  C   UNL     1      -3.043   7.409  13.412  1.00  0.00     0.008 C 
ATOM     10  C   UNL     1      -4.391   6.475  11.600  1.00  0.00     0.031 C 
ATOM     11  C   UNL     1      -4.063   6.017  10.186  1.00  0.00     0.005 C 
ATOM     12  C   UNL     1      -3.396   4.643  10.197  1.00  0.00     0.008 C 
ATOM     13  C   UNL     1      -2.087   4.608  11.047  1.00  0.00    -0.026 C 
ATOM     14  C   UNL     1      -1.032   5.508  10.331  1.00  0.00     0.012 C 
ATOM     15  C   UNL     1      -1.564   3.147  10.995  1.00  0.00     0.012 C 
ENDROOT
TORSDOF 0
ENDMDL
MODEL 8
REMARK VINA RESULT:    -5.042      2.077      3.655
REMARK INTER + INTRA:          -5.042
REMARK INTER:                  -5.042
REMARK INTRA:                   0.000
REMARK UNBOUND:                 0.000
REMARK SMILES C=C1CCCC(C)(C)[C@]12CC=C(C)CC2
REMARK SMILES IDX 13 1 12 2 11 3 10 4 9 5 15 6 14 7 2 8 1 9 3 10 4 11 5 12
REMARK SMILES IDX 6 13 7 14 8 15
REMARK H PARENT
REMARK Flexibility Score: inf
ROOT
ATOM      1  C   UNL     1      -0.035   2.116  12.998  1.00  0.00     0.039 C 
ATOM      2  C   UNL     1      -1.186   2.906  12.443  1.00  0.00    -0.077 C 
ATOM      3  C   UNL     1      -1.325   3.058  11.117  1.00  0.00    -0.027 C 
ATOM      4  C   UNL     1      -2.484   3.858  10.577  1.00  0.00     0.039 C 
ATOM      5  C   UNL     1      -2.719   5.221  11.339  1.00  0.00    -0.000 C 
ATOM      6  C   UNL     1      -2.265   5.087  12.858  1.00  0.00     0.017 C 
ATOM      7  C   UNL     1      -2.149   3.634  13.346  1.00  0.00     0.031 C 
ATOM      8  C   UNL     1      -4.242   5.505  11.230  1.00  0.00    -0.070 C 
ATOM      9  C   UNL     1      -5.132   5.113  12.167  1.00  0.00     0.008 C 
ATOM     10  C   UNL     1      -4.804   5.942   9.892  1.00  0.00     0.031 C 
ATOM     11  C   UNL     1      -4.020   7.110   9.311  1.00  0.00     0.005 C 
ATOM     12  C   UNL     1      -2.528   6.790   9.248  1.00  0.00     0.008 C 
ATOM     13  C   UNL     1      -1.924   6.431  10.643  1.00  0.00    -0.026 C 
ATOM     14  C   UNL     1      -1.974   7.714  11.527  1.00  0.00     0.012 C 
ATOM     15  C   UNL     1      -0.428   6.090  10.402  1.00  0.00     0.012 C 
ENDROOT
TORSDOF 0
ENDMDL
