MODEL 1
REMARK VINA RESULT:    -4.296      0.000      0.000
REMARK INTER + INTRA:         -10.842
REMARK INTER:                  -8.063
REMARK INTRA:                  -2.779
REMARK UNBOUND:                -2.779
REMARK SMILES CCCCCCCCC=CCCCCCCCC(=O)[O-]
REMARK SMILES IDX 10 1 9 2 11 3 12 4 13 5 14 6 15 7 16 8 17 9 18 10 19 11
REMARK SMILES IDX 20 12 8 13 7 14 6 15 5 16 4 17 3 18 2 19 1 20
REMARK H PARENT
REMARK Flexibility Score: inf
ROOT
ATOM      1  C   UNL     1      41.064  23.183 223.613  1.00  0.00    -0.031 C 
ATOM      2  C   UNL     1      41.093  22.245 222.648  1.00  0.00    -0.031 C 
ENDROOT
BRANCH   1   3
ATOM      3  C   UNL     1      42.076  23.306 224.724  1.00  0.00     0.027 C 
BRANCH   3   4
ATOM      4  C   UNL     1      42.232  24.752 225.225  1.00  0.00     0.004 C 
BRANCH   4   5
ATOM      5  C   UNL     1      41.252  25.120 226.359  1.00  0.00     0.000 C 
BRANCH   5   6
ATOM      6  C   UNL     1      40.763  26.574 226.263  1.00  0.00     0.000 C 
BRANCH   6   7
ATOM      7  C   UNL     1      39.278  26.681 225.877  1.00  0.00     0.000 C 
BRANCH   7   8
ATOM      8  C   UNL     1      38.582  25.314 225.705  1.00  0.00     0.006 C 
BRANCH   8   9
ATOM      9  C   UNL     1      37.798  25.224 224.389  1.00  0.00     0.053 C 
BRANCH   9  10
ATOM     10  C   UNL     1      36.335  25.071 224.660  1.00  0.00     0.041 C 
ATOM     11  O   UNL     1      35.688  24.128 224.132  1.00  0.00    -0.550 OA
ATOM     12  O   UNL     1      35.676  25.994 225.460  1.00  0.00    -0.550 OA
ENDBRANCH   9  10
ENDBRANCH   8   9
ENDBRANCH   7   8
ENDBRANCH   6   7
ENDBRANCH   5   6
ENDBRANCH   4   5
ENDBRANCH   3   4
ENDBRANCH   1   3
BRANCH   2  13
ATOM     13  C   UNL     1      42.081  21.106 222.585  1.00  0.00     0.027 C 
BRANCH  13  14
ATOM     14  C   UNL     1      41.389  19.734 222.669  1.00  0.00     0.004 C 
BRANCH  14  15
ATOM     15  C   UNL     1      40.828  19.389 224.061  1.00  0.00     0.000 C 
BRANCH  15  16
ATOM     16  C   UNL     1      41.833  19.661 225.192  1.00  0.00     0.000 C 
BRANCH  16  17
ATOM     17  C   UNL     1      41.155  20.105 226.500  1.00  0.00    -0.000 C 
BRANCH  17  18
ATOM     18  C   UNL     1      39.614  20.144 226.464  1.00  0.00    -0.000 C 
BRANCH  18  19
ATOM     19  C   UNL     1      39.002  21.541 226.263  1.00  0.00    -0.003 C 
ATOM     20  C   UNL     1      38.099  21.624 225.033  1.00  0.00     0.004 C 
ENDBRANCH  18  19
ENDBRANCH  17  18
ENDBRANCH  16  17
ENDBRANCH  15  16
ENDBRANCH  14  15
ENDBRANCH  13  14
ENDBRANCH   2  13
TORSDOF 15
ENDMDL
MODEL 2
REMARK VINA RESULT:    -4.218      2.460      5.264
REMARK INTER + INTRA:         -10.696
REMARK INTER:                  -7.709
REMARK INTRA:                  -2.987
REMARK UNBOUND:                -2.779
REMARK SMILES CCCCCCCCC=CCCCCCCCC(=O)[O-]
REMARK SMILES IDX 10 1 9 2 11 3 12 4 13 5 14 6 15 7 16 8 17 9 18 10 19 11
REMARK SMILES IDX 20 12 8 13 7 14 6 15 5 16 4 17 3 18 2 19 1 20
REMARK H PARENT
REMARK Flexibility Score: inf
ROOT
ATOM      1  C   UNL     1      38.062  25.628 225.284  1.00  0.00    -0.031 C 
ATOM      2  C   UNL     1      38.383  25.449 223.990  1.00  0.00    -0.031 C 
ENDROOT
BRANCH   1   3
ATOM      3  C   UNL     1      37.528  24.552 226.194  1.00  0.00     0.027 C 
BRANCH   3   4
ATOM      4  C   UNL     1      38.536  24.142 227.281  1.00  0.00     0.004 C 
BRANCH   4   5
ATOM      5  C   UNL     1      39.167  22.753 227.045  1.00  0.00     0.000 C 
BRANCH   5   6
ATOM      6  C   UNL     1      38.427  21.947 225.966  1.00  0.00     0.000 C 
BRANCH   6   7
ATOM      7  C   UNL     1      39.247  20.757 225.440  1.00  0.00     0.000 C 
BRANCH   7   8
ATOM      8  C   UNL     1      38.540  19.395 225.607  1.00  0.00     0.006 C 
BRANCH   8   9
ATOM      9  C   UNL     1      37.410  19.450 226.643  1.00  0.00     0.053 C 
BRANCH   9  10
ATOM     10  C   UNL     1      36.108  19.060 226.020  1.00  0.00     0.041 C 
ATOM     11  O   UNL     1      35.071  19.741 226.237  1.00  0.00    -0.550 OA
ATOM     12  O   UNL     1      36.029  17.918 225.233  1.00  0.00    -0.550 OA
ENDBRANCH   9  10
ENDBRANCH   8   9
ENDBRANCH   7   8
ENDBRANCH   6   7
ENDBRANCH   5   6
ENDBRANCH   4   5
ENDBRANCH   3   4
ENDBRANCH   1   3
BRANCH   2  13
ATOM     13  C   UNL     1      38.163  24.172 223.217  1.00  0.00     0.027 C 
BRANCH  13  14
ATOM     14  C   UNL     1      39.488  23.526 222.776  1.00  0.00     0.004 C 
BRANCH  14  15
ATOM     15  C   UNL     1      40.746  24.181 223.376  1.00  0.00     0.000 C 
BRANCH  15  16
ATOM     16  C   UNL     1      41.645  23.176 224.115  1.00  0.00     0.000 C 
BRANCH  16  17
ATOM     17  C   UNL     1      42.253  23.754 225.405  1.00  0.00    -0.000 C 
BRANCH  17  18
ATOM     18  C   UNL     1      42.328  25.293 225.467  1.00  0.00    -0.000 C 
BRANCH  18  19
ATOM     19  C   UNL     1      41.609  25.933 226.666  1.00  0.00    -0.003 C 
ATOM     20  C   UNL     1      41.110  27.348 226.376  1.00  0.00     0.004 C 
ENDBRANCH  18  19
ENDBRANCH  17  18
ENDBRANCH  16  17
ENDBRANCH  15  16
ENDBRANCH  14  15
ENDBRANCH  13  14
ENDBRANCH   2  13
TORSDOF 15
ENDMDL
MODEL 3
REMARK VINA RESULT:    -4.123      2.323      5.203
REMARK INTER + INTRA:         -10.517
REMARK INTER:                  -7.664
REMARK INTRA:                  -2.852
REMARK UNBOUND:                -2.779
REMARK SMILES CCCCCCCCC=CCCCCCCCC(=O)[O-]
REMARK SMILES IDX 10 1 9 2 11 3 12 4 13 5 14 6 15 7 16 8 17 9 18 10 19 11
REMARK SMILES IDX 20 12 8 13 7 14 6 15 5 16 4 17 3 18 2 19 1 20
REMARK H PARENT
REMARK Flexibility Score: inf
ROOT
ATOM      1  C   UNL     1      41.684  23.552 224.440  1.00  0.00    -0.031 C 
ATOM      2  C   UNL     1      40.966  23.850 223.342  1.00  0.00    -0.031 C 
ENDROOT
BRANCH   1   3
ATOM      3  C   UNL     1      41.535  22.287 225.248  1.00  0.00     0.027 C 
BRANCH   3   4
ATOM      4  C   UNL     1      40.602  22.466 226.458  1.00  0.00     0.004 C 
BRANCH   4   5
ATOM      5  C   UNL     1      39.398  21.501 226.456  1.00  0.00     0.000 C 
BRANCH   5   6
ATOM      6  C   UNL     1      39.519  20.412 225.378  1.00  0.00     0.000 C 
BRANCH   6   7
ATOM      7  C   UNL     1      38.650  19.178 225.674  1.00  0.00     0.000 C 
BRANCH   7   8
ATOM      8  C   UNL     1      38.179  19.089 227.142  1.00  0.00     0.006 C 
BRANCH   8   9
ATOM      9  C   UNL     1      36.747  18.550 227.260  1.00  0.00     0.053 C 
BRANCH   9  10
ATOM     10  C   UNL     1      35.779  19.491 226.617  1.00  0.00     0.041 C 
ATOM     11  O   UNL     1      34.926  19.061 225.796  1.00  0.00    -0.550 OA
ATOM     12  O   UNL     1      35.844  20.851 226.892  1.00  0.00    -0.550 OA
ENDBRANCH   9  10
ENDBRANCH   8   9
ENDBRANCH   7   8
ENDBRANCH   6   7
ENDBRANCH   5   6
ENDBRANCH   4   5
ENDBRANCH   3   4
ENDBRANCH   1   3
BRANCH   2  13
ATOM     13  C   UNL     1      39.828  23.017 222.805  1.00  0.00     0.027 C 
BRANCH  13  14
ATOM     14  C   UNL     1      38.493  23.783 222.815  1.00  0.00     0.004 C 
BRANCH  14  15
ATOM     15  C   UNL     1      37.466  23.257 223.835  1.00  0.00     0.000 C 
BRANCH  15  16
ATOM     16  C   UNL     1      37.367  24.141 225.089  1.00  0.00     0.000 C 
BRANCH  16  17
ATOM     17  C   UNL     1      37.964  25.545 224.880  1.00  0.00    -0.000 C 
BRANCH  17  18
ATOM     18  C   UNL     1      39.145  25.902 225.804  1.00  0.00    -0.000 C 
BRANCH  18  19
ATOM     19  C   UNL     1      38.750  26.362 227.218  1.00  0.00    -0.003 C 
ATOM     20  C   UNL     1      38.922  25.267 228.270  1.00  0.00     0.004 C 
ENDBRANCH  18  19
ENDBRANCH  17  18
ENDBRANCH  16  17
ENDBRANCH  15  16
ENDBRANCH  14  15
ENDBRANCH  13  14
ENDBRANCH   2  13
TORSDOF 15
ENDMDL
MODEL 4
REMARK VINA RESULT:    -4.119      2.078      4.176
REMARK INTER + INTRA:         -10.510
REMARK INTER:                  -7.911
REMARK INTRA:                  -2.599
REMARK UNBOUND:                -2.779
REMARK SMILES CCCCCCCCC=CCCCCCCCC(=O)[O-]
REMARK SMILES IDX 10 1 9 2 11 3 12 4 13 5 14 6 15 7 16 8 17 9 18 10 19 11
REMARK SMILES IDX 20 12 8 13 7 14 6 15 5 16 4 17 3 18 2 19 1 20
REMARK H PARENT
REMARK Flexibility Score: inf
ROOT
ATOM      1  C   UNL     1      41.714  26.718 226.687  1.00  0.00    -0.031 C 
ATOM      2  C   UNL     1      40.528  27.201 226.274  1.00  0.00    -0.031 C 
ENDROOT
BRANCH   1   3
ATOM      3  C   UNL     1      42.116  25.265 226.635  1.00  0.00     0.027 C 
BRANCH   3   4
ATOM      4  C   UNL     1      42.399  24.782 225.203  1.00  0.00     0.004 C 
BRANCH   4   5
ATOM      5  C   UNL     1      41.679  23.466 224.842  1.00  0.00     0.000 C 
BRANCH   5   6
ATOM      6  C   UNL     1      41.357  23.364 223.342  1.00  0.00     0.000 C 
BRANCH   6   7
ATOM      7  C   UNL     1      40.055  24.089 222.960  1.00  0.00     0.000 C 
BRANCH   7   8
ATOM      8  C   UNL     1      38.781  23.395 223.487  1.00  0.00     0.006 C 
BRANCH   8   9
ATOM      9  C   UNL     1      37.555  23.695 222.615  1.00  0.00     0.053 C 
BRANCH   9  10
ATOM     10  C   UNL     1      36.594  24.576 223.348  1.00  0.00     0.041 C 
ATOM     11  O   UNL     1      35.520  24.103 223.804  1.00  0.00    -0.550 OA
ATOM     12  O   UNL     1      36.864  25.932 223.490  1.00  0.00    -0.550 OA
ENDBRANCH   9  10
ENDBRANCH   8   9
ENDBRANCH   7   8
ENDBRANCH   6   7
ENDBRANCH   5   6
ENDBRANCH   4   5
ENDBRANCH   3   4
ENDBRANCH   1   3
BRANCH   2  13
ATOM     13  C   UNL     1      39.375  26.356 225.792  1.00  0.00     0.027 C 
BRANCH  13  14
ATOM     14  C   UNL     1      38.399  26.003 226.929  1.00  0.00     0.004 C 
BRANCH  14  15
ATOM     15  C   UNL     1      37.892  24.549 226.902  1.00  0.00     0.000 C 
BRANCH  15  16
ATOM     16  C   UNL     1      38.966  23.537 227.331  1.00  0.00     0.000 C 
BRANCH  16  17
ATOM     17  C   UNL     1      38.601  22.087 226.965  1.00  0.00    -0.000 C 
BRANCH  17  18
ATOM     18  C   UNL     1      37.174  21.885 226.416  1.00  0.00    -0.000 C 
BRANCH  18  19
ATOM     19  C   UNL     1      36.809  20.432 226.069  1.00  0.00    -0.003 C 
ATOM     20  C   UNL     1      37.090  19.457 227.212  1.00  0.00     0.004 C 
ENDBRANCH  18  19
ENDBRANCH  17  18
ENDBRANCH  16  17
ENDBRANCH  15  16
ENDBRANCH  14  15
ENDBRANCH  13  14
ENDBRANCH   2  13
TORSDOF 15
ENDMDL
MODEL 5
REMARK VINA RESULT:    -4.119      2.387      5.056
REMARK INTER + INTRA:         -10.510
REMARK INTER:                  -7.590
REMARK INTRA:                  -2.920
REMARK UNBOUND:                -2.779
REMARK SMILES CCCCCCCCC=CCCCCCCCC(=O)[O-]
REMARK SMILES IDX 10 1 9 2 11 3 12 4 13 5 14 6 15 7 16 8 17 9 18 10 19 11
REMARK SMILES IDX 20 12 8 13 7 14 6 15 5 16 4 17 3 18 2 19 1 20
REMARK H PARENT
REMARK Flexibility Score: inf
ROOT
ATOM      1  C   UNL     1      38.876  24.218 223.466  1.00  0.00    -0.031 C 
ATOM      2  C   UNL     1      40.103  23.937 222.988  1.00  0.00    -0.031 C 
ENDROOT
BRANCH   1   3
ATOM      3  C   UNL     1      37.861  23.186 223.889  1.00  0.00     0.027 C 
BRANCH   3   4
ATOM      4  C   UNL     1      37.344  23.419 225.319  1.00  0.00     0.004 C 
BRANCH   4   5
ATOM      5  C   UNL     1      37.825  22.357 226.330  1.00  0.00     0.000 C 
BRANCH   5   6
ATOM      6  C   UNL     1      38.448  21.131 225.643  1.00  0.00     0.000 C 
BRANCH   6   7
ATOM      7  C   UNL     1      38.900  20.051 226.641  1.00  0.00     0.000 C 
BRANCH   7   8
ATOM      8  C   UNL     1      37.851  19.732 227.727  1.00  0.00     0.006 C 
BRANCH   8   9
ATOM      9  C   UNL     1      37.041  18.471 227.398  1.00  0.00     0.053 C 
BRANCH   9  10
ATOM     10  C   UNL     1      36.025  18.762 226.340  1.00  0.00     0.041 C 
ATOM     11  O   UNL     1      35.963  18.046 225.306  1.00  0.00    -0.550 OA
ATOM     12  O   UNL     1      35.173  19.850 226.476  1.00  0.00    -0.550 OA
ENDBRANCH   9  10
ENDBRANCH   8   9
ENDBRANCH   7   8
ENDBRANCH   6   7
ENDBRANCH   5   6
ENDBRANCH   4   5
ENDBRANCH   3   4
ENDBRANCH   1   3
BRANCH   2  13
ATOM     13  C   UNL     1      40.618  22.548 222.704  1.00  0.00     0.027 C 
BRANCH  13  14
ATOM     14  C   UNL     1      41.486  22.006 223.854  1.00  0.00     0.004 C 
BRANCH  14  15
ATOM     15  C   UNL     1      42.077  23.093 224.771  1.00  0.00     0.000 C 
BRANCH  15  16
ATOM     16  C   UNL     1      41.597  22.969 226.226  1.00  0.00     0.000 C 
BRANCH  16  17
ATOM     17  C   UNL     1      41.020  24.284 226.780  1.00  0.00    -0.000 C 
BRANCH  17  18
ATOM     18  C   UNL     1      41.494  25.564 226.062  1.00  0.00    -0.000 C 
BRANCH  18  19
ATOM     19  C   UNL     1      40.644  26.817 226.336  1.00  0.00    -0.003 C 
ATOM     20  C   UNL     1      39.142  26.535 226.305  1.00  0.00     0.004 C 
ENDBRANCH  18  19
ENDBRANCH  17  18
ENDBRANCH  16  17
ENDBRANCH  15  16
ENDBRANCH  14  15
ENDBRANCH  13  14
ENDBRANCH   2  13
TORSDOF 15
ENDMDL
MODEL 6
REMARK VINA RESULT:    -4.110      2.693      5.510
REMARK INTER + INTRA:         -10.494
REMARK INTER:                  -7.778
REMARK INTRA:                  -2.715
REMARK UNBOUND:                -2.779
REMARK SMILES CCCCCCCCC=CCCCCCCCC(=O)[O-]
REMARK SMILES IDX 10 1 9 2 11 3 12 4 13 5 14 6 15 7 16 8 17 9 18 10 19 11
REMARK SMILES IDX 20 12 8 13 7 14 6 15 5 16 4 17 3 18 2 19 1 20
REMARK H PARENT
REMARK Flexibility Score: inf
ROOT
ATOM      1  C   UNL     1      42.081  23.683 224.872  1.00  0.00    -0.031 C 
ATOM      2  C   UNL     1      42.122  24.635 225.822  1.00  0.00    -0.031 C 
ENDROOT
BRANCH   1   3
ATOM      3  C   UNL     1      41.011  23.570 223.815  1.00  0.00     0.027 C 
BRANCH   3   4
ATOM      4  C   UNL     1      40.186  22.278 223.945  1.00  0.00     0.004 C 
BRANCH   4   5
ATOM      5  C   UNL     1      40.478  21.487 225.237  1.00  0.00     0.000 C 
BRANCH   5   6
ATOM      6  C   UNL     1      39.239  20.749 225.768  1.00  0.00     0.000 C 
BRANCH   6   7
ATOM      7  C   UNL     1      38.561  21.481 226.938  1.00  0.00     0.000 C 
BRANCH   7   8
ATOM      8  C   UNL     1      37.251  20.816 227.411  1.00  0.00     0.006 C 
BRANCH   8   9
ATOM      9  C   UNL     1      36.393  20.325 226.237  1.00  0.00     0.053 C 
BRANCH   9  10
ATOM     10  C   UNL     1      36.061  18.876 226.400  1.00  0.00     0.041 C 
ATOM     11  O   UNL     1      35.860  18.397 227.547  1.00  0.00    -0.550 OA
ATOM     12  O   UNL     1      36.016  18.044 225.289  1.00  0.00    -0.550 OA
ENDBRANCH   9  10
ENDBRANCH   8   9
ENDBRANCH   7   8
ENDBRANCH   6   7
ENDBRANCH   5   6
ENDBRANCH   4   5
ENDBRANCH   3   4
ENDBRANCH   1   3
BRANCH   2  13
ATOM     13  C   UNL     1      41.052  25.676 226.045  1.00  0.00     0.027 C 
BRANCH  13  14
ATOM     14  C   UNL     1      39.908  25.151 226.930  1.00  0.00     0.004 C 
BRANCH  14  15
ATOM     15  C   UNL     1      38.498  25.499 226.418  1.00  0.00     0.000 C 
BRANCH  15  16
ATOM     16  C   UNL     1      38.501  26.011 224.969  1.00  0.00     0.000 C 
BRANCH  16  17
ATOM     17  C   UNL     1      37.390  25.381 224.110  1.00  0.00    -0.000 C 
BRANCH  17  18
ATOM     18  C   UNL     1      36.921  23.983 224.561  1.00  0.00    -0.000 C 
BRANCH  18  19
ATOM     19  C   UNL     1      36.442  23.059 223.428  1.00  0.00    -0.003 C 
ATOM     20  C   UNL     1      36.484  23.730 222.055  1.00  0.00     0.004 C 
ENDBRANCH  18  19
ENDBRANCH  17  18
ENDBRANCH  16  17
ENDBRANCH  15  16
ENDBRANCH  14  15
ENDBRANCH  13  14
ENDBRANCH   2  13
TORSDOF 15
ENDMDL
MODEL 7
REMARK VINA RESULT:    -4.083      2.016      3.825
REMARK INTER + INTRA:         -10.442
REMARK INTER:                  -7.718
REMARK INTRA:                  -2.724
REMARK UNBOUND:                -2.779
REMARK SMILES CCCCCCCCC=CCCCCCCCC(=O)[O-]
REMARK SMILES IDX 10 1 9 2 11 3 12 4 13 5 14 6 15 7 16 8 17 9 18 10 19 11
REMARK SMILES IDX 20 12 8 13 7 14 6 15 5 16 4 17 3 18 2 19 1 20
REMARK H PARENT
REMARK Flexibility Score: inf
ROOT
ATOM      1  C   UNL     1      39.585  24.296 226.813  1.00  0.00    -0.031 C 
ATOM      2  C   UNL     1      38.784  23.214 226.809  1.00  0.00    -0.031 C 
ENDROOT
BRANCH   1   3
ATOM      3  C   UNL     1      41.088  24.253 226.706  1.00  0.00     0.027 C 
BRANCH   3   4
ATOM      4  C   UNL     1      41.600  24.794 225.360  1.00  0.00     0.004 C 
BRANCH   4   5
ATOM      5  C   UNL     1      41.549  23.756 224.219  1.00  0.00     0.000 C 
BRANCH   5   6
ATOM      6  C   UNL     1      40.510  24.115 223.144  1.00  0.00     0.000 C 
BRANCH   6   7
ATOM      7  C   UNL     1      39.414  23.046 222.992  1.00  0.00     0.000 C 
BRANCH   7   8
ATOM      8  C   UNL     1      37.987  23.629 222.913  1.00  0.00     0.006 C 
BRANCH   8   9
ATOM      9  C   UNL     1      37.887  25.010 223.572  1.00  0.00     0.053 C 
BRANCH   9  10
ATOM     10  C   UNL     1      36.626  25.121 224.368  1.00  0.00     0.041 C 
ATOM     11  O   UNL     1      36.568  25.894 225.361  1.00  0.00    -0.550 OA
ATOM     12  O   UNL     1      35.526  24.338 224.041  1.00  0.00    -0.550 OA
ENDBRANCH   9  10
ENDBRANCH   8   9
ENDBRANCH   7   8
ENDBRANCH   6   7
ENDBRANCH   5   6
ENDBRANCH   4   5
ENDBRANCH   3   4
ENDBRANCH   1   3
BRANCH   2  13
ATOM     13  C   UNL     1      39.268  21.785 226.799  1.00  0.00     0.027 C 
BRANCH  13  14
ATOM     14  C   UNL     1      38.552  20.938 225.732  1.00  0.00     0.004 C 
BRANCH  14  15
ATOM     15  C   UNL     1      37.040  21.205 225.618  1.00  0.00     0.000 C 
BRANCH  15  16
ATOM     16  C   UNL     1      36.213  20.375 226.613  1.00  0.00     0.000 C 
BRANCH  16  17
ATOM     17  C   UNL     1      35.917  18.953 226.105  1.00  0.00    -0.000 C 
BRANCH  17  18
ATOM     18  C   UNL     1      36.346  17.813 227.052  1.00  0.00    -0.000 C 
BRANCH  18  19
ATOM     19  C   UNL     1      37.621  18.089 227.866  1.00  0.00    -0.003 C 
ATOM     20  C   UNL     1      38.882  17.530 227.206  1.00  0.00     0.004 C 
ENDBRANCH  18  19
ENDBRANCH  17  18
ENDBRANCH  16  17
ENDBRANCH  15  16
ENDBRANCH  14  15
ENDBRANCH  13  14
ENDBRANCH   2  13
TORSDOF 15
ENDMDL
MODEL 8
REMARK VINA RESULT:    -4.082      2.864      5.352
REMARK INTER + INTRA:         -10.440
REMARK INTER:                  -7.623
REMARK INTRA:                  -2.817
REMARK UNBOUND:                -2.779
REMARK SMILES CCCCCCCCC=CCCCCCCCC(=O)[O-]
REMARK SMILES IDX 10 1 9 2 11 3 12 4 13 5 14 6 15 7 16 8 17 9 18 10 19 11
REMARK SMILES IDX 20 12 8 13 7 14 6 15 5 16 4 17 3 18 2 19 1 20
REMARK H PARENT
REMARK Flexibility Score: inf
ROOT
ATOM      1  C   UNL     1      41.963  21.025 224.547  1.00  0.00    -0.031 C 
ATOM      2  C   UNL     1      42.027  21.876 223.506  1.00  0.00    -0.031 C 
ENDROOT
BRANCH   1   3
ATOM      3  C   UNL     1      40.726  20.270 224.966  1.00  0.00     0.027 C 
BRANCH   3   4
ATOM      4  C   UNL     1      40.308  20.578 226.414  1.00  0.00     0.004 C 
BRANCH   4   5
ATOM      5  C   UNL     1      39.070  21.492 226.517  1.00  0.00     0.000 C 
BRANCH   5   6
ATOM      6  C   UNL     1      38.262  21.538 225.210  1.00  0.00     0.000 C 
BRANCH   6   7
ATOM      7  C   UNL     1      36.781  21.175 225.408  1.00  0.00     0.000 C 
BRANCH   7   8
ATOM      8  C   UNL     1      36.478  20.533 226.779  1.00  0.00     0.006 C 
BRANCH   8   9
ATOM      9  C   UNL     1      35.908  19.116 226.643  1.00  0.00     0.053 C 
BRANCH   9  10
ATOM     10  C   UNL     1      36.850  18.113 227.228  1.00  0.00     0.041 C 
ATOM     11  O   UNL     1      36.555  17.512 228.295  1.00  0.00    -0.550 OA
ATOM     12  O   UNL     1      38.074  17.872 226.618  1.00  0.00    -0.550 OA
ENDBRANCH   9  10
ENDBRANCH   8   9
ENDBRANCH   7   8
ENDBRANCH   6   7
ENDBRANCH   5   6
ENDBRANCH   4   5
ENDBRANCH   3   4
ENDBRANCH   1   3
BRANCH   2  13
ATOM     13  C   UNL     1      40.849  22.288 222.658  1.00  0.00     0.027 C 
BRANCH  13  14
ATOM     14  C   UNL     1      40.275  23.650 223.086  1.00  0.00     0.004 C 
BRANCH  14  15
ATOM     15  C   UNL     1      40.963  24.272 224.315  1.00  0.00     0.000 C 
BRANCH  15  16
ATOM     16  C   UNL     1      39.964  24.898 225.302  1.00  0.00     0.000 C 
BRANCH  16  17
ATOM     17  C   UNL     1      38.698  25.435 224.612  1.00  0.00    -0.000 C 
BRANCH  17  18
ATOM     18  C   UNL     1      37.393  25.285 225.420  1.00  0.00    -0.000 C 
BRANCH  18  19
ATOM     19  C   UNL     1      36.170  24.833 224.604  1.00  0.00    -0.003 C 
ATOM     20  C   UNL     1      36.545  24.265 223.235  1.00  0.00     0.004 C 
ENDBRANCH  18  19
ENDBRANCH  17  18
ENDBRANCH  16  17
ENDBRANCH  15  16
ENDBRANCH  14  15
ENDBRANCH  13  14
ENDBRANCH   2  13
TORSDOF 15
ENDMDL
MODEL 9
REMARK VINA RESULT:    -4.073      2.347      4.520
REMARK INTER + INTRA:         -10.423
REMARK INTER:                  -7.470
REMARK INTRA:                  -2.953
REMARK UNBOUND:                -2.779
REMARK SMILES CCCCCCCCC=CCCCCCCCC(=O)[O-]
REMARK SMILES IDX 10 1 9 2 11 3 12 4 13 5 14 6 15 7 16 8 17 9 18 10 19 11
REMARK SMILES IDX 20 12 8 13 7 14 6 15 5 16 4 17 3 18 2 19 1 20
REMARK H PARENT
REMARK Flexibility Score: inf
ROOT
ATOM      1  C   UNL     1      38.864  24.086 227.358  1.00  0.00    -0.031 C 
ATOM      2  C   UNL     1      38.679  22.767 227.166  1.00  0.00    -0.031 C 
ENDROOT
BRANCH   1   3
ATOM      3  C   UNL     1      37.970  25.168 226.806  1.00  0.00     0.027 C 
BRANCH   3   4
ATOM      4  C   UNL     1      38.575  25.863 225.574  1.00  0.00     0.004 C 
BRANCH   4   5
ATOM      5  C   UNL     1      38.385  25.072 224.264  1.00  0.00     0.000 C 
BRANCH   5   6
ATOM      6  C   UNL     1      37.074  25.430 223.545  1.00  0.00     0.000 C 
BRANCH   6   7
ATOM      7  C   UNL     1      36.004  24.332 223.669  1.00  0.00     0.000 C 
BRANCH   7   8
ATOM      8  C   UNL     1      36.100  23.247 222.575  1.00  0.00     0.006 C 
BRANCH   8   9
ATOM      9  C   UNL     1      36.829  23.750 221.322  1.00  0.00     0.053 C 
BRANCH   9  10
ATOM     10  C   UNL     1      35.876  23.874 220.176  1.00  0.00     0.041 C 
ATOM     11  O   UNL     1      34.633  23.883 220.383  1.00  0.00    -0.550 OA
ATOM     12  O   UNL     1      36.358  23.936 218.875  1.00  0.00    -0.550 OA
ENDBRANCH   9  10
ENDBRANCH   8   9
ENDBRANCH   7   8
ENDBRANCH   6   7
ENDBRANCH   5   6
ENDBRANCH   4   5
ENDBRANCH   3   4
ENDBRANCH   1   3
BRANCH   2  13
ATOM     13  C   UNL     1      37.611  22.166 226.286  1.00  0.00     0.027 C 
BRANCH  13  14
ATOM     14  C   UNL     1      38.207  21.421 225.078  1.00  0.00     0.004 C 
BRANCH  14  15
ATOM     15  C   UNL     1      39.740  21.274 225.114  1.00  0.00     0.000 C 
BRANCH  15  16
ATOM     16  C   UNL     1      40.437  22.028 223.971  1.00  0.00     0.000 C 
BRANCH  16  17
ATOM     17  C   UNL     1      41.809  22.596 224.378  1.00  0.00    -0.000 C 
BRANCH  17  18
ATOM     18  C   UNL     1      41.851  24.121 224.598  1.00  0.00    -0.000 C 
BRANCH  18  19
ATOM     19  C   UNL     1      42.230  24.564 226.021  1.00  0.00    -0.003 C 
ATOM     20  C   UNL     1      42.438  23.387 226.975  1.00  0.00     0.004 C 
ENDBRANCH  18  19
ENDBRANCH  17  18
ENDBRANCH  16  17
ENDBRANCH  15  16
ENDBRANCH  14  15
ENDBRANCH  13  14
ENDBRANCH   2  13
TORSDOF 15
ENDMDL
