MODEL 1
REMARK VINA RESULT:    -5.534      0.000      0.000
REMARK INTER + INTRA:         -15.846
REMARK INTER:                 -12.652
REMARK INTRA:                  -3.194
REMARK UNBOUND:                -3.194
REMARK SMILES CCCCCCCCCCCCCCCCCCCCCCCC(=O)[O-]
REMARK SMILES IDX 13 1 14 2 15 3 16 4 17 5 18 6 19 7 20 8 21 9 22 10 23 11
REMARK SMILES IDX 24 12 25 13 26 14 12 15 11 16 10 17 9 18 8 19 7 20 6 21 5 22
REMARK SMILES IDX 4 23 3 24 2 25 1 26
REMARK H PARENT
REMARK Flexibility Score: inf
ROOT
ATOM      1  C   UNL     1      -8.625  -9.238   8.172  1.00  0.00     0.000 C 
ENDROOT
BRANCH   1   2
ATOM      2  C   UNL     1      -9.465  -8.155   7.472  1.00  0.00     0.000 C 
BRANCH   2   3
ATOM      3  C   UNL     1     -10.860  -7.983   8.097  1.00  0.00     0.000 C 
BRANCH   3   4
ATOM      4  C   UNL     1     -10.799  -7.651   9.597  1.00  0.00     0.000 C 
BRANCH   4   5
ATOM      5  C   UNL     1     -11.231  -8.832  10.484  1.00  0.00     0.000 C 
BRANCH   5   6
ATOM      6  C   UNL     1     -12.649  -8.649  11.065  1.00  0.00     0.000 C 
BRANCH   6   7
ATOM      7  C   UNL     1     -13.761  -9.298  10.215  1.00  0.00     0.000 C 
BRANCH   7   8
ATOM      8  C   UNL     1     -14.657  -8.311   9.443  1.00  0.00     0.000 C 
BRANCH   8   9
ATOM      9  C   UNL     1     -14.624  -6.861   9.960  1.00  0.00     0.000 C 
BRANCH   9  10
ATOM     10  C   UNL     1     -13.932  -5.895   8.988  1.00  0.00     0.006 C 
BRANCH  10  11
ATOM     11  C   UNL     1     -13.246  -4.749   9.745  1.00  0.00     0.053 C 
BRANCH  11  12
ATOM     12  C   UNL     1     -13.853  -3.423   9.402  1.00  0.00     0.041 C 
ATOM     13  O   UNL     1     -13.273  -2.641   8.601  1.00  0.00    -0.550 OA
ATOM     14  O   UNL     1     -15.041  -3.027  10.008  1.00  0.00    -0.550 OA
ENDBRANCH  11  12
ENDBRANCH  10  11
ENDBRANCH   9  10
ENDBRANCH   8   9
ENDBRANCH   7   8
ENDBRANCH   6   7
ENDBRANCH   5   6
ENDBRANCH   4   5
ENDBRANCH   3   4
ENDBRANCH   2   3
ENDBRANCH   1   2
BRANCH   1  15
ATOM     15  C   UNL     1      -8.187 -10.383   7.235  1.00  0.00     0.000 C 
BRANCH  15  16
ATOM     16  C   UNL     1      -8.841 -11.723   7.614  1.00  0.00     0.000 C 
BRANCH  16  17
ATOM     17  C   UNL     1     -10.180 -11.552   8.346  1.00  0.00     0.000 C 
BRANCH  17  18
ATOM     18  C   UNL     1     -10.121 -12.012   9.812  1.00  0.00    -0.000 C 
BRANCH  18  19
ATOM     19  C   UNL     1     -11.456 -12.611  10.290  1.00  0.00    -0.000 C 
BRANCH  19  20
ATOM     20  C   UNL     1     -12.551 -12.548   9.210  1.00  0.00    -0.000 C 
BRANCH  20  21
ATOM     21  C   UNL     1     -13.194 -13.919   8.931  1.00  0.00    -0.000 C 
BRANCH  21  22
ATOM     22  C   UNL     1     -12.261 -14.887   8.173  1.00  0.00    -0.000 C 
BRANCH  22  23
ATOM     23  C   UNL     1     -12.440 -16.343   8.629  1.00  0.00    -0.000 C 
BRANCH  23  24
ATOM     24  C   UNL     1     -11.133 -16.905   9.207  1.00  0.00    -0.000 C 
BRANCH  24  25
ATOM     25  C   UNL     1     -10.101 -15.809   9.515  1.00  0.00    -0.003 C 
ATOM     26  C   UNL     1      -8.932 -15.801   8.531  1.00  0.00     0.004 C 
ENDBRANCH  24  25
ENDBRANCH  23  24
ENDBRANCH  22  23
ENDBRANCH  21  22
ENDBRANCH  20  21
ENDBRANCH  19  20
ENDBRANCH  18  19
ENDBRANCH  17  18
ENDBRANCH  16  17
ENDBRANCH  15  16
ENDBRANCH   1  15
TORSDOF 22
ENDMDL
MODEL 2
REMARK VINA RESULT:    -5.314      2.260      4.456
REMARK INTER + INTRA:         -15.342
REMARK INTER:                 -11.736
REMARK INTRA:                  -3.606
REMARK UNBOUND:                -3.194
REMARK SMILES CCCCCCCCCCCCCCCCCCCCCCCC(=O)[O-]
REMARK SMILES IDX 13 1 14 2 15 3 16 4 17 5 18 6 19 7 20 8 21 9 22 10 23 11
REMARK SMILES IDX 24 12 25 13 26 14 12 15 11 16 10 17 9 18 8 19 7 20 6 21 5 22
REMARK SMILES IDX 4 23 3 24 2 25 1 26
REMARK H PARENT
REMARK Flexibility Score: inf
ROOT
ATOM      1  C   UNL     1     -11.139  -7.523  10.312  1.00  0.00     0.000 C 
ENDROOT
BRANCH   1   2
ATOM      2  C   UNL     1     -12.095  -6.889   9.286  1.00  0.00     0.000 C 
BRANCH   2   3
ATOM      3  C   UNL     1     -12.698  -7.917   8.314  1.00  0.00     0.000 C 
BRANCH   3   4
ATOM      4  C   UNL     1     -14.235  -7.893   8.306  1.00  0.00     0.000 C 
BRANCH   4   5
ATOM      5  C   UNL     1     -14.836  -7.867   9.723  1.00  0.00     0.000 C 
BRANCH   5   6
ATOM      6  C   UNL     1     -15.869  -6.734   9.907  1.00  0.00     0.000 C 
BRANCH   6   7
ATOM      7  C   UNL     1     -15.380  -5.584  10.810  1.00  0.00     0.000 C 
BRANCH   7   8
ATOM      8  C   UNL     1     -14.786  -4.372  10.067  1.00  0.00     0.000 C 
BRANCH   8   9
ATOM      9  C   UNL     1     -15.280  -4.192   8.619  1.00  0.00     0.000 C 
BRANCH   9  10
ATOM     10  C   UNL     1     -14.149  -4.292   7.585  1.00  0.00     0.006 C 
BRANCH  10  11
ATOM     11  C   UNL     1     -14.488  -3.493   6.319  1.00  0.00     0.053 C 
BRANCH  11  12
ATOM     12  C   UNL     1     -14.501  -4.369   5.103  1.00  0.00     0.041 C 
ATOM     13  O   UNL     1     -14.899  -5.562   5.177  1.00  0.00    -0.550 OA
ATOM     14  O   UNL     1     -14.026  -3.878   3.891  1.00  0.00    -0.550 OA
ENDBRANCH  11  12
ENDBRANCH  10  11
ENDBRANCH   9  10
ENDBRANCH   8   9
ENDBRANCH   7   8
ENDBRANCH   6   7
ENDBRANCH   5   6
ENDBRANCH   4   5
ENDBRANCH   3   4
ENDBRANCH   2   3
ENDBRANCH   1   2
BRANCH   1  15
ATOM     15  C   UNL     1     -11.257  -9.059  10.400  1.00  0.00     0.000 C 
BRANCH  15  16
ATOM     16  C   UNL     1     -11.814  -9.519  11.758  1.00  0.00     0.000 C 
BRANCH  16  17
ATOM     17  C   UNL     1     -12.827 -10.667  11.635  1.00  0.00     0.000 C 
BRANCH  17  18
ATOM     18  C   UNL     1     -12.991 -11.164  10.188  1.00  0.00    -0.000 C 
BRANCH  18  19
ATOM     19  C   UNL     1     -13.016 -12.700  10.098  1.00  0.00    -0.000 C 
BRANCH  19  20
ATOM     20  C   UNL     1     -12.084 -13.242   8.999  1.00  0.00    -0.000 C 
BRANCH  20  21
ATOM     21  C   UNL     1     -11.078 -12.190   8.497  1.00  0.00    -0.000 C 
BRANCH  21  22
ATOM     22  C   UNL     1      -9.813 -12.810   7.867  1.00  0.00    -0.000 C 
BRANCH  22  23
ATOM     23  C   UNL     1      -8.877 -11.744   7.275  1.00  0.00    -0.000 C 
BRANCH  23  24
ATOM     24  C   UNL     1      -9.287 -10.336   7.731  1.00  0.00    -0.000 C 
BRANCH  24  25
ATOM     25  C   UNL     1      -8.207  -9.281   7.442  1.00  0.00    -0.003 C 
ATOM     26  C   UNL     1      -8.788  -7.892   7.184  1.00  0.00     0.004 C 
ENDBRANCH  24  25
ENDBRANCH  23  24
ENDBRANCH  22  23
ENDBRANCH  21  22
ENDBRANCH  20  21
ENDBRANCH  19  20
ENDBRANCH  18  19
ENDBRANCH  17  18
ENDBRANCH  16  17
ENDBRANCH  15  16
ENDBRANCH   1  15
TORSDOF 22
ENDMDL
MODEL 3
REMARK VINA RESULT:    -5.290      2.176      4.145
REMARK INTER + INTRA:         -15.287
REMARK INTER:                 -11.698
REMARK INTRA:                  -3.589
REMARK UNBOUND:                -3.194
REMARK SMILES CCCCCCCCCCCCCCCCCCCCCCCC(=O)[O-]
REMARK SMILES IDX 13 1 14 2 15 3 16 4 17 5 18 6 19 7 20 8 21 9 22 10 23 11
REMARK SMILES IDX 24 12 25 13 26 14 12 15 11 16 10 17 9 18 8 19 7 20 6 21 5 22
REMARK SMILES IDX 4 23 3 24 2 25 1 26
REMARK H PARENT
REMARK Flexibility Score: inf
ROOT
ATOM      1  C   UNL     1     -12.753  -8.001   6.859  1.00  0.00     0.000 C 
ENDROOT
BRANCH   1   2
ATOM      2  C   UNL     1     -13.485  -7.114   7.882  1.00  0.00     0.000 C 
BRANCH   2   3
ATOM      3  C   UNL     1     -15.001  -7.370   7.920  1.00  0.00     0.000 C 
BRANCH   3   4
ATOM      4  C   UNL     1     -15.542  -7.508   9.353  1.00  0.00     0.000 C 
BRANCH   4   5
ATOM      5  C   UNL     1     -14.857  -6.547  10.341  1.00  0.00     0.000 C 
BRANCH   5   6
ATOM      6  C   UNL     1     -15.766  -5.367  10.745  1.00  0.00     0.000 C 
BRANCH   6   7
ATOM      7  C   UNL     1     -15.207  -3.984  10.354  1.00  0.00     0.000 C 
BRANCH   7   8
ATOM      8  C   UNL     1     -13.843  -4.007   9.638  1.00  0.00     0.000 C 
BRANCH   8   9
ATOM      9  C   UNL     1     -13.789  -3.217   8.317  1.00  0.00     0.000 C 
BRANCH   9  10
ATOM     10  C   UNL     1     -14.868  -3.654   7.315  1.00  0.00     0.006 C 
BRANCH  10  11
ATOM     11  C   UNL     1     -14.693  -2.937   5.970  1.00  0.00     0.053 C 
BRANCH  11  12
ATOM     12  C   UNL     1     -14.406  -3.906   4.864  1.00  0.00     0.041 C 
ATOM     13  O   UNL     1     -14.363  -5.145   5.093  1.00  0.00    -0.550 OA
ATOM     14  O   UNL     1     -14.137  -3.435   3.583  1.00  0.00    -0.550 OA
ENDBRANCH  11  12
ENDBRANCH  10  11
ENDBRANCH   9  10
ENDBRANCH   8   9
ENDBRANCH   7   8
ENDBRANCH   6   7
ENDBRANCH   5   6
ENDBRANCH   4   5
ENDBRANCH   3   4
ENDBRANCH   2   3
ENDBRANCH   1   2
BRANCH   1  15
ATOM     15  C   UNL     1     -11.696  -8.930   7.492  1.00  0.00     0.000 C 
BRANCH  15  16
ATOM     16  C   UNL     1     -10.648  -8.148   8.301  1.00  0.00     0.000 C 
BRANCH  16  17
ATOM     17  C   UNL     1     -10.427  -8.719   9.710  1.00  0.00     0.000 C 
BRANCH  17  18
ATOM     18  C   UNL     1     -11.638  -8.508  10.635  1.00  0.00    -0.000 C 
BRANCH  18  19
ATOM     19  C   UNL     1     -11.976  -9.768  11.451  1.00  0.00    -0.000 C 
BRANCH  19  20
ATOM     20  C   UNL     1     -13.245 -10.477  10.945  1.00  0.00    -0.000 C 
BRANCH  20  21
ATOM     21  C   UNL     1     -12.951 -11.851  10.315  1.00  0.00    -0.000 C 
BRANCH  21  22
ATOM     22  C   UNL     1     -11.456 -12.231  10.353  1.00  0.00    -0.000 C 
BRANCH  22  23
ATOM     23  C   UNL     1     -11.184 -13.583   9.677  1.00  0.00    -0.000 C 
BRANCH  23  24
ATOM     24  C   UNL     1     -10.100 -13.453   8.598  1.00  0.00    -0.000 C 
BRANCH  24  25
ATOM     25  C   UNL     1     -10.284 -12.205   7.719  1.00  0.00    -0.003 C 
ATOM     26  C   UNL     1      -8.967 -11.491   7.419  1.00  0.00     0.004 C 
ENDBRANCH  24  25
ENDBRANCH  23  24
ENDBRANCH  22  23
ENDBRANCH  21  22
ENDBRANCH  20  21
ENDBRANCH  19  20
ENDBRANCH  18  19
ENDBRANCH  17  18
ENDBRANCH  16  17
ENDBRANCH  15  16
ENDBRANCH   1  15
TORSDOF 22
ENDMDL
MODEL 4
REMARK VINA RESULT:    -5.205      3.033      8.869
REMARK INTER + INTRA:         -15.094
REMARK INTER:                 -11.964
REMARK INTRA:                  -3.130
REMARK UNBOUND:                -3.194
REMARK SMILES CCCCCCCCCCCCCCCCCCCCCCCC(=O)[O-]
REMARK SMILES IDX 13 1 14 2 15 3 16 4 17 5 18 6 19 7 20 8 21 9 22 10 23 11
REMARK SMILES IDX 24 12 25 13 26 14 12 15 11 16 10 17 9 18 8 19 7 20 6 21 5 22
REMARK SMILES IDX 4 23 3 24 2 25 1 26
REMARK H PARENT
REMARK Flexibility Score: inf
ROOT
ATOM      1  C   UNL     1     -12.038  -7.508   9.973  1.00  0.00     0.000 C 
ENDROOT
BRANCH   1   2
ATOM      2  C   UNL     1     -12.598  -8.867  10.430  1.00  0.00     0.000 C 
BRANCH   2   3
ATOM      3  C   UNL     1     -11.800  -9.484  11.591  1.00  0.00     0.000 C 
BRANCH   3   4
ATOM      4  C   UNL     1     -12.113 -10.975  11.796  1.00  0.00     0.000 C 
BRANCH   4   5
ATOM      5  C   UNL     1     -13.118 -11.519  10.764  1.00  0.00     0.000 C 
BRANCH   5   6
ATOM      6  C   UNL     1     -12.609 -12.794  10.058  1.00  0.00     0.000 C 
BRANCH   6   7
ATOM      7  C   UNL     1     -11.074 -12.939  10.059  1.00  0.00     0.000 C 
BRANCH   7   8
ATOM      8  C   UNL     1     -10.354 -12.313   8.849  1.00  0.00     0.000 C 
BRANCH   8   9
ATOM      9  C   UNL     1     -11.224 -11.376   7.990  1.00  0.00     0.000 C 
BRANCH   9  10
ATOM     10  C   UNL     1     -10.510 -10.066   7.624  1.00  0.00     0.006 C 
BRANCH  10  11
ATOM     11  C   UNL     1      -9.165  -9.951   8.354  1.00  0.00     0.053 C 
BRANCH  11  12
ATOM     12  C   UNL     1      -8.102  -9.387   7.462  1.00  0.00     0.041 C 
ATOM     13  O   UNL     1      -7.115 -10.093   7.117  1.00  0.00    -0.550 OA
ATOM     14  O   UNL     1      -8.175  -8.062   7.047  1.00  0.00    -0.550 OA
ENDBRANCH  11  12
ENDBRANCH  10  11
ENDBRANCH   9  10
ENDBRANCH   8   9
ENDBRANCH   7   8
ENDBRANCH   6   7
ENDBRANCH   5   6
ENDBRANCH   4   5
ENDBRANCH   3   4
ENDBRANCH   2   3
ENDBRANCH   1   2
BRANCH   1  15
ATOM     15  C   UNL     1     -13.061  -6.643   9.208  1.00  0.00     0.000 C 
BRANCH  15  16
ATOM     16  C   UNL     1     -14.503  -7.140   9.408  1.00  0.00     0.000 C 
BRANCH  16  17
ATOM     17  C   UNL     1     -15.452  -6.043   9.913  1.00  0.00     0.000 C 
BRANCH  17  18
ATOM     18  C   UNL     1     -14.711  -4.764  10.341  1.00  0.00    -0.000 C 
BRANCH  18  19
ATOM     19  C   UNL     1     -15.652  -3.550  10.439  1.00  0.00    -0.000 C 
BRANCH  19  20
ATOM     20  C   UNL     1     -15.075  -2.300   9.750  1.00  0.00    -0.000 C 
BRANCH  20  21
ATOM     21  C   UNL     1     -13.641  -2.512   9.231  1.00  0.00    -0.000 C 
BRANCH  21  22
ATOM     22  C   UNL     1     -13.460  -2.095   7.756  1.00  0.00    -0.000 C 
BRANCH  22  23
ATOM     23  C   UNL     1     -14.793  -1.717   7.092  1.00  0.00    -0.000 C 
BRANCH  23  24
ATOM     24  C   UNL     1     -15.027  -2.540   5.817  1.00  0.00    -0.000 C 
BRANCH  24  25
ATOM     25  C   UNL     1     -14.373  -3.930   5.879  1.00  0.00    -0.003 C 
ATOM     26  C   UNL     1     -15.330  -5.014   6.374  1.00  0.00     0.004 C 
ENDBRANCH  24  25
ENDBRANCH  23  24
ENDBRANCH  22  23
ENDBRANCH  21  22
ENDBRANCH  20  21
ENDBRANCH  19  20
ENDBRANCH  18  19
ENDBRANCH  17  18
ENDBRANCH  16  17
ENDBRANCH  15  16
ENDBRANCH   1  15
TORSDOF 22
ENDMDL
MODEL 5
REMARK VINA RESULT:    -5.187      2.194      4.188
REMARK INTER + INTRA:         -15.052
REMARK INTER:                 -11.972
REMARK INTRA:                  -3.080
REMARK UNBOUND:                -3.194
REMARK SMILES CCCCCCCCCCCCCCCCCCCCCCCC(=O)[O-]
REMARK SMILES IDX 13 1 14 2 15 3 16 4 17 5 18 6 19 7 20 8 21 9 22 10 23 11
REMARK SMILES IDX 24 12 25 13 26 14 12 15 11 16 10 17 9 18 8 19 7 20 6 21 5 22
REMARK SMILES IDX 4 23 3 24 2 25 1 26
REMARK H PARENT
REMARK Flexibility Score: inf
ROOT
ATOM      1  C   UNL     1     -10.919  -7.785   9.994  1.00  0.00     0.000 C 
ENDROOT
BRANCH   1   2
ATOM      2  C   UNL     1     -12.130  -6.911   9.622  1.00  0.00     0.000 C 
BRANCH   2   3
ATOM      3  C   UNL     1     -12.966  -7.503   8.474  1.00  0.00     0.000 C 
BRANCH   3   4
ATOM      4  C   UNL     1     -14.403  -7.841   8.903  1.00  0.00     0.000 C 
BRANCH   4   5
ATOM      5  C   UNL     1     -14.867  -7.024  10.122  1.00  0.00     0.000 C 
BRANCH   5   6
ATOM      6  C   UNL     1     -15.803  -5.860   9.733  1.00  0.00     0.000 C 
BRANCH   6   7
ATOM      7  C   UNL     1     -15.547  -4.561  10.522  1.00  0.00     0.000 C 
BRANCH   7   8
ATOM      8  C   UNL     1     -14.529  -3.596   9.885  1.00  0.00     0.000 C 
BRANCH   8   9
ATOM      9  C   UNL     1     -14.083  -3.971   8.459  1.00  0.00     0.000 C 
BRANCH   9  10
ATOM     10  C   UNL     1     -14.922  -3.285   7.371  1.00  0.00     0.006 C 
BRANCH  10  11
ATOM     11  C   UNL     1     -14.176  -3.268   6.030  1.00  0.00     0.053 C 
BRANCH  11  12
ATOM     12  C   UNL     1     -14.695  -4.319   5.098  1.00  0.00     0.041 C 
ATOM     13  O   UNL     1     -15.274  -3.995   4.026  1.00  0.00    -0.550 OA
ATOM     14  O   UNL     1     -14.581  -5.664   5.437  1.00  0.00    -0.550 OA
ENDBRANCH  11  12
ENDBRANCH  10  11
ENDBRANCH   9  10
ENDBRANCH   8   9
ENDBRANCH   7   8
ENDBRANCH   6   7
ENDBRANCH   5   6
ENDBRANCH   4   5
ENDBRANCH   3   4
ENDBRANCH   2   3
ENDBRANCH   1   2
BRANCH   1  15
ATOM     15  C   UNL     1     -10.137  -8.310   8.772  1.00  0.00     0.000 C 
BRANCH  15  16
ATOM     16  C   UNL     1      -9.285  -9.544   9.117  1.00  0.00     0.000 C 
BRANCH  16  17
ATOM     17  C   UNL     1      -8.567 -10.139   7.897  1.00  0.00     0.000 C 
BRANCH  17  18
ATOM     18  C   UNL     1      -9.005 -11.582   7.593  1.00  0.00    -0.000 C 
BRANCH  18  19
ATOM     19  C   UNL     1     -10.500 -11.676   7.241  1.00  0.00    -0.000 C 
BRANCH  19  20
ATOM     20  C   UNL     1     -11.125 -13.014   7.673  1.00  0.00    -0.000 C 
BRANCH  20  21
ATOM     21  C   UNL     1     -10.576 -13.523   9.019  1.00  0.00    -0.000 C 
BRANCH  21  22
ATOM     22  C   UNL     1     -11.170 -12.783  10.236  1.00  0.00    -0.000 C 
BRANCH  22  23
ATOM     23  C   UNL     1     -12.645 -12.409  10.026  1.00  0.00    -0.000 C 
BRANCH  23  24
ATOM     24  C   UNL     1     -12.889 -10.927  10.346  1.00  0.00    -0.000 C 
BRANCH  24  25
ATOM     25  C   UNL     1     -13.142 -10.678  11.842  1.00  0.00    -0.003 C 
ATOM     26  C   UNL     1     -11.888 -10.221  12.587  1.00  0.00     0.004 C 
ENDBRANCH  24  25
ENDBRANCH  23  24
ENDBRANCH  22  23
ENDBRANCH  21  22
ENDBRANCH  20  21
ENDBRANCH  19  20
ENDBRANCH  18  19
ENDBRANCH  17  18
ENDBRANCH  16  17
ENDBRANCH  15  16
ENDBRANCH   1  15
TORSDOF 22
ENDMDL
MODEL 6
REMARK VINA RESULT:    -5.182      3.096      5.528
REMARK INTER + INTRA:         -15.040
REMARK INTER:                 -12.104
REMARK INTRA:                  -2.936
REMARK UNBOUND:                -3.194
REMARK SMILES CCCCCCCCCCCCCCCCCCCCCCCC(=O)[O-]
REMARK SMILES IDX 13 1 14 2 15 3 16 4 17 5 18 6 19 7 20 8 21 9 22 10 23 11
REMARK SMILES IDX 24 12 25 13 26 14 12 15 11 16 10 17 9 18 8 19 7 20 6 21 5 22
REMARK SMILES IDX 4 23 3 24 2 25 1 26
REMARK H PARENT
REMARK Flexibility Score: inf
ROOT
ATOM      1  C   UNL     1     -16.124  -7.627   9.622  1.00  0.00     0.000 C 
ENDROOT
BRANCH   1   2
ATOM      2  C   UNL     1     -16.043  -6.755  10.888  1.00  0.00     0.000 C 
BRANCH   2   3
ATOM      3  C   UNL     1     -15.358  -5.400  10.639  1.00  0.00     0.000 C 
BRANCH   3   4
ATOM      4  C   UNL     1     -15.209  -5.080   9.143  1.00  0.00     0.000 C 
BRANCH   4   5
ATOM      5  C   UNL     1     -13.859  -5.545   8.567  1.00  0.00     0.000 C 
BRANCH   5   6
ATOM      6  C   UNL     1     -12.776  -5.707   9.655  1.00  0.00     0.000 C 
BRANCH   6   7
ATOM      7  C   UNL     1     -11.992  -7.032   9.565  1.00  0.00     0.000 C 
BRANCH   7   8
ATOM      8  C   UNL     1     -12.199  -7.829   8.263  1.00  0.00     0.000 C 
BRANCH   8   9
ATOM      9  C   UNL     1     -11.232  -9.011   8.064  1.00  0.00     0.000 C 
BRANCH   9  10
ATOM     10  C   UNL     1      -9.872  -8.792   8.743  1.00  0.00     0.006 C 
BRANCH  10  11
ATOM     11  C   UNL     1      -9.142 -10.125   8.955  1.00  0.00     0.053 C 
BRANCH  11  12
ATOM     12  C   UNL     1      -8.599 -10.666   7.668  1.00  0.00     0.041 C 
ATOM     13  O   UNL     1      -7.555 -10.177   7.158  1.00  0.00    -0.550 OA
ATOM     14  O   UNL     1      -9.276 -11.684   7.003  1.00  0.00    -0.550 OA
ENDBRANCH  11  12
ENDBRANCH  10  11
ENDBRANCH   9  10
ENDBRANCH   8   9
ENDBRANCH   7   8
ENDBRANCH   6   7
ENDBRANCH   5   6
ENDBRANCH   4   5
ENDBRANCH   3   4
ENDBRANCH   2   3
ENDBRANCH   1   2
BRANCH   1  15
ATOM     15  C   UNL     1     -15.931  -9.133   9.895  1.00  0.00     0.000 C 
BRANCH  15  16
ATOM     16  C   UNL     1     -14.494  -9.460  10.338  1.00  0.00     0.000 C 
BRANCH  16  17
ATOM     17  C   UNL     1     -14.438 -10.461  11.502  1.00  0.00     0.000 C 
BRANCH  17  18
ATOM     18  C   UNL     1     -13.028 -10.600  12.101  1.00  0.00    -0.000 C 
BRANCH  18  19
ATOM     19  C   UNL     1     -11.957 -10.837  11.022  1.00  0.00    -0.000 C 
BRANCH  19  20
ATOM     20  C   UNL     1     -11.853 -12.316  10.609  1.00  0.00    -0.000 C 
BRANCH  20  21
ATOM     21  C   UNL     1     -12.085 -12.534   9.102  1.00  0.00    -0.000 C 
BRANCH  21  22
ATOM     22  C   UNL     1     -13.138 -13.620   8.798  1.00  0.00    -0.000 C 
BRANCH  22  23
ATOM     23  C   UNL     1     -12.493 -14.972   8.456  1.00  0.00    -0.000 C 
BRANCH  23  24
ATOM     24  C   UNL     1     -10.962 -14.890   8.534  1.00  0.00    -0.000 C 
BRANCH  24  25
ATOM     25  C   UNL     1     -10.333 -16.135   9.180  1.00  0.00    -0.003 C 
ATOM     26  C   UNL     1     -11.308 -17.309   9.277  1.00  0.00     0.004 C 
ENDBRANCH  24  25
ENDBRANCH  23  24
ENDBRANCH  22  23
ENDBRANCH  21  22
ENDBRANCH  20  21
ENDBRANCH  19  20
ENDBRANCH  18  19
ENDBRANCH  17  18
ENDBRANCH  16  17
ENDBRANCH  15  16
ENDBRANCH   1  15
TORSDOF 22
ENDMDL
MODEL 7
REMARK VINA RESULT:    -5.105      1.773      5.033
REMARK INTER + INTRA:         -14.864
REMARK INTER:                 -11.702
REMARK INTRA:                  -3.162
REMARK UNBOUND:                -3.194
REMARK SMILES CCCCCCCCCCCCCCCCCCCCCCCC(=O)[O-]
REMARK SMILES IDX 13 1 14 2 15 3 16 4 17 5 18 6 19 7 20 8 21 9 22 10 23 11
REMARK SMILES IDX 24 12 25 13 26 14 12 15 11 16 10 17 9 18 8 19 7 20 6 21 5 22
REMARK SMILES IDX 4 23 3 24 2 25 1 26
REMARK H PARENT
REMARK Flexibility Score: inf
ROOT
ATOM      1  C   UNL     1     -12.391 -11.919   9.610  1.00  0.00     0.000 C 
ENDROOT
BRANCH   1   2
ATOM      2  C   UNL     1     -12.122 -11.821  11.122  1.00  0.00     0.000 C 
BRANCH   2   3
ATOM      3  C   UNL     1     -12.837 -10.629  11.781  1.00  0.00     0.000 C 
BRANCH   3   4
ATOM      4  C   UNL     1     -14.108 -10.210  11.024  1.00  0.00     0.000 C 
BRANCH   4   5
ATOM      5  C   UNL     1     -13.960  -8.851  10.318  1.00  0.00     0.000 C 
BRANCH   5   6
ATOM      6  C   UNL     1     -15.317  -8.257   9.885  1.00  0.00     0.000 C 
BRANCH   6   7
ATOM      7  C   UNL     1     -15.346  -6.716   9.860  1.00  0.00     0.000 C 
BRANCH   7   8
ATOM      8  C   UNL     1     -13.970  -6.032   9.964  1.00  0.00     0.000 C 
BRANCH   8   9
ATOM      9  C   UNL     1     -13.904  -4.610   9.375  1.00  0.00     0.000 C 
BRANCH   9  10
ATOM     10  C   UNL     1     -14.197  -4.573   7.868  1.00  0.00     0.006 C 
BRANCH  10  11
ATOM     11  C   UNL     1     -14.588  -3.159   7.419  1.00  0.00     0.053 C 
BRANCH  11  12
ATOM     12  C   UNL     1     -14.119  -2.875   6.024  1.00  0.00     0.041 C 
ATOM     13  O   UNL     1     -14.174  -3.768   5.136  1.00  0.00    -0.550 OA
ATOM     14  O   UNL     1     -13.573  -1.634   5.715  1.00  0.00    -0.550 OA
ENDBRANCH  11  12
ENDBRANCH  10  11
ENDBRANCH   9  10
ENDBRANCH   8   9
ENDBRANCH   7   8
ENDBRANCH   6   7
ENDBRANCH   5   6
ENDBRANCH   4   5
ENDBRANCH   3   4
ENDBRANCH   2   3
ENDBRANCH   1   2
BRANCH   1  15
ATOM     15  C   UNL     1     -12.757 -13.342   9.138  1.00  0.00     0.000 C 
BRANCH  15  16
ATOM     16  C   UNL     1     -11.764 -13.879   8.093  1.00  0.00     0.000 C 
BRANCH  16  17
ATOM     17  C   UNL     1     -10.312 -13.890   8.594  1.00  0.00     0.000 C 
BRANCH  17  18
ATOM     18  C   UNL     1      -9.348 -13.157   7.644  1.00  0.00    -0.000 C 
BRANCH  18  19
ATOM     19  C   UNL     1      -9.688 -11.663   7.507  1.00  0.00    -0.000 C 
BRANCH  19  20
ATOM     20  C   UNL     1      -8.432 -10.781   7.391  1.00  0.00    -0.000 C 
BRANCH  20  21
ATOM     21  C   UNL     1      -8.533  -9.488   8.221  1.00  0.00    -0.000 C 
BRANCH  21  22
ATOM     22  C   UNL     1      -9.387  -9.647   9.496  1.00  0.00    -0.000 C 
BRANCH  22  23
ATOM     23  C   UNL     1     -10.530  -8.622   9.561  1.00  0.00    -0.000 C 
BRANCH  23  24
ATOM     24  C   UNL     1     -10.792  -8.000   8.181  1.00  0.00    -0.000 C 
BRANCH  24  25
ATOM     25  C   UNL     1     -11.893  -8.735   7.399  1.00  0.00    -0.003 C 
ATOM     26  C   UNL     1     -13.036  -7.813   6.976  1.00  0.00     0.004 C 
ENDBRANCH  24  25
ENDBRANCH  23  24
ENDBRANCH  22  23
ENDBRANCH  21  22
ENDBRANCH  20  21
ENDBRANCH  19  20
ENDBRANCH  18  19
ENDBRANCH  17  18
ENDBRANCH  16  17
ENDBRANCH  15  16
ENDBRANCH   1  15
TORSDOF 22
ENDMDL
MODEL 8
REMARK VINA RESULT:    -5.072      3.153      9.087
REMARK INTER + INTRA:         -14.790
REMARK INTER:                 -11.634
REMARK INTRA:                  -3.156
REMARK UNBOUND:                -3.194
REMARK SMILES CCCCCCCCCCCCCCCCCCCCCCCC(=O)[O-]
REMARK SMILES IDX 13 1 14 2 15 3 16 4 17 5 18 6 19 7 20 8 21 9 22 10 23 11
REMARK SMILES IDX 24 12 25 13 26 14 12 15 11 16 10 17 9 18 8 19 7 20 6 21 5 22
REMARK SMILES IDX 4 23 3 24 2 25 1 26
REMARK H PARENT
REMARK Flexibility Score: inf
ROOT
ATOM      1  C   UNL     1     -14.399  -7.238   9.604  1.00  0.00     0.000 C 
ENDROOT
BRANCH   1   2
ATOM      2  C   UNL     1     -13.004  -6.587   9.613  1.00  0.00     0.000 C 
BRANCH   2   3
ATOM      3  C   UNL     1     -11.886  -7.572   9.997  1.00  0.00     0.000 C 
BRANCH   3   4
ATOM      4  C   UNL     1     -12.418  -8.984  10.291  1.00  0.00     0.000 C 
BRANCH   4   5
ATOM      5  C   UNL     1     -11.668  -9.674  11.444  1.00  0.00     0.000 C 
BRANCH   5   6
ATOM      6  C   UNL     1     -12.299 -11.028  11.834  1.00  0.00     0.000 C 
BRANCH   6   7
ATOM      7  C   UNL     1     -12.251 -12.086  10.713  1.00  0.00     0.000 C 
BRANCH   7   8
ATOM      8  C   UNL     1     -10.888 -12.236  10.010  1.00  0.00     0.000 C 
BRANCH   8   9
ATOM      9  C   UNL     1     -10.894 -11.905   8.505  1.00  0.00     0.000 C 
BRANCH   9  10
ATOM     10  C   UNL     1      -9.535 -11.399   8.000  1.00  0.00     0.006 C 
BRANCH  10  11
ATOM     11  C   UNL     1      -9.100 -10.139   8.760  1.00  0.00     0.053 C 
BRANCH  11  12
ATOM     12  C   UNL     1      -8.844  -8.994   7.828  1.00  0.00     0.041 C 
ATOM     13  O   UNL     1      -9.782  -8.222   7.489  1.00  0.00    -0.550 OA
ATOM     14  O   UNL     1      -7.574  -8.806   7.292  1.00  0.00    -0.550 OA
ENDBRANCH  11  12
ENDBRANCH  10  11
ENDBRANCH   9  10
ENDBRANCH   8   9
ENDBRANCH   7   8
ENDBRANCH   6   7
ENDBRANCH   5   6
ENDBRANCH   4   5
ENDBRANCH   3   4
ENDBRANCH   2   3
ENDBRANCH   1   2
BRANCH   1  15
ATOM     15  C   UNL     1     -15.059  -7.265   8.210  1.00  0.00     0.000 C 
BRANCH  15  16
ATOM     16  C   UNL     1     -14.621  -6.074   7.339  1.00  0.00     0.000 C 
BRANCH  16  17
ATOM     17  C   UNL     1     -15.804  -5.246   6.816  1.00  0.00     0.000 C 
BRANCH  17  18
ATOM     18  C   UNL     1     -15.718  -4.974   5.304  1.00  0.00    -0.000 C 
BRANCH  18  19
ATOM     19  C   UNL     1     -14.339  -4.435   4.886  1.00  0.00    -0.000 C 
BRANCH  19  20
ATOM     20  C   UNL     1     -14.411  -3.007   4.317  1.00  0.00    -0.000 C 
BRANCH  20  21
ATOM     21  C   UNL     1     -13.998  -1.935   5.342  1.00  0.00    -0.000 C 
BRANCH  21  22
ATOM     22  C   UNL     1     -15.183  -1.394   6.168  1.00  0.00    -0.000 C 
BRANCH  22  23
ATOM     23  C   UNL     1     -15.001  -1.640   7.674  1.00  0.00    -0.000 C 
BRANCH  23  24
ATOM     24  C   UNL     1     -13.586  -2.151   7.982  1.00  0.00    -0.000 C 
BRANCH  24  25
ATOM     25  C   UNL     1     -13.527  -2.999   9.263  1.00  0.00    -0.003 C 
ATOM     26  C   UNL     1     -14.912  -3.325   9.822  1.00  0.00     0.004 C 
ENDBRANCH  24  25
ENDBRANCH  23  24
ENDBRANCH  22  23
ENDBRANCH  21  22
ENDBRANCH  20  21
ENDBRANCH  19  20
ENDBRANCH  18  19
ENDBRANCH  17  18
ENDBRANCH  16  17
ENDBRANCH  15  16
ENDBRANCH   1  15
TORSDOF 22
ENDMDL
MODEL 9
REMARK VINA RESULT:    -5.030      3.263      8.643
REMARK INTER + INTRA:         -14.692
REMARK INTER:                 -11.522
REMARK INTRA:                  -3.170
REMARK UNBOUND:                -3.194
REMARK SMILES CCCCCCCCCCCCCCCCCCCCCCCC(=O)[O-]
REMARK SMILES IDX 13 1 14 2 15 3 16 4 17 5 18 6 19 7 20 8 21 9 22 10 23 11
REMARK SMILES IDX 24 12 25 13 26 14 12 15 11 16 10 17 9 18 8 19 7 20 6 21 5 22
REMARK SMILES IDX 4 23 3 24 2 25 1 26
REMARK H PARENT
REMARK Flexibility Score: inf
ROOT
ATOM      1  C   UNL     1     -13.567  -6.912   8.397  1.00  0.00     0.000 C 
ENDROOT
BRANCH   1   2
ATOM      2  C   UNL     1     -12.383  -7.331   9.286  1.00  0.00     0.000 C 
BRANCH   2   3
ATOM      3  C   UNL     1     -12.780  -8.342  10.376  1.00  0.00     0.000 C 
BRANCH   3   4
ATOM      4  C   UNL     1     -11.563  -9.024  11.021  1.00  0.00     0.000 C 
BRANCH   4   5
ATOM      5  C   UNL     1     -11.895 -10.414  11.592  1.00  0.00     0.000 C 
BRANCH   5   6
ATOM      6  C   UNL     1     -13.018 -11.125  10.806  1.00  0.00     0.000 C 
BRANCH   6   7
ATOM      7  C   UNL     1     -12.605 -12.492  10.225  1.00  0.00     0.000 C 
BRANCH   7   8
ATOM      8  C   UNL     1     -11.088 -12.699  10.048  1.00  0.00     0.000 C 
BRANCH   8   9
ATOM      9  C   UNL     1     -10.568 -12.500   8.611  1.00  0.00     0.000 C 
BRANCH   9  10
ATOM     10  C   UNL     1      -9.513 -11.390   8.506  1.00  0.00     0.006 C 
BRANCH  10  11
ATOM     11  C   UNL     1     -10.116 -10.113   7.905  1.00  0.00     0.053 C 
BRANCH  11  12
ATOM     12  C   UNL     1      -9.060  -9.093   7.608  1.00  0.00     0.041 C 
ATOM     13  O   UNL     1      -9.357  -7.871   7.522  1.00  0.00    -0.550 OA
ATOM     14  O   UNL     1      -7.749  -9.498   7.378  1.00  0.00    -0.550 OA
ENDBRANCH  11  12
ENDBRANCH  10  11
ENDBRANCH   9  10
ENDBRANCH   8   9
ENDBRANCH   7   8
ENDBRANCH   6   7
ENDBRANCH   5   6
ENDBRANCH   4   5
ENDBRANCH   3   4
ENDBRANCH   2   3
ENDBRANCH   1   2
BRANCH   1  15
ATOM     15  C   UNL     1     -14.940  -7.352   8.948  1.00  0.00     0.000 C 
BRANCH  15  16
ATOM     16  C   UNL     1     -15.777  -6.156   9.434  1.00  0.00     0.000 C 
BRANCH  16  17
ATOM     17  C   UNL     1     -15.026  -5.263  10.433  1.00  0.00     0.000 C 
BRANCH  17  18
ATOM     18  C   UNL     1     -14.978  -3.789   9.996  1.00  0.00    -0.000 C 
BRANCH  18  19
ATOM     19  C   UNL     1     -13.698  -3.456   9.209  1.00  0.00    -0.000 C 
BRANCH  19  20
ATOM     20  C   UNL     1     -13.996  -2.903   7.804  1.00  0.00    -0.000 C 
BRANCH  20  21
ATOM     21  C   UNL     1     -15.498  -2.661   7.564  1.00  0.00    -0.000 C 
BRANCH  21  22
ATOM     22  C   UNL     1     -16.009  -3.270   6.241  1.00  0.00    -0.000 C 
BRANCH  22  23
ATOM     23  C   UNL     1     -15.823  -4.795   6.194  1.00  0.00    -0.000 C 
BRANCH  23  24
ATOM     24  C   UNL     1     -14.943  -5.207   5.005  1.00  0.00    -0.000 C 
BRANCH  24  25
ATOM     25  C   UNL     1     -15.402  -4.577   3.680  1.00  0.00    -0.003 C 
ATOM     26  C   UNL     1     -14.315  -3.733   3.016  1.00  0.00     0.004 C 
ENDBRANCH  24  25
ENDBRANCH  23  24
ENDBRANCH  22  23
ENDBRANCH  21  22
ENDBRANCH  20  21
ENDBRANCH  19  20
ENDBRANCH  18  19
ENDBRANCH  17  18
ENDBRANCH  16  17
ENDBRANCH  15  16
ENDBRANCH   1  15
TORSDOF 22
ENDMDL
