MODEL 1
REMARK VINA RESULT:    -5.635      0.000      0.000
REMARK INTER + INTRA:          -7.227
REMARK INTER:                  -6.788
REMARK INTRA:                  -0.439
REMARK UNBOUND:                -0.439
REMARK SMILES CCCCc1oc(O)c2ccccc12
REMARK SMILES IDX 4 1 5 2 7 3 6 4 9 5 14 6 10 7 13 8 11 9 12 10 8 11 3 13 2 14
REMARK SMILES IDX 1 15
REMARK H PARENT 8 12
REMARK Flexibility Score: inf
ROOT
ATOM      1  C   UNL     1      28.919 -22.903   2.870  1.00  0.00     0.076 C 
ENDROOT
BRANCH   1   2
ATOM      2  C   UNL     1      30.295 -23.476   2.729  1.00  0.00     0.116 A 
ATOM      3  C   UNL     1      31.870 -24.804   2.127  1.00  0.00     0.290 A 
ATOM      4  O   UNL     1      30.578 -24.556   2.020  1.00  0.00    -0.430 OA
ATOM      5  C   UNL     1      32.459 -23.858   2.939  1.00  0.00     0.066 A 
ATOM      6  C   UNL     1      31.454 -23.012   3.325  1.00  0.00     0.027 A 
ATOM      7  C   UNL     1      33.775 -23.683   3.366  1.00  0.00     0.016 A 
ATOM      8  C   UNL     1      31.691 -21.929   4.173  1.00  0.00     0.012 A 
ATOM      9  C   UNL     1      34.046 -22.597   4.219  1.00  0.00     0.001 A 
ATOM     10  C   UNL     1      33.010 -21.725   4.621  1.00  0.00     0.001 A 
BRANCH   3  11
ATOM     11  O   UNL     1      32.508 -25.872   1.503  1.00  0.00    -0.480 OA
ATOM     12  H   UNL     1      32.002 -26.711   1.249  1.00  0.00     0.297 HD
ENDBRANCH   3  11
ENDBRANCH   1   2
BRANCH   1  13
ATOM     13  C   UNL     1      28.318 -23.280   4.229  1.00  0.00     0.008 C 
BRANCH  13  14
ATOM     14  C   UNL     1      28.016 -22.052   5.101  1.00  0.00    -0.003 C 
ATOM     15  C   UNL     1      28.388 -20.736   4.417  1.00  0.00     0.004 C 
ENDBRANCH  13  14
ENDBRANCH   1  13
TORSDOF 4
ENDMDL
MODEL 2
REMARK VINA RESULT:    -5.555      1.992      3.176
REMARK INTER + INTRA:          -7.131
REMARK INTER:                  -6.937
REMARK INTRA:                  -0.194
REMARK UNBOUND:                -0.439
REMARK SMILES CCCCc1oc(O)c2ccccc12
REMARK SMILES IDX 4 1 5 2 7 3 6 4 9 5 14 6 10 7 13 8 11 9 12 10 8 11 3 13 2 14
REMARK SMILES IDX 1 15
REMARK H PARENT 8 12
REMARK Flexibility Score: inf
ROOT
ATOM      1  C   UNL     1      29.334 -19.692   4.719  1.00  0.00     0.076 C 
ENDROOT
BRANCH   1   2
ATOM      2  C   UNL     1      29.495 -20.968   3.951  1.00  0.00     0.116 A 
ATOM      3  C   UNL     1      28.983 -22.675   2.756  1.00  0.00     0.290 A 
ATOM      4  O   UNL     1      28.514 -21.567   3.296  1.00  0.00    -0.430 OA
ATOM      5  C   UNL     1      30.319 -22.815   3.068  1.00  0.00     0.066 A 
ATOM      6  C   UNL     1      30.646 -21.728   3.833  1.00  0.00     0.027 A 
ATOM      7  C   UNL     1      31.253 -23.801   2.750  1.00  0.00     0.016 A 
ATOM      8  C   UNL     1      31.932 -21.547   4.342  1.00  0.00     0.012 A 
ATOM      9  C   UNL     1      32.561 -23.645   3.247  1.00  0.00     0.001 A 
ATOM     10  C   UNL     1      32.899 -22.525   4.040  1.00  0.00     0.001 A 
BRANCH   3  11
ATOM     11  O   UNL     1      28.215 -23.549   1.992  1.00  0.00    -0.480 OA
ATOM     12  H   UNL     1      27.257 -23.760   2.240  1.00  0.00     0.297 HD
ENDBRANCH   3  11
ENDBRANCH   1   2
BRANCH   1  13
ATOM     13  C   UNL     1      27.849 -19.394   4.957  1.00  0.00     0.008 C 
BRANCH  13  14
ATOM     14  C   UNL     1      27.632 -18.191   5.887  1.00  0.00    -0.003 C 
ATOM     15  C   UNL     1      28.792 -17.196   5.848  1.00  0.00     0.004 C 
ENDBRANCH  13  14
ENDBRANCH   1  13
TORSDOF 4
ENDMDL
MODEL 3
REMARK VINA RESULT:    -5.434     13.233     14.928
REMARK INTER + INTRA:          -6.984
REMARK INTER:                  -6.803
REMARK INTRA:                  -0.181
REMARK UNBOUND:                -0.439
REMARK SMILES CCCCc1oc(O)c2ccccc12
REMARK SMILES IDX 4 1 5 2 7 3 6 4 9 5 14 6 10 7 13 8 11 9 12 10 8 11 3 13 2 14
REMARK SMILES IDX 1 15
REMARK H PARENT 8 12
REMARK Flexibility Score: inf
ROOT
ATOM      1  C   UNL     1      32.746 -10.297   1.748  1.00  0.00     0.076 C 
ENDROOT
BRANCH   1   2
ATOM      2  C   UNL     1      31.478  -9.501   1.717  1.00  0.00     0.116 A 
ATOM      3  C   UNL     1      30.095  -7.903   2.093  1.00  0.00     0.290 A 
ATOM      4  O   UNL     1      31.336  -8.313   2.280  1.00  0.00    -0.430 OA
ATOM      5  C   UNL     1      29.393  -8.856   1.386  1.00  0.00     0.066 A 
ATOM      6  C   UNL     1      30.274  -9.877   1.148  1.00  0.00     0.027 A 
ATOM      7  C   UNL     1      28.070  -8.906   0.948  1.00  0.00     0.016 A 
ATOM      8  C   UNL     1      29.895 -11.028   0.457  1.00  0.00     0.012 A 
ATOM      9  C   UNL     1      27.658 -10.054   0.244  1.00  0.00     0.001 A 
ATOM     10  C   UNL     1      28.565 -11.110   0.001  1.00  0.00     0.001 A 
BRANCH   3  11
ATOM     11  O   UNL     1      29.603  -6.687   2.557  1.00  0.00    -0.480 OA
ATOM     12  H   UNL     1      29.229  -6.594   3.493  1.00  0.00     0.297 HD
ENDBRANCH   3  11
ENDBRANCH   1   2
BRANCH   1  13
ATOM     13  C   UNL     1      33.942  -9.414   1.370  1.00  0.00     0.008 C 
BRANCH  13  14
ATOM     14  C   UNL     1      35.257 -10.204   1.297  1.00  0.00    -0.003 C 
ATOM     15  C   UNL     1      36.464  -9.386   1.756  1.00  0.00     0.004 C 
ENDBRANCH  13  14
ENDBRANCH   1  13
TORSDOF 4
ENDMDL
MODEL 4
REMARK VINA RESULT:    -5.408     13.361     15.188
REMARK INTER + INTRA:          -6.954
REMARK INTER:                  -6.524
REMARK INTRA:                  -0.430
REMARK UNBOUND:                -0.439
REMARK SMILES CCCCc1oc(O)c2ccccc12
REMARK SMILES IDX 4 1 5 2 7 3 6 4 9 5 14 6 10 7 13 8 11 9 12 10 8 11 3 13 2 14
REMARK SMILES IDX 1 15
REMARK H PARENT 8 12
REMARK Flexibility Score: inf
ROOT
ATOM      1  C   UNL     1      32.551  -9.327   1.120  1.00  0.00     0.076 C 
ENDROOT
BRANCH   1   2
ATOM      2  C   UNL     1      31.185  -8.771   0.862  1.00  0.00     0.116 A 
ATOM      3  C   UNL     1      29.620  -7.333   0.567  1.00  0.00     0.290 A 
ATOM      4  O   UNL     1      30.916  -7.480   0.769  1.00  0.00    -0.430 OA
ATOM      5  C   UNL     1      29.012  -8.569   0.529  1.00  0.00     0.066 A 
ATOM      6  C   UNL     1      30.009  -9.488   0.720  1.00  0.00     0.027 A 
ATOM      7  C   UNL     1      27.682  -8.950   0.352  1.00  0.00     0.016 A 
ATOM      8  C   UNL     1      29.749 -10.858   0.754  1.00  0.00     0.012 A 
ATOM      9  C   UNL     1      27.389 -10.326   0.377  1.00  0.00     0.001 A 
ATOM     10  C   UNL     1      28.416 -11.276   0.578  1.00  0.00     0.001 A 
BRANCH   3  11
ATOM     11  O   UNL     1      28.995  -6.098   0.420  1.00  0.00    -0.480 OA
ATOM     12  H   UNL     1      28.112  -6.010  -0.068  1.00  0.00     0.297 HD
ENDBRANCH   3  11
ENDBRANCH   1   2
BRANCH   1  13
ATOM     13  C   UNL     1      33.054  -8.893   2.502  1.00  0.00     0.008 C 
BRANCH  13  14
ATOM     14  C   UNL     1      31.997  -9.083   3.600  1.00  0.00    -0.003 C 
ATOM     15  C   UNL     1      31.639  -7.776   4.308  1.00  0.00     0.004 C 
ENDBRANCH  13  14
ENDBRANCH   1  13
TORSDOF 4
ENDMDL
MODEL 5
REMARK VINA RESULT:    -5.388     13.843     15.075
REMARK INTER + INTRA:          -6.929
REMARK INTER:                  -6.442
REMARK INTRA:                  -0.487
REMARK UNBOUND:                -0.439
REMARK SMILES CCCCc1oc(O)c2ccccc12
REMARK SMILES IDX 4 1 5 2 7 3 6 4 9 5 14 6 10 7 13 8 11 9 12 10 8 11 3 13 2 14
REMARK SMILES IDX 1 15
REMARK H PARENT 8 12
REMARK Flexibility Score: inf
ROOT
ATOM      1  C   UNL     1      28.797  -7.229   0.334  1.00  0.00     0.076 C 
ENDROOT
BRANCH   1   2
ATOM      2  C   UNL     1      29.842  -7.597   1.341  1.00  0.00     0.116 A 
ATOM      3  C   UNL     1      30.944  -7.615   3.183  1.00  0.00     0.290 A 
ATOM      4  O   UNL     1      29.890  -7.110   2.570  1.00  0.00    -0.430 OA
ATOM      5  C   UNL     1      31.617  -8.461   2.328  1.00  0.00     0.066 A 
ATOM      6  C   UNL     1      30.916  -8.449   1.152  1.00  0.00     0.027 A 
ATOM      7  C   UNL     1      32.775  -9.222   2.488  1.00  0.00     0.016 A 
ATOM      8  C   UNL     1      31.325  -9.194   0.045  1.00  0.00     0.012 A 
ATOM      9  C   UNL     1      33.211  -9.987   1.390  1.00  0.00     0.001 A 
ATOM     10  C   UNL     1      32.490  -9.973   0.175  1.00  0.00     0.001 A 
BRANCH   3  11
ATOM     11  O   UNL     1      31.294  -7.313   4.496  1.00  0.00    -0.480 OA
ATOM     12  H   UNL     1      32.168  -6.851   4.713  1.00  0.00     0.297 HD
ENDBRANCH   3  11
ENDBRANCH   1   2
BRANCH   1  13
ATOM     13  C   UNL     1      27.543  -8.092   0.524  1.00  0.00     0.008 C 
BRANCH  13  14
ATOM     14  C   UNL     1      27.678  -9.478  -0.124  1.00  0.00    -0.003 C 
ATOM     15  C   UNL     1      27.467 -10.619   0.871  1.00  0.00     0.004 C 
ENDBRANCH  13  14
ENDBRANCH   1  13
TORSDOF 4
ENDMDL
MODEL 6
REMARK VINA RESULT:    -5.376      1.335      4.042
REMARK INTER + INTRA:          -6.915
REMARK INTER:                  -6.524
REMARK INTRA:                  -0.391
REMARK UNBOUND:                -0.439
REMARK SMILES CCCCc1oc(O)c2ccccc12
REMARK SMILES IDX 4 1 5 2 7 3 6 4 9 5 14 6 10 7 13 8 11 9 12 10 8 11 3 13 2 14
REMARK SMILES IDX 1 15
REMARK H PARENT 8 12
REMARK Flexibility Score: inf
ROOT
ATOM      1  C   UNL     1      33.782 -22.400   3.613  1.00  0.00     0.076 C 
ENDROOT
BRANCH   1   2
ATOM      2  C   UNL     1      32.501 -23.132   3.357  1.00  0.00     0.116 A 
ATOM      3  C   UNL     1      31.157 -24.656   2.666  1.00  0.00     0.290 A 
ATOM      4  O   UNL     1      32.427 -24.308   2.757  1.00  0.00    -0.430 OA
ATOM      5  C   UNL     1      30.365 -23.673   3.221  1.00  0.00     0.066 A 
ATOM      6  C   UNL     1      31.222 -22.699   3.660  1.00  0.00     0.027 A 
ATOM      7  C   UNL     1      28.983 -23.559   3.364  1.00  0.00     0.016 A 
ATOM      8  C   UNL     1      30.758 -21.534   4.271  1.00  0.00     0.012 A 
ATOM      9  C   UNL     1      28.484 -22.397   3.981  1.00  0.00     0.001 A 
ATOM     10  C   UNL     1      29.366 -21.389   4.431  1.00  0.00     0.001 A 
BRANCH   3  11
ATOM     11  O   UNL     1      30.720 -25.844   2.087  1.00  0.00    -0.480 OA
ATOM     12  H   UNL     1      31.366 -26.475   1.631  1.00  0.00     0.297 HD
ENDBRANCH   3  11
ENDBRANCH   1   2
BRANCH   1  13
ATOM     13  C   UNL     1      34.208 -22.563   5.077  1.00  0.00     0.008 C 
BRANCH  13  14
ATOM     14  C   UNL     1      34.197 -21.233   5.845  1.00  0.00    -0.003 C 
ATOM     15  C   UNL     1      34.115 -21.425   7.359  1.00  0.00     0.004 C 
ENDBRANCH  13  14
ENDBRANCH   1  13
TORSDOF 4
ENDMDL
MODEL 7
REMARK VINA RESULT:    -5.336      2.456      3.979
REMARK INTER + INTRA:          -6.867
REMARK INTER:                  -6.697
REMARK INTRA:                  -0.170
REMARK UNBOUND:                -0.439
REMARK SMILES CCCCc1oc(O)c2ccccc12
REMARK SMILES IDX 4 1 5 2 7 3 6 4 9 5 14 6 10 7 13 8 11 9 12 10 8 11 3 13 2 14
REMARK SMILES IDX 1 15
REMARK H PARENT 8 12
REMARK Flexibility Score: inf
ROOT
ATOM      1  C   UNL     1      29.223 -19.196   4.185  1.00  0.00     0.076 C 
ENDROOT
BRANCH   1   2
ATOM      2  C   UNL     1      30.068 -20.430   4.106  1.00  0.00     0.116 A 
ATOM      3  C   UNL     1      31.806 -21.686   4.173  1.00  0.00     0.290 A 
ATOM      4  O   UNL     1      31.365 -20.457   4.361  1.00  0.00    -0.430 OA
ATOM      5  C   UNL     1      30.766 -22.498   3.775  1.00  0.00     0.066 A 
ATOM      6  C   UNL     1      29.656 -21.697   3.730  1.00  0.00     0.027 A 
ATOM      7  C   UNL     1      30.711 -23.852   3.449  1.00  0.00     0.016 A 
ATOM      8  C   UNL     1      28.408 -22.191   3.349  1.00  0.00     0.012 A 
ATOM      9  C   UNL     1      29.465 -24.381   3.064  1.00  0.00     0.001 A 
ATOM     10  C   UNL     1      28.319 -23.555   3.013  1.00  0.00     0.001 A 
BRANCH   3  11
ATOM     11  O   UNL     1      33.132 -22.069   4.356  1.00  0.00    -0.480 OA
ATOM     12  H   UNL     1      33.629 -22.596   3.649  1.00  0.00     0.297 HD
ENDBRANCH   3  11
ENDBRANCH   1   2
BRANCH   1  13
ATOM     13  C   UNL     1      28.152 -19.348   5.272  1.00  0.00     0.008 C 
BRANCH  13  14
ATOM     14  C   UNL     1      27.789 -18.010   5.932  1.00  0.00    -0.003 C 
ATOM     15  C   UNL     1      28.926 -16.990   5.867  1.00  0.00     0.004 C 
ENDBRANCH  13  14
ENDBRANCH   1  13
TORSDOF 4
ENDMDL
MODEL 8
REMARK VINA RESULT:    -5.212      3.511      6.092
REMARK INTER + INTRA:          -6.718
REMARK INTER:                  -6.366
REMARK INTRA:                  -0.352
REMARK UNBOUND:                -0.439
REMARK SMILES CCCCc1oc(O)c2ccccc12
REMARK SMILES IDX 4 1 5 2 7 3 6 4 9 5 14 6 10 7 13 8 11 9 12 10 8 11 3 13 2 14
REMARK SMILES IDX 1 15
REMARK H PARENT 8 12
REMARK Flexibility Score: inf
ROOT
ATOM      1  C   UNL     1      29.244 -21.163   3.284  1.00  0.00     0.076 C 
ENDROOT
BRANCH   1   2
ATOM      2  C   UNL     1      29.495 -19.883   4.020  1.00  0.00     0.116 A 
ATOM      3  C   UNL     1      30.558 -18.210   4.841  1.00  0.00     0.290 A 
ATOM      4  O   UNL     1      30.678 -19.297   4.103  1.00  0.00    -0.430 OA
ATOM      5  C   UNL     1      29.252 -18.076   5.263  1.00  0.00     0.066 A 
ATOM      6  C   UNL     1      28.574 -19.145   4.742  1.00  0.00     0.027 A 
ATOM      7  C   UNL     1      28.622 -17.119   6.057  1.00  0.00     0.016 A 
ATOM      8  C   UNL     1      27.213 -19.338   4.980  1.00  0.00     0.012 A 
ATOM      9  C   UNL     1      27.248 -17.284   6.312  1.00  0.00     0.001 A 
ATOM     10  C   UNL     1      26.547 -18.389   5.778  1.00  0.00     0.001 A 
BRANCH   3  11
ATOM     11  O   UNL     1      31.615 -17.351   5.131  1.00  0.00    -0.480 OA
ATOM     12  H   UNL     1      32.188 -17.483   5.955  1.00  0.00     0.297 HD
ENDBRANCH   3  11
ENDBRANCH   1   2
BRANCH   1  13
ATOM     13  C   UNL     1      30.248 -22.238   3.719  1.00  0.00     0.008 C 
BRANCH  13  14
ATOM     14  C   UNL     1      29.573 -23.581   4.035  1.00  0.00    -0.003 C 
ATOM     15  C   UNL     1      28.120 -23.421   4.484  1.00  0.00     0.004 C 
ENDBRANCH  13  14
ENDBRANCH   1  13
TORSDOF 4
ENDMDL
MODEL 9
REMARK VINA RESULT:    -5.028      2.179      5.036
REMARK INTER + INTRA:          -6.495
REMARK INTER:                  -6.237
REMARK INTRA:                  -0.258
REMARK UNBOUND:                -0.439
REMARK SMILES CCCCc1oc(O)c2ccccc12
REMARK SMILES IDX 4 1 5 2 7 3 6 4 9 5 14 6 10 7 13 8 11 9 12 10 8 11 3 13 2 14
REMARK SMILES IDX 1 15
REMARK H PARENT 8 12
REMARK Flexibility Score: inf
ROOT
ATOM      1  C   UNL     1      32.550 -24.779   2.074  1.00  0.00     0.076 C 
ENDROOT
BRANCH   1   2
ATOM      2  C   UNL     1      32.087 -23.661   2.956  1.00  0.00     0.116 A 
ATOM      3  C   UNL     1      32.174 -22.003   4.315  1.00  0.00     0.290 A 
ATOM      4  O   UNL     1      32.900 -22.853   3.614  1.00  0.00    -0.430 OA
ATOM      5  C   UNL     1      30.834 -22.262   4.115  1.00  0.00     0.066 A 
ATOM      6  C   UNL     1      30.778 -23.322   3.250  1.00  0.00     0.027 A 
ATOM      7  C   UNL     1      29.682 -21.664   4.623  1.00  0.00     0.016 A 
ATOM      8  C   UNL     1      29.563 -23.866   2.833  1.00  0.00     0.012 A 
ATOM      9  C   UNL     1      28.440 -22.188   4.218  1.00  0.00     0.001 A 
ATOM     10  C   UNL     1      28.381 -23.284   3.328  1.00  0.00     0.001 A 
BRANCH   3  11
ATOM     11  O   UNL     1      32.712 -21.008   5.125  1.00  0.00    -0.480 OA
ATOM     12  H   UNL     1      32.921 -20.088   4.758  1.00  0.00     0.297 HD
ENDBRANCH   3  11
ENDBRANCH   1   2
BRANCH   1  13
ATOM     13  C   UNL     1      34.038 -25.067   2.309  1.00  0.00     0.008 C 
BRANCH  13  14
ATOM     14  C   UNL     1      34.872 -24.943   1.026  1.00  0.00    -0.003 C 
ATOM     15  C   UNL     1      34.108 -24.269  -0.114  1.00  0.00     0.004 C 
ENDBRANCH  13  14
ENDBRANCH   1  13
TORSDOF 4
ENDMDL
