MODEL 1
REMARK VINA RESULT:    -4.110      0.000      0.000
REMARK INTER + INTRA:          -4.482
REMARK INTER:                  -4.350
REMARK INTRA:                  -0.132
REMARK UNBOUND:                -0.132
REMARK SMILES C=C(C)[C@H]1CC=C(C)CC1
REMARK SMILES IDX 8 1 7 2 6 3 5 4 4 5 10 6 9 7 2 8 1 9 3 10
REMARK H PARENT
REMARK Flexibility Score: inf
ROOT
ATOM      1  C   UNL     1      22.599  62.771  14.245  1.00  0.00     0.039 C 
ATOM      2  C   UNL     1      21.223  63.258  14.608  1.00  0.00    -0.077 C 
ATOM      3  C   UNL     1      21.045  63.906  15.780  1.00  0.00    -0.027 C 
ATOM      4  C   UNL     1      19.696  64.385  16.258  1.00  0.00     0.035 C 
ATOM      5  C   UNL     1      18.699  64.564  15.100  1.00  0.00     0.018 C 
ATOM      6  C   UNL     1      18.713  63.318  14.201  1.00  0.00     0.013 C 
ATOM      7  C   UNL     1      20.106  63.124  13.590  1.00  0.00     0.031 C 
ENDROOT
BRANCH   5   8
ATOM      8  C   UNL     1      17.298  64.865  15.616  1.00  0.00    -0.077 C 
ATOM      9  C   UNL     1      17.106  65.157  16.912  1.00  0.00     0.008 C 
ATOM     10  C   UNL     1      16.099  64.833  14.701  1.00  0.00     0.039 C 
ENDBRANCH   5   8
TORSDOF 1
ENDMDL
MODEL 2
REMARK VINA RESULT:    -4.065      1.448      5.195
REMARK INTER + INTRA:          -4.435
REMARK INTER:                  -4.306
REMARK INTRA:                  -0.129
REMARK UNBOUND:                -0.132
REMARK SMILES C=C(C)[C@H]1CC=C(C)CC1
REMARK SMILES IDX 8 1 7 2 6 3 5 4 4 5 10 6 9 7 2 8 1 9 3 10
REMARK H PARENT
REMARK Flexibility Score: inf
ROOT
ATOM      1  C   UNL     1      13.532  66.125  16.333  1.00  0.00     0.039 C 
ATOM      2  C   UNL     1      14.917  65.595  16.078  1.00  0.00    -0.077 C 
ATOM      3  C   UNL     1      15.189  65.020  14.886  1.00  0.00    -0.027 C 
ATOM      4  C   UNL     1      16.530  64.413  14.553  1.00  0.00     0.035 C 
ATOM      5  C   UNL     1      17.660  64.982  15.430  1.00  0.00     0.018 C 
ATOM      6  C   UNL     1      17.236  64.961  16.907  1.00  0.00     0.013 C 
ATOM      7  C   UNL     1      15.998  65.842  17.113  1.00  0.00     0.031 C 
ENDROOT
BRANCH   5   8
ATOM      8  C   UNL     1      18.965  64.228  15.211  1.00  0.00    -0.077 C 
ATOM      9  C   UNL     1      20.024  64.473  15.999  1.00  0.00     0.008 C 
ATOM     10  C   UNL     1      19.108  63.207  14.110  1.00  0.00     0.039 C 
ENDBRANCH   5   8
TORSDOF 1
ENDMDL
MODEL 3
REMARK VINA RESULT:    -3.973      2.521      4.666
REMARK INTER + INTRA:          -4.338
REMARK INTER:                  -4.208
REMARK INTRA:                  -0.129
REMARK UNBOUND:                -0.132
REMARK SMILES C=C(C)[C@H]1CC=C(C)CC1
REMARK SMILES IDX 8 1 7 2 6 3 5 4 4 5 10 6 9 7 2 8 1 9 3 10
REMARK H PARENT
REMARK Flexibility Score: inf
ROOT
ATOM      1  C   UNL     1      22.124  63.508  20.556  1.00  0.00     0.039 C 
ATOM      2  C   UNL     1      21.935  63.353  19.072  1.00  0.00    -0.077 C 
ATOM      3  C   UNL     1      20.692  63.457  18.555  1.00  0.00    -0.027 C 
ATOM      4  C   UNL     1      20.392  63.265  17.088  1.00  0.00     0.035 C 
ATOM      5  C   UNL     1      21.632  63.491  16.207  1.00  0.00     0.018 C 
ATOM      6  C   UNL     1      22.828  62.713  16.777  1.00  0.00     0.013 C 
ATOM      7  C   UNL     1      23.161  63.217  18.187  1.00  0.00     0.031 C 
ENDROOT
BRANCH   5   8
ATOM      8  C   UNL     1      21.359  63.113  14.757  1.00  0.00    -0.077 C 
ATOM      9  C   UNL     1      22.372  63.040  13.878  1.00  0.00     0.008 C 
ATOM     10  C   UNL     1      19.961  62.825  14.269  1.00  0.00     0.039 C 
ENDBRANCH   5   8
TORSDOF 1
ENDMDL
MODEL 4
REMARK VINA RESULT:    -3.868      1.021      4.926
REMARK INTER + INTRA:          -4.226
REMARK INTER:                  -4.099
REMARK INTRA:                  -0.127
REMARK UNBOUND:                -0.132
REMARK SMILES C=C(C)[C@H]1CC=C(C)CC1
REMARK SMILES IDX 8 1 7 2 6 3 5 4 4 5 10 6 9 7 2 8 1 9 3 10
REMARK H PARENT
REMARK Flexibility Score: inf
ROOT
ATOM      1  C   UNL     1      17.450  64.683  15.063  1.00  0.00     0.039 C 
ATOM      2  C   UNL     1      18.846  64.124  15.105  1.00  0.00    -0.077 C 
ATOM      3  C   UNL     1      19.290  63.391  14.061  1.00  0.00    -0.027 C 
ATOM      4  C   UNL     1      20.653  62.744  14.031  1.00  0.00     0.035 C 
ATOM      5  C   UNL     1      21.642  63.427  14.992  1.00  0.00     0.018 C 
ATOM      6  C   UNL     1      20.991  63.608  16.372  1.00  0.00     0.013 C 
ATOM      7  C   UNL     1      19.755  64.508  16.257  1.00  0.00     0.031 C 
ENDROOT
BRANCH   5   8
ATOM      8  C   UNL     1      22.949  62.650  15.088  1.00  0.00    -0.077 C 
ATOM      9  C   UNL     1      23.572  62.241  13.971  1.00  0.00     0.008 C 
ATOM     10  C   UNL     1      23.566  62.310  16.422  1.00  0.00     0.039 C 
ENDBRANCH   5   8
TORSDOF 1
ENDMDL
MODEL 5
REMARK VINA RESULT:    -3.865      2.164      4.036
REMARK INTER + INTRA:          -4.223
REMARK INTER:                  -4.099
REMARK INTRA:                  -0.124
REMARK UNBOUND:                -0.132
REMARK SMILES C=C(C)[C@H]1CC=C(C)CC1
REMARK SMILES IDX 8 1 7 2 6 3 5 4 4 5 10 6 9 7 2 8 1 9 3 10
REMARK H PARENT
REMARK Flexibility Score: inf
ROOT
ATOM      1  C   UNL     1      22.232  63.266  19.959  1.00  0.00     0.039 C 
ATOM      2  C   UNL     1      21.765  63.347  18.532  1.00  0.00    -0.077 C 
ATOM      3  C   UNL     1      22.646  63.099  17.539  1.00  0.00    -0.027 C 
ATOM      4  C   UNL     1      22.288  63.206  16.076  1.00  0.00     0.035 C 
ATOM      5  C   UNL     1      20.774  63.074  15.837  1.00  0.00     0.018 C 
ATOM      6  C   UNL     1      20.010  63.989  16.806  1.00  0.00     0.013 C 
ATOM      7  C   UNL     1      20.290  63.574  18.256  1.00  0.00     0.031 C 
ENDROOT
BRANCH   5   8
ATOM      8  C   UNL     1      20.414  63.370  14.387  1.00  0.00    -0.077 C 
ATOM      9  C   UNL     1      19.335  62.794  13.831  1.00  0.00     0.008 C 
ATOM     10  C   UNL     1      21.253  64.295  13.541  1.00  0.00     0.039 C 
ENDBRANCH   5   8
TORSDOF 1
ENDMDL
MODEL 6
REMARK VINA RESULT:    -3.831      2.303      4.924
REMARK INTER + INTRA:          -4.187
REMARK INTER:                  -4.059
REMARK INTRA:                  -0.128
REMARK UNBOUND:                -0.132
REMARK SMILES C=C(C)[C@H]1CC=C(C)CC1
REMARK SMILES IDX 8 1 7 2 6 3 5 4 4 5 10 6 9 7 2 8 1 9 3 10
REMARK H PARENT
REMARK Flexibility Score: inf
ROOT
ATOM      1  C   UNL     1      13.538  64.863  15.502  1.00  0.00     0.039 C 
ATOM      2  C   UNL     1      15.013  64.928  15.787  1.00  0.00    -0.077 C 
ATOM      3  C   UNL     1      15.432  64.938  17.072  1.00  0.00    -0.027 C 
ATOM      4  C   UNL     1      16.886  65.055  17.462  1.00  0.00     0.035 C 
ATOM      5  C   UNL     1      17.828  64.612  16.329  1.00  0.00     0.018 C 
ATOM      6  C   UNL     1      17.409  65.278  15.009  1.00  0.00     0.013 C 
ATOM      7  C   UNL     1      15.988  64.846  14.628  1.00  0.00     0.031 C 
ENDROOT
BRANCH   5   8
ATOM      8  C   UNL     1      19.282  64.910  16.669  1.00  0.00    -0.077 C 
ATOM      9  C   UNL     1      19.826  66.089  16.325  1.00  0.00     0.008 C 
ATOM     10  C   UNL     1      20.147  63.900  17.382  1.00  0.00     0.039 C 
ENDBRANCH   5   8
TORSDOF 1
ENDMDL
MODEL 7
REMARK VINA RESULT:    -3.693      3.151      4.298
REMARK INTER + INTRA:          -4.041
REMARK INTER:                  -3.915
REMARK INTRA:                  -0.126
REMARK UNBOUND:                -0.132
REMARK SMILES C=C(C)[C@H]1CC=C(C)CC1
REMARK SMILES IDX 8 1 7 2 6 3 5 4 4 5 10 6 9 7 2 8 1 9 3 10
REMARK H PARENT
REMARK Flexibility Score: inf
ROOT
ATOM      1  C   UNL     1      24.678  62.080  13.146  1.00  0.00     0.039 C 
ATOM      2  C   UNL     1      23.885  62.330  14.400  1.00  0.00    -0.077 C 
ATOM      3  C   UNL     1      24.337  61.833  15.571  1.00  0.00    -0.027 C 
ATOM      4  C   UNL     1      23.588  61.984  16.873  1.00  0.00     0.035 C 
ATOM      5  C   UNL     1      22.610  63.172  16.846  1.00  0.00     0.018 C 
ATOM      6  C   UNL     1      21.767  63.127  15.562  1.00  0.00     0.013 C 
ATOM      7  C   UNL     1      22.675  63.243  14.331  1.00  0.00     0.031 C 
ENDROOT
BRANCH   5   8
ATOM      8  C   UNL     1      21.733  63.196  18.091  1.00  0.00    -0.077 C 
ATOM      9  C   UNL     1      22.294  63.211  19.310  1.00  0.00     0.008 C 
ATOM     10  C   UNL     1      20.227  63.191  17.992  1.00  0.00     0.039 C 
ENDBRANCH   5   8
TORSDOF 1
ENDMDL
MODEL 8
REMARK VINA RESULT:    -3.680      2.381      3.965
REMARK INTER + INTRA:          -4.028
REMARK INTER:                  -3.906
REMARK INTRA:                  -0.122
REMARK UNBOUND:                -0.132
REMARK SMILES C=C(C)[C@H]1CC=C(C)CC1
REMARK SMILES IDX 8 1 7 2 6 3 5 4 4 5 10 6 9 7 2 8 1 9 3 10
REMARK H PARENT
REMARK Flexibility Score: inf
ROOT
ATOM      1  C   UNL     1      24.992  62.015  17.385  1.00  0.00     0.039 C 
ATOM      2  C   UNL     1      23.847  62.438  16.506  1.00  0.00    -0.077 C 
ATOM      3  C   UNL     1      23.970  62.315  15.166  1.00  0.00    -0.027 C 
ATOM      4  C   UNL     1      22.901  62.760  14.198  1.00  0.00     0.035 C 
ATOM      5  C   UNL     1      21.513  62.834  14.858  1.00  0.00     0.018 C 
ATOM      6  C   UNL     1      21.607  63.599  16.187  1.00  0.00     0.013 C 
ATOM      7  C   UNL     1      22.544  62.865  17.154  1.00  0.00     0.031 C 
ENDROOT
BRANCH   5   8
ATOM      8  C   UNL     1      20.487  63.460  13.923  1.00  0.00    -0.077 C 
ATOM      9  C   UNL     1      19.277  62.897  13.777  1.00  0.00     0.008 C 
ATOM     10  C   UNL     1      20.799  64.707  13.134  1.00  0.00     0.039 C 
ENDBRANCH   5   8
TORSDOF 1
ENDMDL
MODEL 9
REMARK VINA RESULT:    -3.679      0.950      4.617
REMARK INTER + INTRA:          -4.026
REMARK INTER:                  -3.897
REMARK INTRA:                  -0.129
REMARK UNBOUND:                -0.132
REMARK SMILES C=C(C)[C@H]1CC=C(C)CC1
REMARK SMILES IDX 8 1 7 2 6 3 5 4 4 5 10 6 9 7 2 8 1 9 3 10
REMARK H PARENT
REMARK Flexibility Score: inf
ROOT
ATOM      1  C   UNL     1      17.239  64.652  14.996  1.00  0.00     0.039 C 
ATOM      2  C   UNL     1      18.678  64.212  14.974  1.00  0.00    -0.077 C 
ATOM      3  C   UNL     1      19.538  64.740  15.872  1.00  0.00    -0.027 C 
ATOM      4  C   UNL     1      21.009  64.405  15.898  1.00  0.00     0.035 C 
ATOM      5  C   UNL     1      21.310  63.058  15.217  1.00  0.00     0.018 C 
ATOM      6  C   UNL     1      20.608  62.994  13.852  1.00  0.00     0.013 C 
ATOM      7  C   UNL     1      19.089  63.095  14.034  1.00  0.00     0.031 C 
ENDROOT
BRANCH   5   8
ATOM      8  C   UNL     1      22.809  62.825  15.087  1.00  0.00    -0.077 C 
ATOM      9  C   UNL     1      23.401  62.904  13.885  1.00  0.00     0.008 C 
ATOM     10  C   UNL     1      23.660  62.490  16.287  1.00  0.00     0.039 C 
ENDBRANCH   5   8
TORSDOF 1
ENDMDL
