MODEL 1
REMARK VINA RESULT:     9.279      0.000      0.000
REMARK INTER + INTRA:          16.234
REMARK INTER:                  16.874
REMARK INTRA:                  -0.640
REMARK UNBOUND:                -0.640
REMARK SMILES CCCCCCCCCCCCCCCC(=O)[O-]
REMARK SMILES IDX 9 1 10 2 11 3 12 4 13 5 14 6 15 7 16 8 17 9 18 10 8 11 7 12
REMARK SMILES IDX 6 13 5 14 4 15 3 16 2 17 1 18
REMARK H PARENT
REMARK Flexibility Score: inf
ROOT
ATOM      1  C   UNL     1       0.390   8.476  -4.487  1.00  0.00     0.000 C 
ENDROOT
BRANCH   1   2
ATOM      2  C   UNL     1       1.155   8.761  -5.790  1.00  0.00     0.000 C 
BRANCH   2   3
ATOM      3  C   UNL     1       0.330   8.421  -7.043  1.00  0.00     0.000 C 
BRANCH   3   4
ATOM      4  C   UNL     1       1.197   8.317  -8.309  1.00  0.00     0.000 C 
BRANCH   4   5
ATOM      5  C   UNL     1       2.480   9.155  -8.217  1.00  0.00     0.000 C 
BRANCH   5   6
ATOM      6  C   UNL     1       3.250   9.126  -9.545  1.00  0.00     0.006 C 
BRANCH   6   7
ATOM      7  C   UNL     1       3.111  10.440 -10.326  1.00  0.00     0.053 C 
BRANCH   7   8
ATOM      8  C   UNL     1       3.210  10.221 -11.805  1.00  0.00     0.041 C 
ATOM      9  O   UNL     1       3.745   9.174 -12.255  1.00  0.00    -0.550 OA
ATOM     10  O   UNL     1       2.681  11.156 -12.684  1.00  0.00    -0.550 OA
ENDBRANCH   7   8
ENDBRANCH   6   7
ENDBRANCH   5   6
ENDBRANCH   4   5
ENDBRANCH   3   4
ENDBRANCH   2   3
ENDBRANCH   1   2
BRANCH   1  11
ATOM     11  C   UNL     1       1.107   7.444  -3.598  1.00  0.00     0.000 C 
BRANCH  11  12
ATOM     12  C   UNL     1       2.633   7.633  -3.583  1.00  0.00    -0.000 C 
BRANCH  12  13
ATOM     13  C   UNL     1       3.306   6.909  -2.405  1.00  0.00    -0.000 C 
BRANCH  13  14
ATOM     14  C   UNL     1       4.714   7.449  -2.109  1.00  0.00    -0.000 C 
BRANCH  14  15
ATOM     15  C   UNL     1       5.824   6.604  -2.757  1.00  0.00    -0.000 C 
BRANCH  15  16
ATOM     16  C   UNL     1       5.290   5.320  -3.416  1.00  0.00    -0.000 C 
BRANCH  16  17
ATOM     17  C   UNL     1       6.356   4.474  -4.135  1.00  0.00    -0.003 C 
ATOM     18  C   UNL     1       6.786   3.245  -3.333  1.00  0.00     0.004 C 
ENDBRANCH  16  17
ENDBRANCH  15  16
ENDBRANCH  14  15
ENDBRANCH  13  14
ENDBRANCH  12  13
ENDBRANCH  11  12
ENDBRANCH   1  11
TORSDOF 14
ENDMDL
MODEL 2
REMARK VINA RESULT:     9.547      1.407      2.932
REMARK INTER + INTRA:          16.721
REMARK INTER:                  17.393
REMARK INTRA:                  -0.672
REMARK UNBOUND:                -0.640
REMARK SMILES CCCCCCCCCCCCCCCC(=O)[O-]
REMARK SMILES IDX 9 1 10 2 11 3 12 4 13 5 14 6 15 7 16 8 17 9 18 10 8 11 7 12
REMARK SMILES IDX 6 13 5 14 4 15 3 16 2 17 1 18
REMARK H PARENT
REMARK Flexibility Score: inf
ROOT
ATOM      1  C   UNL     1       2.839   7.612  -3.381  1.00  0.00     0.000 C 
ENDROOT
BRANCH   1   2
ATOM      2  C   UNL     1       1.381   7.163  -3.196  1.00  0.00     0.000 C 
BRANCH   2   3
ATOM      3  C   UNL     1       0.396   8.004  -4.028  1.00  0.00     0.000 C 
BRANCH   3   4
ATOM      4  C   UNL     1       1.085   8.742  -5.187  1.00  0.00     0.000 C 
BRANCH   4   5
ATOM      5  C   UNL     1       0.239   8.748  -6.470  1.00  0.00     0.000 C 
BRANCH   5   6
ATOM      6  C   UNL     1       0.879   7.867  -7.552  1.00  0.00     0.006 C 
BRANCH   6   7
ATOM      7  C   UNL     1       1.210   8.659  -8.825  1.00  0.00     0.053 C 
BRANCH   7   8
ATOM      8  C   UNL     1       2.620   9.166  -8.812  1.00  0.00     0.041 C 
ATOM      9  O   UNL     1       3.372   8.922  -7.833  1.00  0.00    -0.550 OA
ATOM     10  O   UNL     1       3.112   9.879  -9.898  1.00  0.00    -0.550 OA
ENDBRANCH   7   8
ENDBRANCH   6   7
ENDBRANCH   5   6
ENDBRANCH   4   5
ENDBRANCH   3   4
ENDBRANCH   2   3
ENDBRANCH   1   2
BRANCH   1  11
ATOM     11  C   UNL     1       3.696   7.361  -2.127  1.00  0.00     0.000 C 
BRANCH  11  12
ATOM     12  C   UNL     1       5.173   7.732  -2.335  1.00  0.00    -0.000 C 
BRANCH  12  13
ATOM     13  C   UNL     1       6.058   6.503  -2.602  1.00  0.00    -0.000 C 
BRANCH  13  14
ATOM     14  C   UNL     1       5.263   5.319  -3.176  1.00  0.00    -0.000 C 
BRANCH  14  15
ATOM     15  C   UNL     1       5.851   4.791  -4.496  1.00  0.00    -0.000 C 
BRANCH  15  16
ATOM     16  C   UNL     1       6.838   3.629  -4.288  1.00  0.00    -0.000 C 
BRANCH  16  17
ATOM     17  C   UNL     1       6.917   3.102  -2.844  1.00  0.00    -0.003 C 
ATOM     18  C   UNL     1       7.228   1.607  -2.768  1.00  0.00     0.004 C 
ENDBRANCH  16  17
ENDBRANCH  15  16
ENDBRANCH  14  15
ENDBRANCH  13  14
ENDBRANCH  12  13
ENDBRANCH  11  12
ENDBRANCH   1  11
TORSDOF 14
ENDMDL
MODEL 3
REMARK VINA RESULT:     9.670      2.265      3.263
REMARK INTER + INTRA:          16.944
REMARK INTER:                  17.615
REMARK INTRA:                  -0.672
REMARK UNBOUND:                -0.640
REMARK SMILES CCCCCCCCCCCCCCCC(=O)[O-]
REMARK SMILES IDX 9 1 10 2 11 3 12 4 13 5 14 6 15 7 16 8 17 9 18 10 8 11 7 12
REMARK SMILES IDX 6 13 5 14 4 15 3 16 2 17 1 18
REMARK H PARENT
REMARK Flexibility Score: inf
ROOT
ATOM      1  C   UNL     1       2.552   7.684  -3.381  1.00  0.00     0.000 C 
ENDROOT
BRANCH   1   2
ATOM      2  C   UNL     1       1.159   7.035  -3.351  1.00  0.00     0.000 C 
BRANCH   2   3
ATOM      3  C   UNL     1       0.210   7.630  -4.407  1.00  0.00     0.000 C 
BRANCH   3   4
ATOM      4  C   UNL     1       0.782   8.895  -5.067  1.00  0.00     0.000 C 
BRANCH   4   5
ATOM      5  C   UNL     1       1.300   8.637  -6.490  1.00  0.00     0.000 C 
BRANCH   5   6
ATOM      6  C   UNL     1       0.145   8.294  -7.441  1.00  0.00     0.006 C 
BRANCH   6   7
ATOM      7  C   UNL     1       0.590   8.261  -8.909  1.00  0.00     0.053 C 
BRANCH   7   8
ATOM      8  C   UNL     1      -0.524   8.637  -9.837  1.00  0.00     0.041 C 
ATOM      9  O   UNL     1      -1.390   9.477  -9.479  1.00  0.00    -0.550 OA
ATOM     10  O   UNL     1      -0.586   8.085 -11.110  1.00  0.00    -0.550 OA
ENDBRANCH   7   8
ENDBRANCH   6   7
ENDBRANCH   5   6
ENDBRANCH   4   5
ENDBRANCH   3   4
ENDBRANCH   2   3
ENDBRANCH   1   2
BRANCH   1  11
ATOM     11  C   UNL     1       3.483   7.130  -2.287  1.00  0.00     0.000 C 
BRANCH  11  12
ATOM     12  C   UNL     1       4.927   7.641  -2.423  1.00  0.00    -0.000 C 
BRANCH  12  13
ATOM     13  C   UNL     1       5.937   6.504  -2.645  1.00  0.00    -0.000 C 
BRANCH  13  14
ATOM     14  C   UNL     1       5.296   5.265  -3.291  1.00  0.00    -0.000 C 
BRANCH  14  15
ATOM     15  C   UNL     1       6.036   4.806  -4.560  1.00  0.00    -0.000 C 
BRANCH  15  16
ATOM     16  C   UNL     1       6.769   3.466  -4.372  1.00  0.00    -0.000 C 
BRANCH  16  17
ATOM     17  C   UNL     1       7.113   3.120  -2.913  1.00  0.00    -0.003 C 
ATOM     18  C   UNL     1       7.120   1.616  -2.640  1.00  0.00     0.004 C 
ENDBRANCH  16  17
ENDBRANCH  15  16
ENDBRANCH  14  15
ENDBRANCH  13  14
ENDBRANCH  12  13
ENDBRANCH  11  12
ENDBRANCH   1  11
TORSDOF 14
ENDMDL
MODEL 4
REMARK VINA RESULT:     9.737      2.139      3.977
REMARK INTER + INTRA:          17.065
REMARK INTER:                  17.874
REMARK INTRA:                  -0.809
REMARK UNBOUND:                -0.640
REMARK SMILES CCCCCCCCCCCCCCCC(=O)[O-]
REMARK SMILES IDX 9 1 10 2 11 3 12 4 13 5 14 6 15 7 16 8 17 9 18 10 8 11 7 12
REMARK SMILES IDX 6 13 5 14 4 15 3 16 2 17 1 18
REMARK H PARENT
REMARK Flexibility Score: inf
ROOT
ATOM      1  C   UNL     1       3.724   7.195  -2.017  1.00  0.00     0.000 C 
ENDROOT
BRANCH   1   2
ATOM      2  C   UNL     1       2.848   7.452  -3.254  1.00  0.00     0.000 C 
BRANCH   2   3
ATOM      3  C   UNL     1       1.345   7.423  -2.927  1.00  0.00     0.000 C 
BRANCH   3   4
ATOM      4  C   UNL     1       0.468   7.405  -4.190  1.00  0.00     0.000 C 
BRANCH   4   5
ATOM      5  C   UNL     1      -0.101   8.790  -4.533  1.00  0.00     0.000 C 
BRANCH   5   6
ATOM      6  C   UNL     1       0.479   9.309  -5.856  1.00  0.00     0.006 C 
BRANCH   6   7
ATOM      7  C   UNL     1       1.550   8.371  -6.428  1.00  0.00     0.053 C 
BRANCH   7   8
ATOM      8  C   UNL     1       1.714   8.550  -7.907  1.00  0.00     0.041 C 
ATOM      9  O   UNL     1       0.774   8.251  -8.689  1.00  0.00    -0.550 OA
ATOM     10  O   UNL     1       2.891   9.080  -8.418  1.00  0.00    -0.550 OA
ENDBRANCH   7   8
ENDBRANCH   6   7
ENDBRANCH   5   6
ENDBRANCH   4   5
ENDBRANCH   3   4
ENDBRANCH   2   3
ENDBRANCH   1   2
BRANCH   1  11
ATOM     11  C   UNL     1       5.118   7.836  -2.138  1.00  0.00     0.000 C 
BRANCH  11  12
ATOM     12  C   UNL     1       6.209   6.818  -2.509  1.00  0.00    -0.000 C 
BRANCH  12  13
ATOM     13  C   UNL     1       5.634   5.426  -2.821  1.00  0.00    -0.000 C 
BRANCH  13  14
ATOM     14  C   UNL     1       5.773   5.052  -4.306  1.00  0.00    -0.000 C 
BRANCH  14  15
ATOM     15  C   UNL     1       6.654   3.809  -4.526  1.00  0.00    -0.000 C 
BRANCH  15  16
ATOM     16  C   UNL     1       7.004   3.085  -3.214  1.00  0.00    -0.000 C 
BRANCH  16  17
ATOM     17  C   UNL     1       7.060   1.551  -3.321  1.00  0.00    -0.003 C 
ATOM     18  C   UNL     1       7.141   1.055  -4.765  1.00  0.00     0.004 C 
ENDBRANCH  16  17
ENDBRANCH  15  16
ENDBRANCH  14  15
ENDBRANCH  13  14
ENDBRANCH  12  13
ENDBRANCH  11  12
ENDBRANCH   1  11
TORSDOF 14
ENDMDL
MODEL 5
REMARK VINA RESULT:     9.810      3.249      7.657
REMARK INTER + INTRA:          17.198
REMARK INTER:                  17.748
REMARK INTRA:                  -0.550
REMARK UNBOUND:                -0.640
REMARK SMILES CCCCCCCCCCCCCCCC(=O)[O-]
REMARK SMILES IDX 9 1 10 2 11 3 12 4 13 5 14 6 15 7 16 8 17 9 18 10 8 11 7 12
REMARK SMILES IDX 6 13 5 14 4 15 3 16 2 17 1 18
REMARK H PARENT
REMARK Flexibility Score: inf
ROOT
ATOM      1  C   UNL     1       0.461   8.111  -4.233  1.00  0.00     0.000 C 
ENDROOT
BRANCH   1   2
ATOM      2  C   UNL     1       1.395   7.134  -3.501  1.00  0.00     0.000 C 
BRANCH   2   3
ATOM      3  C   UNL     1       2.841   7.651  -3.419  1.00  0.00     0.000 C 
BRANCH   3   4
ATOM      4  C   UNL     1       3.547   7.226  -2.121  1.00  0.00     0.000 C 
BRANCH   4   5
ATOM      5  C   UNL     1       5.010   7.692  -2.063  1.00  0.00     0.000 C 
BRANCH   5   6
ATOM      6  C   UNL     1       5.941   6.654  -2.706  1.00  0.00     0.006 C 
BRANCH   6   7
ATOM      7  C   UNL     1       5.180   5.419  -3.204  1.00  0.00     0.053 C 
BRANCH   7   8
ATOM      8  C   UNL     1       6.035   4.553  -4.078  1.00  0.00     0.041 C 
ATOM      9  O   UNL     1       6.770   3.668  -3.568  1.00  0.00    -0.550 OA
ATOM     10  O   UNL     1       5.994   4.702  -5.458  1.00  0.00    -0.550 OA
ENDBRANCH   7   8
ENDBRANCH   6   7
ENDBRANCH   5   6
ENDBRANCH   4   5
ENDBRANCH   3   4
ENDBRANCH   2   3
ENDBRANCH   1   2
BRANCH   1  11
ATOM     11  C   UNL     1       1.126   8.750  -5.465  1.00  0.00     0.000 C 
BRANCH  11  12
ATOM     12  C   UNL     1       0.335   8.501  -6.760  1.00  0.00    -0.000 C 
BRANCH  12  13
ATOM     13  C   UNL     1       1.243   8.410  -7.998  1.00  0.00    -0.000 C 
BRANCH  13  14
ATOM     14  C   UNL     1       2.639   9.005  -7.749  1.00  0.00    -0.000 C 
BRANCH  14  15
ATOM     15  C   UNL     1       3.449   9.184  -9.045  1.00  0.00    -0.000 C 
BRANCH  15  16
ATOM     16  C   UNL     1       2.649   9.884 -10.158  1.00  0.00    -0.000 C 
BRANCH  16  17
ATOM     17  C   UNL     1       3.368   9.959 -11.517  1.00  0.00    -0.003 C 
ATOM     18  C   UNL     1       2.723  10.954 -12.481  1.00  0.00     0.004 C 
ENDBRANCH  16  17
ENDBRANCH  15  16
ENDBRANCH  14  15
ENDBRANCH  13  14
ENDBRANCH  12  13
ENDBRANCH  11  12
ENDBRANCH   1  11
TORSDOF 14
ENDMDL
MODEL 6
REMARK VINA RESULT:     9.892      3.608      7.907
REMARK INTER + INTRA:          17.348
REMARK INTER:                  17.861
REMARK INTRA:                  -0.513
REMARK UNBOUND:                -0.640
REMARK SMILES CCCCCCCCCCCCCCCC(=O)[O-]
REMARK SMILES IDX 9 1 10 2 11 3 12 4 13 5 14 6 15 7 16 8 17 9 18 10 8 11 7 12
REMARK SMILES IDX 6 13 5 14 4 15 3 16 2 17 1 18
REMARK H PARENT
REMARK Flexibility Score: inf
ROOT
ATOM      1  C   UNL     1       0.496   8.254  -3.722  1.00  0.00     0.000 C 
ENDROOT
BRANCH   1   2
ATOM      2  C   UNL     1       1.435   7.200  -3.113  1.00  0.00     0.000 C 
BRANCH   2   3
ATOM      3  C   UNL     1       2.916   7.604  -3.212  1.00  0.00     0.000 C 
BRANCH   3   4
ATOM      4  C   UNL     1       3.731   7.160  -1.986  1.00  0.00     0.000 C 
BRANCH   4   5
ATOM      5  C   UNL     1       5.189   7.640  -2.040  1.00  0.00     0.000 C 
BRANCH   5   6
ATOM      6  C   UNL     1       6.080   6.605  -2.742  1.00  0.00     0.006 C 
BRANCH   6   7
ATOM      7  C   UNL     1       5.282   5.393  -3.240  1.00  0.00     0.053 C 
BRANCH   7   8
ATOM      8  C   UNL     1       6.094   4.531  -4.158  1.00  0.00     0.041 C 
ATOM      9  O   UNL     1       6.101   4.757  -5.396  1.00  0.00    -0.550 OA
ATOM     10  O   UNL     1       6.870   3.501  -3.641  1.00  0.00    -0.550 OA
ENDBRANCH   7   8
ENDBRANCH   6   7
ENDBRANCH   5   6
ENDBRANCH   4   5
ENDBRANCH   3   4
ENDBRANCH   2   3
ENDBRANCH   1   2
BRANCH   1  11
ATOM     11  C   UNL     1       0.051   7.891  -5.151  1.00  0.00     0.000 C 
BRANCH  11  12
ATOM     12  C   UNL     1       0.435   8.965  -6.182  1.00  0.00    -0.000 C 
BRANCH  12  13
ATOM     13  C   UNL     1       1.744   8.636  -6.917  1.00  0.00    -0.000 C 
BRANCH  13  14
ATOM     14  C   UNL     1       1.572   8.613  -8.444  1.00  0.00    -0.000 C 
BRANCH  14  15
ATOM     15  C   UNL     1       0.181   8.119  -8.879  1.00  0.00    -0.000 C 
BRANCH  15  16
ATOM     16  C   UNL     1      -0.218   8.612 -10.281  1.00  0.00    -0.000 C 
BRANCH  16  17
ATOM     17  C   UNL     1      -0.645   7.502 -11.257  1.00  0.00    -0.003 C 
ATOM     18  C   UNL     1      -0.566   7.929 -12.722  1.00  0.00     0.004 C 
ENDBRANCH  16  17
ENDBRANCH  15  16
ENDBRANCH  14  15
ENDBRANCH  13  14
ENDBRANCH  12  13
ENDBRANCH  11  12
ENDBRANCH   1  11
TORSDOF 14
ENDMDL
MODEL 7
REMARK VINA RESULT:     9.899      2.088      2.606
REMARK INTER + INTRA:          17.361
REMARK INTER:                  18.002
REMARK INTRA:                  -0.641
REMARK UNBOUND:                -0.640
REMARK SMILES CCCCCCCCCCCCCCCC(=O)[O-]
REMARK SMILES IDX 9 1 10 2 11 3 12 4 13 5 14 6 15 7 16 8 17 9 18 10 8 11 7 12
REMARK SMILES IDX 6 13 5 14 4 15 3 16 2 17 1 18
REMARK H PARENT
REMARK Flexibility Score: inf
ROOT
ATOM      1  C   UNL     1       1.019   7.698  -3.642  1.00  0.00     0.000 C 
ENDROOT
BRANCH   1   2
ATOM      2  C   UNL     1       0.306   8.030  -4.962  1.00  0.00     0.000 C 
BRANCH   2   3
ATOM      3  C   UNL     1       1.113   9.003  -5.839  1.00  0.00     0.000 C 
BRANCH   3   4
ATOM      4  C   UNL     1       1.404   8.434  -7.237  1.00  0.00     0.000 C 
BRANCH   4   5
ATOM      5  C   UNL     1       0.128   8.216  -8.064  1.00  0.00     0.000 C 
BRANCH   5   6
ATOM      6  C   UNL     1       0.430   8.294  -9.568  1.00  0.00     0.006 C 
BRANCH   6   7
ATOM      7  C   UNL     1      -0.848   8.375 -10.413  1.00  0.00     0.053 C 
BRANCH   7   8
ATOM      8  C   UNL     1      -0.665   7.746 -11.761  1.00  0.00     0.041 C 
ATOM      9  O   UNL     1      -0.767   6.500 -11.897  1.00  0.00    -0.550 OA
ATOM     10  O   UNL     1      -0.414   8.542 -12.872  1.00  0.00    -0.550 OA
ENDBRANCH   7   8
ENDBRANCH   6   7
ENDBRANCH   5   6
ENDBRANCH   4   5
ENDBRANCH   3   4
ENDBRANCH   2   3
ENDBRANCH   1   2
BRANCH   1  11
ATOM     11  C   UNL     1       2.553   7.718  -3.780  1.00  0.00     0.000 C 
BRANCH  11  12
ATOM     12  C   UNL     1       3.263   7.054  -2.588  1.00  0.00    -0.000 C 
BRANCH  12  13
ATOM     13  C   UNL     1       4.671   7.625  -2.348  1.00  0.00    -0.000 C 
BRANCH  13  14
ATOM     14  C   UNL     1       5.780   6.611  -2.672  1.00  0.00    -0.000 C 
BRANCH  14  15
ATOM     15  C   UNL     1       5.239   5.326  -3.324  1.00  0.00    -0.000 C 
BRANCH  15  16
ATOM     16  C   UNL     1       6.167   4.779  -4.423  1.00  0.00    -0.000 C 
BRANCH  16  17
ATOM     17  C   UNL     1       6.705   3.360  -4.164  1.00  0.00    -0.003 C 
ATOM     18  C   UNL     1       7.118   3.133  -2.710  1.00  0.00     0.004 C 
ENDBRANCH  16  17
ENDBRANCH  15  16
ENDBRANCH  14  15
ENDBRANCH  13  14
ENDBRANCH  12  13
ENDBRANCH  11  12
ENDBRANCH   1  11
TORSDOF 14
ENDMDL
MODEL 8
REMARK VINA RESULT:    10.562      3.839      8.219
REMARK INTER + INTRA:          18.566
REMARK INTER:                  19.438
REMARK INTRA:                  -0.872
REMARK UNBOUND:                -0.640
REMARK SMILES CCCCCCCCCCCCCCCC(=O)[O-]
REMARK SMILES IDX 9 1 10 2 11 3 12 4 13 5 14 6 15 7 16 8 17 9 18 10 8 11 7 12
REMARK SMILES IDX 6 13 5 14 4 15 3 16 2 17 1 18
REMARK H PARENT
REMARK Flexibility Score: inf
ROOT
ATOM      1  C   UNL     1       0.190   8.447  -7.001  1.00  0.00     0.000 C 
ENDROOT
BRANCH   1   2
ATOM      2  C   UNL     1       0.772   9.107  -5.741  1.00  0.00     0.000 C 
BRANCH   2   3
ATOM      3  C   UNL     1       0.135   8.570  -4.448  1.00  0.00     0.000 C 
BRANCH   3   4
ATOM      4  C   UNL     1       0.893   7.362  -3.875  1.00  0.00     0.000 C 
BRANCH   4   5
ATOM      5  C   UNL     1       2.383   7.655  -3.643  1.00  0.00     0.000 C 
BRANCH   5   6
ATOM      6  C   UNL     1       3.016   6.589  -2.737  1.00  0.00     0.006 C 
BRANCH   6   7
ATOM      7  C   UNL     1       4.015   7.192  -1.740  1.00  0.00     0.053 C 
BRANCH   7   8
ATOM      8  C   UNL     1       5.397   7.269  -2.315  1.00  0.00     0.041 C 
ATOM      9  O   UNL     1       5.847   6.321  -3.008  1.00  0.00    -0.550 OA
ATOM     10  O   UNL     1       6.172   8.404  -2.113  1.00  0.00    -0.550 OA
ENDBRANCH   7   8
ENDBRANCH   6   7
ENDBRANCH   5   6
ENDBRANCH   4   5
ENDBRANCH   3   4
ENDBRANCH   2   3
ENDBRANCH   1   2
BRANCH   1  11
ATOM     11  C   UNL     1       1.217   8.356  -8.145  1.00  0.00     0.000 C 
BRANCH  11  12
ATOM     12  C   UNL     1       2.608   8.866  -7.735  1.00  0.00    -0.000 C 
BRANCH  12  13
ATOM     13  C   UNL     1       3.501   9.184  -8.946  1.00  0.00    -0.000 C 
BRANCH  13  14
ATOM     14  C   UNL     1       2.736   9.905 -10.068  1.00  0.00    -0.000 C 
BRANCH  14  15
ATOM     15  C   UNL     1       3.616  10.199 -11.295  1.00  0.00    -0.000 C 
BRANCH  15  16
ATOM     16  C   UNL     1       3.152   9.450 -12.557  1.00  0.00    -0.000 C 
BRANCH  16  17
ATOM     17  C   UNL     1       2.311  10.293 -13.532  1.00  0.00    -0.003 C 
ATOM     18  C   UNL     1       2.501  11.797 -13.340  1.00  0.00     0.004 C 
ENDBRANCH  16  17
ENDBRANCH  15  16
ENDBRANCH  14  15
ENDBRANCH  13  14
ENDBRANCH  12  13
ENDBRANCH  11  12
ENDBRANCH   1  11
TORSDOF 14
ENDMDL
