MODEL 1
REMARK VINA RESULT:    -3.261      0.000      0.000
REMARK INTER + INTRA:          -8.331
REMARK INTER:                  -6.120
REMARK INTRA:                  -2.211
REMARK UNBOUND:                -2.211
REMARK SMILES O=C([O-])CCCCCCCCCCCCCCC(=O)[O-]
REMARK SMILES IDX 10 1 9 2 8 3 7 4 6 5 5 6 4 7 2 8 1 9 3 10 11 11 12 12 13 13
REMARK SMILES IDX 14 14 15 15 16 16 17 17 18 18 19 19 20 20
REMARK H PARENT
REMARK Flexibility Score: inf
ROOT
ATOM      1  C   UNL     1      59.642  29.356  51.254  1.00  0.00     0.000 C 
ENDROOT
BRANCH   1   2
ATOM      2  C   UNL     1      58.521  29.270  52.312  1.00  0.00     0.000 C 
BRANCH   2   3
ATOM      3  C   UNL     1      58.310  27.853  52.873  1.00  0.00     0.000 C 
BRANCH   3   4
ATOM      4  C   UNL     1      57.071  27.158  52.284  1.00  0.00     0.000 C 
BRANCH   4   5
ATOM      5  C   UNL     1      56.010  28.157  51.795  1.00  0.00     0.000 C 
BRANCH   5   6
ATOM      6  C   UNL     1      55.577  27.894  50.341  1.00  0.00     0.006 C 
BRANCH   6   7
ATOM      7  C   UNL     1      55.728  26.418  49.951  1.00  0.00     0.053 C 
BRANCH   7   8
ATOM      8  C   UNL     1      54.415  25.699  49.968  1.00  0.00     0.041 C 
ATOM      9  O   UNL     1      53.898  25.348  51.062  1.00  0.00    -0.550 OA
ATOM     10  O   UNL     1      53.776  25.388  48.774  1.00  0.00    -0.550 OA
ENDBRANCH   7   8
ENDBRANCH   6   7
ENDBRANCH   5   6
ENDBRANCH   4   5
ENDBRANCH   3   4
ENDBRANCH   2   3
ENDBRANCH   1   2
BRANCH   1  11
ATOM     11  C   UNL     1      59.109  29.139  49.827  1.00  0.00     0.000 C 
BRANCH  11  12
ATOM     12  C   UNL     1      59.939  28.116  49.036  1.00  0.00     0.000 C 
BRANCH  12  13
ATOM     13  C   UNL     1      60.274  26.862  49.862  1.00  0.00     0.000 C 
BRANCH  13  14
ATOM     14  C   UNL     1      59.253  25.732  49.662  1.00  0.00     0.000 C 
BRANCH  14  15
ATOM     15  C   UNL     1      59.485  24.548  50.614  1.00  0.00     0.000 C 
BRANCH  15  16
ATOM     16  C   UNL     1      60.934  24.522  51.114  1.00  0.00     0.006 C 
BRANCH  16  17
ATOM     17  C   UNL     1      61.811  23.651  50.208  1.00  0.00     0.053 C 
BRANCH  17  18
ATOM     18  C   UNL     1      61.211  22.290  50.050  1.00  0.00     0.041 C 
ATOM     19  O   UNL     1      61.109  21.522  51.042  1.00  0.00    -0.550 OA
ATOM     20  O   UNL     1      60.810  21.849  48.795  1.00  0.00    -0.550 OA
ENDBRANCH  17  18
ENDBRANCH  16  17
ENDBRANCH  15  16
ENDBRANCH  14  15
ENDBRANCH  13  14
ENDBRANCH  12  13
ENDBRANCH  11  12
ENDBRANCH   1  11
TORSDOF 15
ENDMDL
MODEL 2
REMARK VINA RESULT:    -3.131      2.465      6.178
REMARK INTER + INTRA:          -8.087
REMARK INTER:                  -6.084
REMARK INTRA:                  -2.004
REMARK UNBOUND:                -2.211
REMARK SMILES O=C([O-])CCCCCCCCCCCCCCC(=O)[O-]
REMARK SMILES IDX 10 1 9 2 8 3 7 4 6 5 5 6 4 7 2 8 1 9 3 10 11 11 12 12 13 13
REMARK SMILES IDX 14 14 15 15 16 16 17 17 18 18 19 19 20 20
REMARK H PARENT
REMARK Flexibility Score: inf
ROOT
ATOM      1  C   UNL     1      56.404  29.225  53.617  1.00  0.00     0.000 C 
ENDROOT
BRANCH   1   2
ATOM      2  C   UNL     1      57.513  30.261  53.332  1.00  0.00     0.000 C 
BRANCH   2   3
ATOM      3  C   UNL     1      58.363  29.929  52.094  1.00  0.00     0.000 C 
BRANCH   3   4
ATOM      4  C   UNL     1      57.604  29.080  51.061  1.00  0.00     0.000 C 
BRANCH   4   5
ATOM      5  C   UNL     1      58.360  28.956  49.728  1.00  0.00     0.000 C 
BRANCH   5   6
ATOM      6  C   UNL     1      59.888  28.995  49.909  1.00  0.00     0.006 C 
BRANCH   6   7
ATOM      7  C   UNL     1      60.571  27.746  49.335  1.00  0.00     0.053 C 
BRANCH   7   8
ATOM      8  C   UNL     1      60.301  26.531  50.167  1.00  0.00     0.041 C 
ATOM      9  O   UNL     1      59.995  25.440  49.617  1.00  0.00    -0.550 OA
ATOM     10  O   UNL     1      60.360  26.609  51.553  1.00  0.00    -0.550 OA
ENDBRANCH   7   8
ENDBRANCH   6   7
ENDBRANCH   5   6
ENDBRANCH   4   5
ENDBRANCH   3   4
ENDBRANCH   2   3
ENDBRANCH   1   2
BRANCH   1  11
ATOM     11  C   UNL     1      55.050  29.894  53.916  1.00  0.00     0.000 C 
BRANCH  11  12
ATOM     12  C   UNL     1      54.885  31.242  53.197  1.00  0.00     0.000 C 
BRANCH  12  13
ATOM     13  C   UNL     1      53.620  31.294  52.322  1.00  0.00     0.000 C 
BRANCH  13  14
ATOM     14  C   UNL     1      53.251  29.923  51.734  1.00  0.00     0.000 C 
BRANCH  14  15
ATOM     15  C   UNL     1      54.033  29.600  50.451  1.00  0.00     0.000 C 
BRANCH  15  16
ATOM     16  C   UNL     1      53.752  28.167  49.984  1.00  0.00     0.006 C 
BRANCH  16  17
ATOM     17  C   UNL     1      54.612  27.160  50.754  1.00  0.00     0.053 C 
BRANCH  17  18
ATOM     18  C   UNL     1      55.216  26.162  49.818  1.00  0.00     0.041 C 
ATOM     19  O   UNL     1      54.491  25.550  48.990  1.00  0.00    -0.550 OA
ATOM     20  O   UNL     1      56.572  25.870  49.893  1.00  0.00    -0.550 OA
ENDBRANCH  17  18
ENDBRANCH  16  17
ENDBRANCH  15  16
ENDBRANCH  14  15
ENDBRANCH  13  14
ENDBRANCH  12  13
ENDBRANCH  11  12
ENDBRANCH   1  11
TORSDOF 15
ENDMDL
MODEL 3
REMARK VINA RESULT:    -3.117     11.582     13.600
REMARK INTER + INTRA:          -8.062
REMARK INTER:                  -6.460
REMARK INTRA:                  -1.601
REMARK UNBOUND:                -2.211
REMARK SMILES O=C([O-])CCCCCCCCCCCCCCC(=O)[O-]
REMARK SMILES IDX 10 1 9 2 8 3 7 4 6 5 5 6 4 7 2 8 1 9 3 10 11 11 12 12 13 13
REMARK SMILES IDX 14 14 15 15 16 16 17 17 18 18 19 19 20 20
REMARK H PARENT
REMARK Flexibility Score: inf
ROOT
ATOM      1  C   UNL     1      60.690  30.533  58.603  1.00  0.00     0.000 C 
ENDROOT
BRANCH   1   2
ATOM      2  C   UNL     1      60.479  31.928  59.228  1.00  0.00     0.000 C 
BRANCH   2   3
ATOM      3  C   UNL     1      61.678  32.874  59.045  1.00  0.00     0.000 C 
BRANCH   3   4
ATOM      4  C   UNL     1      62.096  33.567  60.352  1.00  0.00     0.000 C 
BRANCH   4   5
ATOM      5  C   UNL     1      61.536  34.994  60.469  1.00  0.00     0.000 C 
BRANCH   5   6
ATOM      6  C   UNL     1      62.529  35.966  61.130  1.00  0.00     0.006 C 
BRANCH   6   7
ATOM      7  C   UNL     1      63.905  35.324  61.354  1.00  0.00     0.053 C 
BRANCH   7   8
ATOM      8  C   UNL     1      65.000  36.111  60.703  1.00  0.00     0.041 C 
ATOM      9  O   UNL     1      66.155  36.126  61.206  1.00  0.00    -0.550 OA
ATOM     10  O   UNL     1      64.739  36.853  59.558  1.00  0.00    -0.550 OA
ENDBRANCH   7   8
ENDBRANCH   6   7
ENDBRANCH   5   6
ENDBRANCH   4   5
ENDBRANCH   3   4
ENDBRANCH   2   3
ENDBRANCH   1   2
BRANCH   1  11
ATOM     11  C   UNL     1      61.169  29.501  59.639  1.00  0.00     0.000 C 
BRANCH  11  12
ATOM     12  C   UNL     1      60.827  29.908  61.080  1.00  0.00     0.000 C 
BRANCH  12  13
ATOM     13  C   UNL     1      62.080  30.167  61.935  1.00  0.00     0.000 C 
BRANCH  13  14
ATOM     14  C   UNL     1      63.358  29.603  61.294  1.00  0.00     0.000 C 
BRANCH  14  15
ATOM     15  C   UNL     1      64.406  30.690  61.008  1.00  0.00     0.000 C 
BRANCH  15  16
ATOM     16  C   UNL     1      65.615  30.106  60.268  1.00  0.00     0.006 C 
BRANCH  16  17
ATOM     17  C   UNL     1      65.769  28.610  60.563  1.00  0.00     0.053 C 
BRANCH  17  18
ATOM     18  C   UNL     1      67.187  28.289  60.914  1.00  0.00     0.041 C 
ATOM     19  O   UNL     1      67.793  28.965  61.786  1.00  0.00    -0.550 OA
ATOM     20  O   UNL     1      67.856  27.274  60.243  1.00  0.00    -0.550 OA
ENDBRANCH  17  18
ENDBRANCH  16  17
ENDBRANCH  15  16
ENDBRANCH  14  15
ENDBRANCH  13  14
ENDBRANCH  12  13
ENDBRANCH  11  12
ENDBRANCH   1  11
TORSDOF 15
ENDMDL
MODEL 4
REMARK VINA RESULT:    -3.106     10.741     13.526
REMARK INTER + INTRA:          -8.040
REMARK INTER:                  -5.550
REMARK INTRA:                  -2.490
REMARK UNBOUND:                -2.211
REMARK SMILES O=C([O-])CCCCCCCCCCCCCCC(=O)[O-]
REMARK SMILES IDX 10 1 9 2 8 3 7 4 6 5 5 6 4 7 2 8 1 9 3 10 11 11 12 12 13 13
REMARK SMILES IDX 14 14 15 15 16 16 17 17 18 18 19 19 20 20
REMARK H PARENT
REMARK Flexibility Score: inf
ROOT
ATOM      1  C   UNL     1      61.755  31.002  57.815  1.00  0.00     0.000 C 
ENDROOT
BRANCH   1   2
ATOM      2  C   UNL     1      60.724  30.935  58.962  1.00  0.00     0.000 C 
BRANCH   2   3
ATOM      3  C   UNL     1      60.877  32.063  59.996  1.00  0.00     0.000 C 
BRANCH   3   4
ATOM      4  C   UNL     1      61.164  31.538  61.412  1.00  0.00     0.000 C 
BRANCH   4   5
ATOM      5  C   UNL     1      61.565  30.054  61.422  1.00  0.00     0.000 C 
BRANCH   5   6
ATOM      6  C   UNL     1      63.083  29.852  61.574  1.00  0.00     0.006 C 
BRANCH   6   7
ATOM      7  C   UNL     1      63.682  29.061  60.404  1.00  0.00     0.053 C 
BRANCH   7   8
ATOM      8  C   UNL     1      65.084  28.618  60.689  1.00  0.00     0.041 C 
ATOM      9  O   UNL     1      65.977  29.468  60.949  1.00  0.00    -0.550 OA
ATOM     10  O   UNL     1      65.412  27.269  60.639  1.00  0.00    -0.550 OA
ENDBRANCH   7   8
ENDBRANCH   6   7
ENDBRANCH   5   6
ENDBRANCH   4   5
ENDBRANCH   3   4
ENDBRANCH   2   3
ENDBRANCH   1   2
BRANCH   1  11
ATOM     11  C   UNL     1      62.380  32.402  57.680  1.00  0.00     0.000 C 
BRANCH  11  12
ATOM     12  C   UNL     1      63.910  32.355  57.546  1.00  0.00     0.000 C 
BRANCH  12  13
ATOM     13  C   UNL     1      64.620  33.269  58.561  1.00  0.00     0.000 C 
BRANCH  13  14
ATOM     14  C   UNL     1      64.660  32.664  59.973  1.00  0.00     0.000 C 
BRANCH  14  15
ATOM     15  C   UNL     1      64.073  33.605  61.037  1.00  0.00     0.000 C 
BRANCH  15  16
ATOM     16  C   UNL     1      64.231  35.072  60.619  1.00  0.00     0.006 C 
BRANCH  16  17
ATOM     17  C   UNL     1      63.087  35.926  61.174  1.00  0.00     0.053 C 
BRANCH  17  18
ATOM     18  C   UNL     1      61.902  35.872  60.262  1.00  0.00     0.041 C 
ATOM     19  O   UNL     1      60.736  35.924  60.734  1.00  0.00    -0.550 OA
ATOM     20  O   UNL     1      62.085  35.715  58.894  1.00  0.00    -0.550 OA
ENDBRANCH  17  18
ENDBRANCH  16  17
ENDBRANCH  15  16
ENDBRANCH  14  15
ENDBRANCH  13  14
ENDBRANCH  12  13
ENDBRANCH  11  12
ENDBRANCH   1  11
TORSDOF 15
ENDMDL
MODEL 5
REMARK VINA RESULT:    -3.074     11.295     13.771
REMARK INTER + INTRA:          -7.980
REMARK INTER:                  -5.820
REMARK INTRA:                  -2.160
REMARK UNBOUND:                -2.211
REMARK SMILES O=C([O-])CCCCCCCCCCCCCCC(=O)[O-]
REMARK SMILES IDX 10 1 9 2 8 3 7 4 6 5 5 6 4 7 2 8 1 9 3 10 11 11 12 12 13 13
REMARK SMILES IDX 14 14 15 15 16 16 17 17 18 18 19 19 20 20
REMARK H PARENT
REMARK Flexibility Score: inf
ROOT
ATOM      1  C   UNL     1      63.378  32.304  58.970  1.00  0.00     0.000 C 
ENDROOT
BRANCH   1   2
ATOM      2  C   UNL     1      61.850  32.108  58.865  1.00  0.00     0.000 C 
BRANCH   2   3
ATOM      3  C   UNL     1      61.078  32.611  60.096  1.00  0.00     0.000 C 
BRANCH   3   4
ATOM      4  C   UNL     1      61.174  31.650  61.293  1.00  0.00     0.000 C 
BRANCH   4   5
ATOM      5  C   UNL     1      60.947  30.183  60.892  1.00  0.00     0.000 C 
BRANCH   5   6
ATOM      6  C   UNL     1      62.037  29.245  61.438  1.00  0.00     0.006 C 
BRANCH   6   7
ATOM      7  C   UNL     1      63.366  29.976  61.671  1.00  0.00     0.053 C 
BRANCH   7   8
ATOM      8  C   UNL     1      64.505  29.298  60.972  1.00  0.00     0.041 C 
ATOM      9  O   UNL     1      64.442  28.069  60.704  1.00  0.00    -0.550 OA
ATOM     10  O   UNL     1      65.647  30.017  60.644  1.00  0.00    -0.550 OA
ENDBRANCH   7   8
ENDBRANCH   6   7
ENDBRANCH   5   6
ENDBRANCH   4   5
ENDBRANCH   3   4
ENDBRANCH   2   3
ENDBRANCH   1   2
BRANCH   1  11
ATOM     11  C   UNL     1      63.761  33.783  59.147  1.00  0.00     0.000 C 
BRANCH  11  12
ATOM     12  C   UNL     1      64.425  34.063  60.505  1.00  0.00     0.000 C 
BRANCH  12  13
ATOM     13  C   UNL     1      63.742  35.209  61.271  1.00  0.00     0.000 C 
BRANCH  13  14
ATOM     14  C   UNL     1      62.860  36.082  60.366  1.00  0.00     0.000 C 
BRANCH  14  15
ATOM     15  C   UNL     1      61.420  36.211  60.887  1.00  0.00     0.000 C 
BRANCH  15  16
ATOM     16  C   UNL     1      60.487  36.749  59.796  1.00  0.00     0.006 C 
BRANCH  16  17
ATOM     17  C   UNL     1      60.628  35.936  58.504  1.00  0.00     0.053 C 
BRANCH  17  18
ATOM     18  C   UNL     1      59.283  35.527  57.994  1.00  0.00     0.041 C 
ATOM     19  O   UNL     1      59.046  34.319  57.729  1.00  0.00    -0.550 OA
ATOM     20  O   UNL     1      58.305  36.486  57.763  1.00  0.00    -0.550 OA
ENDBRANCH  17  18
ENDBRANCH  16  17
ENDBRANCH  15  16
ENDBRANCH  14  15
ENDBRANCH  13  14
ENDBRANCH  12  13
ENDBRANCH  11  12
ENDBRANCH   1  11
TORSDOF 15
ENDMDL
MODEL 6
REMARK VINA RESULT:    -3.061      2.067      2.887
REMARK INTER + INTRA:          -7.956
REMARK INTER:                  -5.302
REMARK INTRA:                  -2.653
REMARK UNBOUND:                -2.211
REMARK SMILES O=C([O-])CCCCCCCCCCCCCCC(=O)[O-]
REMARK SMILES IDX 10 1 9 2 8 3 7 4 6 5 5 6 4 7 2 8 1 9 3 10 11 11 12 12 13 13
REMARK SMILES IDX 14 14 15 15 16 16 17 17 18 18 19 19 20 20
REMARK H PARENT
REMARK Flexibility Score: inf
ROOT
ATOM      1  C   UNL     1      60.665  27.480  53.022  1.00  0.00     0.000 C 
ENDROOT
BRANCH   1   2
ATOM      2  C   UNL     1      59.485  28.378  52.592  1.00  0.00     0.000 C 
BRANCH   2   3
ATOM      3  C   UNL     1      59.621  28.933  51.164  1.00  0.00     0.000 C 
BRANCH   3   4
ATOM      4  C   UNL     1      58.308  28.857  50.368  1.00  0.00     0.000 C 
BRANCH   4   5
ATOM      5  C   UNL     1      57.145  28.291  51.200  1.00  0.00     0.000 C 
BRANCH   5   6
ATOM      6  C   UNL     1      55.870  28.076  50.365  1.00  0.00     0.006 C 
BRANCH   6   7
ATOM      7  C   UNL     1      55.634  26.595  50.041  1.00  0.00     0.053 C 
BRANCH   7   8
ATOM      8  C   UNL     1      54.238  26.345  49.559  1.00  0.00     0.041 C 
ATOM      9  O   UNL     1      53.416  27.296  49.478  1.00  0.00    -0.550 OA
ATOM     10  O   UNL     1      53.835  25.058  49.228  1.00  0.00    -0.550 OA
ENDBRANCH   7   8
ENDBRANCH   6   7
ENDBRANCH   5   6
ENDBRANCH   4   5
ENDBRANCH   3   4
ENDBRANCH   2   3
ENDBRANCH   1   2
BRANCH   1  11
ATOM     11  C   UNL     1      60.200  26.075  53.445  1.00  0.00     0.000 C 
BRANCH  11  12
ATOM     12  C   UNL     1      58.673  25.978  53.590  1.00  0.00     0.000 C 
BRANCH  12  13
ATOM     13  C   UNL     1      58.051  24.955  52.624  1.00  0.00     0.000 C 
BRANCH  13  14
ATOM     14  C   UNL     1      59.061  24.427  51.593  1.00  0.00     0.000 C 
BRANCH  14  15
ATOM     15  C   UNL     1      58.953  25.144  50.238  1.00  0.00     0.000 C 
BRANCH  15  16
ATOM     16  C   UNL     1      60.338  25.548  49.719  1.00  0.00     0.006 C 
BRANCH  16  17
ATOM     17  C   UNL     1      61.420  24.601  50.247  1.00  0.00     0.053 C 
BRANCH  17  18
ATOM     18  C   UNL     1      62.665  25.361  50.580  1.00  0.00     0.041 C 
ATOM     19  O   UNL     1      63.295  25.113  51.641  1.00  0.00    -0.550 OA
ATOM     20  O   UNL     1      63.101  26.379  49.743  1.00  0.00    -0.550 OA
ENDBRANCH  17  18
ENDBRANCH  16  17
ENDBRANCH  15  16
ENDBRANCH  14  15
ENDBRANCH  13  14
ENDBRANCH  12  13
ENDBRANCH  11  12
ENDBRANCH   1  11
TORSDOF 15
ENDMDL
MODEL 7
REMARK VINA RESULT:    -3.050     12.154     14.196
REMARK INTER + INTRA:          -7.936
REMARK INTER:                  -6.117
REMARK INTRA:                  -1.819
REMARK UNBOUND:                -2.211
REMARK SMILES O=C([O-])CCCCCCCCCCCCCCC(=O)[O-]
REMARK SMILES IDX 10 1 9 2 8 3 7 4 6 5 5 6 4 7 2 8 1 9 3 10 11 11 12 12 13 13
REMARK SMILES IDX 14 14 15 15 16 16 17 17 18 18 19 19 20 20
REMARK H PARENT
REMARK Flexibility Score: inf
ROOT
ATOM      1  C   UNL     1      62.263  33.552  60.668  1.00  0.00     0.000 C 
ENDROOT
BRANCH   1   2
ATOM      2  C   UNL     1      62.268  32.020  60.476  1.00  0.00     0.000 C 
BRANCH   2   3
ATOM      3  C   UNL     1      61.017  31.324  61.037  1.00  0.00     0.000 C 
BRANCH   3   4
ATOM      4  C   UNL     1      61.181  29.800  61.144  1.00  0.00     0.000 C 
BRANCH   4   5
ATOM      5  C   UNL     1      62.527  29.393  61.765  1.00  0.00     0.000 C 
BRANCH   5   6
ATOM      6  C   UNL     1      63.231  28.276  60.972  1.00  0.00     0.006 C 
BRANCH   6   7
ATOM      7  C   UNL     1      64.116  28.834  59.850  1.00  0.00     0.053 C 
BRANCH   7   8
ATOM      8  C   UNL     1      65.316  29.549  60.389  1.00  0.00     0.041 C 
ATOM      9  O   UNL     1      65.539  30.746  60.065  1.00  0.00    -0.550 OA
ATOM     10  O   UNL     1      66.204  28.885  61.225  1.00  0.00    -0.550 OA
ENDBRANCH   7   8
ENDBRANCH   6   7
ENDBRANCH   5   6
ENDBRANCH   4   5
ENDBRANCH   3   4
ENDBRANCH   2   3
ENDBRANCH   1   2
BRANCH   1  11
ATOM     11  C   UNL     1      61.477  34.272  59.559  1.00  0.00     0.000 C 
BRANCH  11  12
ATOM     12  C   UNL     1      61.560  35.803  59.674  1.00  0.00     0.000 C 
BRANCH  12  13
ATOM     13  C   UNL     1      62.005  36.267  61.072  1.00  0.00     0.000 C 
BRANCH  13  14
ATOM     14  C   UNL     1      63.279  37.125  61.031  1.00  0.00     0.000 C 
BRANCH  14  15
ATOM     15  C   UNL     1      64.421  36.529  61.870  1.00  0.00     0.000 C 
BRANCH  15  16
ATOM     16  C   UNL     1      65.262  35.554  61.039  1.00  0.00     0.006 C 
BRANCH  16  17
ATOM     17  C   UNL     1      65.499  36.098  59.626  1.00  0.00     0.053 C 
BRANCH  17  18
ATOM     18  C   UNL     1      65.058  35.103  58.600  1.00  0.00     0.041 C 
ATOM     19  O   UNL     1      65.204  33.870  58.809  1.00  0.00    -0.550 OA
ATOM     20  O   UNL     1      64.532  35.538  57.391  1.00  0.00    -0.550 OA
ENDBRANCH  17  18
ENDBRANCH  16  17
ENDBRANCH  15  16
ENDBRANCH  14  15
ENDBRANCH  13  14
ENDBRANCH  12  13
ENDBRANCH  11  12
ENDBRANCH   1  11
TORSDOF 15
ENDMDL
MODEL 8
REMARK VINA RESULT:    -3.015      1.907      3.142
REMARK INTER + INTRA:          -7.870
REMARK INTER:                  -6.310
REMARK INTRA:                  -1.559
REMARK UNBOUND:                -2.211
REMARK SMILES O=C([O-])CCCCCCCCCCCCCCC(=O)[O-]
REMARK SMILES IDX 10 1 9 2 8 3 7 4 6 5 5 6 4 7 2 8 1 9 3 10 11 11 12 12 13 13
REMARK SMILES IDX 14 14 15 15 16 16 17 17 18 18 19 19 20 20
REMARK H PARENT
REMARK Flexibility Score: inf
ROOT
ATOM      1  C   UNL     1      57.568  26.894  50.902  1.00  0.00     0.000 C 
ENDROOT
BRANCH   1   2
ATOM      2  C   UNL     1      56.644  25.915  50.145  1.00  0.00     0.000 C 
BRANCH   2   3
ATOM      3  C   UNL     1      55.303  26.537  49.720  1.00  0.00     0.000 C 
BRANCH   3   4
ATOM      4  C   UNL     1      54.251  25.482  49.338  1.00  0.00     0.000 C 
BRANCH   4   5
ATOM      5  C   UNL     1      53.415  25.019  50.543  1.00  0.00     0.000 C 
BRANCH   5   6
ATOM      6  C   UNL     1      52.947  26.191  51.423  1.00  0.00     0.006 C 
BRANCH   6   7
ATOM      7  C   UNL     1      53.292  25.976  52.903  1.00  0.00     0.053 C 
BRANCH   7   8
ATOM      8  C   UNL     1      54.626  26.558  53.254  1.00  0.00     0.041 C 
ATOM      9  O   UNL     1      54.852  27.784  53.069  1.00  0.00    -0.550 OA
ATOM     10  O   UNL     1      55.631  25.743  53.759  1.00  0.00    -0.550 OA
ENDBRANCH   7   8
ENDBRANCH   6   7
ENDBRANCH   5   6
ENDBRANCH   4   5
ENDBRANCH   3   4
ENDBRANCH   2   3
ENDBRANCH   1   2
BRANCH   1  11
ATOM     11  C   UNL     1      57.385  28.346  50.428  1.00  0.00     0.000 C 
BRANCH  11  12
ATOM     12  C   UNL     1      58.642  28.908  49.747  1.00  0.00     0.000 C 
BRANCH  12  13
ATOM     13  C   UNL     1      59.608  27.803  49.285  1.00  0.00     0.000 C 
BRANCH  13  14
ATOM     14  C   UNL     1      61.017  27.965  49.877  1.00  0.00     0.000 C 
BRANCH  14  15
ATOM     15  C   UNL     1      61.821  26.656  49.859  1.00  0.00     0.000 C 
BRANCH  15  16
ATOM     16  C   UNL     1      60.901  25.444  50.046  1.00  0.00     0.006 C 
BRANCH  16  17
ATOM     17  C   UNL     1      61.713  24.150  50.157  1.00  0.00     0.053 C 
BRANCH  17  18
ATOM     18  C   UNL     1      60.811  22.958  50.088  1.00  0.00     0.041 C 
ATOM     19  O   UNL     1      60.050  22.682  51.052  1.00  0.00    -0.550 OA
ATOM     20  O   UNL     1      60.848  22.123  48.979  1.00  0.00    -0.550 OA
ENDBRANCH  17  18
ENDBRANCH  16  17
ENDBRANCH  15  16
ENDBRANCH  14  15
ENDBRANCH  13  14
ENDBRANCH  12  13
ENDBRANCH  11  12
ENDBRANCH   1  11
TORSDOF 15
ENDMDL
MODEL 9
REMARK VINA RESULT:    -3.014      3.917      7.798
REMARK INTER + INTRA:          -7.868
REMARK INTER:                  -5.970
REMARK INTRA:                  -1.897
REMARK UNBOUND:                -2.211
REMARK SMILES O=C([O-])CCCCCCCCCCCCCCC(=O)[O-]
REMARK SMILES IDX 10 1 9 2 8 3 7 4 6 5 5 6 4 7 2 8 1 9 3 10 11 11 12 12 13 13
REMARK SMILES IDX 14 14 15 15 16 16 17 17 18 18 19 19 20 20
REMARK H PARENT
REMARK Flexibility Score: inf
ROOT
ATOM      1  C   UNL     1      54.666  26.040  50.198  1.00  0.00     0.000 C 
ENDROOT
BRANCH   1   2
ATOM      2  C   UNL     1      56.131  26.484  49.998  1.00  0.00     0.000 C 
BRANCH   2   3
ATOM      3  C   UNL     1      56.941  26.542  51.305  1.00  0.00     0.000 C 
BRANCH   3   4
ATOM      4  C   UNL     1      57.925  27.723  51.343  1.00  0.00     0.000 C 
BRANCH   4   5
ATOM      5  C   UNL     1      57.704  28.714  50.188  1.00  0.00     0.000 C 
BRANCH   5   6
ATOM      6  C   UNL     1      58.999  29.016  49.413  1.00  0.00     0.006 C 
BRANCH   6   7
ATOM      7  C   UNL     1      59.899  27.779  49.286  1.00  0.00     0.053 C 
BRANCH   7   8
ATOM      8  C   UNL     1      61.302  28.064  49.723  1.00  0.00     0.041 C 
ATOM      9  O   UNL     1      61.536  28.994  50.540  1.00  0.00    -0.550 OA
ATOM     10  O   UNL     1      62.357  27.321  49.207  1.00  0.00    -0.550 OA
ENDBRANCH   7   8
ENDBRANCH   6   7
ENDBRANCH   5   6
ENDBRANCH   4   5
ENDBRANCH   3   4
ENDBRANCH   2   3
ENDBRANCH   1   2
BRANCH   1  11
ATOM     11  C   UNL     1      53.667  27.106  49.713  1.00  0.00     0.000 C 
BRANCH  11  12
ATOM     12  C   UNL     1      54.117  28.535  50.052  1.00  0.00     0.000 C 
BRANCH  12  13
ATOM     13  C   UNL     1      53.033  29.336  50.795  1.00  0.00     0.000 C 
BRANCH  13  14
ATOM     14  C   UNL     1      53.342  29.500  52.291  1.00  0.00     0.000 C 
BRANCH  14  15
ATOM     15  C   UNL     1      54.829  29.292  52.616  1.00  0.00     0.000 C 
BRANCH  15  16
ATOM     16  C   UNL     1      55.246  30.123  53.835  1.00  0.00     0.006 C 
BRANCH  16  17
ATOM     17  C   UNL     1      56.277  31.187  53.447  1.00  0.00     0.053 C 
BRANCH  17  18
ATOM     18  C   UNL     1      55.682  32.556  53.551  1.00  0.00     0.041 C 
ATOM     19  O   UNL     1      54.679  32.865  52.856  1.00  0.00    -0.550 OA
ATOM     20  O   UNL     1      56.266  33.507  54.378  1.00  0.00    -0.550 OA
ENDBRANCH  17  18
ENDBRANCH  16  17
ENDBRANCH  15  16
ENDBRANCH  14  15
ENDBRANCH  13  14
ENDBRANCH  12  13
ENDBRANCH  11  12
ENDBRANCH   1  11
TORSDOF 15
ENDMDL
