MODEL 1
REMARK VINA RESULT:    -5.480      0.000      0.000
REMARK INTER + INTRA:          -5.480
REMARK INTER:                  -5.480
REMARK INTRA:                   0.000
REMARK UNBOUND:                 0.000
REMARK SMILES O=c1ccc2ccccc2o1
REMARK SMILES IDX 7 1 8 2 9 3 10 4 5 5 6 6 4 7 3 8 2 9 1 10 11 11
REMARK H PARENT
REMARK Flexibility Score: inf
ROOT
ATOM      1  C   UNL     1      -4.021  10.125  -6.400  1.00  0.00     0.001 A 
ATOM      2  C   UNL     1      -3.809  10.125  -7.783  1.00  0.00     0.004 A 
ATOM      3  C   UNL     1      -2.508  10.125  -8.296  1.00  0.00     0.048 A 
ATOM      4  C   UNL     1      -1.412  10.124  -7.426  1.00  0.00     0.138 A 
ATOM      5  C   UNL     1      -1.624  10.123  -6.029  1.00  0.00     0.018 A 
ATOM      6  C   UNL     1      -2.932  10.125  -5.521  1.00  0.00     0.012 A 
ATOM      7  C   UNL     1      -0.511  10.123  -5.185  1.00  0.00     0.019 A 
ATOM      8  C   UNL     1       0.768  10.122  -5.741  1.00  0.00     0.094 A 
ATOM      9  C   UNL     1       0.903  10.122  -7.133  1.00  0.00     0.336 A 
ATOM     10  O   UNL     1       2.050  10.122  -7.653  1.00  0.00    -0.246 OA
ATOM     11  O   UNL     1      -0.174  10.123  -7.915  1.00  0.00    -0.423 OA
ENDROOT
TORSDOF 0
ENDMDL
MODEL 2
REMARK VINA RESULT:    -5.247     17.451     18.223
REMARK INTER + INTRA:          -5.247
REMARK INTER:                  -5.247
REMARK INTRA:                   0.000
REMARK UNBOUND:                 0.000
REMARK SMILES O=c1ccc2ccccc2o1
REMARK SMILES IDX 7 1 8 2 9 3 10 4 5 5 6 6 4 7 3 8 2 9 1 10 11 11
REMARK H PARENT
REMARK Flexibility Score: inf
ROOT
ATOM      1  C   UNL     1       1.377  -4.521   3.632  1.00  0.00     0.001 A 
ATOM      2  C   UNL     1       1.278  -5.895   3.876  1.00  0.00     0.004 A 
ATOM      3  C   UNL     1       0.742  -6.745   2.903  1.00  0.00     0.048 A 
ATOM      4  C   UNL     1       0.304  -6.224   1.681  1.00  0.00     0.138 A 
ATOM      5  C   UNL     1       0.405  -4.837   1.433  1.00  0.00     0.018 A 
ATOM      6  C   UNL     1       0.942  -3.989   2.413  1.00  0.00     0.012 A 
ATOM      7  C   UNL     1      -0.041  -4.344   0.204  1.00  0.00     0.019 A 
ATOM      8  C   UNL     1      -0.568  -5.230  -0.737  1.00  0.00     0.094 A 
ATOM      9  C   UNL     1      -0.636  -6.591  -0.423  1.00  0.00     0.336 A 
ATOM     10  O   UNL     1      -1.109  -7.406  -1.259  1.00  0.00    -0.246 OA
ATOM     11  O   UNL     1      -0.205  -7.034   0.756  1.00  0.00    -0.423 OA
ENDROOT
TORSDOF 0
ENDMDL
MODEL 3
REMARK VINA RESULT:    -5.032      2.335      3.736
REMARK INTER + INTRA:          -5.032
REMARK INTER:                  -5.032
REMARK INTRA:                   0.000
REMARK UNBOUND:                 0.000
REMARK SMILES O=c1ccc2ccccc2o1
REMARK SMILES IDX 7 1 8 2 9 3 10 4 5 5 6 6 4 7 3 8 2 9 1 10 11 11
REMARK H PARENT
REMARK Flexibility Score: inf
ROOT
ATOM      1  C   UNL     1      -0.645   7.834  -3.541  1.00  0.00     0.001 A 
ATOM      2  C   UNL     1      -1.806   7.095  -3.791  1.00  0.00     0.004 A 
ATOM      3  C   UNL     1      -2.535   7.307  -4.967  1.00  0.00     0.048 A 
ATOM      4  C   UNL     1      -2.104   8.258  -5.897  1.00  0.00     0.138 A 
ATOM      5  C   UNL     1      -0.931   9.004  -5.646  1.00  0.00     0.018 A 
ATOM      6  C   UNL     1      -0.205   8.788  -4.465  1.00  0.00     0.012 A 
ATOM      7  C   UNL     1      -0.525   9.948  -6.593  1.00  0.00     0.019 A 
ATOM      8  C   UNL     1      -1.282  10.125  -7.751  1.00  0.00     0.094 A 
ATOM      9  C   UNL     1      -2.433   9.350  -7.933  1.00  0.00     0.336 A 
ATOM     10  O   UNL     1      -3.130   9.496  -8.971  1.00  0.00    -0.246 OA
ATOM     11  O   UNL     1      -2.798   8.458  -7.015  1.00  0.00    -0.423 OA
ENDROOT
TORSDOF 0
ENDMDL
MODEL 4
REMARK VINA RESULT:    -4.662      2.688      3.371
REMARK INTER + INTRA:          -4.662
REMARK INTER:                  -4.662
REMARK INTRA:                   0.000
REMARK UNBOUND:                 0.000
REMARK SMILES O=c1ccc2ccccc2o1
REMARK SMILES IDX 7 1 8 2 9 3 10 4 5 5 6 6 4 7 3 8 2 9 1 10 11 11
REMARK H PARENT
REMARK Flexibility Score: inf
ROOT
ATOM      1  C   UNL     1      -1.807  10.125  -8.363  1.00  0.00     0.001 A 
ATOM      2  C   UNL     1      -3.017   9.435  -8.232  1.00  0.00     0.004 A 
ATOM      3  C   UNL     1      -3.249   8.629  -7.113  1.00  0.00     0.048 A 
ATOM      4  C   UNL     1      -2.271   8.510  -6.119  1.00  0.00     0.138 A 
ATOM      5  C   UNL     1      -1.050   9.207  -6.251  1.00  0.00     0.018 A 
ATOM      6  C   UNL     1      -0.822  10.013  -7.376  1.00  0.00     0.012 A 
ATOM      7  C   UNL     1      -0.091   9.069  -5.243  1.00  0.00     0.019 A 
ATOM      8  C   UNL     1      -0.366   8.255  -4.145  1.00  0.00     0.094 A 
ATOM      9  C   UNL     1      -1.598   7.595  -4.081  1.00  0.00     0.336 A 
ATOM     10  O   UNL     1      -1.865   6.855  -3.097  1.00  0.00    -0.246 OA
ATOM     11  O   UNL     1      -2.494   7.743  -5.054  1.00  0.00    -0.423 OA
ENDROOT
TORSDOF 0
ENDMDL
MODEL 5
REMARK VINA RESULT:    -4.596      1.800      2.883
REMARK INTER + INTRA:          -4.596
REMARK INTER:                  -4.596
REMARK INTRA:                   0.000
REMARK UNBOUND:                 0.000
REMARK SMILES O=c1ccc2ccccc2o1
REMARK SMILES IDX 7 1 8 2 9 3 10 4 5 5 6 6 4 7 3 8 2 9 1 10 11 11
REMARK H PARENT
REMARK Flexibility Score: inf
ROOT
ATOM      1  C   UNL     1      -2.835   7.802  -4.408  1.00  0.00     0.001 A 
ATOM      2  C   UNL     1      -1.625   7.483  -3.782  1.00  0.00     0.004 A 
ATOM      3  C   UNL     1      -0.413   7.908  -4.335  1.00  0.00     0.048 A 
ATOM      4  C   UNL     1      -0.406   8.654  -5.519  1.00  0.00     0.138 A 
ATOM      5  C   UNL     1      -1.627   8.976  -6.152  1.00  0.00     0.018 A 
ATOM      6  C   UNL     1      -2.840   8.547  -5.592  1.00  0.00     0.012 A 
ATOM      7  C   UNL     1      -1.590   9.722  -7.333  1.00  0.00     0.019 A 
ATOM      8  C   UNL     1      -0.357  10.125  -7.848  1.00  0.00     0.094 A 
ATOM      9  C   UNL     1       0.811   9.770  -7.168  1.00  0.00     0.336 A 
ATOM     10  O   UNL     1       1.933  10.123  -7.617  1.00  0.00    -0.246 OA
ATOM     11  O   UNL     1       0.748   9.058  -6.044  1.00  0.00    -0.423 OA
ENDROOT
TORSDOF 0
ENDMDL
MODEL 6
REMARK VINA RESULT:    -4.506      2.796      3.541
REMARK INTER + INTRA:          -4.506
REMARK INTER:                  -4.506
REMARK INTRA:                   0.000
REMARK UNBOUND:                 0.000
REMARK SMILES O=c1ccc2ccccc2o1
REMARK SMILES IDX 7 1 8 2 9 3 10 4 5 5 6 6 4 7 3 8 2 9 1 10 11 11
REMARK H PARENT
REMARK Flexibility Score: inf
ROOT
ATOM      1  C   UNL     1      -2.049   9.624  -8.071  1.00  0.00     0.001 A 
ATOM      2  C   UNL     1      -0.771  10.123  -7.797  1.00  0.00     0.004 A 
ATOM      3  C   UNL     1      -0.117   9.770  -6.612  1.00  0.00     0.048 A 
ATOM      4  C   UNL     1      -0.740   8.915  -5.696  1.00  0.00     0.138 A 
ATOM      5  C   UNL     1      -2.030   8.410  -5.972  1.00  0.00     0.018 A 
ATOM      6  C   UNL     1      -2.681   8.769  -7.162  1.00  0.00     0.012 A 
ATOM      7  C   UNL     1      -2.628   7.558  -5.039  1.00  0.00     0.019 A 
ATOM      8  C   UNL     1      -1.937   7.232  -3.872  1.00  0.00     0.094 A 
ATOM      9  C   UNL     1      -0.662   7.769  -3.665  1.00  0.00     0.336 A 
ATOM     10  O   UNL     1      -0.024   7.487  -2.616  1.00  0.00    -0.246 OA
ATOM     11  O   UNL     1      -0.116   8.578  -4.569  1.00  0.00    -0.423 OA
ENDROOT
TORSDOF 0
ENDMDL
MODEL 7
REMARK VINA RESULT:    -4.505     17.646     18.176
REMARK INTER + INTRA:          -4.505
REMARK INTER:                  -4.505
REMARK INTRA:                   0.000
REMARK UNBOUND:                 0.000
REMARK SMILES O=c1ccc2ccccc2o1
REMARK SMILES IDX 7 1 8 2 9 3 10 4 5 5 6 6 4 7 3 8 2 9 1 10 11 11
REMARK H PARENT
REMARK Flexibility Score: inf
ROOT
ATOM      1  C   UNL     1      -0.788  -5.458  -1.354  1.00  0.00     0.001 A 
ATOM      2  C   UNL     1      -0.868  -6.829  -1.086  1.00  0.00     0.004 A 
ATOM      3  C   UNL     1      -0.472  -7.327   0.160  1.00  0.00     0.048 A 
ATOM      4  C   UNL     1       0.005  -6.454   1.143  1.00  0.00     0.138 A 
ATOM      5  C   UNL     1       0.085  -5.069   0.874  1.00  0.00     0.018 A 
ATOM      6  C   UNL     1      -0.312  -4.577  -0.378  1.00  0.00     0.012 A 
ATOM      7  C   UNL     1       0.567  -4.221   1.875  1.00  0.00     0.019 A 
ATOM      8  C   UNL     1       0.949  -4.762   3.103  1.00  0.00     0.094 A 
ATOM      9  C   UNL     1       0.842  -6.142   3.299  1.00  0.00     0.336 A 
ATOM     10  O   UNL     1       1.184  -6.649   4.400  1.00  0.00    -0.246 OA
ATOM     11  O   UNL     1       0.381  -6.928   2.329  1.00  0.00    -0.423 OA
ENDROOT
TORSDOF 0
ENDMDL
MODEL 8
REMARK VINA RESULT:    -4.505     17.183     17.924
REMARK INTER + INTRA:          -4.505
REMARK INTER:                  -4.505
REMARK INTRA:                   0.000
REMARK UNBOUND:                 0.000
REMARK SMILES O=c1ccc2ccccc2o1
REMARK SMILES IDX 7 1 8 2 9 3 10 4 5 5 6 6 4 7 3 8 2 9 1 10 11 11
REMARK H PARENT
REMARK Flexibility Score: inf
ROOT
ATOM      1  C   UNL     1       1.236  -5.439   3.618  1.00  0.00     0.001 A 
ATOM      2  C   UNL     1       1.228  -4.139   3.101  1.00  0.00     0.004 A 
ATOM      3  C   UNL     1       0.738  -3.897   1.813  1.00  0.00     0.048 A 
ATOM      4  C   UNL     1       0.253  -4.955   1.038  1.00  0.00     0.138 A 
ATOM      5  C   UNL     1       0.260  -6.268   1.559  1.00  0.00     0.018 A 
ATOM      6  C   UNL     1       0.753  -6.505   2.851  1.00  0.00     0.012 A 
ATOM      7  C   UNL     1      -0.231  -7.306   0.762  1.00  0.00     0.019 A 
ATOM      8  C   UNL     1      -0.711  -7.017  -0.516  1.00  0.00     0.094 A 
ATOM      9  C   UNL     1      -0.687  -5.693  -0.967  1.00  0.00     0.336 A 
ATOM     10  O   UNL     1      -1.115  -5.413  -2.117  1.00  0.00    -0.246 OA
ATOM     11  O   UNL     1      -0.214  -4.723  -0.187  1.00  0.00    -0.423 OA
ENDROOT
TORSDOF 0
ENDMDL
MODEL 9
REMARK VINA RESULT:    -4.161     17.573     18.143
REMARK INTER + INTRA:          -4.161
REMARK INTER:                  -4.161
REMARK INTRA:                   0.000
REMARK UNBOUND:                 0.000
REMARK SMILES O=c1ccc2ccccc2o1
REMARK SMILES IDX 7 1 8 2 9 3 10 4 5 5 6 6 4 7 3 8 2 9 1 10 11 11
REMARK H PARENT
REMARK Flexibility Score: inf
ROOT
ATOM      1  C   UNL     1      -0.748  -6.264  -0.765  1.00  0.00     0.001 A 
ATOM      2  C   UNL     1      -0.574  -4.875  -0.748  1.00  0.00     0.004 A 
ATOM      3  C   UNL     1      -0.014  -4.250   0.371  1.00  0.00     0.048 A 
ATOM      4  C   UNL     1       0.376  -5.012   1.478  1.00  0.00     0.138 A 
ATOM      5  C   UNL     1       0.201  -6.414   1.461  1.00  0.00     0.018 A 
ATOM      6  C   UNL     1      -0.362  -7.035   0.337  1.00  0.00     0.012 A 
ATOM      7  C   UNL     1       0.599  -7.150   2.581  1.00  0.00     0.019 A 
ATOM      8  C   UNL     1       1.154  -6.484   3.674  1.00  0.00     0.094 A 
ATOM      9  C   UNL     1       1.297  -5.094   3.620  1.00  0.00     0.336 A 
ATOM     10  O   UNL     1       1.795  -4.475   4.597  1.00  0.00    -0.246 OA
ATOM     11  O   UNL     1       0.910  -4.417   2.542  1.00  0.00    -0.423 OA
ENDROOT
TORSDOF 0
ENDMDL
