MODEL 1
REMARK VINA RESULT:    -3.726      0.000      0.000
REMARK INTER + INTRA:          -5.562
REMARK INTER:                  -5.686
REMARK INTRA:                   0.124
REMARK UNBOUND:                 0.124
REMARK SMILES CC1=CCC[C@H](C)C(=O)C[C@@H](C(C)C)C(=O)C1
REMARK SMILES IDX 8 1 9 2 6 3 7 4 5 5 4 6 3 7 2 8 1 9 10 11 11 12 15 13 16 14
REMARK SMILES IDX 17 15 12 17 13 18 14 19
REMARK H PARENT
REMARK Flexibility Score: 70.00
ROOT
ATOM      1  C   UNL     1      -1.418 -24.257  -9.565  1.00  0.00     0.136 C 
ATOM      2  O   UNL     1      -0.685 -24.628  -8.659  1.00  0.00    -0.299 OA
ENDROOT
BRANCH   1   3
ATOM      3  C   UNL     1      -2.594 -23.352  -9.263  1.00  0.00     0.053 C 
ATOM      4  C   UNL     1      -2.094 -21.917  -9.074  1.00  0.00     0.016 C 
BRANCH   3   5
ATOM      5  C   UNL     1      -3.663 -23.404 -10.378  1.00  0.00     0.015 C 
BRANCH   5   6
ATOM      6  C   UNL     1      -3.966 -22.030 -10.995  1.00  0.00     0.028 C 
BRANCH   6   7
ATOM      7  C   UNL     1      -3.936 -22.086 -12.503  1.00  0.00    -0.028 C 
ATOM      8  C   UNL     1      -2.827 -22.022 -13.274  1.00  0.00    -0.070 CG0
ATOM      9  C   UNL     1      -3.002 -22.101 -14.770  1.00  0.00     0.039 C 
ATOM     10  G   UNL     1      -1.423 -21.914 -12.712  1.00  0.00     0.000 G0
ENDBRANCH   6   7
ENDBRANCH   5   6
ENDBRANCH   3   5
ENDBRANCH   1   3
BRANCH   1  11
ATOM     11  C   UNL     1      -1.155 -24.751 -10.964  1.00  0.00     0.087 C 
BRANCH  11  12
ATOM     12  C   UNL     1      -0.057 -23.915 -11.673  1.00  0.00     0.066 C 
BRANCH  12  13
ATOM     13  C   UNL     1      -0.667 -23.210 -12.875  1.00  0.00     0.140 C 
ATOM     14  O   UNL     1      -0.480 -23.662 -13.996  1.00  0.00    -0.299 OA
BRANCH  13  15
ATOM     15  C   UNL     1      -1.419 -21.911 -12.728  1.00  0.00     0.106 CG0
ATOM     16  G   UNL     1      -2.825 -22.030 -13.284  1.00  0.00     0.000 G0
ENDBRANCH  13  15
ENDBRANCH  12  13
BRANCH  12  17
ATOM     17  C   UNL     1       1.162 -24.789 -12.116  1.00  0.00    -0.006 C 
ATOM     18  C   UNL     1       0.760 -26.251 -12.396  1.00  0.00     0.008 C 
ATOM     19  C   UNL     1       2.277 -24.783 -11.051  1.00  0.00     0.008 C 
ENDBRANCH  12  17
ENDBRANCH  11  12
ENDBRANCH   1  11
TORSDOF 1
ENDMDL
MODEL 2
REMARK VINA RESULT:    -3.625      2.762      6.223
REMARK INTER + INTRA:          -5.408
REMARK INTER:                  -5.548
REMARK INTRA:                   0.139
REMARK UNBOUND:                 0.124
REMARK SMILES CC1=CCC[C@H](C)C(=O)C[C@@H](C(C)C)C(=O)C1
REMARK SMILES IDX 8 1 9 2 6 3 7 4 5 5 4 6 3 7 2 8 1 9 10 11 11 12 15 13 16 14
REMARK SMILES IDX 17 15 12 17 13 18 14 19
REMARK H PARENT
REMARK Flexibility Score: 70.00
ROOT
ATOM      1  C   UNL     1       1.022 -26.611 -12.766  1.00  0.00     0.136 C 
ATOM      2  O   UNL     1       1.568 -26.009 -13.680  1.00  0.00    -0.299 OA
ENDROOT
BRANCH   1   3
ATOM      3  C   UNL     1       1.428 -28.036 -12.451  1.00  0.00     0.053 C 
ATOM      4  C   UNL     1       1.069 -28.940 -13.633  1.00  0.00     0.016 C 
BRANCH   3   5
ATOM      5  C   UNL     1       2.937 -28.147 -12.129  1.00  0.00     0.015 C 
BRANCH   5   6
ATOM      6  C   UNL     1       3.281 -27.758 -10.683  1.00  0.00     0.028 C 
BRANCH   6   7
ATOM      7  C   UNL     1       3.777 -26.335 -10.601  1.00  0.00    -0.028 C 
ATOM      8  C   UNL     1       3.065 -25.275 -10.156  1.00  0.00    -0.070 CG0
ATOM      9  C   UNL     1       3.741 -23.926 -10.143  1.00  0.00     0.039 C 
ATOM     10  G   UNL     1       1.644 -25.380  -9.636  1.00  0.00     0.000 G0
ENDBRANCH   6   7
ENDBRANCH   5   6
ENDBRANCH   3   5
ENDBRANCH   1   3
BRANCH   1  11
ATOM     11  C   UNL     1      -0.080 -25.928 -11.999  1.00  0.00     0.087 C 
BRANCH  11  12
ATOM     12  C   UNL     1       0.263 -24.447 -11.692  1.00  0.00     0.066 C 
BRANCH  12  13
ATOM     13  C   UNL     1       0.741 -24.335 -10.253  1.00  0.00     0.140 C 
ATOM     14  O   UNL     1       0.469 -23.332  -9.605  1.00  0.00    -0.299 OA
BRANCH  13  15
ATOM     15  C   UNL     1       1.624 -25.387  -9.632  1.00  0.00     0.106 CG0
ATOM     16  G   UNL     1       3.049 -25.271 -10.138  1.00  0.00     0.000 G0
ENDBRANCH  13  15
ENDBRANCH  12  13
BRANCH  12  17
ATOM     17  C   UNL     1      -0.952 -23.492 -11.938  1.00  0.00    -0.006 C 
ATOM     18  C   UNL     1      -2.260 -24.049 -11.342  1.00  0.00     0.008 C 
ATOM     19  C   UNL     1      -1.171 -23.233 -13.442  1.00  0.00     0.008 C 
ENDBRANCH  12  17
ENDBRANCH  11  12
ENDBRANCH   1  11
TORSDOF 1
ENDMDL
MODEL 3
REMARK VINA RESULT:    -3.526      2.674      5.664
REMARK INTER + INTRA:          -5.256
REMARK INTER:                  -5.872
REMARK INTRA:                   0.615
REMARK UNBOUND:                 0.124
REMARK SMILES CC1=CCC[C@H](C)C(=O)C[C@@H](C(C)C)C(=O)C1
REMARK SMILES IDX 8 1 9 2 6 3 7 4 5 5 4 6 3 7 2 8 1 9 10 11 11 12 15 13 16 14
REMARK SMILES IDX 17 15 12 17 13 18 14 19
REMARK H PARENT
REMARK Flexibility Score: 70.00
ROOT
ATOM      1  C   UNL     1       1.792 -24.799  -9.988  1.00  0.00     0.136 C 
ATOM      2  O   UNL     1       1.538 -25.447  -8.982  1.00  0.00    -0.299 OA
ENDROOT
BRANCH   1   3
ATOM      3  C   UNL     1       3.191 -24.819 -10.567  1.00  0.00     0.053 C 
ATOM      4  C   UNL     1       4.049 -23.767  -9.859  1.00  0.00     0.016 C 
BRANCH   3   5
ATOM      5  C   UNL     1       3.846 -26.215 -10.444  1.00  0.00     0.015 C 
BRANCH   5   6
ATOM      6  C   UNL     1       2.857 -27.371 -10.659  1.00  0.00     0.028 C 
BRANCH   6   7
ATOM      7  C   UNL     1       2.806 -27.788 -12.109  1.00  0.00    -0.028 C 
ATOM      8  C   UNL     1       1.726 -27.702 -12.918  1.00  0.00    -0.070 CG0
ATOM      9  C   UNL     1       1.876 -28.166 -14.346  1.00  0.00     0.039 C 
ATOM     10  G   UNL     1       0.393 -27.131 -12.475  1.00  0.00     0.000 G0
ENDBRANCH   6   7
ENDBRANCH   5   6
ENDBRANCH   3   5
ENDBRANCH   1   3
BRANCH   1  11
ATOM     11  C   UNL     1       0.707 -23.956 -10.606  1.00  0.00     0.087 C 
BRANCH  11  12
ATOM     12  C   UNL     1      -0.320 -24.819 -11.386  1.00  0.00     0.066 C 
BRANCH  12  13
ATOM     13  C   UNL     1       0.408 -25.609 -12.462  1.00  0.00     0.140 C 
ATOM     14  O   UNL     1       0.968 -25.011 -13.372  1.00  0.00    -0.299 OA
BRANCH  13  15
ATOM     15  C   UNL     1       0.378 -27.116 -12.489  1.00  0.00     0.106 CG0
ATOM     16  G   UNL     1       1.723 -27.680 -12.904  1.00  0.00     0.000 G0
ENDBRANCH  13  15
ENDBRANCH  12  13
BRANCH  12  17
ATOM     17  C   UNL     1      -1.460 -23.956 -12.022  1.00  0.00    -0.006 C 
ATOM     18  C   UNL     1      -1.138 -22.449 -11.987  1.00  0.00     0.008 C 
ATOM     19  C   UNL     1      -2.807 -24.185 -11.308  1.00  0.00     0.008 C 
ENDBRANCH  12  17
ENDBRANCH  11  12
ENDBRANCH   1  11
TORSDOF 1
ENDMDL
MODEL 4
REMARK VINA RESULT:    -3.214      1.979      4.531
REMARK INTER + INTRA:          -4.781
REMARK INTER:                  -5.326
REMARK INTRA:                   0.545
REMARK UNBOUND:                 0.124
REMARK SMILES CC1=CCC[C@H](C)C(=O)C[C@@H](C(C)C)C(=O)C1
REMARK SMILES IDX 8 1 9 2 6 3 7 4 5 5 4 6 3 7 2 8 1 9 10 11 11 12 15 13 16 14
REMARK SMILES IDX 17 15 12 17 13 18 14 19
REMARK H PARENT
REMARK Flexibility Score: 70.00
ROOT
ATOM      1  C   UNL     1      -0.003 -24.321 -12.266  1.00  0.00     0.136 C 
ATOM      2  O   UNL     1       1.033 -23.711 -12.491  1.00  0.00    -0.299 OA
ENDROOT
BRANCH   1   3
ATOM      3  C   UNL     1      -0.007 -25.461 -11.270  1.00  0.00     0.053 C 
ATOM      4  C   UNL     1       0.847 -26.611 -11.811  1.00  0.00     0.016 C 
BRANCH   3   5
ATOM      5  C   UNL     1       0.511 -25.017  -9.882  1.00  0.00     0.015 C 
BRANCH   5   6
ATOM      6  C   UNL     1      -0.600 -24.902  -8.827  1.00  0.00     0.028 C 
BRANCH   6   7
ATOM      7  C   UNL     1      -1.175 -23.507  -8.784  1.00  0.00    -0.028 C 
ATOM      8  C   UNL     1      -2.384 -23.137  -9.264  1.00  0.00    -0.070 CG0
ATOM      9  C   UNL     1      -2.786 -21.690  -9.122  1.00  0.00     0.039 C 
ATOM     10  G   UNL     1      -3.365 -24.104  -9.899  1.00  0.00     0.000 G0
ENDBRANCH   6   7
ENDBRANCH   5   6
ENDBRANCH   3   5
ENDBRANCH   1   3
BRANCH   1  11
ATOM     11  C   UNL     1      -1.249 -23.946 -13.024  1.00  0.00     0.087 C 
BRANCH  11  12
ATOM     12  C   UNL     1      -2.266 -23.193 -12.127  1.00  0.00     0.066 C 
BRANCH  12  13
ATOM     13  C   UNL     1      -3.114 -24.206 -11.375  1.00  0.00     0.140 C 
ATOM     14  O   UNL     1      -3.675 -25.100 -11.995  1.00  0.00    -0.299 OA
BRANCH  13  15
ATOM     15  C   UNL     1      -3.359 -24.082  -9.893  1.00  0.00     0.106 CG0
ATOM     16  G   UNL     1      -2.377 -23.117  -9.257  1.00  0.00     0.000 G0
ENDBRANCH  13  15
ENDBRANCH  12  13
BRANCH  12  17
ATOM     17  C   UNL     1      -3.179 -22.222 -12.948  1.00  0.00    -0.006 C 
ATOM     18  C   UNL     1      -3.042 -22.442 -14.469  1.00  0.00     0.008 C 
ATOM     19  C   UNL     1      -2.858 -20.747 -12.637  1.00  0.00     0.008 C 
ENDBRANCH  12  17
ENDBRANCH  11  12
ENDBRANCH   1  11
TORSDOF 1
ENDMDL
MODEL 5
REMARK VINA RESULT:    -3.134      1.868      4.313
REMARK INTER + INTRA:          -4.659
REMARK INTER:                  -5.473
REMARK INTRA:                   0.814
REMARK UNBOUND:                 0.124
REMARK SMILES CC1=CCC[C@H](C)C(=O)C[C@@H](C(C)C)C(=O)C1
REMARK SMILES IDX 8 1 9 2 6 3 7 4 5 5 4 6 3 7 2 8 1 9 10 11 11 12 15 13 16 14
REMARK SMILES IDX 17 15 12 17 13 18 14 19
REMARK H PARENT
REMARK Flexibility Score: 70.00
ROOT
ATOM      1  C   UNL     1      -0.011 -24.546 -12.263  1.00  0.00     0.136 C 
ATOM      2  O   UNL     1       0.438 -24.415 -13.392  1.00  0.00    -0.299 OA
ENDROOT
BRANCH   1   3
ATOM      3  C   UNL     1       0.799 -25.268 -11.206  1.00  0.00     0.053 C 
ATOM      4  C   UNL     1       2.011 -24.414 -10.825  1.00  0.00     0.016 C 
BRANCH   3   5
ATOM      5  C   UNL     1      -0.046 -25.591  -9.952  1.00  0.00     0.015 C 
BRANCH   5   6
ATOM      6  C   UNL     1      -0.013 -24.477  -8.895  1.00  0.00     0.028 C 
BRANCH   6   7
ATOM      7  C   UNL     1      -1.354 -23.793  -8.776  1.00  0.00    -0.028 C 
ATOM      8  C   UNL     1      -1.697 -22.621  -9.357  1.00  0.00    -0.070 CG0
ATOM      9  C   UNL     1      -3.094 -22.101  -9.124  1.00  0.00     0.039 C 
ATOM     10  G   UNL     1      -0.768 -21.830 -10.258  1.00  0.00     0.000 G0
ENDBRANCH   6   7
ENDBRANCH   5   6
ENDBRANCH   3   5
ENDBRANCH   1   3
BRANCH   1  11
ATOM     11  C   UNL     1      -1.390 -24.019 -11.960  1.00  0.00     0.087 C 
BRANCH  11  12
ATOM     12  C   UNL     1      -1.638 -22.639 -12.624  1.00  0.00     0.066 C 
BRANCH  12  13
ATOM     13  C   UNL     1      -1.453 -21.545 -11.585  1.00  0.00     0.140 C 
ATOM     14  O   UNL     1      -1.782 -20.397 -11.854  1.00  0.00    -0.299 OA
BRANCH  13  15
ATOM     15  C   UNL     1      -0.785 -21.821 -10.262  1.00  0.00     0.106 CG0
ATOM     16  G   UNL     1      -1.696 -22.614  -9.346  1.00  0.00     0.000 G0
ENDBRANCH  13  15
ENDBRANCH  12  13
BRANCH  12  17
ATOM     17  C   UNL     1      -3.059 -22.538 -13.273  1.00  0.00    -0.006 C 
ATOM     18  C   UNL     1      -3.972 -23.710 -12.859  1.00  0.00     0.008 C 
ATOM     19  C   UNL     1      -2.975 -22.504 -14.812  1.00  0.00     0.008 C 
ENDBRANCH  12  17
ENDBRANCH  11  12
ENDBRANCH   1  11
TORSDOF 1
ENDMDL
MODEL 6
REMARK VINA RESULT:    -3.131      2.003      3.784
REMARK INTER + INTRA:          -4.654
REMARK INTER:                  -5.207
REMARK INTRA:                   0.553
REMARK UNBOUND:                 0.124
REMARK SMILES CC1=CCC[C@H](C)C(=O)C[C@@H](C(C)C)C(=O)C1
REMARK SMILES IDX 8 1 9 2 6 3 7 4 5 5 4 6 3 7 2 8 1 9 10 11 11 12 15 13 16 14
REMARK SMILES IDX 17 15 12 17 13 18 14 19
REMARK H PARENT
REMARK Flexibility Score: 70.00
ROOT
ATOM      1  C   UNL     1      -1.569 -23.891 -12.461  1.00  0.00     0.136 C 
ATOM      2  O   UNL     1      -2.352 -24.750 -12.080  1.00  0.00    -0.299 OA
ENDROOT
BRANCH   1   3
ATOM      3  C   UNL     1      -2.054 -22.475 -12.690  1.00  0.00     0.053 C 
ATOM      4  C   UNL     1      -2.930 -22.436 -13.946  1.00  0.00     0.016 C 
BRANCH   3   5
ATOM      5  C   UNL     1      -2.838 -21.930 -11.474  1.00  0.00     0.015 C 
BRANCH   5   6
ATOM      6  C   UNL     1      -1.945 -21.631 -10.260  1.00  0.00     0.028 C 
BRANCH   6   7
ATOM      7  C   UNL     1      -1.848 -22.826  -9.342  1.00  0.00    -0.028 C 
ATOM      8  C   UNL     1      -0.779 -23.645  -9.221  1.00  0.00    -0.070 CG0
ATOM      9  C   UNL     1      -0.872 -24.787  -8.240  1.00  0.00     0.039 C 
ATOM     10  G   UNL     1       0.515 -23.451  -9.990  1.00  0.00     0.000 G0
ENDBRANCH   6   7
ENDBRANCH   5   6
ENDBRANCH   3   5
ENDBRANCH   1   3
BRANCH   1  11
ATOM     11  C   UNL     1      -0.139 -24.278 -12.737  1.00  0.00     0.087 C 
BRANCH  11  12
ATOM     12  C   UNL     1       0.354 -25.388 -11.772  1.00  0.00     0.066 C 
BRANCH  12  13
ATOM     13  C   UNL     1       1.032 -24.742 -10.574  1.00  0.00     0.140 C 
ATOM     14  O   UNL     1       1.957 -25.322 -10.021  1.00  0.00    -0.299 OA
BRANCH  13  15
ATOM     15  C   UNL     1       0.532 -23.445  -9.991  1.00  0.00     0.106 CG0
ATOM     16  G   UNL     1      -0.772 -23.650  -9.244  1.00  0.00     0.000 G0
ENDBRANCH  13  15
ENDBRANCH  12  13
BRANCH  12  17
ATOM     17  C   UNL     1       1.328 -26.394 -12.471  1.00  0.00    -0.006 C 
ATOM     18  C   UNL     1       1.326 -26.234 -14.005  1.00  0.00     0.008 C 
ATOM     19  C   UNL     1       0.970 -27.854 -12.131  1.00  0.00     0.008 C 
ENDBRANCH  12  17
ENDBRANCH  11  12
ENDBRANCH   1  11
TORSDOF 1
ENDMDL
MODEL 7
REMARK VINA RESULT:    -3.087      1.568      3.608
REMARK INTER + INTRA:          -4.587
REMARK INTER:                  -5.906
REMARK INTRA:                   1.318
REMARK UNBOUND:                 0.124
REMARK SMILES CC1=CCC[C@H](C)C(=O)C[C@@H](C(C)C)C(=O)C1
REMARK SMILES IDX 8 1 9 2 6 3 7 4 5 5 4 6 3 7 2 8 1 9 10 11 11 12 15 13 16 14
REMARK SMILES IDX 17 15 12 17 13 18 14 19
REMARK H PARENT
REMARK Flexibility Score: 70.00
ROOT
ATOM      1  C   UNL     1      -2.038 -23.291 -12.924  1.00  0.00     0.136 C 
ATOM      2  O   UNL     1      -2.937 -23.964 -12.436  1.00  0.00    -0.299 OA
ENDROOT
BRANCH   1   3
ATOM      3  C   UNL     1      -2.361 -22.240 -13.965  1.00  0.00     0.053 C 
ATOM      4  C   UNL     1      -3.314 -22.833 -15.006  1.00  0.00     0.016 C 
BRANCH   3   5
ATOM      5  C   UNL     1      -2.981 -20.973 -13.332  1.00  0.00     0.015 C 
BRANCH   5   6
ATOM      6  C   UNL     1      -2.285 -20.540 -12.033  1.00  0.00     0.028 C 
BRANCH   6   7
ATOM      7  C   UNL     1      -2.940 -21.163 -10.824  1.00  0.00    -0.028 C 
ATOM      8  C   UNL     1      -2.329 -21.956  -9.915  1.00  0.00    -0.070 CG0
ATOM      9  C   UNL     1      -3.157 -22.480  -8.767  1.00  0.00     0.039 C 
ATOM     10  G   UNL     1      -0.856 -22.313  -9.971  1.00  0.00     0.000 G0
ENDBRANCH   6   7
ENDBRANCH   5   6
ENDBRANCH   3   5
ENDBRANCH   1   3
BRANCH   1  11
ATOM     11  C   UNL     1      -0.617 -23.559 -12.503  1.00  0.00     0.087 C 
BRANCH  11  12
ATOM     12  C   UNL     1      -0.543 -24.572 -11.330  1.00  0.00     0.066 C 
BRANCH  12  13
ATOM     13  C   UNL     1      -0.652 -23.818 -10.013  1.00  0.00     0.140 C 
ATOM     14  O   UNL     1      -0.652 -24.443  -8.961  1.00  0.00    -0.299 OA
BRANCH  13  15
ATOM     15  C   UNL     1      -0.857 -22.325  -9.975  1.00  0.00     0.106 CG0
ATOM     16  G   UNL     1      -2.332 -21.978  -9.923  1.00  0.00     0.000 G0
ENDBRANCH  13  15
ENDBRANCH  12  13
BRANCH  12  17
ATOM     17  C   UNL     1       0.768 -25.424 -11.362  1.00  0.00    -0.006 C 
ATOM     18  C   UNL     1       1.982 -24.645 -10.818  1.00  0.00     0.008 C 
ATOM     19  C   UNL     1       1.095 -25.904 -12.790  1.00  0.00     0.008 C 
ENDBRANCH  12  17
ENDBRANCH  11  12
ENDBRANCH   1  11
TORSDOF 1
ENDMDL
MODEL 8
REMARK VINA RESULT:    -3.048      4.360      6.405
REMARK INTER + INTRA:          -4.527
REMARK INTER:                  -4.384
REMARK INTRA:                  -0.143
REMARK UNBOUND:                 0.124
REMARK SMILES CC1=CCC[C@H](C)C(=O)C[C@@H](C(C)C)C(=O)C1
REMARK SMILES IDX 8 1 9 2 6 3 7 4 5 5 4 6 3 7 2 8 1 9 10 11 11 12 15 13 16 14
REMARK SMILES IDX 17 15 12 17 13 18 14 19
REMARK H PARENT
REMARK Flexibility Score: 70.00
ROOT
ATOM      1  C   UNL     1       2.973 -25.251 -10.553  1.00  0.00     0.136 C 
ATOM      2  O   UNL     1       3.723 -24.289 -10.651  1.00  0.00    -0.299 OA
ENDROOT
BRANCH   1   3
ATOM      3  C   UNL     1       1.494 -25.088 -10.835  1.00  0.00     0.053 C 
ATOM      4  C   UNL     1       0.916 -24.014  -9.909  1.00  0.00     0.016 C 
BRANCH   3   5
ATOM      5  C   UNL     1       1.226 -24.721 -12.313  1.00  0.00     0.015 C 
BRANCH   5   6
ATOM      6  C   UNL     1       1.118 -25.946 -13.234  1.00  0.00     0.028 C 
BRANCH   6   7
ATOM      7  C   UNL     1       0.552 -27.137 -12.499  1.00  0.00    -0.028 C 
ATOM      8  C   UNL     1       1.181 -28.319 -12.308  1.00  0.00    -0.070 CG0
ATOM      9  C   UNL     1       0.449 -29.391 -11.539  1.00  0.00     0.039 C 
ATOM     10  G   UNL     1       2.590 -28.606 -12.792  1.00  0.00     0.000 G0
ENDBRANCH   6   7
ENDBRANCH   5   6
ENDBRANCH   3   5
ENDBRANCH   1   3
BRANCH   1  11
ATOM     11  C   UNL     1       3.539 -26.574 -10.109  1.00  0.00     0.087 C 
BRANCH  11  12
ATOM     12  C   UNL     1       4.309 -27.286 -11.253  1.00  0.00     0.066 C 
BRANCH  12  13
ATOM     13  C   UNL     1       3.572 -28.560 -11.633  1.00  0.00     0.140 C 
ATOM     14  O   UNL     1       3.832 -29.603 -11.047  1.00  0.00    -0.299 OA
BRANCH  13  15
ATOM     15  C   UNL     1       2.594 -28.592 -12.779  1.00  0.00     0.106 CG0
ATOM     16  G   UNL     1       1.183 -28.310 -12.300  1.00  0.00     0.000 G0
ENDBRANCH  13  15
ENDBRANCH  12  13
BRANCH  12  17
ATOM     17  C   UNL     1       5.789 -27.609 -10.863  1.00  0.00    -0.006 C 
ATOM     18  C   UNL     1       6.508 -26.390 -10.250  1.00  0.00     0.008 C 
ATOM     19  C   UNL     1       6.601 -28.095 -12.080  1.00  0.00     0.008 C 
ENDBRANCH  12  17
ENDBRANCH  11  12
ENDBRANCH   1  11
TORSDOF 1
ENDMDL
MODEL 9
REMARK VINA RESULT:    -2.978      1.826      3.524
REMARK INTER + INTRA:          -4.420
REMARK INTER:                  -5.287
REMARK INTRA:                   0.866
REMARK UNBOUND:                 0.124
REMARK SMILES CC1=CCC[C@H](C)C(=O)C[C@@H](C(C)C)C(=O)C1
REMARK SMILES IDX 8 1 9 2 6 3 7 4 5 5 4 6 3 7 2 8 1 9 10 11 11 12 15 13 16 14
REMARK SMILES IDX 17 15 12 17 13 18 14 19
REMARK H PARENT
REMARK Flexibility Score: 70.00
ROOT
ATOM      1  C   UNL     1      -1.518 -22.440 -12.626  1.00  0.00     0.136 C 
ATOM      2  O   UNL     1      -1.294 -21.307 -12.223  1.00  0.00    -0.299 OA
ENDROOT
BRANCH   1   3
ATOM      3  C   UNL     1      -2.936 -22.861 -12.950  1.00  0.00     0.053 C 
ATOM      4  C   UNL     1      -3.241 -22.531 -14.414  1.00  0.00     0.016 C 
BRANCH   3   5
ATOM      5  C   UNL     1      -3.167 -24.365 -12.680  1.00  0.00     0.015 C 
BRANCH   5   6
ATOM      6  C   UNL     1      -3.762 -24.650 -11.293  1.00  0.00     0.028 C 
BRANCH   6   7
ATOM      7  C   UNL     1      -3.752 -23.413 -10.427  1.00  0.00    -0.028 C 
ATOM      8  C   UNL     1      -2.803 -23.095  -9.517  1.00  0.00    -0.070 CG0
ATOM      9  C   UNL     1      -2.967 -21.806  -8.750  1.00  0.00     0.039 C 
ATOM     10  G   UNL     1      -1.573 -23.943  -9.259  1.00  0.00     0.000 G0
ENDBRANCH   6   7
ENDBRANCH   5   6
ENDBRANCH   3   5
ENDBRANCH   1   3
BRANCH   1  11
ATOM     11  C   UNL     1      -0.371 -23.409 -12.750  1.00  0.00     0.087 C 
BRANCH  11  12
ATOM     12  C   UNL     1      -0.322 -24.400 -11.557  1.00  0.00     0.066 C 
BRANCH  12  13
ATOM     13  C   UNL     1      -0.470 -23.625 -10.258  1.00  0.00     0.140 C 
ATOM     14  O   UNL     1       0.359 -22.772  -9.969  1.00  0.00    -0.299 OA
BRANCH  13  15
ATOM     15  C   UNL     1      -1.562 -23.945  -9.269  1.00  0.00     0.106 CG0
ATOM     16  G   UNL     1      -2.793 -23.097  -9.523  1.00  0.00     0.000 G0
ENDBRANCH  13  15
ENDBRANCH  12  13
BRANCH  12  17
ATOM     17  C   UNL     1       0.995 -25.245 -11.540  1.00  0.00    -0.006 C 
ATOM     18  C   UNL     1       1.257 -25.942 -12.891  1.00  0.00     0.008 C 
ATOM     19  C   UNL     1       0.962 -26.319 -10.434  1.00  0.00     0.008 C 
ENDBRANCH  12  17
ENDBRANCH  11  12
ENDBRANCH   1  11
TORSDOF 1
ENDMDL
