MODEL 1
REMARK VINA RESULT:    -4.284      0.000      0.000
REMARK INTER + INTRA:          -4.284
REMARK INTER:                  -4.284
REMARK INTRA:                   0.000
REMARK UNBOUND:                 0.000
REMARK SMILES CC1=CC(=O)[C@@H]2C[C@H]1C2(C)C
REMARK SMILES IDX 1 1 2 2 3 3 4 4 5 5 6 6 7 7 8 8 9 9 10 10 11 11
REMARK H PARENT
REMARK Flexibility Score: inf
ROOT
ATOM      1  C   UNL     1       0.878  20.638   4.375  1.00  0.00     0.040 C 
ATOM      2  C   UNL     1       1.918  20.367   5.416  1.00  0.00    -0.066 C 
ATOM      3  C   UNL     1       2.413  19.114   5.614  1.00  0.00     0.047 C 
ATOM      4  C   UNL     1       3.475  18.980   6.665  1.00  0.00     0.159 C 
ATOM      5  O   UNL     1       4.038  17.882   6.915  1.00  0.00    -0.295 OA
ATOM      6  C   UNL     1       3.825  20.268   7.410  1.00  0.00     0.067 C 
ATOM      7  C   UNL     1       2.454  20.893   7.751  1.00  0.00     0.021 C 
ATOM      8  C   UNL     1       2.468  21.487   6.325  1.00  0.00     0.022 C 
ATOM      9  C   UNL     1       4.021  21.405   6.367  1.00  0.00    -0.019 C 
ATOM     10  C   UNL     1       4.776  21.076   5.049  1.00  0.00     0.012 C 
ATOM     11  C   UNL     1       4.662  22.672   6.989  1.00  0.00     0.012 C 
ENDROOT
TORSDOF 0
ENDMDL
MODEL 2
REMARK VINA RESULT:    -4.115      1.964      3.450
REMARK INTER + INTRA:          -4.115
REMARK INTER:                  -4.115
REMARK INTRA:                   0.000
REMARK UNBOUND:                 0.000
REMARK SMILES CC1=CC(=O)[C@@H]2C[C@H]1C2(C)C
REMARK SMILES IDX 1 1 2 2 3 3 4 4 5 5 6 6 7 7 8 8 9 9 10 10 11 11
REMARK H PARENT
REMARK Flexibility Score: inf
ROOT
ATOM      1  C   UNL     1       6.862  20.654   4.366  1.00  0.00     0.040 C 
ATOM      2  C   UNL     1       5.403  20.895   4.595  1.00  0.00    -0.066 C 
ATOM      3  C   UNL     1       4.481  20.633   3.627  1.00  0.00     0.047 C 
ATOM      4  C   UNL     1       3.049  20.887   3.990  1.00  0.00     0.159 C 
ATOM      5  O   UNL     1       2.102  20.648   3.197  1.00  0.00    -0.295 OA
ATOM      6  C   UNL     1       2.820  21.456   5.391  1.00  0.00     0.067 C 
ATOM      7  C   UNL     1       3.876  22.575   5.522  1.00  0.00     0.021 C 
ATOM      8  C   UNL     1       4.874  21.467   5.927  1.00  0.00     0.022 C 
ATOM      9  C   UNL     1       3.657  20.625   6.405  1.00  0.00    -0.019 C 
ATOM     10  C   UNL     1       3.714  19.082   6.226  1.00  0.00     0.012 C 
ATOM     11  C   UNL     1       3.270  20.928   7.875  1.00  0.00     0.012 C 
ENDROOT
TORSDOF 0
ENDMDL
MODEL 3
REMARK VINA RESULT:    -4.087      1.971      3.219
REMARK INTER + INTRA:          -4.087
REMARK INTER:                  -4.087
REMARK INTRA:                   0.000
REMARK UNBOUND:                 0.000
REMARK SMILES CC1=CC(=O)[C@@H]2C[C@H]1C2(C)C
REMARK SMILES IDX 1 1 2 2 3 3 4 4 5 5 6 6 7 7 8 8 9 9 10 10 11 11
REMARK H PARENT
REMARK Flexibility Score: inf
ROOT
ATOM      1  C   UNL     1       4.062  18.395   6.663  1.00  0.00     0.040 C 
ATOM      2  C   UNL     1       3.802  19.815   6.273  1.00  0.00    -0.066 C 
ATOM      3  C   UNL     1       3.949  20.235   4.986  1.00  0.00     0.047 C 
ATOM      4  C   UNL     1       3.628  21.675   4.717  1.00  0.00     0.159 C 
ATOM      5  O   UNL     1       3.687  22.172   3.562  1.00  0.00    -0.295 OA
ATOM      6  C   UNL     1       3.222  22.494   5.942  1.00  0.00     0.067 C 
ATOM      7  C   UNL     1       4.261  22.107   7.017  1.00  0.00     0.021 C 
ATOM      8  C   UNL     1       3.373  20.877   7.308  1.00  0.00     0.022 C 
ATOM      9  C   UNL     1       2.167  21.687   6.751  1.00  0.00    -0.019 C 
ATOM     10  C   UNL     1       1.065  20.919   5.967  1.00  0.00     0.012 C 
ATOM     11  C   UNL     1       1.477  22.545   7.841  1.00  0.00     0.012 C 
ENDROOT
TORSDOF 0
ENDMDL
MODEL 4
REMARK VINA RESULT:    -3.997      1.424      2.796
REMARK INTER + INTRA:          -3.997
REMARK INTER:                  -3.997
REMARK INTRA:                   0.000
REMARK UNBOUND:                 0.000
REMARK SMILES CC1=CC(=O)[C@@H]2C[C@H]1C2(C)C
REMARK SMILES IDX 1 1 2 2 3 3 4 4 5 5 6 6 7 7 8 8 9 9 10 10 11 11
REMARK H PARENT
REMARK Flexibility Score: inf
ROOT
ATOM      1  C   UNL     1       6.362  20.288   4.120  1.00  0.00     0.040 C 
ATOM      2  C   UNL     1       5.044  20.474   4.803  1.00  0.00    -0.066 C 
ATOM      3  C   UNL     1       4.606  19.598   5.749  1.00  0.00     0.047 C 
ATOM      4  C   UNL     1       3.283  19.912   6.382  1.00  0.00     0.159 C 
ATOM      5  O   UNL     1       2.789  19.201   7.295  1.00  0.00    -0.295 OA
ATOM      6  C   UNL     1       2.580  21.158   5.842  1.00  0.00     0.067 C 
ATOM      7  C   UNL     1       2.707  21.029   4.308  1.00  0.00     0.021 C 
ATOM      8  C   UNL     1       4.111  21.655   4.460  1.00  0.00     0.022 C 
ATOM      9  C   UNL     1       3.611  22.320   5.775  1.00  0.00    -0.019 C 
ATOM     10  C   UNL     1       4.619  22.481   6.947  1.00  0.00     0.012 C 
ATOM     11  C   UNL     1       2.937  23.692   5.524  1.00  0.00     0.012 C 
ENDROOT
TORSDOF 0
ENDMDL
MODEL 5
REMARK VINA RESULT:    -3.996      1.984      3.194
REMARK INTER + INTRA:          -3.996
REMARK INTER:                  -3.996
REMARK INTRA:                   0.000
REMARK UNBOUND:                 0.000
REMARK SMILES CC1=CC(=O)[C@@H]2C[C@H]1C2(C)C
REMARK SMILES IDX 1 1 2 2 3 3 4 4 5 5 6 6 7 7 8 8 9 9 10 10 11 11
REMARK H PARENT
REMARK Flexibility Score: inf
ROOT
ATOM      1  C   UNL     1       3.111  18.406   6.679  1.00  0.00     0.040 C 
ATOM      2  C   UNL     1       3.417  19.797   6.223  1.00  0.00    -0.066 C 
ATOM      3  C   UNL     1       3.955  20.718   7.070  1.00  0.00     0.047 C 
ATOM      4  C   UNL     1       4.246  22.067   6.483  1.00  0.00     0.159 C 
ATOM      5  O   UNL     1       4.779  22.990   7.153  1.00  0.00    -0.295 OA
ATOM      6  C   UNL     1       3.852  22.241   5.016  1.00  0.00     0.067 C 
ATOM      7  C   UNL     1       2.434  21.635   4.931  1.00  0.00     0.021 C 
ATOM      8  C   UNL     1       3.126  20.261   4.780  1.00  0.00     0.022 C 
ATOM      9  C   UNL     1       4.366  21.011   4.216  1.00  0.00    -0.019 C 
ATOM     10  C   UNL     1       5.778  20.451   4.549  1.00  0.00     0.012 C 
ATOM     11  C   UNL     1       4.280  21.227   2.683  1.00  0.00     0.012 C 
ENDROOT
TORSDOF 0
ENDMDL
MODEL 6
REMARK VINA RESULT:    -3.941      1.957      3.568
REMARK INTER + INTRA:          -3.941
REMARK INTER:                  -3.941
REMARK INTRA:                   0.000
REMARK UNBOUND:                 0.000
REMARK SMILES CC1=CC(=O)[C@@H]2C[C@H]1C2(C)C
REMARK SMILES IDX 1 1 2 2 3 3 4 4 5 5 6 6 7 7 8 8 9 9 10 10 11 11
REMARK H PARENT
REMARK Flexibility Score: inf
ROOT
ATOM      1  C   UNL     1       5.947  20.540   4.566  1.00  0.00     0.040 C 
ATOM      2  C   UNL     1       4.757  20.863   5.412  1.00  0.00    -0.066 C 
ATOM      3  C   UNL     1       4.458  22.147   5.755  1.00  0.00     0.047 C 
ATOM      4  C   UNL     1       3.221  22.342   6.580  1.00  0.00     0.159 C 
ATOM      5  O   UNL     1       2.818  23.483   6.927  1.00  0.00    -0.295 OA
ATOM      6  C   UNL     1       2.484  21.060   6.967  1.00  0.00     0.067 C 
ATOM      7  C   UNL     1       3.604  20.108   7.441  1.00  0.00     0.021 C 
ATOM      8  C   UNL     1       3.820  19.761   5.952  1.00  0.00     0.022 C 
ATOM      9  C   UNL     1       2.340  20.169   5.700  1.00  0.00    -0.019 C 
ATOM     10  C   UNL     1       1.986  20.856   4.351  1.00  0.00     0.012 C 
ATOM     11  C   UNL     1       1.357  18.991   5.917  1.00  0.00     0.012 C 
ENDROOT
TORSDOF 0
ENDMDL
MODEL 7
REMARK VINA RESULT:    -3.898      1.165      2.481
REMARK INTER + INTRA:          -3.898
REMARK INTER:                  -3.898
REMARK INTRA:                   0.000
REMARK UNBOUND:                 0.000
REMARK SMILES CC1=CC(=O)[C@@H]2C[C@H]1C2(C)C
REMARK SMILES IDX 1 1 2 2 3 3 4 4 5 5 6 6 7 7 8 8 9 9 10 10 11 11
REMARK H PARENT
REMARK Flexibility Score: inf
ROOT
ATOM      1  C   UNL     1       1.618  22.163   7.880  1.00  0.00     0.040 C 
ATOM      2  C   UNL     1       2.588  21.337   7.096  1.00  0.00    -0.066 C 
ATOM      3  C   UNL     1       2.885  20.058   7.458  1.00  0.00     0.047 C 
ATOM      4  C   UNL     1       3.847  19.325   6.572  1.00  0.00     0.159 C 
ATOM      5  O   UNL     1       4.171  18.126   6.778  1.00  0.00    -0.295 OA
ATOM      6  C   UNL     1       4.406  20.135   5.402  1.00  0.00     0.067 C 
ATOM      7  C   UNL     1       4.792  21.492   6.031  1.00  0.00     0.021 C 
ATOM      8  C   UNL     1       3.311  21.897   5.852  1.00  0.00     0.022 C 
ATOM      9  C   UNL     1       3.227  20.862   4.694  1.00  0.00    -0.019 C 
ATOM     10  C   UNL     1       1.894  20.086   4.497  1.00  0.00     0.012 C 
ATOM     11  C   UNL     1       3.641  21.467   3.329  1.00  0.00     0.012 C 
ENDROOT
TORSDOF 0
ENDMDL
MODEL 8
REMARK VINA RESULT:    -3.885      1.803      2.922
REMARK INTER + INTRA:          -3.885
REMARK INTER:                  -3.885
REMARK INTRA:                   0.000
REMARK UNBOUND:                 0.000
REMARK SMILES CC1=CC(=O)[C@@H]2C[C@H]1C2(C)C
REMARK SMILES IDX 1 1 2 2 3 3 4 4 5 5 6 6 7 7 8 8 9 9 10 10 11 11
REMARK H PARENT
REMARK Flexibility Score: inf
ROOT
ATOM      1  C   UNL     1       4.221  18.276   6.581  1.00  0.00     0.040 C 
ATOM      2  C   UNL     1       3.376  19.510   6.589  1.00  0.00    -0.066 C 
ATOM      3  C   UNL     1       2.727  19.917   7.716  1.00  0.00     0.047 C 
ATOM      4  C   UNL     1       1.937  21.186   7.603  1.00  0.00     0.159 C 
ATOM      5  O   UNL     1       1.326  21.687   8.583  1.00  0.00    -0.295 OA
ATOM      6  C   UNL     1       1.928  21.830   6.217  1.00  0.00     0.067 C 
ATOM      7  C   UNL     1       1.665  20.652   5.254  1.00  0.00     0.021 C 
ATOM      8  C   UNL     1       3.182  20.371   5.323  1.00  0.00     0.022 C 
ATOM      9  C   UNL     1       3.387  21.871   5.680  1.00  0.00    -0.019 C 
ATOM     10  C   UNL     1       4.528  22.243   6.668  1.00  0.00     0.012 C 
ATOM     11  C   UNL     1       3.527  22.764   4.421  1.00  0.00     0.012 C 
ENDROOT
TORSDOF 0
ENDMDL
MODEL 9
REMARK VINA RESULT:    -3.765      1.753      2.994
REMARK INTER + INTRA:          -3.765
REMARK INTER:                  -3.765
REMARK INTRA:                   0.000
REMARK UNBOUND:                 0.000
REMARK SMILES CC1=CC(=O)[C@@H]2C[C@H]1C2(C)C
REMARK SMILES IDX 1 1 2 2 3 3 4 4 5 5 6 6 7 7 8 8 9 9 10 10 11 11
REMARK H PARENT
REMARK Flexibility Score: inf
ROOT
ATOM      1  C   UNL     1       3.444  24.582   6.627  1.00  0.00     0.040 C 
ATOM      2  C   UNL     1       3.267  23.106   6.461  1.00  0.00    -0.066 C 
ATOM      3  C   UNL     1       2.029  22.542   6.403  1.00  0.00     0.047 C 
ATOM      4  C   UNL     1       1.985  21.057   6.202  1.00  0.00     0.159 C 
ATOM      5  O   UNL     1       0.902  20.425   6.094  1.00  0.00    -0.295 OA
ATOM      6  C   UNL     1       3.347  20.366   6.137  1.00  0.00     0.067 C 
ATOM      7  C   UNL     1       4.139  20.978   7.314  1.00  0.00     0.021 C 
ATOM      8  C   UNL     1       4.475  22.149   6.364  1.00  0.00     0.022 C 
ATOM      9  C   UNL     1       4.266  21.170   5.174  1.00  0.00    -0.019 C 
ATOM     10  C   UNL     1       3.649  21.729   3.860  1.00  0.00     0.012 C 
ATOM     11  C   UNL     1       5.559  20.397   4.810  1.00  0.00     0.012 C 
ENDROOT
TORSDOF 0
ENDMDL
