MODEL 1
REMARK VINA RESULT:     3.346      0.000      0.000
REMARK INTER + INTRA:           3.443
REMARK INTER:                   3.541
REMARK INTRA:                  -0.098
REMARK UNBOUND:                -0.098
REMARK SMILES C=C(C)[C@@H]1CC=C(C)C(=O)C1
REMARK SMILES IDX 8 1 7 2 6 3 5 4 4 5 11 6 9 7 10 8 2 9 1 10 3 11
REMARK H PARENT
REMARK Flexibility Score: inf
ROOT
ATOM      1  C   UNL     1      95.150  14.431 119.430  1.00  0.00     0.048 C 
ATOM      2  C   UNL     1      94.128  15.516 119.625  1.00  0.00    -0.012 C 
ATOM      3  C   UNL     1      93.853  15.961 120.864  1.00  0.00    -0.019 C 
ATOM      4  C   UNL     1      92.851  17.057 121.114  1.00  0.00     0.036 C 
ATOM      5  C   UNL     1      91.711  17.013 120.079  1.00  0.00     0.025 C 
ATOM      6  C   UNL     1      92.283  17.062 118.651  1.00  0.00     0.089 C 
ATOM      7  C   UNL     1      93.338  16.005 118.468  1.00  0.00     0.158 C 
ATOM      8  O   UNL     1      93.570  15.564 117.310  1.00  0.00    -0.295 OA
ENDROOT
BRANCH   5   9
ATOM      9  C   UNL     1      90.703  18.131 120.314  1.00  0.00    -0.077 C 
ATOM     10  C   UNL     1      91.010  19.155 121.125  1.00  0.00     0.008 C 
ATOM     11  C   UNL     1      89.347  18.118 119.650  1.00  0.00     0.039 C 
ENDBRANCH   5   9
TORSDOF 1
ENDMDL
MODEL 2
REMARK VINA RESULT:     4.212      1.714      4.404
REMARK INTER + INTRA:           4.360
REMARK INTER:                   4.457
REMARK INTRA:                  -0.098
REMARK UNBOUND:                -0.098
REMARK SMILES C=C(C)[C@@H]1CC=C(C)C(=O)C1
REMARK SMILES IDX 8 1 7 2 6 3 5 4 4 5 11 6 9 7 10 8 2 9 1 10 3 11
REMARK H PARENT
REMARK Flexibility Score: inf
ROOT
ATOM      1  C   UNL     1      89.877  18.361 120.472  1.00  0.00     0.048 C 
ATOM      2  C   UNL     1      91.163  17.608 120.277  1.00  0.00    -0.012 C 
ATOM      3  C   UNL     1      91.491  16.616 121.125  1.00  0.00    -0.019 C 
ATOM      4  C   UNL     1      92.758  15.817 120.966  1.00  0.00     0.036 C 
ATOM      5  C   UNL     1      93.887  16.681 120.374  1.00  0.00     0.025 C 
ATOM      6  C   UNL     1      93.433  17.320 119.050  1.00  0.00     0.089 C 
ATOM      7  C   UNL     1      92.124  18.039 119.231  1.00  0.00     0.158 C 
ATOM      8  O   UNL     1      91.833  18.991 118.458  1.00  0.00    -0.295 OA
ENDROOT
BRANCH   5   9
ATOM      9  C   UNL     1      95.167  15.876 120.192  1.00  0.00    -0.077 C 
ATOM     10  C   UNL     1      95.104  14.577 119.860  1.00  0.00     0.008 C 
ATOM     11  C   UNL     1      96.526  16.507 120.380  1.00  0.00     0.039 C 
ENDBRANCH   5   9
TORSDOF 1
ENDMDL
