MODEL 1
REMARK VINA RESULT:    -0.239      0.000      0.000
REMARK INTER + INTRA:          -0.581
REMARK INTER:                  -0.281
REMARK INTRA:                  -0.300
REMARK UNBOUND:                -0.300
REMARK SMILES O=c1c(O)c(-c2ccc(O)cc2)oc2cc(O)cc(O)c12
REMARK SMILES IDX 5 1 3 2 2 3 1 4 21 5 19 6 18 7 16 8 15 9 14 10 13 11 6 12
REMARK SMILES IDX 7 13 8 14 9 15 12 16 11 17 10 18 4 20 20 22 17 24
REMARK H PARENT 10 19 4 21 20 23 17 25
REMARK Flexibility Score: inf
ROOT
ATOM      1  C   UNL     1     148.830 140.652 148.320  1.00  0.00     0.180 A 
ATOM      2  C   UNL     1     149.441 140.406 149.561  1.00  0.00     0.208 A 
ATOM      3  C   UNL     1     148.631 140.156 150.681  1.00  0.00     0.238 A 
ATOM      4  O   UNL     1     149.184 139.884 151.779  1.00  0.00    -0.285 OA
ATOM      5  C   UNL     1     147.222 140.170 150.548  1.00  0.00     0.111 A 
ATOM      6  C   UNL     1     146.305 139.970 151.624  1.00  0.00     0.134 A 
ATOM      7  C   UNL     1     144.934 139.875 151.354  1.00  0.00     0.093 A 
ATOM      8  C   UNL     1     144.442 140.038 150.056  1.00  0.00     0.123 A 
ATOM      9  C   UNL     1     145.325 140.294 149.010  1.00  0.00     0.094 A 
ATOM     10  C   UNL     1     146.701 140.359 149.242  1.00  0.00     0.146 A 
ATOM     11  O   UNL     1     147.507 140.593 148.214  1.00  0.00    -0.452 OA
ENDROOT
BRANCH   1  12
ATOM     12  C   UNL     1     149.615 140.948 147.100  1.00  0.00     0.021 A 
ATOM     13  C   UNL     1     149.956 139.903 146.226  1.00  0.00     0.016 A 
ATOM     14  C   UNL     1     150.679 140.164 145.057  1.00  0.00     0.047 A 
ATOM     15  C   UNL     1     151.055 141.475 144.740  1.00  0.00     0.115 A 
ATOM     16  C   UNL     1     149.980 142.265 146.765  1.00  0.00     0.016 A 
ATOM     17  C   UNL     1     150.701 142.524 145.595  1.00  0.00     0.047 A 
BRANCH  15  18
ATOM     18  O   UNL     1     151.775 141.748 143.579  1.00  0.00    -0.508 OA
ATOM     19  H   UNL     1     152.384 142.555 143.512  1.00  0.00     0.293 HD
ENDBRANCH  15  18
ENDBRANCH   1  12
BRANCH   2  20
ATOM     20  O   UNL     1     150.834 140.375 149.665  1.00  0.00    -0.502 OA
ATOM     21  H   UNL     1     151.311 140.241 150.550  1.00  0.00     0.293 HD
ENDBRANCH   2  20
BRANCH   6  22
ATOM     22  O   UNL     1     146.683 139.886 152.967  1.00  0.00    -0.507 OA
ATOM     23  H   UNL     1     146.286 139.244 153.637  1.00  0.00     0.293 HD
ENDBRANCH   6  22
BRANCH   8  24
ATOM     24  O   UNL     1     143.076 139.959 149.799  1.00  0.00    -0.508 OA
ATOM     25  H   UNL     1     142.434 139.545 150.465  1.00  0.00     0.293 HD
ENDBRANCH   8  24
TORSDOF 5
ENDMDL
MODEL 2
REMARK VINA RESULT:    -0.225      0.943      1.447
REMARK INTER + INTRA:          -0.565
REMARK INTER:                  -0.276
REMARK INTRA:                  -0.289
REMARK UNBOUND:                -0.300
REMARK SMILES O=c1c(O)c(-c2ccc(O)cc2)oc2cc(O)cc(O)c12
REMARK SMILES IDX 5 1 3 2 2 3 1 4 21 5 19 6 18 7 16 8 15 9 14 10 13 11 6 12
REMARK SMILES IDX 7 13 8 14 9 15 12 16 11 17 10 18 4 20 20 22 17 24
REMARK H PARENT 10 19 4 21 20 23 17 25
REMARK Flexibility Score: inf
ROOT
ATOM      1  C   UNL     1     148.822 140.669 147.902  1.00  0.00     0.180 A 
ATOM      2  C   UNL     1     149.757 140.424 148.922  1.00  0.00     0.208 A 
ATOM      3  C   UNL     1     149.293 140.177 150.225  1.00  0.00     0.238 A 
ATOM      4  O   UNL     1     150.132 139.904 151.123  1.00  0.00    -0.285 OA
ATOM      5  C   UNL     1     147.904 140.192 150.493  1.00  0.00     0.111 A 
ATOM      6  C   UNL     1     147.325 139.995 151.783  1.00  0.00     0.134 A 
ATOM      7  C   UNL     1     145.933 139.903 151.909  1.00  0.00     0.093 A 
ATOM      8  C   UNL     1     145.097 140.065 150.801  1.00  0.00     0.123 A 
ATOM      9  C   UNL     1     145.651 140.318 149.549  1.00  0.00     0.094 A 
ATOM     10  C   UNL     1     147.037 140.381 149.385  1.00  0.00     0.146 A 
ATOM     11  O   UNL     1     147.523 140.613 148.171  1.00  0.00    -0.452 OA
ENDROOT
BRANCH   1  12
ATOM     12  C   UNL     1     149.234 140.963 146.510  1.00  0.00     0.021 A 
ATOM     13  C   UNL     1     149.498 142.290 146.133  1.00  0.00     0.016 A 
ATOM     14  C   UNL     1     149.909 142.587 144.829  1.00  0.00     0.047 A 
ATOM     15  C   UNL     1     150.078 141.560 143.893  1.00  0.00     0.115 A 
ATOM     16  C   UNL     1     149.423 139.934 145.569  1.00  0.00     0.016 A 
ATOM     17  C   UNL     1     149.836 140.234 144.266  1.00  0.00     0.047 A 
BRANCH  15  18
ATOM     18  O   UNL     1     150.487 141.844 142.592  1.00  0.00    -0.508 OA
ATOM     19  H   UNL     1     150.455 141.140 141.862  1.00  0.00     0.293 HD
ENDBRANCH  15  18
ENDBRANCH   1  12
BRANCH   2  20
ATOM     20  O   UNL     1     151.123 140.391 148.631  1.00  0.00    -0.502 OA
ATOM     21  H   UNL     1     151.486 140.578 147.704  1.00  0.00     0.293 HD
ENDBRANCH   2  20
BRANCH   6  22
ATOM     22  O   UNL     1     148.065 139.912 152.966  1.00  0.00    -0.507 OA
ATOM     23  H   UNL     1     148.731 139.184 153.178  1.00  0.00     0.293 HD
ENDBRANCH   6  22
BRANCH   8  24
ATOM     24  O   UNL     1     143.713 139.988 150.938  1.00  0.00    -0.508 OA
ATOM     25  H   UNL     1     143.157 139.369 150.358  1.00  0.00     0.293 HD
ENDBRANCH   8  24
TORSDOF 5
ENDMDL
MODEL 3
REMARK VINA RESULT:    -0.205     18.670     19.352
REMARK INTER + INTRA:          -0.541
REMARK INTER:                  -0.240
REMARK INTRA:                  -0.300
REMARK UNBOUND:                -0.300
REMARK SMILES O=c1c(O)c(-c2ccc(O)cc2)oc2cc(O)cc(O)c12
REMARK SMILES IDX 5 1 3 2 2 3 1 4 21 5 19 6 18 7 16 8 15 9 14 10 13 11 6 12
REMARK SMILES IDX 7 13 8 14 9 15 12 16 11 17 10 18 4 20 20 22 17 24
REMARK H PARENT 10 19 4 21 20 23 17 25
REMARK Flexibility Score: inf
ROOT
ATOM      1  C   UNL     1     153.140 159.203 147.735  1.00  0.00     0.180 A 
ATOM      2  C   UNL     1     154.100 159.154 148.760  1.00  0.00     0.208 A 
ATOM      3  C   UNL     1     153.691 159.364 150.087  1.00  0.00     0.238 A 
ATOM      4  O   UNL     1     154.546 159.265 151.006  1.00  0.00    -0.285 OA
ATOM      5  C   UNL     1     152.331 159.633 150.370  1.00  0.00     0.111 A 
ATOM      6  C   UNL     1     151.813 159.901 151.674  1.00  0.00     0.134 A 
ATOM      7  C   UNL     1     150.429 160.026 151.854  1.00  0.00     0.093 A 
ATOM      8  C   UNL     1     149.552 159.958 150.768  1.00  0.00     0.123 A 
ATOM      9  C   UNL     1     150.055 159.758 149.485  1.00  0.00     0.094 A 
ATOM     10  C   UNL     1     151.426 159.594 149.278  1.00  0.00     0.146 A 
ATOM     11  O   UNL     1     151.861 159.394 148.039  1.00  0.00    -0.452 OA
ENDROOT
BRANCH   1  12
ATOM     12  C   UNL     1     153.498 159.018 146.310  1.00  0.00     0.021 A 
ATOM     13  C   UNL     1     153.400 157.742 145.733  1.00  0.00     0.016 A 
ATOM     14  C   UNL     1     153.713 157.549 144.383  1.00  0.00     0.047 A 
ATOM     15  C   UNL     1     154.110 158.633 143.591  1.00  0.00     0.115 A 
ATOM     16  C   UNL     1     153.880 160.106 145.504  1.00  0.00     0.016 A 
ATOM     17  C   UNL     1     154.191 159.910 144.154  1.00  0.00     0.047 A 
BRANCH  15  18
ATOM     18  O   UNL     1     154.425 158.453 142.246  1.00  0.00    -0.508 OA
ATOM     19  H   UNL     1     155.326 158.090 141.957  1.00  0.00     0.293 HD
ENDBRANCH  15  18
ENDBRANCH   1  12
BRANCH   2  20
ATOM     20  O   UNL     1     155.434 158.864 148.461  1.00  0.00    -0.502 OA
ATOM     21  H   UNL     1     156.147 159.582 148.400  1.00  0.00     0.293 HD
ENDBRANCH   2  20
BRANCH   6  22
ATOM     22  O   UNL     1     152.608 160.078 152.809  1.00  0.00    -0.507 OA
ATOM     23  H   UNL     1     152.348 160.633 153.611  1.00  0.00     0.293 HD
ENDBRANCH   6  22
BRANCH   8  24
ATOM     24  O   UNL     1     148.179 160.100 150.954  1.00  0.00    -0.508 OA
ATOM     25  H   UNL     1     147.650 159.446 151.520  1.00  0.00     0.293 HD
ENDBRANCH   8  24
TORSDOF 5
ENDMDL
MODEL 4
REMARK VINA RESULT:    -0.192     17.678     19.969
REMARK INTER + INTRA:          -0.526
REMARK INTER:                  -0.240
REMARK INTRA:                  -0.287
REMARK UNBOUND:                -0.300
REMARK SMILES O=c1c(O)c(-c2ccc(O)cc2)oc2cc(O)cc(O)c12
REMARK SMILES IDX 5 1 3 2 2 3 1 4 21 5 19 6 18 7 16 8 15 9 14 10 13 11 6 12
REMARK SMILES IDX 7 13 8 14 9 15 12 16 11 17 10 18 4 20 20 22 17 24
REMARK H PARENT 10 19 4 21 20 23 17 25
REMARK Flexibility Score: inf
ROOT
ATOM      1  C   UNL     1     149.903 159.114 148.792  1.00  0.00     0.180 A 
ATOM      2  C   UNL     1     150.368 159.022 147.469  1.00  0.00     0.208 A 
ATOM      3  C   UNL     1     151.733 159.226 147.211  1.00  0.00     0.238 A 
ATOM      4  O   UNL     1     152.153 159.089 146.032  1.00  0.00    -0.285 OA
ATOM      5  C   UNL     1     152.612 159.535 148.276  1.00  0.00     0.111 A 
ATOM      6  C   UNL     1     154.007 159.802 148.125  1.00  0.00     0.134 A 
ATOM      7  C   UNL     1     154.806 159.968 149.263  1.00  0.00     0.093 A 
ATOM      8  C   UNL     1     154.248 159.942 150.545  1.00  0.00     0.123 A 
ATOM      9  C   UNL     1     152.879 159.743 150.699  1.00  0.00     0.094 A 
ATOM     10  C   UNL     1     152.061 159.538 149.584  1.00  0.00     0.146 A 
ATOM     11  O   UNL     1     150.763 159.341 149.778  1.00  0.00    -0.452 OA
ENDROOT
BRANCH   1  12
ATOM     12  C   UNL     1     148.474 158.937 149.139  1.00  0.00     0.021 A 
ATOM     13  C   UNL     1     147.623 160.054 149.156  1.00  0.00     0.016 A 
ATOM     14  C   UNL     1     146.266 159.906 149.460  1.00  0.00     0.047 A 
ATOM     15  C   UNL     1     145.740 158.637 149.733  1.00  0.00     0.115 A 
ATOM     16  C   UNL     1     147.935 157.663 149.397  1.00  0.00     0.016 A 
ATOM     17  C   UNL     1     146.577 157.517 149.698  1.00  0.00     0.047 A 
BRANCH  15  18
ATOM     18  O   UNL     1     144.390 158.476 150.038  1.00  0.00    -0.508 OA
ATOM     19  H   UNL     1     143.888 157.633 149.785  1.00  0.00     0.293 HD
ENDBRANCH  15  18
ENDBRANCH   1  12
BRANCH   2  20
ATOM     20  O   UNL     1     149.487 158.694 146.435  1.00  0.00    -0.502 OA
ATOM     21  H   UNL     1     148.815 157.938 146.511  1.00  0.00     0.293 HD
ENDBRANCH   2  20
BRANCH   6  22
ATOM     22  O   UNL     1     154.646 159.939 146.889  1.00  0.00    -0.507 OA
ATOM     23  H   UNL     1     154.625 160.773 146.321  1.00  0.00     0.293 HD
ENDBRANCH   6  22
BRANCH   8  24
ATOM     24  O   UNL     1     155.047 160.125 151.671  1.00  0.00    -0.508 OA
ATOM     25  H   UNL     1     155.772 160.834 151.698  1.00  0.00     0.293 HD
ENDBRANCH   8  24
TORSDOF 5
ENDMDL
MODEL 5
REMARK VINA RESULT:    -0.190      1.977      2.623
REMARK INTER + INTRA:          -0.523
REMARK INTER:                  -0.235
REMARK INTRA:                  -0.288
REMARK UNBOUND:                -0.300
REMARK SMILES O=c1c(O)c(-c2ccc(O)cc2)oc2cc(O)cc(O)c12
REMARK SMILES IDX 5 1 3 2 2 3 1 4 21 5 19 6 18 7 16 8 15 9 14 10 13 11 6 12
REMARK SMILES IDX 7 13 8 14 9 15 12 16 11 17 10 18 4 20 20 22 17 24
REMARK H PARENT 10 19 4 21 20 23 17 25
REMARK Flexibility Score: inf
ROOT
ATOM      1  C   UNL     1     149.150 140.661 147.573  1.00  0.00     0.180 A 
ATOM      2  C   UNL     1     148.941 140.440 148.946  1.00  0.00     0.208 A 
ATOM      3  C   UNL     1     147.635 140.210 149.407  1.00  0.00     0.238 A 
ATOM      4  O   UNL     1     147.460 139.958 150.628  1.00  0.00    -0.285 OA
ATOM      5  C   UNL     1     146.554 140.219 148.493  1.00  0.00     0.111 A 
ATOM      6  C   UNL     1     145.185 140.039 148.857  1.00  0.00     0.134 A 
ATOM      7  C   UNL     1     144.212 139.938 147.854  1.00  0.00     0.093 A 
ATOM      8  C   UNL     1     144.551 140.076 146.505  1.00  0.00     0.123 A 
ATOM      9  C   UNL     1     145.875 140.313 146.146  1.00  0.00     0.094 A 
ATOM     10  C   UNL     1     146.873 140.383 147.120  1.00  0.00     0.146 A 
ATOM     11  O   UNL     1     148.124 140.599 146.733  1.00  0.00    -0.452 OA
ENDROOT
BRANCH   1  12
ATOM     12  C   UNL     1     150.494 140.935 147.016  1.00  0.00     0.021 A 
ATOM     13  C   UNL     1     150.952 142.260 146.935  1.00  0.00     0.016 A 
ATOM     14  C   UNL     1     152.227 142.541 146.432  1.00  0.00     0.047 A 
ATOM     15  C   UNL     1     153.065 141.498 146.019  1.00  0.00     0.115 A 
ATOM     16  C   UNL     1     151.349 139.892 146.616  1.00  0.00     0.016 A 
ATOM     17  C   UNL     1     152.624 140.174 146.114  1.00  0.00     0.047 A 
BRANCH  15  18
ATOM     18  O   UNL     1     154.336 141.764 145.515  1.00  0.00    -0.508 OA
ATOM     19  H   UNL     1     154.489 142.484 144.819  1.00  0.00     0.293 HD
ENDBRANCH  15  18
ENDBRANCH   1  12
BRANCH   2  20
ATOM     20  O   UNL     1     150.025 140.412 149.826  1.00  0.00    -0.502 OA
ATOM     21  H   UNL     1     149.956 140.736 150.784  1.00  0.00     0.293 HD
ENDBRANCH   2  20
BRANCH   6  22
ATOM     22  O   UNL     1     144.728 139.981 150.176  1.00  0.00    -0.507 OA
ATOM     23  H   UNL     1     144.068 140.626 150.585  1.00  0.00     0.293 HD
ENDBRANCH   6  22
BRANCH   8  24
ATOM     24  O   UNL     1     143.574 139.990 145.515  1.00  0.00    -0.508 OA
ATOM     25  H   UNL     1     142.997 139.164 145.410  1.00  0.00     0.293 HD
ENDBRANCH   8  24
TORSDOF 5
ENDMDL
MODEL 6
REMARK VINA RESULT:    -0.187      2.495      5.402
REMARK INTER + INTRA:          -0.520
REMARK INTER:                  -0.225
REMARK INTRA:                  -0.295
REMARK UNBOUND:                -0.300
REMARK SMILES O=c1c(O)c(-c2ccc(O)cc2)oc2cc(O)cc(O)c12
REMARK SMILES IDX 5 1 3 2 2 3 1 4 21 5 19 6 18 7 16 8 15 9 14 10 13 11 6 12
REMARK SMILES IDX 7 13 8 14 9 15 12 16 11 17 10 18 4 20 20 22 17 24
REMARK H PARENT 10 19 4 21 20 23 17 25
REMARK Flexibility Score: inf
ROOT
ATOM      1  C   UNL     1     146.490 140.799 149.052  1.00  0.00     0.180 A 
ATOM      2  C   UNL     1     146.181 140.757 150.423  1.00  0.00     0.208 A 
ATOM      3  C   UNL     1     147.218 140.556 151.349  1.00  0.00     0.238 A 
ATOM      4  O   UNL     1     146.943 140.573 152.577  1.00  0.00    -0.285 OA
ATOM      5  C   UNL     1     148.546 140.384 150.892  1.00  0.00     0.111 A 
ATOM      6  C   UNL     1     149.668 140.133 151.739  1.00  0.00     0.134 A 
ATOM      7  C   UNL     1     150.956 140.108 151.190  1.00  0.00     0.093 A 
ATOM      8  C   UNL     1     151.156 140.261 149.815  1.00  0.00     0.123 A 
ATOM      9  C   UNL     1     150.062 140.446 148.974  1.00  0.00     0.094 A 
ATOM     10  C   UNL     1     148.768 140.511 149.496  1.00  0.00     0.146 A 
ATOM     11  O   UNL     1     147.755 140.700 148.659  1.00  0.00    -0.452 OA
ENDROOT
BRANCH   1  12
ATOM     12  C   UNL     1     145.449 140.982 148.015  1.00  0.00     0.021 A 
ATOM     13  C   UNL     1     145.130 142.278 147.577  1.00  0.00     0.016 A 
ATOM     14  C   UNL     1     144.165 142.472 146.584  1.00  0.00     0.047 A 
ATOM     15  C   UNL     1     143.521 141.372 146.003  1.00  0.00     0.115 A 
ATOM     16  C   UNL     1     144.811 139.881 147.415  1.00  0.00     0.016 A 
ATOM     17  C   UNL     1     143.848 140.078 146.420  1.00  0.00     0.047 A 
BRANCH  15  18
ATOM     18  O   UNL     1     142.558 141.552 145.013  1.00  0.00    -0.508 OA
ATOM     19  H   UNL     1     142.225 142.476 144.761  1.00  0.00     0.293 HD
ENDBRANCH  15  18
ENDBRANCH   1  12
BRANCH   2  20
ATOM     20  O   UNL     1     144.866 140.952 150.853  1.00  0.00    -0.502 OA
ATOM     21  H   UNL     1     144.425 141.864 150.861  1.00  0.00     0.293 HD
ENDBRANCH   2  20
BRANCH   6  22
ATOM     22  O   UNL     1     149.570 139.876 153.110  1.00  0.00    -0.507 OA
ATOM     23  H   UNL     1     149.998 140.436 153.831  1.00  0.00     0.293 HD
ENDBRANCH   6  22
BRANCH   8  24
ATOM     24  O   UNL     1     152.439 140.219 149.275  1.00  0.00    -0.508 OA
ATOM     25  H   UNL     1     152.910 139.340 149.095  1.00  0.00     0.293 HD
ENDBRANCH   8  24
TORSDOF 5
ENDMDL
MODEL 7
REMARK VINA RESULT:    -0.186     18.432     19.320
REMARK INTER + INTRA:          -0.520
REMARK INTER:                  -0.221
REMARK INTRA:                  -0.299
REMARK UNBOUND:                -0.300
REMARK SMILES O=c1c(O)c(-c2ccc(O)cc2)oc2cc(O)cc(O)c12
REMARK SMILES IDX 5 1 3 2 2 3 1 4 21 5 19 6 18 7 16 8 15 9 14 10 13 11 6 12
REMARK SMILES IDX 7 13 8 14 9 15 12 16 11 17 10 18 4 20 20 22 17 24
REMARK H PARENT 10 19 4 21 20 23 17 25
REMARK Flexibility Score: inf
ROOT
ATOM      1  C   UNL     1     151.616 159.219 146.541  1.00  0.00     0.180 A 
ATOM      2  C   UNL     1     152.943 159.212 147.005  1.00  0.00     0.208 A 
ATOM      3  C   UNL     1     153.187 159.420 148.372  1.00  0.00     0.238 A 
ATOM      4  O   UNL     1     154.374 159.359 148.791  1.00  0.00    -0.285 OA
ATOM      5  C   UNL     1     152.104 159.646 149.255  1.00  0.00     0.111 A 
ATOM      6  C   UNL     1     152.239 159.908 150.652  1.00  0.00     0.134 A 
ATOM      7  C   UNL     1     151.092 159.988 151.453  1.00  0.00     0.093 A 
ATOM      8  C   UNL     1     149.815 159.881 150.895  1.00  0.00     0.123 A 
ATOM      9  C   UNL     1     149.674 159.686 149.524  1.00  0.00     0.094 A 
ATOM     10  C   UNL     1     150.799 159.566 148.704  1.00  0.00     0.146 A 
ATOM     11  O   UNL     1     150.618 159.369 147.404  1.00  0.00    -0.452 OA
ENDROOT
BRANCH   1  12
ATOM     12  C   UNL     1     151.281 159.033 145.111  1.00  0.00     0.021 A 
ATOM     13  C   UNL     1     150.939 157.755 144.642  1.00  0.00     0.016 A 
ATOM     14  C   UNL     1     150.598 157.560 143.299  1.00  0.00     0.047 A 
ATOM     15  C   UNL     1     150.578 158.645 142.414  1.00  0.00     0.115 A 
ATOM     16  C   UNL     1     151.241 160.121 144.220  1.00  0.00     0.016 A 
ATOM     17  C   UNL     1     150.897 159.925 142.878  1.00  0.00     0.047 A 
BRANCH  15  18
ATOM     18  O   UNL     1     150.240 158.465 141.075  1.00  0.00    -0.508 OA
ATOM     19  H   UNL     1     150.926 158.163 140.392  1.00  0.00     0.293 HD
ENDBRANCH  15  18
ENDBRANCH   1  12
BRANCH   2  20
ATOM     20  O   UNL     1     153.996 158.965 146.121  1.00  0.00    -0.502 OA
ATOM     21  H   UNL     1     154.883 159.450 146.181  1.00  0.00     0.293 HD
ENDBRANCH   2  20
BRANCH   6  22
ATOM     22  O   UNL     1     153.462 160.123 151.292  1.00  0.00    -0.507 OA
ATOM     23  H   UNL     1     154.330 160.328 150.820  1.00  0.00     0.293 HD
ENDBRANCH   6  22
BRANCH   8  24
ATOM     24  O   UNL     1     148.680 159.978 151.697  1.00  0.00    -0.508 OA
ATOM     25  H   UNL     1     147.806 159.538 151.433  1.00  0.00     0.293 HD
ENDBRANCH   8  24
TORSDOF 5
ENDMDL
MODEL 8
REMARK VINA RESULT:    -0.179     18.463     19.496
REMARK INTER + INTRA:          -0.511
REMARK INTER:                  -0.211
REMARK INTRA:                  -0.300
REMARK UNBOUND:                -0.300
REMARK SMILES O=c1c(O)c(-c2ccc(O)cc2)oc2cc(O)cc(O)c12
REMARK SMILES IDX 5 1 3 2 2 3 1 4 21 5 19 6 18 7 16 8 15 9 14 10 13 11 6 12
REMARK SMILES IDX 7 13 8 14 9 15 12 16 11 17 10 18 4 20 20 22 17 24
REMARK H PARENT 10 19 4 21 20 23 17 25
REMARK Flexibility Score: inf
ROOT
ATOM      1  C   UNL     1     152.718 158.912 145.975  1.00  0.00     0.180 A 
ATOM      2  C   UNL     1     151.338 159.158 146.082  1.00  0.00     0.208 A 
ATOM      3  C   UNL     1     150.806 159.518 147.330  1.00  0.00     0.238 A 
ATOM      4  O   UNL     1     149.579 159.789 147.409  1.00  0.00    -0.285 OA
ATOM      5  C   UNL     1     151.656 159.612 148.458  1.00  0.00     0.111 A 
ATOM      6  C   UNL     1     151.218 159.929 149.779  1.00  0.00     0.134 A 
ATOM      7  C   UNL     1     152.164 160.122 150.793  1.00  0.00     0.093 A 
ATOM      8  C   UNL     1     153.529 159.946 150.547  1.00  0.00     0.123 A 
ATOM      9  C   UNL     1     153.961 159.578 149.276  1.00  0.00     0.094 A 
ATOM     10  C   UNL     1     153.043 159.412 148.235  1.00  0.00     0.146 A 
ATOM     11  O   UNL     1     153.500 159.072 147.036  1.00  0.00    -0.452 OA
ENDROOT
BRANCH   1  12
ATOM     12  C   UNL     1     153.348 158.503 144.698  1.00  0.00     0.021 A 
ATOM     13  C   UNL     1     153.900 159.482 143.856  1.00  0.00     0.016 A 
ATOM     14  C   UNL     1     154.520 159.116 142.656  1.00  0.00     0.047 A 
ATOM     15  C   UNL     1     154.610 157.767 142.293  1.00  0.00     0.115 A 
ATOM     16  C   UNL     1     153.459 157.148 144.336  1.00  0.00     0.016 A 
ATOM     17  C   UNL     1     154.081 156.785 143.137  1.00  0.00     0.047 A 
BRANCH  15  18
ATOM     18  O   UNL     1     155.224 157.390 141.101  1.00  0.00    -0.508 OA
ATOM     19  H   UNL     1     154.748 156.807 140.422  1.00  0.00     0.293 HD
ENDBRANCH  15  18
ENDBRANCH   1  12
BRANCH   2  20
ATOM     20  O   UNL     1     150.520 159.081 144.952  1.00  0.00    -0.502 OA
ATOM     21  H   UNL     1     150.742 158.489 144.159  1.00  0.00     0.293 HD
ENDBRANCH   2  20
BRANCH   6  22
ATOM     22  O   UNL     1     149.875 160.037 150.152  1.00  0.00    -0.507 OA
ATOM     23  H   UNL     1     149.487 159.679 151.012  1.00  0.00     0.293 HD
ENDBRANCH   6  22
BRANCH   8  24
ATOM     24  O   UNL     1     154.463 160.125 151.566  1.00  0.00    -0.508 OA
ATOM     25  H   UNL     1     154.181 160.203 152.536  1.00  0.00     0.293 HD
ENDBRANCH   8  24
TORSDOF 5
ENDMDL
