MODEL 1
REMARK VINA RESULT:    89.984      0.000      0.000
REMARK INTER + INTRA:         137.981
REMARK INTER:                 132.067
REMARK INTRA:                   5.913
REMARK UNBOUND:                 5.913
REMARK SMILES Cc1cc2c(C(C)C)c(O)c(O)c(C=O)c2c(O)c1-c1c(C)cc2c(C(C)C)c(O)c(O)c(C=O)c2c1O
REMARK SMILES IDX 1 1 2 2 3 3 4 4 16 5 13 6 11 7 9 8 5 9 17 10 19 11 20 12
REMARK SMILES IDX 37 13 21 14 36 15 23 16 22 17 24 18 33 19 25 20 31 21 29 22
REMARK SMILES IDX 38 23 34 25 35 26 26 27 27 28 28 29 32 30 30 32 18 34 6 36
REMARK SMILES IDX 7 37 8 38 14 39 15 40 10 41 12 43
REMARK H PARENT 38 24 32 31 30 33 18 35 10 42 12 44
REMARK Flexibility Score: inf
ROOT
ATOM      1  C   UNL     1      -5.980 -19.533  24.367  1.00  0.00     0.045 C 
ATOM      2  C   UNL     1      -4.608 -18.919  24.514  1.00  0.00    -0.039 A 
ATOM      3  C   UNL     1      -3.658 -19.121  23.512  1.00  0.00     0.013 A 
ATOM      4  C   UNL     1      -2.350 -18.598  23.610  1.00  0.00    -0.006 A 
ATOM      5  C   UNL     1      -2.039 -17.732  24.701  1.00  0.00     0.039 A 
ATOM      6  C   UNL     1      -0.798 -17.028  24.689  1.00  0.00     0.072 A 
ATOM      7  C   UNL     1       0.095 -17.198  23.609  1.00  0.00     0.169 A 
ATOM      8  C   UNL     1      -0.179 -18.129  22.601  1.00  0.00     0.162 A 
ATOM      9  C   UNL     1      -1.357 -18.903  22.631  1.00  0.00     0.008 A 
ATOM     10  C   UNL     1      -2.977 -17.613  25.771  1.00  0.00     0.132 A 
ATOM     11  C   UNL     1      -4.257 -18.196  25.665  1.00  0.00     0.031 A 
ENDROOT
BRANCH  11  12
ATOM     12  C   UNL     1      -5.241 -18.048  26.770  1.00  0.00     0.031 A 
ATOM     13  C   UNL     1      -6.598 -17.785  26.480  1.00  0.00     0.132 A 
ATOM     14  C   UNL     1      -4.820 -18.173  28.105  1.00  0.00    -0.039 A 
ATOM     15  C   UNL     1      -7.547 -17.658  27.536  1.00  0.00     0.039 A 
ATOM     16  C   UNL     1      -5.725 -17.918  29.137  1.00  0.00     0.013 A 
ATOM     17  C   UNL     1      -3.390 -18.518  28.441  1.00  0.00     0.045 C 
ATOM     18  C   UNL     1      -7.072 -17.581  28.878  1.00  0.00    -0.006 A 
ATOM     19  C   UNL     1      -8.949 -17.582  27.294  1.00  0.00     0.072 A 
ATOM     20  C   UNL     1      -7.957 -17.197  29.929  1.00  0.00     0.008 A 
ATOM     21  C   UNL     1      -9.833 -17.344  28.365  1.00  0.00     0.169 A 
ATOM     22  C   UNL     1      -9.343 -17.154  29.663  1.00  0.00     0.162 A 
BRANCH  13  23
ATOM     23  O   UNL     1      -6.997 -17.609  25.151  1.00  0.00    -0.507 OA
ATOM     24  H   UNL     1      -6.418 -17.841  24.353  1.00  0.00     0.293 HD
ENDBRANCH  13  23
BRANCH  19  25
ATOM     25  C   UNL     1      -9.537 -17.870  25.969  1.00  0.00     0.264 C 
ATOM     26  O   UNL     1      -9.730 -19.059  25.599  1.00  0.00    -0.298 OA
ENDBRANCH  19  25
BRANCH  20  27
ATOM     27  C   UNL     1      -7.436 -16.828  31.329  1.00  0.00     0.017 C 
ATOM     28  C   UNL     1      -7.069 -18.085  32.125  1.00  0.00     0.012 C 
ATOM     29  C   UNL     1      -8.391 -15.920  32.125  1.00  0.00     0.012 C 
ENDBRANCH  20  27
BRANCH  21  30
ATOM     30  O   UNL     1     -11.220 -17.308  28.175  1.00  0.00    -0.504 OA
ATOM     31  H   UNL     1     -11.830 -18.105  28.295  1.00  0.00     0.293 HD
ENDBRANCH  21  30
BRANCH  22  32
ATOM     32  O   UNL     1     -10.247 -16.945  30.708  1.00  0.00    -0.504 OA
ATOM     33  H   UNL     1     -10.343 -17.580  31.491  1.00  0.00     0.293 HD
ENDBRANCH  22  32
ENDBRANCH  11  12
BRANCH  10  34
ATOM     34  O   UNL     1      -2.626 -16.941  26.948  1.00  0.00    -0.507 OA
ATOM     35  H   UNL     1      -2.997 -17.171  27.862  1.00  0.00     0.293 HD
ENDBRANCH  10  34
BRANCH   9  36
ATOM     36  C   UNL     1      -1.551 -20.039  21.611  1.00  0.00     0.017 C 
ATOM     37  C   UNL     1      -2.590 -21.049  22.107  1.00  0.00     0.012 C 
ATOM     38  C   UNL     1      -1.884 -19.545  20.190  1.00  0.00     0.012 C 
ENDBRANCH   9  36
BRANCH   6  39
ATOM     39  C   UNL     1      -0.451 -16.040  25.733  1.00  0.00     0.264 C 
ATOM     40  O   UNL     1       0.584 -15.330  25.625  1.00  0.00    -0.298 OA
ENDBRANCH   6  39
BRANCH   8  41
ATOM     41  O   UNL     1       0.719 -18.267  21.540  1.00  0.00    -0.504 OA
ATOM     42  H   UNL     1       1.370 -17.542  21.267  1.00  0.00     0.293 HD
ENDBRANCH   8  41
BRANCH   7  43
ATOM     43  O   UNL     1       1.263 -16.433  23.495  1.00  0.00    -0.504 OA
ATOM     44  H   UNL     1       1.330 -15.576  22.964  1.00  0.00     0.293 HD
ENDBRANCH   7  43
TORSDOF 11
ENDMDL
MODEL 2
REMARK VINA RESULT:    91.700      2.093      8.652
REMARK INTER + INTRA:         140.499
REMARK INTER:                 133.683
REMARK INTRA:                   6.816
REMARK UNBOUND:                 5.913
REMARK SMILES Cc1cc2c(C(C)C)c(O)c(O)c(C=O)c2c(O)c1-c1c(C)cc2c(C(C)C)c(O)c(O)c(C=O)c2c1O
REMARK SMILES IDX 1 1 2 2 3 3 4 4 16 5 13 6 11 7 9 8 5 9 17 10 19 11 20 12
REMARK SMILES IDX 37 13 21 14 36 15 23 16 22 17 24 18 33 19 25 20 31 21 29 22
REMARK SMILES IDX 38 23 34 25 35 26 26 27 27 28 28 29 32 30 30 32 18 34 6 36
REMARK SMILES IDX 7 37 8 38 14 39 15 40 10 41 12 43
REMARK H PARENT 38 24 32 31 30 33 18 35 10 42 12 44
REMARK Flexibility Score: inf
ROOT
ATOM      1  C   UNL     1      -6.845 -17.698  24.151  1.00  0.00     0.045 C 
ATOM      2  C   UNL     1      -7.048 -17.618  25.645  1.00  0.00    -0.039 A 
ATOM      3  C   UNL     1      -8.301 -17.264  26.146  1.00  0.00     0.013 A 
ATOM      4  C   UNL     1      -8.542 -17.142  27.532  1.00  0.00    -0.006 A 
ATOM      5  C   UNL     1      -7.509 -17.520  28.443  1.00  0.00     0.039 A 
ATOM      6  C   UNL     1      -7.815 -17.611  29.833  1.00  0.00     0.072 A 
ATOM      7  C   UNL     1      -9.123 -17.327  30.283  1.00  0.00     0.169 A 
ATOM      8  C   UNL     1     -10.094 -16.857  29.393  1.00  0.00     0.162 A 
ATOM      9  C   UNL     1      -9.797 -16.674  28.026  1.00  0.00     0.008 A 
ATOM     10  C   UNL     1      -6.203 -17.781  27.927  1.00  0.00     0.132 A 
ATOM     11  C   UNL     1      -5.984 -17.840  26.534  1.00  0.00     0.031 A 
ENDROOT
BRANCH  11  12
ATOM     12  C   UNL     1      -4.629 -18.138  26.001  1.00  0.00     0.031 A 
ATOM     13  C   UNL     1      -4.481 -18.944  24.852  1.00  0.00     0.132 A 
ATOM     14  C   UNL     1      -3.494 -17.613  26.641  1.00  0.00    -0.039 A 
ATOM     15  C   UNL     1      -3.184 -19.219  24.328  1.00  0.00     0.039 A 
ATOM     16  C   UNL     1      -2.223 -17.992  26.204  1.00  0.00     0.013 A 
ATOM     17  C   UNL     1      -3.625 -16.696  27.832  1.00  0.00     0.045 C 
ATOM     18  C   UNL     1      -2.043 -18.856  25.101  1.00  0.00    -0.006 A 
ATOM     19  C   UNL     1      -2.991 -19.864  23.072  1.00  0.00     0.072 A 
ATOM     20  C   UNL     1      -0.751 -19.341  24.740  1.00  0.00     0.008 A 
ATOM     21  C   UNL     1      -1.691 -20.213  22.656  1.00  0.00     0.169 A 
ATOM     22  C   UNL     1      -0.587 -19.954  23.478  1.00  0.00     0.162 A 
BRANCH  13  23
ATOM     23  O   UNL     1      -5.615 -19.506  24.253  1.00  0.00    -0.507 OA
ATOM     24  H   UNL     1      -6.505 -19.617  24.724  1.00  0.00     0.293 HD
ENDBRANCH  13  23
BRANCH  19  25
ATOM     25  C   UNL     1      -4.098 -20.076  22.116  1.00  0.00     0.264 C 
ATOM     26  O   UNL     1      -4.599 -21.221  21.961  1.00  0.00    -0.298 OA
ENDBRANCH  19  25
BRANCH  20  27
ATOM     27  C   UNL     1       0.454 -19.213  25.689  1.00  0.00     0.017 C 
ATOM     28  C   UNL     1       1.363 -20.442  25.587  1.00  0.00     0.012 C 
ATOM     29  C   UNL     1       0.063 -18.924  27.150  1.00  0.00     0.012 C 
ENDBRANCH  20  27
BRANCH  21  30
ATOM     30  O   UNL     1      -1.456 -20.806  21.409  1.00  0.00    -0.504 OA
ATOM     31  H   UNL     1      -0.559 -20.813  20.944  1.00  0.00     0.293 HD
ENDBRANCH  21  30
BRANCH  22  32
ATOM     32  O   UNL     1       0.692 -20.288  23.027  1.00  0.00    -0.504 OA
ATOM     33  H   UNL     1       1.281 -19.647  22.511  1.00  0.00     0.293 HD
ENDBRANCH  22  32
ENDBRANCH  11  12
BRANCH  10  34
ATOM     34  O   UNL     1      -5.120 -17.953  28.798  1.00  0.00    -0.507 OA
ATOM     35  H   UNL     1      -5.169 -17.796  29.797  1.00  0.00     0.293 HD
ENDBRANCH  10  34
BRANCH   9  36
ATOM     36  C   UNL     1     -10.824 -15.994  27.105  1.00  0.00     0.017 C 
ATOM     37  C   UNL     1     -10.527 -14.498  26.962  1.00  0.00     0.012 C 
ATOM     38  C   UNL     1     -10.965 -16.671  25.728  1.00  0.00     0.012 C 
ENDBRANCH   9  36
BRANCH   6  39
ATOM     39  C   UNL     1      -6.826 -18.091  30.820  1.00  0.00     0.264 C 
ATOM     40  O   UNL     1      -7.063 -18.014  32.055  1.00  0.00    -0.298 OA
ENDBRANCH   6  39
BRANCH   8  41
ATOM     41  O   UNL     1     -11.382 -16.595  29.866  1.00  0.00    -0.504 OA
ATOM     42  H   UNL     1     -11.931 -15.799  29.566  1.00  0.00     0.293 HD
ENDBRANCH   8  41
BRANCH   7  43
ATOM     43  O   UNL     1      -9.498 -17.525  31.618  1.00  0.00    -0.504 OA
ATOM     44  H   UNL     1      -8.863 -17.812  32.349  1.00  0.00     0.293 HD
ENDBRANCH   7  43
TORSDOF 11
ENDMDL
MODEL 3
REMARK VINA RESULT:    91.853      0.586      9.464
REMARK INTER + INTRA:         140.724
REMARK INTER:                 137.620
REMARK INTRA:                   3.104
REMARK UNBOUND:                 5.913
REMARK SMILES Cc1cc2c(C(C)C)c(O)c(O)c(C=O)c2c(O)c1-c1c(C)cc2c(C(C)C)c(O)c(O)c(C=O)c2c1O
REMARK SMILES IDX 1 1 2 2 3 3 4 4 16 5 13 6 11 7 9 8 5 9 17 10 19 11 20 12
REMARK SMILES IDX 37 13 21 14 36 15 23 16 22 17 24 18 33 19 25 20 31 21 29 22
REMARK SMILES IDX 38 23 34 25 35 26 26 27 27 28 28 29 32 30 30 32 18 34 6 36
REMARK SMILES IDX 7 37 8 38 14 39 15 40 10 41 12 43
REMARK H PARENT 38 24 32 31 30 33 18 35 10 42 12 44
REMARK Flexibility Score: inf
ROOT
ATOM      1  C   UNL     1      -3.381 -17.843  28.533  1.00  0.00     0.045 C 
ATOM      2  C   UNL     1      -4.844 -17.783  28.158  1.00  0.00    -0.039 A 
ATOM      3  C   UNL     1      -5.796 -17.564  29.153  1.00  0.00     0.013 A 
ATOM      4  C   UNL     1      -7.178 -17.530  28.866  1.00  0.00    -0.006 A 
ATOM      5  C   UNL     1      -7.597 -17.591  27.502  1.00  0.00     0.039 A 
ATOM      6  C   UNL     1      -8.965 -17.337  27.189  1.00  0.00     0.072 A 
ATOM      7  C   UNL     1      -9.876 -17.033  28.224  1.00  0.00     0.169 A 
ATOM      8  C   UNL     1      -9.473 -17.079  29.562  1.00  0.00     0.162 A 
ATOM      9  C   UNL     1      -8.147 -17.413  29.908  1.00  0.00     0.008 A 
ATOM     10  C   UNL     1      -6.630 -17.918  26.503  1.00  0.00     0.132 A 
ATOM     11  C   UNL     1      -5.261 -18.000  26.835  1.00  0.00     0.031 A 
ENDROOT
BRANCH  11  12
ATOM     12  C   UNL     1      -4.254 -18.314  25.787  1.00  0.00     0.031 A 
ATOM     13  C   UNL     1      -3.110 -17.501  25.637  1.00  0.00     0.132 A 
ATOM     14  C   UNL     1      -4.441 -19.425  24.947  1.00  0.00    -0.039 A 
ATOM     15  C   UNL     1      -2.135 -17.809  24.644  1.00  0.00     0.039 A 
ATOM     16  C   UNL     1      -3.553 -19.645  23.892  1.00  0.00     0.013 A 
ATOM     17  C   UNL     1      -5.622 -20.347  25.127  1.00  0.00     0.045 C 
ATOM     18  C   UNL     1      -2.439 -18.806  23.672  1.00  0.00    -0.006 A 
ATOM     19  C   UNL     1      -0.879 -17.138  24.576  1.00  0.00     0.072 A 
ATOM     20  C   UNL     1      -1.610 -18.958  22.521  1.00  0.00     0.008 A 
ATOM     21  C   UNL     1      -0.000 -17.402  23.507  1.00  0.00     0.169 A 
ATOM     22  C   UNL     1      -0.361 -18.299  22.495  1.00  0.00     0.162 A 
BRANCH  13  23
ATOM     23  O   UNL     1      -2.960 -16.367  26.443  1.00  0.00    -0.507 OA
ATOM     24  H   UNL     1      -2.342 -16.322  27.244  1.00  0.00     0.293 HD
ENDBRANCH  13  23
BRANCH  19  25
ATOM     25  C   UNL     1      -0.397 -16.256  25.660  1.00  0.00     0.264 C 
ATOM     26  O   UNL     1       0.370 -15.290  25.406  1.00  0.00    -0.298 OA
ENDBRANCH  19  25
BRANCH  20  27
ATOM     27  C   UNL     1      -2.046 -19.815  21.318  1.00  0.00     0.017 C 
ATOM     28  C   UNL     1      -1.809 -21.303  21.592  1.00  0.00     0.012 C 
ATOM     29  C   UNL     1      -1.408 -19.380  19.986  1.00  0.00     0.012 C 
ENDBRANCH  20  27
BRANCH  21  30
ATOM     30  O   UNL     1       1.261 -16.797  23.431  1.00  0.00    -0.504 OA
ATOM     31  H   UNL     1       1.853 -16.618  24.230  1.00  0.00     0.293 HD
ENDBRANCH  21  30
BRANCH  22  32
ATOM     32  O   UNL     1       0.543 -18.559  21.462  1.00  0.00    -0.504 OA
ATOM     33  H   UNL     1       1.473 -18.163  21.428  1.00  0.00     0.293 HD
ENDBRANCH  22  32
ENDBRANCH  11  12
BRANCH  10  34
ATOM     34  O   UNL     1      -7.034 -18.189  25.190  1.00  0.00    -0.507 OA
ATOM     35  H   UNL     1      -6.830 -17.587  24.402  1.00  0.00     0.293 HD
ENDBRANCH  10  34
BRANCH   9  36
ATOM     36  C   UNL     1      -7.773 -17.628  31.385  1.00  0.00     0.017 C 
ATOM     37  C   UNL     1      -7.669 -16.291  32.124  1.00  0.00     0.012 C 
ATOM     38  C   UNL     1      -8.707 -18.605  32.125  1.00  0.00     0.012 C 
ENDBRANCH   9  36
BRANCH   6  39
ATOM     39  C   UNL     1      -9.450 -17.285  25.794  1.00  0.00     0.264 C 
ATOM     40  O   UNL     1     -10.127 -18.233  25.315  1.00  0.00    -0.298 OA
ENDBRANCH   6  39
BRANCH   8  41
ATOM     41  O   UNL     1     -10.395 -16.763  30.563  1.00  0.00    -0.504 OA
ATOM     42  H   UNL     1     -11.318 -16.396  30.370  1.00  0.00     0.293 HD
ENDBRANCH   8  41
BRANCH   7  43
ATOM     43  O   UNL     1     -11.197 -16.654  27.950  1.00  0.00    -0.504 OA
ATOM     44  H   UNL     1     -12.010 -17.153  28.281  1.00  0.00     0.293 HD
ENDBRANCH   7  43
TORSDOF 11
ENDMDL
