MODEL 1
REMARK VINA RESULT:    -3.232      0.000      0.000
REMARK INTER + INTRA:          -4.483
REMARK INTER:                  -4.932
REMARK INTRA:                   0.450
REMARK UNBOUND:                 0.450
REMARK SMILES CC1=CCC[C@H](C)C(=O)C[C@H](C(C)C)C(=O)C1
REMARK SMILES IDX 8 1 9 2 6 3 7 4 5 5 4 6 3 7 2 8 1 9 10 11 11 12 15 13 16 14
REMARK SMILES IDX 17 15 12 17 13 18 14 19
REMARK H PARENT
REMARK Flexibility Score: 70.00
ROOT
ATOM      1  C   UNL     1      -1.593 -14.287  -6.500  1.00  0.00     0.136 C 
ATOM      2  O   UNL     1      -0.581 -14.255  -7.187  1.00  0.00    -0.299 OA
ENDROOT
BRANCH   1   3
ATOM      3  C   UNL     1      -1.885 -15.537  -5.687  1.00  0.00     0.053 C 
ATOM      4  C   UNL     1      -0.622 -16.001  -4.955  1.00  0.00     0.016 C 
BRANCH   3   5
ATOM      5  C   UNL     1      -3.051 -15.337  -4.698  1.00  0.00     0.015 C 
BRANCH   5   6
ATOM      6  C   UNL     1      -4.329 -16.056  -5.163  1.00  0.00     0.028 C 
BRANCH   6   7
ATOM      7  C   UNL     1      -4.297 -16.412  -6.627  1.00  0.00    -0.028 C 
ATOM      8  C   UNL     1      -4.845 -15.688  -7.635  1.00  0.00    -0.070 CG0
ATOM      9  C   UNL     1      -4.602 -16.177  -9.043  1.00  0.00     0.039 C 
ATOM     10  G   UNL     1      -5.732 -14.460  -7.437  1.00  0.00     0.000 G0
ENDBRANCH   6   7
ENDBRANCH   5   6
ENDBRANCH   3   5
ENDBRANCH   1   3
BRANCH   1  11
ATOM     11  C   UNL     1      -2.472 -13.058  -6.435  1.00  0.00     0.087 C 
BRANCH  11  12
ATOM     12  C   UNL     1      -3.507 -12.992  -7.591  1.00  0.00     0.066 C 
BRANCH  12  13
ATOM     13  C   UNL     1      -4.953 -13.211  -7.146  1.00  0.00     0.140 C 
ATOM     14  O   UNL     1      -5.471 -12.372  -6.423  1.00  0.00    -0.299 OA
BRANCH  13  15
ATOM     15  C   UNL     1      -5.723 -14.475  -7.447  1.00  0.00     0.106 CG0
ATOM     16  G   UNL     1      -4.851 -15.715  -7.643  1.00  0.00     0.000 G0
ENDBRANCH  13  15
ENDBRANCH  12  13
BRANCH  12  17
ATOM     17  C   UNL     1      -3.318 -11.718  -8.474  1.00  0.00    -0.006 C 
ATOM     18  C   UNL     1      -4.639 -11.270  -9.118  1.00  0.00     0.008 C 
ATOM     19  C   UNL     1      -2.649 -10.534  -7.757  1.00  0.00     0.008 C 
ENDBRANCH  12  17
ENDBRANCH  11  12
ENDBRANCH   1  11
TORSDOF 1
ENDMDL
MODEL 2
REMARK VINA RESULT:    -3.058      1.941      4.620
REMARK INTER + INTRA:          -4.217
REMARK INTER:                  -4.660
REMARK INTRA:                   0.443
REMARK UNBOUND:                 0.450
REMARK SMILES CC1=CCC[C@H](C)C(=O)C[C@H](C(C)C)C(=O)C1
REMARK SMILES IDX 8 1 9 2 6 3 7 4 5 5 4 6 3 7 2 8 1 9 10 11 11 12 15 13 16 14
REMARK SMILES IDX 17 15 12 17 13 18 14 19
REMARK H PARENT
REMARK Flexibility Score: 70.00
ROOT
ATOM      1  C   UNL     1      -4.525 -15.432  -8.138  1.00  0.00     0.136 C 
ATOM      2  O   UNL     1      -4.493 -16.169  -9.114  1.00  0.00    -0.299 OA
ENDROOT
BRANCH   1   3
ATOM      3  C   UNL     1      -5.462 -14.236  -8.155  1.00  0.00     0.053 C 
ATOM      4  C   UNL     1      -6.622 -14.484  -9.125  1.00  0.00     0.016 C 
BRANCH   3   5
ATOM      5  C   UNL     1      -5.987 -13.881  -6.750  1.00  0.00     0.015 C 
BRANCH   5   6
ATOM      6  C   UNL     1      -5.622 -12.441  -6.348  1.00  0.00     0.028 C 
BRANCH   6   7
ATOM      7  C   UNL     1      -5.014 -11.656  -7.481  1.00  0.00    -0.028 C 
ATOM      8  C   UNL     1      -3.717 -11.701  -7.875  1.00  0.00    -0.070 CG0
ATOM      9  C   UNL     1      -3.345 -10.909  -9.106  1.00  0.00     0.039 C 
ATOM     10  G   UNL     1      -2.610 -12.443  -7.128  1.00  0.00     0.000 G0
ENDBRANCH   6   7
ENDBRANCH   5   6
ENDBRANCH   3   5
ENDBRANCH   1   3
BRANCH   1  11
ATOM     11  C   UNL     1      -3.685 -15.783  -6.931  1.00  0.00     0.087 C 
BRANCH  11  12
ATOM     12  C   UNL     1      -2.293 -15.095  -6.942  1.00  0.00     0.066 C 
BRANCH  12  13
ATOM     13  C   UNL     1      -2.250 -13.786  -7.731  1.00  0.00     0.140 C 
ATOM     14  O   UNL     1      -1.806 -13.810  -8.870  1.00  0.00    -0.299 OA
BRANCH  13  15
ATOM     15  C   UNL     1      -2.605 -12.449  -7.125  1.00  0.00     0.106 CG0
ATOM     16  G   UNL     1      -3.709 -11.692  -7.863  1.00  0.00     0.000 G0
ENDBRANCH  13  15
ENDBRANCH  12  13
BRANCH  12  17
ATOM     17  C   UNL     1      -1.689 -14.970  -5.507  1.00  0.00    -0.006 C 
ATOM     18  C   UNL     1      -2.780 -14.987  -4.425  1.00  0.00     0.008 C 
ATOM     19  C   UNL     1      -0.600 -16.004  -5.177  1.00  0.00     0.008 C 
ENDBRANCH  12  17
ENDBRANCH  11  12
ENDBRANCH   1  11
TORSDOF 1
ENDMDL
MODEL 3
REMARK VINA RESULT:    -2.190      1.792      3.850
REMARK INTER + INTRA:          -2.893
REMARK INTER:                  -2.355
REMARK INTRA:                  -0.537
REMARK UNBOUND:                 0.450
REMARK SMILES CC1=CCC[C@H](C)C(=O)C[C@H](C(C)C)C(=O)C1
REMARK SMILES IDX 8 1 9 2 6 3 7 4 5 5 4 6 3 7 2 8 1 9 10 11 11 12 15 13 16 14
REMARK SMILES IDX 17 15 12 17 13 18 14 19
REMARK H PARENT
REMARK Flexibility Score: 70.00
ROOT
ATOM      1  C   UNL     1      -4.036 -16.032  -5.132  1.00  0.00     0.136 C 
ATOM      2  O   UNL     1      -4.980 -16.237  -4.382  1.00  0.00    -0.299 OA
ENDROOT
BRANCH   1   3
ATOM      3  C   UNL     1      -3.796 -16.992  -6.285  1.00  0.00     0.053 C 
ATOM      4  C   UNL     1      -3.634 -18.422  -5.758  1.00  0.00     0.016 C 
BRANCH   3   5
ATOM      5  C   UNL     1      -4.908 -16.922  -7.350  1.00  0.00     0.015 C 
BRANCH   5   6
ATOM      6  C   UNL     1      -4.510 -16.027  -8.537  1.00  0.00     0.028 C 
BRANCH   6   7
ATOM      7  C   UNL     1      -5.109 -14.647  -8.450  1.00  0.00    -0.028 C 
ATOM      8  C   UNL     1      -4.419 -13.480  -8.425  1.00  0.00    -0.070 CG0
ATOM      9  C   UNL     1      -5.227 -12.203  -8.443  1.00  0.00     0.039 C 
ATOM     10  G   UNL     1      -2.899 -13.374  -8.318  1.00  0.00     0.000 G0
ENDBRANCH   6   7
ENDBRANCH   5   6
ENDBRANCH   3   5
ENDBRANCH   1   3
BRANCH   1  11
ATOM     11  C   UNL     1      -3.192 -14.794  -4.924  1.00  0.00     0.087 C 
BRANCH  11  12
ATOM     12  C   UNL     1      -2.145 -14.578  -6.050  1.00  0.00     0.066 C 
BRANCH  12  13
ATOM     13  C   UNL     1      -2.383 -13.322  -6.889  1.00  0.00     0.140 C 
ATOM     14  O   UNL     1      -2.259 -12.231  -6.349  1.00  0.00    -0.299 OA
BRANCH  13  15
ATOM     15  C   UNL     1      -2.893 -13.367  -8.311  1.00  0.00     0.106 CG0
ATOM     16  G   UNL     1      -4.412 -13.478  -8.434  1.00  0.00     0.000 G0
ENDBRANCH  13  15
ENDBRANCH  12  13
BRANCH  12  17
ATOM     17  C   UNL     1      -0.681 -14.699  -5.522  1.00  0.00    -0.006 C 
ATOM     18  C   UNL     1      -0.415 -16.074  -4.890  1.00  0.00     0.008 C 
ATOM     19  C   UNL     1       0.405 -14.374  -6.561  1.00  0.00     0.008 C 
ENDBRANCH  12  17
ENDBRANCH  11  12
ENDBRANCH   1  11
TORSDOF 1
ENDMDL
MODEL 4
REMARK VINA RESULT:    -2.039      1.625      4.086
REMARK INTER + INTRA:          -2.662
REMARK INTER:                  -3.893
REMARK INTRA:                   1.231
REMARK UNBOUND:                 0.450
REMARK SMILES CC1=CCC[C@H](C)C(=O)C[C@H](C(C)C)C(=O)C1
REMARK SMILES IDX 8 1 9 2 6 3 7 4 5 5 4 6 3 7 2 8 1 9 10 11 11 12 15 13 16 14
REMARK SMILES IDX 17 15 12 17 13 18 14 19
REMARK H PARENT
REMARK Flexibility Score: 70.00
ROOT
ATOM      1  C   UNL     1      -3.063 -12.594  -7.369  1.00  0.00     0.136 C 
ATOM      2  O   UNL     1      -2.748 -11.529  -6.857  1.00  0.00    -0.299 OA
ENDROOT
BRANCH   1   3
ATOM      3  C   UNL     1      -4.383 -12.682  -8.116  1.00  0.00     0.053 C 
ATOM      4  C   UNL     1      -4.690 -11.351  -8.812  1.00  0.00     0.016 C 
BRANCH   3   5
ATOM      5  C   UNL     1      -4.412 -13.847  -9.124  1.00  0.00     0.015 C 
BRANCH   5   6
ATOM      6  C   UNL     1      -5.395 -14.952  -8.698  1.00  0.00     0.028 C 
BRANCH   6   7
ATOM      7  C   UNL     1      -4.711 -16.107  -8.014  1.00  0.00    -0.028 C 
ATOM      8  C   UNL     1      -4.323 -16.147  -6.715  1.00  0.00    -0.070 CG0
ATOM      9  C   UNL     1      -3.749 -17.449  -6.209  1.00  0.00     0.039 C 
ATOM     10  G   UNL     1      -4.371 -14.955  -5.760  1.00  0.00     0.000 G0
ENDBRANCH   6   7
ENDBRANCH   5   6
ENDBRANCH   3   5
ENDBRANCH   1   3
BRANCH   1  11
ATOM     11  C   UNL     1      -2.096 -13.754  -7.298  1.00  0.00     0.087 C 
BRANCH  11  12
ATOM     12  C   UNL     1      -1.803 -14.209  -5.843  1.00  0.00     0.066 C 
BRANCH  12  13
ATOM     13  C   UNL     1      -3.038 -14.679  -5.075  1.00  0.00     0.140 C 
ATOM     14  O   UNL     1      -2.920 -14.934  -3.885  1.00  0.00    -0.299 OA
BRANCH  13  15
ATOM     15  C   UNL     1      -4.360 -14.972  -5.746  1.00  0.00     0.106 CG0
ATOM     16  G   UNL     1      -4.328 -16.148  -6.721  1.00  0.00     0.000 G0
ENDBRANCH  13  15
ENDBRANCH  12  13
BRANCH  12  17
ATOM     17  C   UNL     1      -0.612 -15.216  -5.772  1.00  0.00    -0.006 C 
ATOM     18  C   UNL     1       0.745 -14.495  -5.747  1.00  0.00     0.008 C 
ATOM     19  C   UNL     1      -0.695 -16.228  -4.617  1.00  0.00     0.008 C 
ENDBRANCH  12  17
ENDBRANCH  11  12
ENDBRANCH   1  11
TORSDOF 1
ENDMDL
MODEL 5
REMARK VINA RESULT:    -1.999      1.962      4.894
REMARK INTER + INTRA:          -2.601
REMARK INTER:                  -3.307
REMARK INTRA:                   0.706
REMARK UNBOUND:                 0.450
REMARK SMILES CC1=CCC[C@H](C)C(=O)C[C@H](C(C)C)C(=O)C1
REMARK SMILES IDX 8 1 9 2 6 3 7 4 5 5 4 6 3 7 2 8 1 9 10 11 11 12 15 13 16 14
REMARK SMILES IDX 17 15 12 17 13 18 14 19
REMARK H PARENT
REMARK Flexibility Score: 70.00
ROOT
ATOM      1  C   UNL     1      -5.746 -13.780  -6.820  1.00  0.00     0.136 C 
ATOM      2  O   UNL     1      -6.289 -13.034  -6.017  1.00  0.00    -0.299 OA
ENDROOT
BRANCH   1   3
ATOM      3  C   UNL     1      -5.600 -13.321  -8.260  1.00  0.00     0.053 C 
ATOM      4  C   UNL     1      -6.720 -13.912  -9.123  1.00  0.00     0.016 C 
BRANCH   3   5
ATOM      5  C   UNL     1      -5.563 -11.785  -8.387  1.00  0.00     0.015 C 
BRANCH   5   6
ATOM      6  C   UNL     1      -4.129 -11.259  -8.576  1.00  0.00     0.028 C 
BRANCH   6   7
ATOM      7  C   UNL     1      -3.141 -12.356  -8.877  1.00  0.00    -0.028 C 
ATOM      8  C   UNL     1      -2.417 -13.049  -7.964  1.00  0.00    -0.070 CG0
ATOM      9  C   UNL     1      -1.562 -14.182  -8.480  1.00  0.00     0.039 C 
ATOM     10  G   UNL     1      -2.363 -12.721  -6.472  1.00  0.00     0.000 G0
ENDBRANCH   6   7
ENDBRANCH   5   6
ENDBRANCH   3   5
ENDBRANCH   1   3
BRANCH   1  11
ATOM     11  C   UNL     1      -5.183 -15.095  -6.330  1.00  0.00     0.087 C 
BRANCH  11  12
ATOM     12  C   UNL     1      -3.640 -15.065  -6.156  1.00  0.00     0.066 C 
BRANCH  12  13
ATOM     13  C   UNL     1      -3.098 -13.739  -5.622  1.00  0.00     0.140 C 
ATOM     14  O   UNL     1      -3.371 -13.422  -4.473  1.00  0.00    -0.299 OA
BRANCH  13  15
ATOM     15  C   UNL     1      -2.357 -12.746  -6.486  1.00  0.00     0.106 CG0
ATOM     16  G   UNL     1      -2.410 -13.047  -7.983  1.00  0.00     0.000 G0
ENDBRANCH  13  15
ENDBRANCH  12  13
BRANCH  12  17
ATOM     17  C   UNL     1      -3.114 -16.309  -5.372  1.00  0.00    -0.006 C 
ATOM     18  C   UNL     1      -3.752 -17.613  -5.875  1.00  0.00     0.008 C 
ATOM     19  C   UNL     1      -1.582 -16.446  -5.340  1.00  0.00     0.008 C 
ENDBRANCH  12  17
ENDBRANCH  11  12
ENDBRANCH   1  11
TORSDOF 1
ENDMDL
MODEL 6
REMARK VINA RESULT:    -1.890      1.599      4.062
REMARK INTER + INTRA:          -2.434
REMARK INTER:                  -4.361
REMARK INTRA:                   1.926
REMARK UNBOUND:                 0.450
REMARK SMILES CC1=CCC[C@H](C)C(=O)C[C@H](C(C)C)C(=O)C1
REMARK SMILES IDX 8 1 9 2 6 3 7 4 5 5 4 6 3 7 2 8 1 9 10 11 11 12 15 13 16 14
REMARK SMILES IDX 17 15 12 17 13 18 14 19
REMARK H PARENT
REMARK Flexibility Score: 70.00
ROOT
ATOM      1  C   UNL     1      -2.309 -13.251  -7.957  1.00  0.00     0.136 C 
ATOM      2  O   UNL     1      -2.266 -13.613  -9.125  1.00  0.00    -0.299 OA
ENDROOT
BRANCH   1   3
ATOM      3  C   UNL     1      -2.828 -11.858  -7.643  1.00  0.00     0.053 C 
ATOM      4  C   UNL     1      -2.588 -10.922  -8.832  1.00  0.00     0.016 C 
BRANCH   3   5
ATOM      5  C   UNL     1      -4.316 -11.863  -7.239  1.00  0.00     0.015 C 
BRANCH   5   6
ATOM      6  C   UNL     1      -5.236 -11.568  -8.436  1.00  0.00     0.028 C 
BRANCH   6   7
ATOM      7  C   UNL     1      -5.844 -12.815  -9.025  1.00  0.00    -0.028 C 
ATOM      8  C   UNL     1      -6.081 -13.974  -8.363  1.00  0.00    -0.070 CG0
ATOM      9  C   UNL     1      -6.797 -15.066  -9.123  1.00  0.00     0.039 C 
ATOM     10  G   UNL     1      -5.622 -14.265  -6.934  1.00  0.00     0.000 G0
ENDBRANCH   6   7
ENDBRANCH   5   6
ENDBRANCH   3   5
ENDBRANCH   1   3
BRANCH   1  11
ATOM     11  C   UNL     1      -1.910 -14.228  -6.874  1.00  0.00     0.087 C 
BRANCH  11  12
ATOM     12  C   UNL     1      -3.117 -14.724  -6.032  1.00  0.00     0.066 C 
BRANCH  12  13
ATOM     13  C   UNL     1      -4.336 -15.124  -6.865  1.00  0.00     0.140 C 
ATOM     14  O   UNL     1      -4.247 -16.105  -7.589  1.00  0.00    -0.299 OA
BRANCH  13  15
ATOM     15  C   UNL     1      -5.593 -14.288  -6.935  1.00  0.00     0.106 CG0
ATOM     16  G   UNL     1      -6.077 -13.993  -8.354  1.00  0.00     0.000 G0
ENDBRANCH  13  15
ENDBRANCH  12  13
BRANCH  12  17
ATOM     17  C   UNL     1      -2.699 -15.808  -4.990  1.00  0.00    -0.006 C 
ATOM     18  C   UNL     1      -3.615 -17.041  -5.050  1.00  0.00     0.008 C 
ATOM     19  C   UNL     1      -1.225 -16.240  -5.069  1.00  0.00     0.008 C 
ENDBRANCH  12  17
ENDBRANCH  11  12
ENDBRANCH   1  11
TORSDOF 1
ENDMDL
MODEL 7
REMARK VINA RESULT:    -1.569      1.904      4.348
REMARK INTER + INTRA:          -1.946
REMARK INTER:                  -3.025
REMARK INTRA:                   1.080
REMARK UNBOUND:                 0.450
REMARK SMILES CC1=CCC[C@H](C)C(=O)C[C@H](C(C)C)C(=O)C1
REMARK SMILES IDX 8 1 9 2 6 3 7 4 5 5 4 6 3 7 2 8 1 9 10 11 11 12 15 13 16 14
REMARK SMILES IDX 17 15 12 17 13 18 14 19
REMARK H PARENT
REMARK Flexibility Score: 70.00
ROOT
ATOM      1  C   UNL     1      -2.846 -14.445  -5.277  1.00  0.00     0.136 C 
ATOM      2  O   UNL     1      -3.653 -13.991  -4.478  1.00  0.00    -0.299 OA
ENDROOT
BRANCH   1   3
ATOM      3  C   UNL     1      -2.012 -13.480  -6.103  1.00  0.00     0.053 C 
ATOM      4  C   UNL     1      -0.931 -14.241  -6.877  1.00  0.00     0.016 C 
BRANCH   3   5
ATOM      5  C   UNL     1      -2.872 -12.627  -7.056  1.00  0.00     0.015 C 
BRANCH   5   6
ATOM      6  C   UNL     1      -2.912 -13.217  -8.476  1.00  0.00     0.028 C 
BRANCH   6   7
ATOM      7  C   UNL     1      -4.314 -13.344  -9.015  1.00  0.00    -0.028 C 
ATOM      8  C   UNL     1      -5.362 -13.925  -8.380  1.00  0.00    -0.070 CG0
ATOM      9  C   UNL     1      -6.708 -13.848  -9.061  1.00  0.00     0.039 C 
ATOM     10  G   UNL     1      -5.257 -14.698  -7.066  1.00  0.00     0.000 G0
ENDBRANCH   6   7
ENDBRANCH   5   6
ENDBRANCH   3   5
ENDBRANCH   1   3
BRANCH   1  11
ATOM     11  C   UNL     1      -2.663 -15.944  -5.358  1.00  0.00     0.087 C 
BRANCH  11  12
ATOM     12  C   UNL     1      -3.917 -16.679  -5.905  1.00  0.00     0.066 C 
BRANCH  12  13
ATOM     13  C   UNL     1      -4.540 -16.017  -7.134  1.00  0.00     0.140 C 
ATOM     14  O   UNL     1      -4.325 -16.512  -8.232  1.00  0.00    -0.299 OA
BRANCH  13  15
ATOM     15  C   UNL     1      -5.293 -14.709  -7.070  1.00  0.00     0.106 CG0
ATOM     16  G   UNL     1      -5.326 -13.933  -8.386  1.00  0.00     0.000 G0
ENDBRANCH  13  15
ENDBRANCH  12  13
BRANCH  12  17
ATOM     17  C   UNL     1      -3.667 -18.209  -6.087  1.00  0.00    -0.006 C 
ATOM     18  C   UNL     1      -2.391 -18.669  -5.365  1.00  0.00     0.008 C 
ATOM     19  C   UNL     1      -4.853 -19.104  -5.689  1.00  0.00     0.008 C 
ENDBRANCH  12  17
ENDBRANCH  11  12
ENDBRANCH   1  11
TORSDOF 1
ENDMDL
MODEL 8
REMARK VINA RESULT:    -1.431      1.470      1.965
REMARK INTER + INTRA:          -1.734
REMARK INTER:                  -3.495
REMARK INTRA:                   1.761
REMARK UNBOUND:                 0.450
REMARK SMILES CC1=CCC[C@H](C)C(=O)C[C@H](C(C)C)C(=O)C1
REMARK SMILES IDX 8 1 9 2 6 3 7 4 5 5 4 6 3 7 2 8 1 9 10 11 11 12 15 13 16 14
REMARK SMILES IDX 17 15 12 17 13 18 14 19
REMARK H PARENT
REMARK Flexibility Score: 70.00
ROOT
ATOM      1  C   UNL     1      -1.776 -13.986  -6.936  1.00  0.00     0.136 C 
ATOM      2  O   UNL     1      -2.335 -13.162  -6.227  1.00  0.00    -0.299 OA
ENDROOT
BRANCH   1   3
ATOM      3  C   UNL     1      -0.873 -15.019  -6.283  1.00  0.00     0.053 C 
ATOM      4  C   UNL     1       0.459 -14.379  -5.878  1.00  0.00     0.016 C 
BRANCH   3   5
ATOM      5  C   UNL     1      -1.541 -15.705  -5.076  1.00  0.00     0.015 C 
BRANCH   5   6
ATOM      6  C   UNL     1      -2.728 -16.588  -5.501  1.00  0.00     0.028 C 
BRANCH   6   7
ATOM      7  C   UNL     1      -4.053 -15.880  -5.379  1.00  0.00    -0.028 C 
ATOM      8  C   UNL     1      -4.865 -15.527  -6.405  1.00  0.00    -0.070 CG0
ATOM      9  C   UNL     1      -6.201 -14.919  -6.047  1.00  0.00     0.039 C 
ATOM     10  G   UNL     1      -4.496 -15.647  -7.883  1.00  0.00     0.000 G0
ENDBRANCH   6   7
ENDBRANCH   5   6
ENDBRANCH   3   5
ENDBRANCH   1   3
BRANCH   1  11
ATOM     11  C   UNL     1      -2.062 -13.987  -8.421  1.00  0.00     0.087 C 
BRANCH  11  12
ATOM     12  C   UNL     1      -3.448 -13.381  -8.771  1.00  0.00     0.066 C 
BRANCH  12  13
ATOM     13  C   UNL     1      -4.608 -14.370  -8.658  1.00  0.00     0.140 C 
ATOM     14  O   UNL     1      -5.691 -14.050  -9.125  1.00  0.00    -0.299 OA
BRANCH  13  15
ATOM     15  C   UNL     1      -4.512 -15.662  -7.880  1.00  0.00     0.106 CG0
ATOM     16  G   UNL     1      -4.881 -15.540  -6.403  1.00  0.00     0.000 G0
ENDBRANCH  13  15
ENDBRANCH  12  13
BRANCH  12  17
ATOM     17  C   UNL     1      -3.707 -12.037  -8.020  1.00  0.00    -0.006 C 
ATOM     18  C   UNL     1      -3.014 -10.853  -8.712  1.00  0.00     0.008 C 
ATOM     19  C   UNL     1      -5.191 -11.714  -7.776  1.00  0.00     0.008 C 
ENDBRANCH  12  17
ENDBRANCH  11  12
ENDBRANCH   1  11
TORSDOF 1
ENDMDL
MODEL 9
REMARK VINA RESULT:    -1.291      1.930      4.226
REMARK INTER + INTRA:          -1.521
REMARK INTER:                  -2.720
REMARK INTRA:                   1.199
REMARK UNBOUND:                 0.450
REMARK SMILES CC1=CCC[C@H](C)C(=O)C[C@H](C(C)C)C(=O)C1
REMARK SMILES IDX 8 1 9 2 6 3 7 4 5 5 4 6 3 7 2 8 1 9 10 11 11 12 15 13 16 14
REMARK SMILES IDX 17 15 12 17 13 18 14 19
REMARK H PARENT
REMARK Flexibility Score: 70.00
ROOT
ATOM      1  C   UNL     1      -4.851 -13.266  -8.792  1.00  0.00     0.136 C 
ATOM      2  O   UNL     1      -5.903 -12.724  -9.101  1.00  0.00    -0.299 OA
ENDROOT
BRANCH   1   3
ATOM      3  C   UNL     1      -3.557 -12.483  -8.931  1.00  0.00     0.053 C 
ATOM      4  C   UNL     1      -3.856 -10.993  -9.125  1.00  0.00     0.016 C 
BRANCH   3   5
ATOM      5  C   UNL     1      -2.607 -12.701  -7.737  1.00  0.00     0.015 C 
BRANCH   5   6
ATOM      6  C   UNL     1      -1.789 -13.996  -7.882  1.00  0.00     0.028 C 
BRANCH   6   7
ATOM      7  C   UNL     1      -1.358 -14.564  -6.555  1.00  0.00    -0.028 C 
ATOM      8  C   UNL     1      -1.901 -15.641  -5.934  1.00  0.00    -0.070 CG0
ATOM      9  C   UNL     1      -1.242 -16.103  -4.656  1.00  0.00     0.039 C 
ATOM     10  G   UNL     1      -3.159 -16.369  -6.406  1.00  0.00     0.000 G0
ENDBRANCH   6   7
ENDBRANCH   5   6
ENDBRANCH   3   5
ENDBRANCH   1   3
BRANCH   1  11
ATOM     11  C   UNL     1      -4.892 -14.665  -8.220  1.00  0.00     0.087 C 
BRANCH  11  12
ATOM     12  C   UNL     1      -5.204 -14.689  -6.699  1.00  0.00     0.066 C 
BRANCH  12  13
ATOM     13  C   UNL     1      -4.466 -15.783  -5.928  1.00  0.00     0.140 C 
ATOM     14  O   UNL     1      -4.890 -16.104  -4.826  1.00  0.00    -0.299 OA
BRANCH  13  15
ATOM     15  C   UNL     1      -3.166 -16.389  -6.403  1.00  0.00     0.106 CG0
ATOM     16  G   UNL     1      -1.914 -15.660  -5.917  1.00  0.00     0.000 G0
ENDBRANCH  13  15
ENDBRANCH  12  13
BRANCH  12  17
ATOM     17  C   UNL     1      -5.065 -13.275  -6.050  1.00  0.00    -0.006 C 
ATOM     18  C   UNL     1      -6.416 -12.743  -5.547  1.00  0.00     0.008 C 
ATOM     19  C   UNL     1      -4.010 -13.183  -4.934  1.00  0.00     0.008 C 
ENDBRANCH  12  17
ENDBRANCH  11  12
ENDBRANCH   1  11
TORSDOF 1
ENDMDL
