MODEL 1
REMARK VINA RESULT:    -3.293      0.000      0.000
REMARK INTER + INTRA:          -3.935
REMARK INTER:                  -3.871
REMARK INTRA:                  -0.064
REMARK UNBOUND:                -0.064
REMARK SMILES O=C([O-])CCC(=O)[O-]
REMARK SMILES IDX 4 1 2 2 1 3 3 4 5 5 6 6 7 7 8 8
REMARK H PARENT
REMARK Flexibility Score: inf
ROOT
ATOM      1  C   UNL     1      13.586  35.608  57.065  1.00  0.00     0.059 C 
ENDROOT
BRANCH   1   2
ATOM      2  C   UNL     1      12.563  34.768  56.366  1.00  0.00     0.042 C 
ATOM      3  O   UNL     1      12.809  34.286  55.230  1.00  0.00    -0.550 OA
ATOM      4  O   UNL     1      11.357  34.479  56.992  1.00  0.00    -0.550 OA
ENDBRANCH   1   2
BRANCH   1   5
ATOM      5  C   UNL     1      12.914  36.756  57.818  1.00  0.00     0.059 C 
BRANCH   5   6
ATOM      6  C   UNL     1      13.503  38.068  57.409  1.00  0.00     0.042 C 
ATOM      7  O   UNL     1      14.052  38.192  56.282  1.00  0.00    -0.550 OA
ATOM      8  O   UNL     1      13.403  39.168  58.251  1.00  0.00    -0.550 OA
ENDBRANCH   5   6
ENDBRANCH   1   5
TORSDOF 3
ENDMDL
MODEL 2
REMARK VINA RESULT:    -3.247      0.109      4.030
REMARK INTER + INTRA:          -3.880
REMARK INTER:                  -3.817
REMARK INTRA:                  -0.063
REMARK UNBOUND:                -0.064
REMARK SMILES O=C([O-])CCC(=O)[O-]
REMARK SMILES IDX 4 1 2 2 1 3 3 4 5 5 6 6 7 7 8 8
REMARK H PARENT
REMARK Flexibility Score: inf
ROOT
ATOM      1  C   UNL     1      12.903  36.707  57.819  1.00  0.00     0.059 C 
ENDROOT
BRANCH   1   2
ATOM      2  C   UNL     1      13.494  38.015  57.396  1.00  0.00     0.042 C 
ATOM      3  O   UNL     1      13.480  38.999  58.181  1.00  0.00    -0.550 OA
ATOM      4  O   UNL     1      14.104  38.132  56.153  1.00  0.00    -0.550 OA
ENDBRANCH   1   2
BRANCH   1   5
ATOM      5  C   UNL     1      13.542  35.554  57.045  1.00  0.00     0.059 C 
BRANCH   5   6
ATOM      6  C   UNL     1      12.493  34.737  56.359  1.00  0.00     0.042 C 
ATOM      7  O   UNL     1      12.702  34.275  55.207  1.00  0.00    -0.550 OA
ATOM      8  O   UNL     1      11.303  34.445  57.013  1.00  0.00    -0.550 OA
ENDBRANCH   5   6
ENDBRANCH   1   5
TORSDOF 3
ENDMDL
MODEL 3
REMARK VINA RESULT:    -3.200      8.392     10.740
REMARK INTER + INTRA:          -3.826
REMARK INTER:                  -3.703
REMARK INTRA:                  -0.124
REMARK UNBOUND:                -0.064
REMARK SMILES O=C([O-])CCC(=O)[O-]
REMARK SMILES IDX 4 1 2 2 1 3 3 4 5 5 6 6 7 7 8 8
REMARK H PARENT
REMARK Flexibility Score: inf
ROOT
ATOM      1  C   UNL     1      15.765  27.283  55.402  1.00  0.00     0.059 C 
ENDROOT
BRANCH   1   2
ATOM      2  C   UNL     1      15.884  28.741  55.082  1.00  0.00     0.042 C 
ATOM      3  O   UNL     1      15.803  29.135  53.889  1.00  0.00    -0.550 OA
ATOM      4  O   UNL     1      16.035  29.667  56.105  1.00  0.00    -0.550 OA
ENDBRANCH   1   2
BRANCH   1   5
ATOM      5  C   UNL     1      16.489  26.443  54.350  1.00  0.00     0.059 C 
BRANCH   5   6
ATOM      6  C   UNL     1      15.517  25.579  53.610  1.00  0.00     0.042 C 
ATOM      7  O   UNL     1      14.599  26.103  52.925  1.00  0.00    -0.550 OA
ATOM      8  O   UNL     1      15.655  24.197  53.636  1.00  0.00    -0.550 OA
ENDBRANCH   5   6
ENDBRANCH   1   5
TORSDOF 3
ENDMDL
MODEL 4
REMARK VINA RESULT:    -3.200      8.400     10.043
REMARK INTER + INTRA:          -3.825
REMARK INTER:                  -3.708
REMARK INTRA:                  -0.118
REMARK UNBOUND:                -0.064
REMARK SMILES O=C([O-])CCC(=O)[O-]
REMARK SMILES IDX 4 1 2 2 1 3 3 4 5 5 6 6 7 7 8 8
REMARK H PARENT
REMARK Flexibility Score: inf
ROOT
ATOM      1  C   UNL     1      16.529  26.436  54.332  1.00  0.00     0.059 C 
ENDROOT
BRANCH   1   2
ATOM      2  C   UNL     1      15.519  25.596  53.616  1.00  0.00     0.042 C 
ATOM      3  O   UNL     1      14.594  26.141  52.958  1.00  0.00    -0.550 OA
ATOM      4  O   UNL     1      15.628  24.212  53.635  1.00  0.00    -0.550 OA
ENDBRANCH   1   2
BRANCH   1   5
ATOM      5  C   UNL     1      15.858  27.263  55.429  1.00  0.00     0.059 C 
BRANCH   5   6
ATOM      6  C   UNL     1      15.931  28.721  55.105  1.00  0.00     0.042 C 
ATOM      7  O   UNL     1      15.777  29.115  53.919  1.00  0.00    -0.550 OA
ATOM      8  O   UNL     1      16.121  29.650  56.120  1.00  0.00    -0.550 OA
ENDBRANCH   5   6
ENDBRANCH   1   5
TORSDOF 3
ENDMDL
MODEL 5
REMARK VINA RESULT:    -3.173     17.701     18.522
REMARK INTER + INTRA:          -3.794
REMARK INTER:                  -3.741
REMARK INTRA:                  -0.053
REMARK UNBOUND:                -0.064
REMARK SMILES O=C([O-])CCC(=O)[O-]
REMARK SMILES IDX 4 1 2 2 1 3 3 4 5 5 6 6 7 7 8 8
REMARK H PARENT
REMARK Flexibility Score: inf
ROOT
ATOM      1  C   UNL     1      29.449  37.716  49.362  1.00  0.00     0.059 C 
ENDROOT
BRANCH   1   2
ATOM      2  C   UNL     1      29.478  37.532  47.876  1.00  0.00     0.042 C 
ATOM      3  O   UNL     1      29.938  38.440  47.135  1.00  0.00    -0.550 OA
ATOM      4  O   UNL     1      29.043  36.339  47.315  1.00  0.00    -0.550 OA
ENDBRANCH   1   2
BRANCH   1   5
ATOM      5  C   UNL     1      30.470  38.769  49.792  1.00  0.00     0.059 C 
BRANCH   5   6
ATOM      6  C   UNL     1      30.001  39.481  51.021  1.00  0.00     0.042 C 
ATOM      7  O   UNL     1      30.778  40.256  51.639  1.00  0.00    -0.550 OA
ATOM      8  O   UNL     1      28.691  39.328  51.456  1.00  0.00    -0.550 OA
ENDBRANCH   5   6
ENDBRANCH   1   5
TORSDOF 3
ENDMDL
MODEL 6
REMARK VINA RESULT:    -3.133     17.730     18.849
REMARK INTER + INTRA:          -3.747
REMARK INTER:                  -3.695
REMARK INTRA:                  -0.051
REMARK UNBOUND:                -0.064
REMARK SMILES O=C([O-])CCC(=O)[O-]
REMARK SMILES IDX 4 1 2 2 1 3 3 4 5 5 6 6 7 7 8 8
REMARK H PARENT
REMARK Flexibility Score: inf
ROOT
ATOM      1  C   UNL     1      30.486  38.724  49.893  1.00  0.00     0.059 C 
ENDROOT
BRANCH   1   2
ATOM      2  C   UNL     1      30.004  39.431  51.121  1.00  0.00     0.042 C 
ATOM      3  O   UNL     1      28.896  39.125  51.635  1.00  0.00    -0.550 OA
ATOM      4  O   UNL     1      30.801  40.395  51.726  1.00  0.00    -0.550 OA
ENDBRANCH   1   2
BRANCH   1   5
ATOM      5  C   UNL     1      29.416  37.764  49.373  1.00  0.00     0.059 C 
BRANCH   5   6
ATOM      6  C   UNL     1      29.538  37.596  47.892  1.00  0.00     0.042 C 
ATOM      7  O   UNL     1      30.086  38.491  47.196  1.00  0.00    -0.550 OA
ATOM      8  O   UNL     1      29.091  36.429  47.286  1.00  0.00    -0.550 OA
ENDBRANCH   5   6
ENDBRANCH   1   5
TORSDOF 3
ENDMDL
MODEL 7
REMARK VINA RESULT:    -3.074     12.290     13.039
REMARK INTER + INTRA:          -3.677
REMARK INTER:                  -3.557
REMARK INTRA:                  -0.120
REMARK UNBOUND:                -0.064
REMARK SMILES O=C([O-])CCC(=O)[O-]
REMARK SMILES IDX 4 1 2 2 1 3 3 4 5 5 6 6 7 7 8 8
REMARK H PARENT
REMARK Flexibility Score: inf
ROOT
ATOM      1  C   UNL     1      24.364  32.603  52.148  1.00  0.00     0.059 C 
ENDROOT
BRANCH   1   2
ATOM      2  C   UNL     1      23.183  33.498  51.939  1.00  0.00     0.042 C 
ATOM      3  O   UNL     1      22.056  33.178  52.400  1.00  0.00    -0.550 OA
ATOM      4  O   UNL     1      23.338  34.709  51.276  1.00  0.00    -0.550 OA
ENDBRANCH   1   2
BRANCH   1   5
ATOM      5  C   UNL     1      25.160  33.043  53.377  1.00  0.00     0.059 C 
BRANCH   5   6
ATOM      6  C   UNL     1      26.321  33.895  52.972  1.00  0.00     0.042 C 
ATOM      7  O   UNL     1      27.306  33.383  52.378  1.00  0.00    -0.550 OA
ATOM      8  O   UNL     1      26.294  35.264  53.207  1.00  0.00    -0.550 OA
ENDBRANCH   5   6
ENDBRANCH   1   5
TORSDOF 3
ENDMDL
MODEL 8
REMARK VINA RESULT:    -2.953      5.061      6.280
REMARK INTER + INTRA:          -3.536
REMARK INTER:                  -3.417
REMARK INTRA:                  -0.118
REMARK UNBOUND:                -0.064
REMARK SMILES O=C([O-])CCC(=O)[O-]
REMARK SMILES IDX 4 1 2 2 1 3 3 4 5 5 6 6 7 7 8 8
REMARK H PARENT
REMARK Flexibility Score: inf
ROOT
ATOM      1  C   UNL     1      17.124  30.935  55.969  1.00  0.00     0.059 C 
ENDROOT
BRANCH   1   2
ATOM      2  C   UNL     1      16.267  30.089  55.080  1.00  0.00     0.042 C 
ATOM      3  O   UNL     1      15.667  29.086  55.547  1.00  0.00    -0.550 OA
ATOM      4  O   UNL     1      16.094  30.437  53.747  1.00  0.00    -0.550 OA
ENDBRANCH   1   2
BRANCH   1   5
ATOM      5  C   UNL     1      16.447  31.145  57.324  1.00  0.00     0.059 C 
BRANCH   5   6
ATOM      6  C   UNL     1      15.627  32.396  57.311  1.00  0.00     0.042 C 
ATOM      7  O   UNL     1      16.157  33.504  57.593  1.00  0.00    -0.550 OA
ATOM      8  O   UNL     1      14.289  32.347  56.941  1.00  0.00    -0.550 OA
ENDBRANCH   5   6
ENDBRANCH   1   5
TORSDOF 3
ENDMDL
MODEL 9
REMARK VINA RESULT:    -2.881     11.422     13.141
REMARK INTER + INTRA:          -3.451
REMARK INTER:                  -3.339
REMARK INTRA:                  -0.112
REMARK UNBOUND:                -0.064
REMARK SMILES O=C([O-])CCC(=O)[O-]
REMARK SMILES IDX 4 1 2 2 1 3 3 4 5 5 6 6 7 7 8 8
REMARK H PARENT
REMARK Flexibility Score: inf
ROOT
ATOM      1  C   UNL     1      15.477  24.107  53.263  1.00  0.00     0.059 C 
ENDROOT
BRANCH   1   2
ATOM      2  C   UNL     1      15.867  25.475  53.728  1.00  0.00     0.042 C 
ATOM      3  O   UNL     1      14.989  26.363  53.890  1.00  0.00    -0.550 OA
ATOM      4  O   UNL     1      17.194  25.755  54.028  1.00  0.00    -0.550 OA
ENDBRANCH   1   2
BRANCH   1   5
ATOM      5  C   UNL     1      15.629  23.992  51.747  1.00  0.00     0.059 C 
BRANCH   5   6
ATOM      6  C   UNL     1      14.316  24.232  51.069  1.00  0.00     0.042 C 
ATOM      7  O   UNL     1      14.282  24.714  49.907  1.00  0.00    -0.550 OA
ATOM      8  O   UNL     1      13.132  23.876  51.704  1.00  0.00    -0.550 OA
ENDBRANCH   5   6
ENDBRANCH   1   5
TORSDOF 3
ENDMDL
