MODEL 1
REMARK VINA RESULT:    -4.506      0.000      0.000
REMARK INTER + INTRA:          -5.250
REMARK INTER:                  -5.032
REMARK INTRA:                  -0.218
REMARK UNBOUND:                -0.218
REMARK SMILES O=C([O-])c1ccccc1C(=O)[O-]
REMARK SMILES IDX 4 1 9 2 5 3 8 4 6 5 7 6 2 7 1 8 3 9 10 10 11 11 12 12
REMARK H PARENT
REMARK Flexibility Score: inf
ROOT
ATOM      1  C   UNL     1      12.817  -0.374  15.032  1.00  0.00     0.006 A 
ATOM      2  C   UNL     1      12.238  -0.460  16.328  1.00  0.00     0.006 A 
ATOM      3  C   UNL     1      13.814   0.590  14.791  1.00  0.00     0.010 A 
ATOM      4  C   UNL     1      12.629   0.464  17.316  1.00  0.00     0.010 A 
ATOM      5  C   UNL     1      14.202   1.482  15.792  1.00  0.00     0.001 A 
ATOM      6  C   UNL     1      13.603   1.426  17.047  1.00  0.00     0.001 A 
ENDROOT
BRANCH   1   7
ATOM      7  C   UNL     1      12.372  -1.210  13.894  1.00  0.00     0.072 C 
ATOM      8  O   UNL     1      11.522  -0.779  13.071  1.00  0.00    -0.545 OA
ATOM      9  O   UNL     1      12.942  -2.461  13.682  1.00  0.00    -0.545 OA
ENDBRANCH   1   7
BRANCH   2  10
ATOM     10  C   UNL     1      11.286  -1.529  16.711  1.00  0.00     0.072 C 
ATOM     11  O   UNL     1      10.057  -1.275  16.818  1.00  0.00    -0.545 OA
ATOM     12  O   UNL     1      11.741  -2.806  17.019  1.00  0.00    -0.545 OA
ENDBRANCH   2  10
TORSDOF 2
ENDMDL
MODEL 2
REMARK VINA RESULT:    -4.492      0.127      3.025
REMARK INTER + INTRA:          -5.234
REMARK INTER:                  -5.015
REMARK INTRA:                  -0.219
REMARK UNBOUND:                -0.218
REMARK SMILES O=C([O-])c1ccccc1C(=O)[O-]
REMARK SMILES IDX 4 1 9 2 5 3 8 4 6 5 7 6 2 7 1 8 3 9 10 10 11 11 12 12
REMARK H PARENT
REMARK Flexibility Score: inf
ROOT
ATOM      1  C   UNL     1      12.214  -0.400  16.292  1.00  0.00     0.006 A 
ATOM      2  C   UNL     1      12.851  -0.339  15.022  1.00  0.00     0.006 A 
ATOM      3  C   UNL     1      12.575   0.529  17.285  1.00  0.00     0.010 A 
ATOM      4  C   UNL     1      13.873   0.606  14.813  1.00  0.00     0.010 A 
ATOM      5  C   UNL     1      13.576   1.473  17.049  1.00  0.00     0.001 A 
ATOM      6  C   UNL     1      14.231   1.504  15.820  1.00  0.00     0.001 A 
ENDROOT
BRANCH   1   7
ATOM      7  C   UNL     1      11.227  -1.447  16.649  1.00  0.00     0.072 C 
ATOM      8  O   UNL     1      11.605  -2.589  17.022  1.00  0.00    -0.545 OA
ATOM      9  O   UNL     1       9.867  -1.155  16.640  1.00  0.00    -0.545 OA
ENDBRANCH   1   7
BRANCH   2  10
ATOM     10  C   UNL     1      12.437  -1.184  13.877  1.00  0.00     0.072 C 
ATOM     11  O   UNL     1      11.538  -0.787  13.089  1.00  0.00    -0.545 OA
ATOM     12  O   UNL     1      12.985  -2.448  13.694  1.00  0.00    -0.545 OA
ENDBRANCH   2  10
TORSDOF 2
ENDMDL
MODEL 3
REMARK VINA RESULT:    -4.487      0.384      1.362
REMARK INTER + INTRA:          -5.230
REMARK INTER:                  -5.006
REMARK INTRA:                  -0.223
REMARK UNBOUND:                -0.218
REMARK SMILES O=C([O-])c1ccccc1C(=O)[O-]
REMARK SMILES IDX 4 1 9 2 5 3 8 4 6 5 7 6 2 7 1 8 3 9 10 10 11 11 12 12
REMARK H PARENT
REMARK Flexibility Score: inf
ROOT
ATOM      1  C   UNL     1      12.884  -0.247  14.978  1.00  0.00     0.006 A 
ATOM      2  C   UNL     1      12.153  -0.173  16.196  1.00  0.00     0.006 A 
ATOM      3  C   UNL     1      13.980   0.614  14.784  1.00  0.00     0.010 A 
ATOM      4  C   UNL     1      12.503   0.804  17.147  1.00  0.00     0.010 A 
ATOM      5  C   UNL     1      14.324   1.561  15.751  1.00  0.00     0.001 A 
ATOM      6  C   UNL     1      13.581   1.663  16.923  1.00  0.00     0.001 A 
ENDROOT
BRANCH   1   7
ATOM      7  C   UNL     1      12.505  -1.146  13.864  1.00  0.00     0.072 C 
ATOM      8  O   UNL     1      12.965  -2.317  13.795  1.00  0.00    -0.545 OA
ATOM      9  O   UNL     1      11.579  -0.728  12.914  1.00  0.00    -0.545 OA
ENDBRANCH   1   7
BRANCH   2  10
ATOM     10  C   UNL     1      11.076  -1.130  16.543  1.00  0.00     0.072 C 
ATOM     11  O   UNL     1      11.362  -2.255  17.032  1.00  0.00    -0.545 OA
ATOM     12  O   UNL     1       9.746  -0.828  16.275  1.00  0.00    -0.545 OA
ENDBRANCH   2  10
TORSDOF 2
ENDMDL
MODEL 4
REMARK VINA RESULT:    -4.161      8.679     10.408
REMARK INTER + INTRA:          -4.865
REMARK INTER:                  -4.649
REMARK INTRA:                  -0.216
REMARK UNBOUND:                -0.218
REMARK SMILES O=C([O-])c1ccccc1C(=O)[O-]
REMARK SMILES IDX 4 1 9 2 5 3 8 4 6 5 7 6 2 7 1 8 3 9 10 10 11 11 12 12
REMARK H PARENT
REMARK Flexibility Score: inf
ROOT
ATOM      1  C   UNL     1       2.897  -3.012  16.578  1.00  0.00     0.006 A 
ATOM      2  C   UNL     1       2.865  -4.335  17.099  1.00  0.00     0.006 A 
ATOM      3  C   UNL     1       1.802  -2.160  16.810  1.00  0.00     0.010 A 
ATOM      4  C   UNL     1       1.712  -4.779  17.773  1.00  0.00     0.010 A 
ATOM      5  C   UNL     1       0.677  -2.614  17.501  1.00  0.00     0.001 A 
ATOM      6  C   UNL     1       0.628  -3.923  17.971  1.00  0.00     0.001 A 
ENDROOT
BRANCH   1   7
ATOM      7  C   UNL     1       4.006  -2.502  15.739  1.00  0.00     0.072 C 
ATOM      8  O   UNL     1       4.032  -2.726  14.500  1.00  0.00    -0.545 OA
ATOM      9  O   UNL     1       5.000  -1.710  16.303  1.00  0.00    -0.545 OA
ENDBRANCH   1   7
BRANCH   2  10
ATOM     10  C   UNL     1       4.026  -5.253  17.024  1.00  0.00     0.072 C 
ATOM     11  O   UNL     1       4.048  -6.179  16.171  1.00  0.00    -0.545 OA
ATOM     12  O   UNL     1       5.073  -5.147  17.932  1.00  0.00    -0.545 OA
ENDBRANCH   2  10
TORSDOF 2
ENDMDL
MODEL 5
REMARK VINA RESULT:    -4.154      8.664     10.607
REMARK INTER + INTRA:          -4.857
REMARK INTER:                  -4.626
REMARK INTRA:                  -0.231
REMARK UNBOUND:                -0.218
REMARK SMILES O=C([O-])c1ccccc1C(=O)[O-]
REMARK SMILES IDX 4 1 9 2 5 3 8 4 6 5 7 6 2 7 1 8 3 9 10 10 11 11 12 12
REMARK H PARENT
REMARK Flexibility Score: inf
ROOT
ATOM      1  C   UNL     1       2.836  -4.345  17.112  1.00  0.00     0.006 A 
ATOM      2  C   UNL     1       2.881  -3.028  16.577  1.00  0.00     0.006 A 
ATOM      3  C   UNL     1       1.677  -4.771  17.785  1.00  0.00     0.010 A 
ATOM      4  C   UNL     1       1.791  -2.163  16.792  1.00  0.00     0.010 A 
ATOM      5  C   UNL     1       0.598  -3.904  17.968  1.00  0.00     0.001 A 
ATOM      6  C   UNL     1       0.660  -2.601  17.482  1.00  0.00     0.001 A 
ENDROOT
BRANCH   1   7
ATOM      7  C   UNL     1       3.986  -5.277  17.056  1.00  0.00     0.072 C 
ATOM      8  O   UNL     1       4.046  -6.174  16.174  1.00  0.00    -0.545 OA
ATOM      9  O   UNL     1       5.049  -5.127  17.940  1.00  0.00    -0.545 OA
ENDBRANCH   1   7
BRANCH   2  10
ATOM     10  C   UNL     1       4.001  -2.543  15.736  1.00  0.00     0.072 C 
ATOM     11  O   UNL     1       3.989  -2.737  14.491  1.00  0.00    -0.545 OA
ATOM     12  O   UNL     1       5.106  -1.928  16.313  1.00  0.00    -0.545 OA
ENDBRANCH   2  10
TORSDOF 2
ENDMDL
MODEL 6
REMARK VINA RESULT:    -4.008      8.808     10.741
REMARK INTER + INTRA:          -4.694
REMARK INTER:                  -4.613
REMARK INTRA:                  -0.082
REMARK UNBOUND:                -0.218
REMARK SMILES O=C([O-])c1ccccc1C(=O)[O-]
REMARK SMILES IDX 4 1 9 2 5 3 8 4 6 5 7 6 2 7 1 8 3 9 10 10 11 11 12 12
REMARK H PARENT
REMARK Flexibility Score: inf
ROOT
ATOM      1  C   UNL     1       2.811  -2.937  16.603  1.00  0.00     0.006 A 
ATOM      2  C   UNL     1       1.863  -1.958  17.011  1.00  0.00     0.006 A 
ATOM      3  C   UNL     1       2.587  -4.286  16.933  1.00  0.00     0.010 A 
ATOM      4  C   UNL     1       0.760  -2.356  17.790  1.00  0.00     0.010 A 
ATOM      5  C   UNL     1       1.474  -4.661  17.688  1.00  0.00     0.001 A 
ATOM      6  C   UNL     1       0.569  -3.698  18.125  1.00  0.00     0.001 A 
ENDROOT
BRANCH   1   7
ATOM      7  C   UNL     1       4.070  -2.595  15.901  1.00  0.00     0.072 C 
ATOM      8  O   UNL     1       4.114  -2.548  14.643  1.00  0.00    -0.545 OA
ATOM      9  O   UNL     1       5.205  -2.257  16.630  1.00  0.00    -0.545 OA
ENDBRANCH   1   7
BRANCH   2  10
ATOM     10  C   UNL     1       1.945  -0.540  16.591  1.00  0.00     0.072 C 
ATOM     11  O   UNL     1       1.063  -0.050  15.837  1.00  0.00    -0.545 OA
ATOM     12  O   UNL     1       3.025   0.250  16.968  1.00  0.00    -0.545 OA
ENDBRANCH   2  10
TORSDOF 2
ENDMDL
MODEL 7
REMARK VINA RESULT:    -3.745      1.581      3.187
REMARK INTER + INTRA:          -4.401
REMARK INTER:                  -4.220
REMARK INTRA:                  -0.181
REMARK UNBOUND:                -0.218
REMARK SMILES O=C([O-])c1ccccc1C(=O)[O-]
REMARK SMILES IDX 4 1 9 2 5 3 8 4 6 5 7 6 2 7 1 8 3 9 10 10 11 11 12 12
REMARK H PARENT
REMARK Flexibility Score: inf
ROOT
ATOM      1  C   UNL     1      11.841   1.352  16.262  1.00  0.00     0.006 A 
ATOM      2  C   UNL     1      12.740   0.580  15.475  1.00  0.00     0.006 A 
ATOM      3  C   UNL     1      12.300   2.542  16.855  1.00  0.00     0.010 A 
ATOM      4  C   UNL     1      14.082   0.991  15.366  1.00  0.00     0.010 A 
ATOM      5  C   UNL     1      13.630   2.943  16.716  1.00  0.00     0.001 A 
ATOM      6  C   UNL     1      14.521   2.164  15.983  1.00  0.00     0.001 A 
ENDROOT
BRANCH   1   7
ATOM      7  C   UNL     1      10.451   0.928  16.546  1.00  0.00     0.072 C 
ATOM      8  O   UNL     1       9.481   1.440  15.927  1.00  0.00    -0.545 OA
ATOM      9  O   UNL     1      10.206  -0.094  17.458  1.00  0.00    -0.545 OA
ENDBRANCH   1   7
BRANCH   2  10
ATOM     10  C   UNL     1      12.310  -0.609  14.702  1.00  0.00     0.072 C 
ATOM     11  O   UNL     1      12.214  -1.731  15.266  1.00  0.00    -0.545 OA
ATOM     12  O   UNL     1      12.069  -0.517  13.336  1.00  0.00    -0.545 OA
ENDBRANCH   2  10
TORSDOF 2
ENDMDL
MODEL 8
REMARK VINA RESULT:    -3.739      2.574      3.331
REMARK INTER + INTRA:          -4.394
REMARK INTER:                  -4.209
REMARK INTRA:                  -0.185
REMARK UNBOUND:                -0.218
REMARK SMILES O=C([O-])c1ccccc1C(=O)[O-]
REMARK SMILES IDX 4 1 9 2 5 3 8 4 6 5 7 6 2 7 1 8 3 9 10 10 11 11 12 12
REMARK H PARENT
REMARK Flexibility Score: inf
ROOT
ATOM      1  C   UNL     1      12.356   1.361  16.382  1.00  0.00     0.006 A 
ATOM      2  C   UNL     1      11.421   0.339  16.062  1.00  0.00     0.006 A 
ATOM      3  C   UNL     1      11.880   2.641  16.722  1.00  0.00     0.010 A 
ATOM      4  C   UNL     1      10.049   0.650  16.029  1.00  0.00     0.010 A 
ATOM      5  C   UNL     1      10.514   2.923  16.705  1.00  0.00     0.001 A 
ATOM      6  C   UNL     1       9.601   1.933  16.348  1.00  0.00     0.001 A 
ENDROOT
BRANCH   1   7
ATOM      7  C   UNL     1      13.823   1.165  16.309  1.00  0.00     0.072 C 
ATOM      8  O   UNL     1      14.498   0.954  17.351  1.00  0.00    -0.545 OA
ATOM      9  O   UNL     1      14.463   1.145  15.074  1.00  0.00    -0.545 OA
ENDBRANCH   1   7
BRANCH   2  10
ATOM     10  C   UNL     1      11.823  -1.068  15.828  1.00  0.00     0.072 C 
ATOM     11  O   UNL     1      11.700  -1.923  16.745  1.00  0.00    -0.545 OA
ATOM     12  O   UNL     1      12.399  -1.450  14.622  1.00  0.00    -0.545 OA
ENDBRANCH   2  10
TORSDOF 2
ENDMDL
