MODEL 1
REMARK VINA RESULT:    -4.187      0.000      0.000
REMARK INTER + INTRA:          -7.114
REMARK INTER:                  -6.634
REMARK INTRA:                  -0.480
REMARK UNBOUND:                -0.480
REMARK SMILES CCCCCCCCCCCC(=O)[O-]
REMARK SMILES IDX 7 1 8 2 9 3 10 4 11 5 12 6 13 7 14 8 6 9 5 10 4 11 3 12 2 13
REMARK SMILES IDX 1 14
REMARK H PARENT
REMARK Flexibility Score: inf
ROOT
ATOM      1  C   UNL     1    -117.961 -99.043  45.745  1.00  0.00     0.000 C 
ENDROOT
BRANCH   1   2
ATOM      2  C   UNL     1    -117.991 -99.557  47.191  1.00  0.00     0.000 C 
BRANCH   2   3
ATOM      3  C   UNL     1    -117.620 -98.441  48.179  1.00  0.00     0.000 C 
BRANCH   3   4
ATOM      4  C   UNL     1    -118.776 -97.454  48.426  1.00  0.00     0.006 C 
BRANCH   4   5
ATOM      5  C   UNL     1    -118.331 -96.075  48.937  1.00  0.00     0.053 C 
BRANCH   5   6
ATOM      6  C   UNL     1    -118.469 -95.016  47.887  1.00  0.00     0.041 C 
ATOM      7  O   UNL     1    -118.450 -95.328  46.667  1.00  0.00    -0.550 OA
ATOM      8  O   UNL     1    -118.650 -93.690  48.256  1.00  0.00    -0.550 OA
ENDBRANCH   5   6
ENDBRANCH   4   5
ENDBRANCH   3   4
ENDBRANCH   2   3
ENDBRANCH   1   2
BRANCH   1   9
ATOM      9  C   UNL     1    -118.441-100.125  44.766  1.00  0.00     0.000 C 
BRANCH   9  10
ATOM     10  C   UNL     1    -118.007 -99.850  43.317  1.00  0.00    -0.000 C 
BRANCH  10  11
ATOM     11  C   UNL     1    -116.846 -98.846  43.229  1.00  0.00    -0.000 C 
BRANCH  11  12
ATOM     12  C   UNL     1    -116.204 -98.810  41.832  1.00  0.00    -0.000 C 
BRANCH  12  13
ATOM     13  C   UNL     1    -117.242 -98.823  40.701  1.00  0.00    -0.003 C 
ATOM     14  C   UNL     1    -118.051 -97.529  40.682  1.00  0.00     0.004 C 
ENDBRANCH  12  13
ENDBRANCH  11  12
ENDBRANCH  10  11
ENDBRANCH   9  10
ENDBRANCH   1   9
TORSDOF 10
ENDMDL
MODEL 2
REMARK VINA RESULT:    -3.424      6.331      9.724
REMARK INTER + INTRA:          -5.905
REMARK INTER:                  -5.362
REMARK INTRA:                  -0.543
REMARK UNBOUND:                -0.480
REMARK SMILES CCCCCCCCCCCC(=O)[O-]
REMARK SMILES IDX 7 1 8 2 9 3 10 4 11 5 12 6 13 7 14 8 6 9 5 10 4 11 3 12 2 13
REMARK SMILES IDX 1 14
REMARK H PARENT
REMARK Flexibility Score: inf
ROOT
ATOM      1  C   UNL     1    -115.194 -99.513  35.371  1.00  0.00     0.000 C 
ENDROOT
BRANCH   1   2
ATOM      2  C   UNL     1    -116.312-100.000  36.302  1.00  0.00     0.000 C 
BRANCH   2   3
ATOM      3  C   UNL     1    -116.559 -98.996  37.438  1.00  0.00     0.000 C 
BRANCH   3   4
ATOM      4  C   UNL     1    -117.056 -99.668  38.731  1.00  0.00     0.006 C 
BRANCH   4   5
ATOM      5  C   UNL     1    -117.412 -98.684  39.858  1.00  0.00     0.053 C 
BRANCH   5   6
ATOM      6  C   UNL     1    -116.808 -99.089  41.167  1.00  0.00     0.041 C 
ATOM      7  O   UNL     1    -115.686 -99.661  41.197  1.00  0.00    -0.550 OA
ATOM      8  O   UNL     1    -117.469 -98.807  42.354  1.00  0.00    -0.550 OA
ENDBRANCH   5   6
ENDBRANCH   4   5
ENDBRANCH   3   4
ENDBRANCH   2   3
ENDBRANCH   1   2
BRANCH   1   9
ATOM      9  C   UNL     1    -115.373-100.078  33.954  1.00  0.00     0.000 C 
BRANCH   9  10
ATOM     10  C   UNL     1    -116.014 -99.070  32.988  1.00  0.00    -0.000 C 
BRANCH  10  11
ATOM     11  C   UNL     1    -115.678 -97.612  33.347  1.00  0.00    -0.000 C 
BRANCH  11  12
ATOM     12  C   UNL     1    -116.786 -96.632  32.929  1.00  0.00    -0.000 C 
BRANCH  12  13
ATOM     13  C   UNL     1    -117.969 -97.331  32.242  1.00  0.00    -0.003 C 
ATOM     14  C   UNL     1    -118.143 -96.834  30.809  1.00  0.00     0.004 C 
ENDBRANCH  12  13
ENDBRANCH  11  12
ENDBRANCH  10  11
ENDBRANCH   9  10
ENDBRANCH   1   9
TORSDOF 10
ENDMDL
MODEL 3
REMARK VINA RESULT:    -3.237      8.228     12.234
REMARK INTER + INTRA:          -5.609
REMARK INTER:                  -5.216
REMARK INTRA:                  -0.394
REMARK UNBOUND:                -0.480
REMARK SMILES CCCCCCCCCCCC(=O)[O-]
REMARK SMILES IDX 7 1 8 2 9 3 10 4 11 5 12 6 13 7 14 8 6 9 5 10 4 11 3 12 2 13
REMARK SMILES IDX 1 14
REMARK H PARENT
REMARK Flexibility Score: inf
ROOT
ATOM      1  C   UNL     1    -115.307 -99.226  35.564  1.00  0.00     0.000 C 
ENDROOT
BRANCH   1   2
ATOM      2  C   UNL     1    -115.743 -98.240  34.472  1.00  0.00     0.000 C 
BRANCH   2   3
ATOM      3  C   UNL     1    -115.965 -98.962  33.135  1.00  0.00     0.000 C 
BRANCH   3   4
ATOM      4  C   UNL     1    -117.455 -99.106  32.775  1.00  0.00     0.006 C 
BRANCH   4   5
ATOM      5  C   UNL     1    -118.142 -97.788  32.383  1.00  0.00     0.053 C 
BRANCH   5   6
ATOM      6  C   UNL     1    -118.324 -97.670  30.902  1.00  0.00     0.041 C 
ATOM      7  O   UNL     1    -118.098 -96.575  30.320  1.00  0.00    -0.550 OA
ATOM      8  O   UNL     1    -118.713 -98.776  30.159  1.00  0.00    -0.550 OA
ENDBRANCH   5   6
ENDBRANCH   4   5
ENDBRANCH   3   4
ENDBRANCH   2   3
ENDBRANCH   1   2
BRANCH   1   9
ATOM      9  C   UNL     1    -116.514 -99.719  36.375  1.00  0.00     0.000 C 
BRANCH   9  10
ATOM     10  C   UNL     1    -116.617 -99.048  37.754  1.00  0.00    -0.000 C 
BRANCH  10  11
ATOM     11  C   UNL     1    -117.204 -99.985  38.824  1.00  0.00    -0.000 C 
BRANCH  11  12
ATOM     12  C   UNL     1    -117.572 -99.243  40.119  1.00  0.00    -0.000 C 
BRANCH  12  13
ATOM     13  C   UNL     1    -116.777 -99.741  41.334  1.00  0.00    -0.003 C 
ATOM     14  C   UNL     1    -115.936 -98.619  41.938  1.00  0.00     0.004 C 
ENDBRANCH  12  13
ENDBRANCH  11  12
ENDBRANCH  10  11
ENDBRANCH   9  10
ENDBRANCH   1   9
TORSDOF 10
ENDMDL
MODEL 4
REMARK VINA RESULT:    -3.152      6.758     10.675
REMARK INTER + INTRA:          -5.474
REMARK INTER:                  -5.106
REMARK INTRA:                  -0.368
REMARK UNBOUND:                -0.480
REMARK SMILES CCCCCCCCCCCC(=O)[O-]
REMARK SMILES IDX 7 1 8 2 9 3 10 4 11 5 12 6 13 7 14 8 6 9 5 10 4 11 3 12 2 13
REMARK SMILES IDX 1 14
REMARK H PARENT
REMARK Flexibility Score: inf
ROOT
ATOM      1  C   UNL     1    -116.533 -99.193  37.532  1.00  0.00     0.000 C 
ENDROOT
BRANCH   1   2
ATOM      2  C   UNL     1    -116.444 -99.973  36.213  1.00  0.00     0.000 C 
BRANCH   2   3
ATOM      3  C   UNL     1    -115.341 -99.402  35.310  1.00  0.00     0.000 C 
BRANCH   3   4
ATOM      4  C   UNL     1    -115.797 -99.227  33.849  1.00  0.00     0.006 C 
BRANCH   4   5
ATOM      5  C   UNL     1    -117.034 -98.330  33.676  1.00  0.00     0.053 C 
BRANCH   5   6
ATOM      6  C   UNL     1    -116.696 -97.033  33.010  1.00  0.00     0.041 C 
ATOM      7  O   UNL     1    -115.709 -96.356  33.403  1.00  0.00    -0.550 OA
ATOM      8  O   UNL     1    -117.451 -96.586  31.934  1.00  0.00    -0.550 OA
ENDBRANCH   5   6
ENDBRANCH   4   5
ENDBRANCH   3   4
ENDBRANCH   2   3
ENDBRANCH   1   2
BRANCH   1   9
ATOM      9  C   UNL     1    -117.272-100.008  38.604  1.00  0.00     0.000 C 
BRANCH   9  10
ATOM     10  C   UNL     1    -117.464 -99.229  39.915  1.00  0.00    -0.000 C 
BRANCH  10  11
ATOM     11  C   UNL     1    -116.640 -99.814  41.075  1.00  0.00    -0.000 C 
BRANCH  11  12
ATOM     12  C   UNL     1    -116.229 -98.746  42.102  1.00  0.00    -0.000 C 
BRANCH  12  13
ATOM     13  C   UNL     1    -117.393 -98.312  43.005  1.00  0.00    -0.003 C 
ATOM     14  C   UNL     1    -117.729 -99.396  44.026  1.00  0.00     0.004 C 
ENDBRANCH  12  13
ENDBRANCH  11  12
ENDBRANCH  10  11
ENDBRANCH   9  10
ENDBRANCH   1   9
TORSDOF 10
ENDMDL
MODEL 5
REMARK VINA RESULT:    -3.138      6.808     10.396
REMARK INTER + INTRA:          -5.452
REMARK INTER:                  -4.818
REMARK INTRA:                  -0.635
REMARK UNBOUND:                -0.480
REMARK SMILES CCCCCCCCCCCC(=O)[O-]
REMARK SMILES IDX 7 1 8 2 9 3 10 4 11 5 12 6 13 7 14 8 6 9 5 10 4 11 3 12 2 13
REMARK SMILES IDX 1 14
REMARK H PARENT
REMARK Flexibility Score: inf
ROOT
ATOM      1  C   UNL     1    -115.375 -98.413  35.014  1.00  0.00     0.000 C 
ENDROOT
BRANCH   1   2
ATOM      2  C   UNL     1    -115.354 -99.850  35.550  1.00  0.00     0.000 C 
BRANCH   2   3
ATOM      3  C   UNL     1    -116.566-100.119  36.453  1.00  0.00     0.000 C 
BRANCH   3   4
ATOM      4  C   UNL     1    -116.653 -99.142  37.641  1.00  0.00     0.006 C 
BRANCH   4   5
ATOM      5  C   UNL     1    -117.279 -99.744  38.909  1.00  0.00     0.053 C 
BRANCH   5   6
ATOM      6  C   UNL     1    -117.291 -98.769  40.046  1.00  0.00     0.041 C 
ATOM      7  O   UNL     1    -118.041 -97.758  40.006  1.00  0.00    -0.550 OA
ATOM      8  O   UNL     1    -116.498 -98.994  41.163  1.00  0.00    -0.550 OA
ENDBRANCH   5   6
ENDBRANCH   4   5
ENDBRANCH   3   4
ENDBRANCH   2   3
ENDBRANCH   1   2
BRANCH   1   9
ATOM      9  C   UNL     1    -115.871 -98.375  33.561  1.00  0.00     0.000 C 
BRANCH   9  10
ATOM     10  C   UNL     1    -116.115 -99.776  32.979  1.00  0.00    -0.000 C 
BRANCH  10  11
ATOM     11  C   UNL     1    -117.237 -99.792  31.928  1.00  0.00    -0.000 C 
BRANCH  11  12
ATOM     12  C   UNL     1    -118.425 -98.899  32.321  1.00  0.00    -0.000 C 
BRANCH  12  13
ATOM     13  C   UNL     1    -118.902 -98.004  31.168  1.00  0.00    -0.003 C 
ATOM     14  C   UNL     1    -118.042 -96.748  31.055  1.00  0.00     0.004 C 
ENDBRANCH  12  13
ENDBRANCH  11  12
ENDBRANCH  10  11
ENDBRANCH   9  10
ENDBRANCH   1   9
TORSDOF 10
ENDMDL
MODEL 6
REMARK VINA RESULT:    -2.974      5.389      8.395
REMARK INTER + INTRA:          -5.193
REMARK INTER:                  -4.820
REMARK INTRA:                  -0.373
REMARK UNBOUND:                -0.480
REMARK SMILES CCCCCCCCCCCC(=O)[O-]
REMARK SMILES IDX 7 1 8 2 9 3 10 4 11 5 12 6 13 7 14 8 6 9 5 10 4 11 3 12 2 13
REMARK SMILES IDX 1 14
REMARK H PARENT
REMARK Flexibility Score: inf
ROOT
ATOM      1  C   UNL     1    -116.869 -99.759  36.916  1.00  0.00     0.000 C 
ENDROOT
BRANCH   1   2
ATOM      2  C   UNL     1    -116.733 -99.289  38.370  1.00  0.00     0.000 C 
BRANCH   2   3
ATOM      3  C   UNL     1    -117.620-100.125  39.304  1.00  0.00     0.000 C 
BRANCH   3   4
ATOM      4  C   UNL     1    -118.013 -99.371  40.588  1.00  0.00     0.006 C 
BRANCH   4   5
ATOM      5  C   UNL     1    -117.588-100.073  41.888  1.00  0.00     0.053 C 
BRANCH   5   6
ATOM      6  C   UNL     1    -116.755 -99.184  42.759  1.00  0.00     0.041 C 
ATOM      7  O   UNL     1    -115.660 -98.727  42.335  1.00  0.00    -0.550 OA
ATOM      8  O   UNL     1    -117.201 -98.834  44.026  1.00  0.00    -0.550 OA
ENDBRANCH   5   6
ENDBRANCH   4   5
ENDBRANCH   3   4
ENDBRANCH   2   3
ENDBRANCH   1   2
BRANCH   1   9
ATOM      9  C   UNL     1    -116.172 -98.784  35.955  1.00  0.00     0.000 C 
BRANCH   9  10
ATOM     10  C   UNL     1    -115.337 -99.502  34.882  1.00  0.00    -0.000 C 
BRANCH  10  11
ATOM     11  C   UNL     1    -115.846 -99.227  33.457  1.00  0.00    -0.000 C 
BRANCH  11  12
ATOM     12  C   UNL     1    -117.059 -98.282  33.437  1.00  0.00    -0.000 C 
BRANCH  12  13
ATOM     13  C   UNL     1    -116.779 -96.972  32.685  1.00  0.00    -0.003 C 
ATOM     14  C   UNL     1    -117.787 -96.759  31.559  1.00  0.00     0.004 C 
ENDBRANCH  12  13
ENDBRANCH  11  12
ENDBRANCH  10  11
ENDBRANCH   9  10
ENDBRANCH   1   9
TORSDOF 10
ENDMDL
MODEL 7
REMARK VINA RESULT:    -2.938      4.973      8.311
REMARK INTER + INTRA:          -5.135
REMARK INTER:                  -4.748
REMARK INTRA:                  -0.387
REMARK UNBOUND:                -0.480
REMARK SMILES CCCCCCCCCCCC(=O)[O-]
REMARK SMILES IDX 7 1 8 2 9 3 10 4 11 5 12 6 13 7 14 8 6 9 5 10 4 11 3 12 2 13
REMARK SMILES IDX 1 14
REMARK H PARENT
REMARK Flexibility Score: inf
ROOT
ATOM      1  C   UNL     1    -116.903 -98.393  42.334  1.00  0.00     0.000 C 
ENDROOT
BRANCH   1   2
ATOM      2  C   UNL     1    -116.553 -99.193  41.072  1.00  0.00     0.000 C 
BRANCH   2   3
ATOM      3  C   UNL     1    -117.820 -99.570  40.291  1.00  0.00     0.000 C 
BRANCH   3   4
ATOM      4  C   UNL     1    -117.515-100.098  38.877  1.00  0.00     0.006 C 
BRANCH   4   5
ATOM      5  C   UNL     1    -116.678 -99.141  38.012  1.00  0.00     0.053 C 
BRANCH   5   6
ATOM      6  C   UNL     1    -116.586 -99.605  36.591  1.00  0.00     0.041 C 
ATOM      7  O   UNL     1    -117.631 -99.746  35.901  1.00  0.00    -0.550 OA
ATOM      8  O   UNL     1    -115.345 -99.852  36.019  1.00  0.00    -0.550 OA
ENDBRANCH   5   6
ENDBRANCH   4   5
ENDBRANCH   3   4
ENDBRANCH   2   3
ENDBRANCH   1   2
BRANCH   1   9
ATOM      9  C   UNL     1    -117.233 -99.330  43.505  1.00  0.00     0.000 C 
BRANCH   9  10
ATOM     10  C   UNL     1    -118.208 -98.701  44.513  1.00  0.00    -0.000 C 
BRANCH  10  11
ATOM     11  C   UNL     1    -117.996 -99.223  45.945  1.00  0.00    -0.000 C 
BRANCH  11  12
ATOM     12  C   UNL     1    -118.329 -98.168  47.012  1.00  0.00    -0.000 C 
BRANCH  12  13
ATOM     13  C   UNL     1    -118.721 -96.813  46.404  1.00  0.00    -0.003 C 
ATOM     14  C   UNL     1    -118.199 -95.658  47.255  1.00  0.00     0.004 C 
ENDBRANCH  12  13
ENDBRANCH  11  12
ENDBRANCH  10  11
ENDBRANCH   9  10
ENDBRANCH   1   9
TORSDOF 10
ENDMDL
MODEL 8
REMARK VINA RESULT:    -2.894      2.166      3.614
REMARK INTER + INTRA:          -5.066
REMARK INTER:                  -4.580
REMARK INTRA:                  -0.486
REMARK UNBOUND:                -0.480
REMARK SMILES CCCCCCCCCCCC(=O)[O-]
REMARK SMILES IDX 7 1 8 2 9 3 10 4 11 5 12 6 13 7 14 8 6 9 5 10 4 11 3 12 2 13
REMARK SMILES IDX 1 14
REMARK H PARENT
REMARK Flexibility Score: inf
ROOT
ATOM      1  C   UNL     1    -116.469 -98.377  42.200  1.00  0.00     0.000 C 
ENDROOT
BRANCH   1   2
ATOM      2  C   UNL     1    -117.748 -98.353  43.047  1.00  0.00     0.000 C 
BRANCH   2   3
ATOM      3  C   UNL     1    -117.621 -99.284  44.262  1.00  0.00     0.000 C 
BRANCH   3   4
ATOM      4  C   UNL     1    -118.136 -98.641  45.563  1.00  0.00     0.006 C 
BRANCH   4   5
ATOM      5  C   UNL     1    -118.405 -97.131  45.459  1.00  0.00     0.053 C 
BRANCH   5   6
ATOM      6  C   UNL     1    -118.309 -96.452  46.790  1.00  0.00     0.041 C 
ATOM      7  O   UNL     1    -118.163 -97.132  47.840  1.00  0.00    -0.550 OA
ATOM      8  O   UNL     1    -118.349 -95.066  46.868  1.00  0.00    -0.550 OA
ENDBRANCH   5   6
ENDBRANCH   4   5
ENDBRANCH   3   4
ENDBRANCH   2   3
ENDBRANCH   1   2
BRANCH   1   9
ATOM      9  C   UNL     1    -116.357 -99.690  41.410  1.00  0.00     0.000 C 
BRANCH   9  10
ATOM     10  C   UNL     1    -117.687-100.110  40.765  1.00  0.00    -0.000 C 
BRANCH  10  11
ATOM     11  C   UNL     1    -117.885 -99.499  39.367  1.00  0.00    -0.000 C 
BRANCH  11  12
ATOM     12  C   UNL     1    -116.955-100.125  38.315  1.00  0.00    -0.000 C 
BRANCH  12  13
ATOM     13  C   UNL     1    -116.530 -99.125  37.229  1.00  0.00    -0.003 C 
ATOM     14  C   UNL     1    -116.138 -99.846  35.942  1.00  0.00     0.004 C 
ENDBRANCH  12  13
ENDBRANCH  11  12
ENDBRANCH  10  11
ENDBRANCH   9  10
ENDBRANCH   1   9
TORSDOF 10
ENDMDL
MODEL 9
REMARK VINA RESULT:    -2.366      4.407      7.000
REMARK INTER + INTRA:          -4.229
REMARK INTER:                  -3.737
REMARK INTRA:                  -0.492
REMARK UNBOUND:                -0.480
REMARK SMILES CCCCCCCCCCCC(=O)[O-]
REMARK SMILES IDX 7 1 8 2 9 3 10 4 11 5 12 6 13 7 14 8 6 9 5 10 4 11 3 12 2 13
REMARK SMILES IDX 1 14
REMARK H PARENT
REMARK Flexibility Score: inf
ROOT
ATOM      1  C   UNL     1    -117.573-100.061  39.228  1.00  0.00     0.000 C 
ENDROOT
BRANCH   1   2
ATOM      2  C   UNL     1    -117.491 -98.615  39.734  1.00  0.00     0.000 C 
BRANCH   2   3
ATOM      3  C   UNL     1    -118.728 -98.253  40.569  1.00  0.00     0.000 C 
BRANCH   3   4
ATOM      4  C   UNL     1    -118.388 -97.386  41.795  1.00  0.00     0.006 C 
BRANCH   4   5
ATOM      5  C   UNL     1    -118.742 -98.033  43.144  1.00  0.00     0.053 C 
BRANCH   5   6
ATOM      6  C   UNL     1    -117.740 -99.069  43.549  1.00  0.00     0.041 C 
ATOM      7  O   UNL     1    -118.089-100.039  44.274  1.00  0.00    -0.550 OA
ATOM      8  O   UNL     1    -116.429 -98.982  43.101  1.00  0.00    -0.550 OA
ENDBRANCH   5   6
ENDBRANCH   4   5
ENDBRANCH   3   4
ENDBRANCH   2   3
ENDBRANCH   1   2
BRANCH   1   9
ATOM      9  C   UNL     1    -117.366-100.125  37.707  1.00  0.00     0.000 C 
BRANCH   9  10
ATOM     10  C   UNL     1    -116.518 -98.959  37.174  1.00  0.00    -0.000 C 
BRANCH  10  11
ATOM     11  C   UNL     1    -115.844 -99.287  35.831  1.00  0.00    -0.000 C 
BRANCH  11  12
ATOM     12  C   UNL     1    -115.992 -98.151  34.805  1.00  0.00    -0.000 C 
BRANCH  12  13
ATOM     13  C   UNL     1    -115.779 -98.626  33.360  1.00  0.00    -0.003 C 
ATOM     14  C   UNL     1    -115.456-100.117  33.313  1.00  0.00     0.004 C 
ENDBRANCH  12  13
ENDBRANCH  11  12
ENDBRANCH  10  11
ENDBRANCH   9  10
ENDBRANCH   1   9
TORSDOF 10
ENDMDL
