MODEL 1
REMARK VINA RESULT:    -7.257      0.000      0.000
REMARK INTER + INTRA:          -8.678
REMARK INTER:                  -8.317
REMARK INTRA:                  -0.361
REMARK UNBOUND:                -0.361
REMARK SMILES O=C1C[C@H](c2ccc(O)cc2)Oc2cc(O)cc(O)c21
REMARK SMILES IDX 3 1 4 2 12 3 13 4 14 5 15 6 17 7 18 8 20 9 2 10 1 11 5 12
REMARK SMILES IDX 6 13 11 14 7 15 10 16 8 17 9 18 19 20 16 22
REMARK H PARENT 9 19 19 21 16 23
REMARK Flexibility Score: inf
ROOT
ATOM      1  C   UNL     1      15.159  18.211  19.848  1.00  0.00     0.131 C 
ATOM      2  C   UNL     1      15.145  18.906  18.473  1.00  0.00     0.211 C 
ATOM      3  O   UNL     1      15.985  18.237  17.522  1.00  0.00    -0.484 OA
ATOM      4  C   UNL     1      16.241  16.859  17.536  1.00  0.00     0.138 A 
ATOM      5  C   UNL     1      16.955  16.288  16.478  1.00  0.00     0.093 A 
ATOM      6  C   UNL     1      17.225  14.918  16.468  1.00  0.00     0.123 A 
ATOM      7  C   UNL     1      16.771  14.111  17.519  1.00  0.00     0.093 A 
ATOM      8  C   UNL     1      16.055  14.670  18.588  1.00  0.00     0.133 A 
ATOM      9  C   UNL     1      15.792  16.056  18.602  1.00  0.00     0.102 A 
ATOM     10  C   UNL     1      15.078  16.720  19.712  1.00  0.00     0.174 C 
ATOM     11  O   UNL     1      14.445  16.052  20.573  1.00  0.00    -0.294 OA
ENDROOT
BRANCH   2  12
ATOM     12  C   UNL     1      13.734  19.062  17.939  1.00  0.00    -0.007 A 
ATOM     13  C   UNL     1      13.535  19.482  16.610  1.00  0.00     0.011 A 
ATOM     14  C   UNL     1      12.611  18.849  18.758  1.00  0.00     0.011 A 
ATOM     15  C   UNL     1      12.244  19.656  16.105  1.00  0.00     0.046 A 
ATOM     16  C   UNL     1      11.320  19.031  18.252  1.00  0.00     0.046 A 
ATOM     17  C   UNL     1      11.134  19.431  16.922  1.00  0.00     0.115 A 
BRANCH  17  18
ATOM     18  O   UNL     1       9.852  19.613  16.406  1.00  0.00    -0.508 OA
ATOM     19  H   UNL     1       9.702  19.998  15.481  1.00  0.00     0.293 HD
ENDBRANCH  17  18
ENDBRANCH   2  12
BRANCH   8  20
ATOM     20  O   UNL     1      15.623  13.852  19.632  1.00  0.00    -0.507 OA
ATOM     21  H   UNL     1      15.376  14.229  20.539  1.00  0.00     0.293 HD
ENDBRANCH   8  20
BRANCH   6  22
ATOM     22  O   UNL     1      17.949  14.368  15.413  1.00  0.00    -0.508 OA
ATOM     23  H   UNL     1      17.780  13.423  15.092  1.00  0.00     0.293 HD
ENDBRANCH   6  22
TORSDOF 4
ENDMDL
MODEL 2
REMARK VINA RESULT:    -6.691      1.728      2.419
REMARK INTER + INTRA:          -8.029
REMARK INTER:                  -7.565
REMARK INTRA:                  -0.464
REMARK UNBOUND:                -0.361
REMARK SMILES O=C1C[C@H](c2ccc(O)cc2)Oc2cc(O)cc(O)c21
REMARK SMILES IDX 3 1 4 2 12 3 13 4 14 5 15 6 17 7 18 8 20 9 2 10 1 11 5 12
REMARK SMILES IDX 6 13 11 14 7 15 10 16 8 17 9 18 19 20 16 22
REMARK H PARENT 9 19 19 21 16 23
REMARK Flexibility Score: inf
ROOT
ATOM      1  C   UNL     1      12.951  18.665  18.936  1.00  0.00     0.131 C 
ATOM      2  C   UNL     1      13.533  19.746  18.004  1.00  0.00     0.211 C 
ATOM      3  O   UNL     1      14.937  19.561  17.775  1.00  0.00    -0.484 OA
ATOM      4  C   UNL     1      15.575  18.313  17.778  1.00  0.00     0.138 A 
ATOM      5  C   UNL     1      16.918  18.233  17.400  1.00  0.00     0.093 A 
ATOM      6  C   UNL     1      17.578  17.002  17.395  1.00  0.00     0.123 A 
ATOM      7  C   UNL     1      16.886  15.840  17.763  1.00  0.00     0.093 A 
ATOM      8  C   UNL     1      15.539  15.906  18.146  1.00  0.00     0.133 A 
ATOM      9  C   UNL     1      14.877  17.151  18.161  1.00  0.00     0.102 A 
ATOM     10  C   UNL     1      13.471  17.302  18.589  1.00  0.00     0.174 C 
ATOM     11  O   UNL     1      12.716  16.300  18.716  1.00  0.00    -0.294 OA
ENDROOT
BRANCH   2  12
ATOM     12  C   UNL     1      12.774  19.822  16.693  1.00  0.00    -0.007 A 
ATOM     13  C   UNL     1      11.390  19.564  16.675  1.00  0.00     0.011 A 
ATOM     14  C   UNL     1      13.429  20.092  15.479  1.00  0.00     0.011 A 
ATOM     15  C   UNL     1      10.675  19.605  15.475  1.00  0.00     0.046 A 
ATOM     16  C   UNL     1      12.713  20.125  14.278  1.00  0.00     0.046 A 
ATOM     17  C   UNL     1      11.332  19.885  14.275  1.00  0.00     0.115 A 
BRANCH  17  18
ATOM     18  O   UNL     1      10.607  19.917  13.084  1.00  0.00    -0.508 OA
ATOM     19  H   UNL     1      10.198  19.078  12.690  1.00  0.00     0.293 HD
ENDBRANCH  17  18
ENDBRANCH   2  12
BRANCH   8  20
ATOM     20  O   UNL     1      14.871  14.740  18.522  1.00  0.00    -0.507 OA
ATOM     21  H   UNL     1      14.160  14.740  19.244  1.00  0.00     0.293 HD
ENDBRANCH   8  20
BRANCH   6  22
ATOM     22  O   UNL     1      18.920  16.943  17.030  1.00  0.00    -0.508 OA
ATOM     23  H   UNL     1      19.379  16.059  16.845  1.00  0.00     0.293 HD
ENDBRANCH   6  22
TORSDOF 4
ENDMDL
MODEL 3
REMARK VINA RESULT:    -6.133      2.029      6.452
REMARK INTER + INTRA:          -7.389
REMARK INTER:                  -6.979
REMARK INTRA:                  -0.410
REMARK UNBOUND:                -0.361
REMARK SMILES O=C1C[C@H](c2ccc(O)cc2)Oc2cc(O)cc(O)c21
REMARK SMILES IDX 3 1 4 2 12 3 13 4 14 5 15 6 17 7 18 8 20 9 2 10 1 11 5 12
REMARK SMILES IDX 6 13 11 14 7 15 10 16 8 17 9 18 19 20 16 22
REMARK H PARENT 9 19 19 21 16 23
REMARK Flexibility Score: inf
ROOT
ATOM      1  C   UNL     1      15.055  20.125  18.180  1.00  0.00     0.131 C 
ATOM      2  C   UNL     1      14.632  19.532  19.538  1.00  0.00     0.211 C 
ATOM      3  O   UNL     1      13.226  19.681  19.777  1.00  0.00    -0.484 OA
ATOM      4  C   UNL     1      12.257  19.706  18.765  1.00  0.00     0.138 A 
ATOM      5  C   UNL     1      10.904  19.709  19.116  1.00  0.00     0.093 A 
ATOM      6  C   UNL     1       9.918  19.735  18.127  1.00  0.00     0.123 A 
ATOM      7  C   UNL     1      10.287  19.750  16.776  1.00  0.00     0.093 A 
ATOM      8  C   UNL     1      11.641  19.749  16.409  1.00  0.00     0.133 A 
ATOM      9  C   UNL     1      12.636  19.734  17.409  1.00  0.00     0.102 A 
ATOM     10  C   UNL     1      14.080  19.770  17.097  1.00  0.00     0.174 C 
ATOM     11  O   UNL     1      14.501  19.558  15.929  1.00  0.00    -0.294 OA
ENDROOT
BRANCH   2  12
ATOM     12  C   UNL     1      15.057  18.082  19.672  1.00  0.00    -0.007 A 
ATOM     13  C   UNL     1      14.480  17.278  20.674  1.00  0.00     0.011 A 
ATOM     14  C   UNL     1      16.057  17.531  18.852  1.00  0.00     0.011 A 
ATOM     15  C   UNL     1      14.874  15.947  20.831  1.00  0.00     0.046 A 
ATOM     16  C   UNL     1      16.455  16.200  19.017  1.00  0.00     0.046 A 
ATOM     17  C   UNL     1      15.861  15.404  20.005  1.00  0.00     0.115 A 
BRANCH  17  18
ATOM     18  O   UNL     1      16.248  14.076  20.177  1.00  0.00    -0.508 OA
ATOM     19  H   UNL     1      16.472  13.703  21.092  1.00  0.00     0.293 HD
ENDBRANCH  17  18
ENDBRANCH   2  12
BRANCH   8  20
ATOM     20  O   UNL     1      11.989  19.778  15.058  1.00  0.00    -0.507 OA
ATOM     21  H   UNL     1      11.569  19.148  14.384  1.00  0.00     0.293 HD
ENDBRANCH   8  20
BRANCH   6  22
ATOM     22  O   UNL     1       8.575  19.752  18.496  1.00  0.00    -0.508 OA
ATOM     23  H   UNL     1       7.870  20.175  17.904  1.00  0.00     0.293 HD
ENDBRANCH   6  22
TORSDOF 4
ENDMDL
MODEL 4
REMARK VINA RESULT:    -5.735      1.639      2.235
REMARK INTER + INTRA:          -6.934
REMARK INTER:                  -6.570
REMARK INTRA:                  -0.363
REMARK UNBOUND:                -0.361
REMARK SMILES O=C1C[C@H](c2ccc(O)cc2)Oc2cc(O)cc(O)c21
REMARK SMILES IDX 3 1 4 2 12 3 13 4 14 5 15 6 17 7 18 8 20 9 2 10 1 11 5 12
REMARK SMILES IDX 6 13 11 14 7 15 10 16 8 17 9 18 19 20 16 22
REMARK H PARENT 9 19 19 21 16 23
REMARK Flexibility Score: inf
ROOT
ATOM      1  C   UNL     1      13.745  17.116  19.777  1.00  0.00     0.131 C 
ATOM      2  C   UNL     1      13.914  18.607  19.424  1.00  0.00     0.211 C 
ATOM      3  O   UNL     1      15.282  18.946  19.159  1.00  0.00    -0.484 OA
ATOM      4  C   UNL     1      16.221  18.055  18.622  1.00  0.00     0.138 A 
ATOM      5  C   UNL     1      17.487  18.530  18.267  1.00  0.00     0.093 A 
ATOM      6  C   UNL     1      18.441  17.664  17.731  1.00  0.00     0.123 A 
ATOM      7  C   UNL     1      18.125  16.313  17.539  1.00  0.00     0.093 A 
ATOM      8  C   UNL     1      16.860  15.821  17.892  1.00  0.00     0.133 A 
ATOM      9  C   UNL     1      15.900  16.695  18.444  1.00  0.00     0.102 A 
ATOM     10  C   UNL     1      14.561  16.241  18.873  1.00  0.00     0.174 C 
ATOM     11  O   UNL     1      14.116  15.112  18.534  1.00  0.00    -0.294 OA
ENDROOT
BRANCH   2  12
ATOM     12  C   UNL     1      13.018  19.014  18.270  1.00  0.00    -0.007 A 
ATOM     13  C   UNL     1      11.620  18.992  18.434  1.00  0.00     0.011 A 
ATOM     14  C   UNL     1      13.549  19.362  17.015  1.00  0.00     0.011 A 
ATOM     15  C   UNL     1      10.775  19.340  17.377  1.00  0.00     0.046 A 
ATOM     16  C   UNL     1      12.701  19.701  15.956  1.00  0.00     0.046 A 
ATOM     17  C   UNL     1      11.311  19.696  16.136  1.00  0.00     0.115 A 
BRANCH  17  18
ATOM     18  O   UNL     1      10.457  20.034  15.089  1.00  0.00    -0.508 OA
ATOM     19  H   UNL     1      10.456  20.963  14.684  1.00  0.00     0.293 HD
ENDBRANCH  17  18
ENDBRANCH   2  12
BRANCH   8  20
ATOM     20  O   UNL     1      16.568  14.469  17.705  1.00  0.00    -0.507 OA
ATOM     21  H   UNL     1      17.291  13.790  17.494  1.00  0.00     0.293 HD
ENDBRANCH   8  20
BRANCH   6  22
ATOM     22  O   UNL     1      19.702  18.151  17.396  1.00  0.00    -0.508 OA
ATOM     23  H   UNL     1      20.252  18.691  18.054  1.00  0.00     0.293 HD
ENDBRANCH   6  22
TORSDOF 4
ENDMDL
MODEL 5
REMARK VINA RESULT:    -5.483     14.971     17.935
REMARK INTER + INTRA:          -6.645
REMARK INTER:                  -6.179
REMARK INTRA:                  -0.466
REMARK UNBOUND:                -0.361
REMARK SMILES O=C1C[C@H](c2ccc(O)cc2)Oc2cc(O)cc(O)c21
REMARK SMILES IDX 3 1 4 2 12 3 13 4 14 5 15 6 17 7 18 8 20 9 2 10 1 11 5 12
REMARK SMILES IDX 6 13 11 14 7 15 10 16 8 17 9 18 19 20 16 22
REMARK H PARENT 9 19 19 21 16 23
REMARK Flexibility Score: inf
ROOT
ATOM      1  C   UNL     1       3.379  18.991   2.714  1.00  0.00     0.131 C 
ATOM      2  C   UNL     1       2.498  18.315   3.783  1.00  0.00     0.211 C 
ATOM      3  O   UNL     1       2.378  16.902   3.568  1.00  0.00    -0.484 OA
ATOM      4  C   UNL     1       3.370  16.113   2.969  1.00  0.00     0.138 A 
ATOM      5  C   UNL     1       3.212  14.725   2.941  1.00  0.00     0.093 A 
ATOM      6  C   UNL     1       4.184  13.915   2.350  1.00  0.00     0.123 A 
ATOM      7  C   UNL     1       5.329  14.498   1.790  1.00  0.00     0.093 A 
ATOM      8  C   UNL     1       5.500  15.890   1.809  1.00  0.00     0.133 A 
ATOM      9  C   UNL     1       4.512  16.707   2.397  1.00  0.00     0.102 A 
ATOM     10  C   UNL     1       4.607  18.182   2.421  1.00  0.00     0.174 C 
ATOM     11  O   UNL     1       5.687  18.770   2.150  1.00  0.00    -0.294 OA
ENDROOT
BRANCH   2  12
ATOM     12  C   UNL     1       2.993  18.612   5.185  1.00  0.00    -0.007 A 
ATOM     13  C   UNL     1       2.847  17.642   6.195  1.00  0.00     0.011 A 
ATOM     14  C   UNL     1       3.547  19.861   5.520  1.00  0.00     0.011 A 
ATOM     15  C   UNL     1       3.274  17.904   7.499  1.00  0.00     0.046 A 
ATOM     16  C   UNL     1       3.966  20.123   6.828  1.00  0.00     0.046 A 
ATOM     17  C   UNL     1       3.834  19.143   7.820  1.00  0.00     0.115 A 
BRANCH  17  18
ATOM     18  O   UNL     1       4.250  19.392   9.127  1.00  0.00    -0.508 OA
ATOM     19  H   UNL     1       5.097  18.982   9.502  1.00  0.00     0.293 HD
ENDBRANCH  17  18
ENDBRANCH   2  12
BRANCH   8  20
ATOM     20  O   UNL     1       6.640  16.453   1.234  1.00  0.00    -0.507 OA
ATOM     21  H   UNL     1       7.344  15.885   0.777  1.00  0.00     0.293 HD
ENDBRANCH   8  20
BRANCH   6  22
ATOM     22  O   UNL     1       4.004  12.535   2.318  1.00  0.00    -0.508 OA
ATOM     23  H   UNL     1       3.175  12.101   2.706  1.00  0.00     0.293 HD
ENDBRANCH   6  22
TORSDOF 4
ENDMDL
MODEL 6
REMARK VINA RESULT:    -5.027     13.624     17.288
REMARK INTER + INTRA:          -6.122
REMARK INTER:                  -5.919
REMARK INTRA:                  -0.203
REMARK UNBOUND:                -0.361
REMARK SMILES O=C1C[C@H](c2ccc(O)cc2)Oc2cc(O)cc(O)c21
REMARK SMILES IDX 3 1 4 2 12 3 13 4 14 5 15 6 17 7 18 8 20 9 2 10 1 11 5 12
REMARK SMILES IDX 6 13 11 14 7 15 10 16 8 17 9 18 19 20 16 22
REMARK H PARENT 9 19 19 21 16 23
REMARK Flexibility Score: inf
ROOT
ATOM      1  C   UNL     1       1.632  19.977   5.094  1.00  0.00     0.131 C 
ATOM      2  C   UNL     1       3.000  19.353   4.755  1.00  0.00     0.211 C 
ATOM      3  O   UNL     1       3.975  19.605   5.776  1.00  0.00    -0.484 OA
ATOM      4  C   UNL     1       3.666  19.762   7.134  1.00  0.00     0.138 A 
ATOM      5  C   UNL     1       4.707  19.859   8.063  1.00  0.00     0.093 A 
ATOM      6  C   UNL     1       4.427  20.016   9.422  1.00  0.00     0.123 A 
ATOM      7  C   UNL     1       3.097  20.069   9.857  1.00  0.00     0.093 A 
ATOM      8  C   UNL     1       2.043  19.975   8.937  1.00  0.00     0.133 A 
ATOM      9  C   UNL     1       2.327  19.827   7.563  1.00  0.00     0.102 A 
ATOM     10  C   UNL     1       1.269  19.760   6.533  1.00  0.00     0.174 C 
ATOM     11  O   UNL     1       0.063  19.573   6.847  1.00  0.00    -0.294 OA
ENDROOT
BRANCH   2  12
ATOM     12  C   UNL     1       2.882  17.868   4.470  1.00  0.00    -0.007 A 
ATOM     13  C   UNL     1       2.606  17.431   3.161  1.00  0.00     0.011 A 
ATOM     14  C   UNL     1       2.986  16.912   5.496  1.00  0.00     0.011 A 
ATOM     15  C   UNL     1       2.469  16.069   2.880  1.00  0.00     0.046 A 
ATOM     16  C   UNL     1       2.841  15.550   5.214  1.00  0.00     0.046 A 
ATOM     17  C   UNL     1       2.586  15.125   3.903  1.00  0.00     0.115 A 
BRANCH  17  18
ATOM     18  O   UNL     1       2.441  13.770   3.609  1.00  0.00    -0.508 OA
ATOM     19  H   UNL     1       1.925  13.148   4.220  1.00  0.00     0.293 HD
ENDBRANCH  17  18
ENDBRANCH   2  12
BRANCH   8  20
ATOM     20  O   UNL     1       0.724  20.044   9.388  1.00  0.00    -0.507 OA
ATOM     21  H   UNL     1      -0.052  19.718   8.823  1.00  0.00     0.293 HD
ENDBRANCH   8  20
BRANCH   6  22
ATOM     22  O   UNL     1       5.476  20.125  10.331  1.00  0.00    -0.508 OA
ATOM     23  H   UNL     1       5.359  19.872  11.305  1.00  0.00     0.293 HD
ENDBRANCH   6  22
TORSDOF 4
ENDMDL
MODEL 7
REMARK VINA RESULT:    -4.848      2.306      3.430
REMARK INTER + INTRA:          -5.917
REMARK INTER:                  -5.886
REMARK INTRA:                  -0.032
REMARK UNBOUND:                -0.361
REMARK SMILES O=C1C[C@H](c2ccc(O)cc2)Oc2cc(O)cc(O)c21
REMARK SMILES IDX 3 1 4 2 12 3 13 4 14 5 15 6 17 7 18 8 20 9 2 10 1 11 5 12
REMARK SMILES IDX 6 13 11 14 7 15 10 16 8 17 9 18 19 20 16 22
REMARK H PARENT 9 19 19 21 16 23
REMARK Flexibility Score: inf
ROOT
ATOM      1  C   UNL     1      15.238  15.827  19.001  1.00  0.00     0.131 C 
ATOM      2  C   UNL     1      14.697  17.117  19.648  1.00  0.00     0.211 C 
ATOM      3  O   UNL     1      15.750  17.953  20.146  1.00  0.00    -0.484 OA
ATOM      4  C   UNL     1      17.034  18.013  19.588  1.00  0.00     0.138 A 
ATOM      5  C   UNL     1      17.939  18.968  20.059  1.00  0.00     0.093 A 
ATOM      6  C   UNL     1      19.225  19.048  19.522  1.00  0.00     0.123 A 
ATOM      7  C   UNL     1      19.608  18.172  18.498  1.00  0.00     0.093 A 
ATOM      8  C   UNL     1      18.711  17.206  18.016  1.00  0.00     0.133 A 
ATOM      9  C   UNL     1      17.416  17.120  18.568  1.00  0.00     0.102 A 
ATOM     10  C   UNL     1      16.432  16.105  18.137  1.00  0.00     0.174 C 
ATOM     11  O   UNL     1      16.605  15.435  17.084  1.00  0.00    -0.294 OA
ENDROOT
BRANCH   2  12
ATOM     12  C   UNL     1      13.795  17.883  18.699  1.00  0.00    -0.007 A 
ATOM     13  C   UNL     1      14.364  18.643  17.660  1.00  0.00     0.011 A 
ATOM     14  C   UNL     1      12.399  17.899  18.864  1.00  0.00     0.011 A 
ATOM     15  C   UNL     1      13.554  19.376  16.789  1.00  0.00     0.046 A 
ATOM     16  C   UNL     1      11.590  18.640  17.996  1.00  0.00     0.046 A 
ATOM     17  C   UNL     1      12.166  19.377  16.953  1.00  0.00     0.115 A 
BRANCH  17  18
ATOM     18  O   UNL     1      11.371  20.118  16.081  1.00  0.00    -0.508 OA
ATOM     19  H   UNL     1      11.442  20.009  15.076  1.00  0.00     0.293 HD
ENDBRANCH  17  18
ENDBRANCH   2  12
BRANCH   8  20
ATOM     20  O   UNL     1      19.115  16.333  17.006  1.00  0.00    -0.507 OA
ATOM     21  H   UNL     1      20.061  16.337  16.643  1.00  0.00     0.293 HD
ENDBRANCH   8  20
BRANCH   6  22
ATOM     22  O   UNL     1      20.118  19.997  20.013  1.00  0.00    -0.508 OA
ATOM     23  H   UNL     1      20.876  19.738  20.634  1.00  0.00     0.293 HD
ENDBRANCH   6  22
TORSDOF 4
ENDMDL
MODEL 8
REMARK VINA RESULT:    -4.800      1.797      6.038
REMARK INTER + INTRA:          -5.863
REMARK INTER:                  -5.424
REMARK INTRA:                  -0.439
REMARK UNBOUND:                -0.361
REMARK SMILES O=C1C[C@H](c2ccc(O)cc2)Oc2cc(O)cc(O)c21
REMARK SMILES IDX 3 1 4 2 12 3 13 4 14 5 15 6 17 7 18 8 20 9 2 10 1 11 5 12
REMARK SMILES IDX 6 13 11 14 7 15 10 16 8 17 9 18 19 20 16 22
REMARK H PARENT 9 19 19 21 16 23
REMARK Flexibility Score: inf
ROOT
ATOM      1  C   UNL     1      15.568  16.016  20.905  1.00  0.00     0.131 C 
ATOM      2  C   UNL     1      15.319  15.112  19.683  1.00  0.00     0.211 C 
ATOM      3  O   UNL     1      14.105  15.452  18.999  1.00  0.00    -0.484 OA
ATOM      4  C   UNL     1      13.567  16.745  18.954  1.00  0.00     0.138 A 
ATOM      5  C   UNL     1      12.459  16.994  18.138  1.00  0.00     0.093 A 
ATOM      6  C   UNL     1      11.902  18.273  18.076  1.00  0.00     0.123 A 
ATOM      7  C   UNL     1      12.462  19.314  18.828  1.00  0.00     0.093 A 
ATOM      8  C   UNL     1      13.572  19.079  19.652  1.00  0.00     0.133 A 
ATOM      9  C   UNL     1      14.127  17.784  19.722  1.00  0.00     0.102 A 
ATOM     10  C   UNL     1      15.272  17.454  20.596  1.00  0.00     0.174 C 
ATOM     11  O   UNL     1      15.972  18.358  21.125  1.00  0.00    -0.294 OA
ENDROOT
BRANCH   2  12
ATOM     12  C   UNL     1      16.500  15.119  18.731  1.00  0.00    -0.007 A 
ATOM     13  C   UNL     1      17.784  15.430  19.219  1.00  0.00     0.011 A 
ATOM     14  C   UNL     1      16.338  14.877  17.356  1.00  0.00     0.011 A 
ATOM     15  C   UNL     1      18.883  15.467  18.356  1.00  0.00     0.046 A 
ATOM     16  C   UNL     1      17.438  14.922  16.493  1.00  0.00     0.046 A 
ATOM     17  C   UNL     1      18.714  15.213  16.993  1.00  0.00     0.115 A 
BRANCH  17  18
ATOM     18  O   UNL     1      19.818  15.259  16.143  1.00  0.00    -0.508 OA
ATOM     19  H   UNL     1      19.711  15.326  15.138  1.00  0.00     0.293 HD
ENDBRANCH  17  18
ENDBRANCH   2  12
BRANCH   8  20
ATOM     20  O   UNL     1      14.108  20.125  20.403  1.00  0.00    -0.507 OA
ATOM     21  H   UNL     1      14.207  20.064  21.410  1.00  0.00     0.293 HD
ENDBRANCH   8  20
BRANCH   6  22
ATOM     22  O   UNL     1      10.790  18.500  17.269  1.00  0.00    -0.508 OA
ATOM     23  H   UNL     1      10.617  17.946  16.439  1.00  0.00     0.293 HD
ENDBRANCH   6  22
TORSDOF 4
ENDMDL
MODEL 9
REMARK VINA RESULT:    -4.785      1.795      6.639
REMARK INTER + INTRA:          -5.844
REMARK INTER:                  -5.475
REMARK INTRA:                  -0.369
REMARK UNBOUND:                -0.361
REMARK SMILES O=C1C[C@H](c2ccc(O)cc2)Oc2cc(O)cc(O)c21
REMARK SMILES IDX 3 1 4 2 12 3 13 4 14 5 15 6 17 7 18 8 20 9 2 10 1 11 5 12
REMARK SMILES IDX 6 13 11 14 7 15 10 16 8 17 9 18 19 20 16 22
REMARK H PARENT 9 19 19 21 16 23
REMARK Flexibility Score: inf
ROOT
ATOM      1  C   UNL     1      13.965  20.125  16.359  1.00  0.00     0.131 C 
ATOM      2  C   UNL     1      14.214  19.710  17.822  1.00  0.00     0.211 C 
ATOM      3  O   UNL     1      13.073  19.958  18.654  1.00  0.00    -0.484 OA
ATOM      4  C   UNL     1      11.748  19.920  18.199  1.00  0.00     0.138 A 
ATOM      5  C   UNL     1      10.705  20.032  19.124  1.00  0.00     0.093 A 
ATOM      6  C   UNL     1       9.376  19.998  18.697  1.00  0.00     0.123 A 
ATOM      7  C   UNL     1       9.086  19.842  17.335  1.00  0.00     0.093 A 
ATOM      8  C   UNL     1      10.122  19.731  16.395  1.00  0.00     0.133 A 
ATOM      9  C   UNL     1      11.464  19.776  16.827  1.00  0.00     0.102 A 
ATOM     10  C   UNL     1      12.605  19.702  15.891  1.00  0.00     0.174 C 
ATOM     11  O   UNL     1      12.446  19.339  14.695  1.00  0.00    -0.294 OA
ENDROOT
BRANCH   2  12
ATOM     12  C   UNL     1      14.661  18.265  17.926  1.00  0.00    -0.007 A 
ATOM     13  C   UNL     1      15.890  17.874  17.362  1.00  0.00     0.011 A 
ATOM     14  C   UNL     1      13.848  17.286  18.526  1.00  0.00     0.011 A 
ATOM     15  C   UNL     1      16.310  16.543  17.424  1.00  0.00     0.046 A 
ATOM     16  C   UNL     1      14.267  15.953  18.580  1.00  0.00     0.046 A 
ATOM     17  C   UNL     1      15.502  15.579  18.033  1.00  0.00     0.115 A 
BRANCH  17  18
ATOM     18  O   UNL     1      15.930  14.253  18.082  1.00  0.00    -0.508 OA
ATOM     19  H   UNL     1      16.657  13.955  18.722  1.00  0.00     0.293 HD
ENDBRANCH  17  18
ENDBRANCH   2  12
BRANCH   8  20
ATOM     20  O   UNL     1       9.813  19.590  15.042  1.00  0.00    -0.507 OA
ATOM     21  H   UNL     1      10.326  20.086  14.322  1.00  0.00     0.293 HD
ENDBRANCH   8  20
BRANCH   6  22
ATOM     22  O   UNL     1       8.351  20.125  19.630  1.00  0.00    -0.508 OA
ATOM     23  H   UNL     1       8.481  20.640  20.492  1.00  0.00     0.293 HD
ENDBRANCH   6  22
TORSDOF 4
ENDMDL
