MODEL 1
REMARK VINA RESULT:    -4.787      0.000      0.000
REMARK INTER + INTRA:          -8.593
REMARK INTER:                  -8.145
REMARK INTRA:                  -0.448
REMARK UNBOUND:                -0.448
REMARK SMILES CCCCCCCCCCCCCC(=O)[O-]
REMARK SMILES IDX 8 1 9 2 10 3 11 4 12 5 13 6 14 7 15 8 16 9 7 10 6 11 5 12
REMARK SMILES IDX 4 13 3 14 2 15 1 16
REMARK H PARENT
REMARK Flexibility Score: inf
ROOT
ATOM      1  C   UNL     1      -8.887 -13.002   6.178  1.00  0.00     0.000 C 
ENDROOT
BRANCH   1   2
ATOM      2  C   UNL     1     -10.309 -12.506   5.893  1.00  0.00     0.000 C 
BRANCH   2   3
ATOM      3  C   UNL     1     -10.769 -11.508   6.961  1.00  0.00     0.000 C 
BRANCH   3   4
ATOM      4  C   UNL     1     -10.795 -10.077   6.402  1.00  0.00     0.000 C 
BRANCH   4   5
ATOM      5  C   UNL     1     -12.171  -9.409   6.547  1.00  0.00     0.006 C 
BRANCH   5   6
ATOM      6  C   UNL     1     -13.320 -10.426   6.585  1.00  0.00     0.053 C 
BRANCH   6   7
ATOM      7  C   UNL     1     -14.312 -10.054   7.642  1.00  0.00     0.041 C 
ATOM      8  O   UNL     1     -15.544 -10.058   7.385  1.00  0.00    -0.550 OA
ATOM      9  O   UNL     1     -13.878  -9.749   8.925  1.00  0.00    -0.550 OA
ENDBRANCH   6   7
ENDBRANCH   5   6
ENDBRANCH   4   5
ENDBRANCH   3   4
ENDBRANCH   2   3
ENDBRANCH   1   2
BRANCH   1  10
ATOM     10  C   UNL     1      -8.322 -13.773   4.975  1.00  0.00     0.000 C 
BRANCH  10  11
ATOM     11  C   UNL     1      -6.837 -14.134   5.148  1.00  0.00    -0.000 C 
BRANCH  11  12
ATOM     12  C   UNL     1      -6.595 -15.651   5.167  1.00  0.00    -0.000 C 
BRANCH  12  13
ATOM     13  C   UNL     1      -5.113 -15.967   5.402  1.00  0.00    -0.000 C 
BRANCH  13  14
ATOM     14  C   UNL     1      -4.640 -17.102   4.481  1.00  0.00    -0.000 C 
BRANCH  14  15
ATOM     15  C   UNL     1      -3.238 -16.849   3.904  1.00  0.00    -0.003 C 
ATOM     16  C   UNL     1      -2.372 -15.982   4.817  1.00  0.00     0.004 C 
ENDBRANCH  14  15
ENDBRANCH  13  14
ENDBRANCH  12  13
ENDBRANCH  11  12
ENDBRANCH  10  11
ENDBRANCH   1  10
TORSDOF 12
ENDMDL
MODEL 2
REMARK VINA RESULT:    -4.603      4.524      9.607
REMARK INTER + INTRA:          -8.280
REMARK INTER:                  -7.802
REMARK INTRA:                  -0.478
REMARK UNBOUND:                -0.448
REMARK SMILES CCCCCCCCCCCCCC(=O)[O-]
REMARK SMILES IDX 8 1 9 2 10 3 11 4 12 5 13 6 14 7 15 8 16 9 7 10 6 11 5 12
REMARK SMILES IDX 4 13 3 14 2 15 1 16
REMARK H PARENT
REMARK Flexibility Score: inf
ROOT
ATOM      1  C   UNL     1      -9.633 -12.267   6.748  1.00  0.00     0.000 C 
ENDROOT
BRANCH   1   2
ATOM      2  C   UNL     1      -8.448 -13.220   6.547  1.00  0.00     0.000 C 
BRANCH   2   3
ATOM      3  C   UNL     1      -8.394 -13.734   5.104  1.00  0.00     0.000 C 
BRANCH   3   4
ATOM      4  C   UNL     1      -6.969 -14.174   4.731  1.00  0.00     0.000 C 
BRANCH   4   5
ATOM      5  C   UNL     1      -6.587 -15.528   5.350  1.00  0.00     0.006 C 
BRANCH   5   6
ATOM      6  C   UNL     1      -5.380 -16.174   4.657  1.00  0.00     0.053 C 
BRANCH   6   7
ATOM      7  C   UNL     1      -4.193 -16.172   5.568  1.00  0.00     0.041 C 
ATOM      8  O   UNL     1      -4.334 -16.425   6.793  1.00  0.00    -0.550 OA
ATOM      9  O   UNL     1      -2.924 -15.937   5.056  1.00  0.00    -0.550 OA
ENDBRANCH   6   7
ENDBRANCH   5   6
ENDBRANCH   4   5
ENDBRANCH   3   4
ENDBRANCH   2   3
ENDBRANCH   1   2
BRANCH   1  10
ATOM     10  C   UNL     1      -9.181 -10.801   6.657  1.00  0.00     0.000 C 
BRANCH  10  11
ATOM     11  C   UNL     1     -10.362  -9.822   6.562  1.00  0.00    -0.000 C 
BRANCH  11  12
ATOM     12  C   UNL     1     -11.661 -10.503   6.105  1.00  0.00    -0.000 C 
BRANCH  12  13
ATOM     13  C   UNL     1     -12.889  -9.778   6.672  1.00  0.00    -0.000 C 
BRANCH  13  14
ATOM     14  C   UNL     1     -13.969 -10.783   7.104  1.00  0.00    -0.000 C 
BRANCH  14  15
ATOM     15  C   UNL     1     -15.379 -10.173   7.096  1.00  0.00    -0.003 C 
ATOM     16  C   UNL     1     -15.880  -9.824   8.497  1.00  0.00     0.004 C 
ENDBRANCH  14  15
ENDBRANCH  13  14
ENDBRANCH  12  13
ENDBRANCH  11  12
ENDBRANCH  10  11
ENDBRANCH   1  10
TORSDOF 12
ENDMDL
MODEL 3
REMARK VINA RESULT:    -4.584      4.451      5.846
REMARK INTER + INTRA:          -8.247
REMARK INTER:                  -6.646
REMARK INTRA:                  -1.601
REMARK UNBOUND:                -0.448
REMARK SMILES CCCCCCCCCCCCCC(=O)[O-]
REMARK SMILES IDX 8 1 9 2 10 3 11 4 12 5 13 6 14 7 15 8 16 9 7 10 6 11 5 12
REMARK SMILES IDX 4 13 3 14 2 15 1 16
REMARK H PARENT
REMARK Flexibility Score: inf
ROOT
ATOM      1  C   UNL     1      -9.507 -11.563   6.770  1.00  0.00     0.000 C 
ENDROOT
BRANCH   1   2
ATOM      2  C   UNL     1     -10.918 -11.399   6.190  1.00  0.00     0.000 C 
BRANCH   2   3
ATOM      3  C   UNL     1     -11.217  -9.929   5.875  1.00  0.00     0.000 C 
BRANCH   3   4
ATOM      4  C   UNL     1     -12.399  -9.417   6.712  1.00  0.00     0.000 C 
BRANCH   4   5
ATOM      5  C   UNL     1     -13.245 -10.557   7.300  1.00  0.00     0.006 C 
BRANCH   5   6
ATOM      6  C   UNL     1     -14.025 -10.128   8.551  1.00  0.00     0.053 C 
BRANCH   6   7
ATOM      7  C   UNL     1     -15.433  -9.772   8.190  1.00  0.00     0.041 C 
ATOM      8  O   UNL     1     -15.866  -9.996   7.029  1.00  0.00    -0.550 OA
ATOM      9  O   UNL     1     -16.283  -9.238   9.149  1.00  0.00    -0.550 OA
ENDBRANCH   6   7
ENDBRANCH   5   6
ENDBRANCH   4   5
ENDBRANCH   3   4
ENDBRANCH   2   3
ENDBRANCH   1   2
BRANCH   1  10
ATOM     10  C   UNL     1      -8.894 -10.199   7.118  1.00  0.00     0.000 C 
BRANCH  10  11
ATOM     11  C   UNL     1      -8.604 -10.046   8.621  1.00  0.00    -0.000 C 
BRANCH  11  12
ATOM     12  C   UNL     1      -9.778  -9.426   9.391  1.00  0.00    -0.000 C 
BRANCH  12  13
ATOM     13  C   UNL     1     -10.672 -10.515   9.999  1.00  0.00    -0.000 C 
BRANCH  13  14
ATOM     14  C   UNL     1     -10.121 -10.987  11.353  1.00  0.00    -0.000 C 
BRANCH  14  15
ATOM     15  C   UNL     1     -10.022 -12.517  11.448  1.00  0.00    -0.003 C 
ATOM     16  C   UNL     1      -8.711 -13.062  10.883  1.00  0.00     0.004 C 
ENDBRANCH  14  15
ENDBRANCH  13  14
ENDBRANCH  12  13
ENDBRANCH  11  12
ENDBRANCH  10  11
ENDBRANCH   1  10
TORSDOF 12
ENDMDL
MODEL 4
REMARK VINA RESULT:    -4.579      4.229      9.063
REMARK INTER + INTRA:          -8.239
REMARK INTER:                  -7.499
REMARK INTRA:                  -0.739
REMARK UNBOUND:                -0.448
REMARK SMILES CCCCCCCCCCCCCC(=O)[O-]
REMARK SMILES IDX 8 1 9 2 10 3 11 4 12 5 13 6 14 7 15 8 16 9 7 10 6 11 5 12
REMARK SMILES IDX 4 13 3 14 2 15 1 16
REMARK H PARENT
REMARK Flexibility Score: inf
ROOT
ATOM      1  C   UNL     1      -8.699 -13.349   5.411  1.00  0.00     0.000 C 
ENDROOT
BRANCH   1   2
ATOM      2  C   UNL     1      -7.396 -14.118   5.160  1.00  0.00     0.000 C 
BRANCH   2   3
ATOM      3  C   UNL     1      -6.687 -14.446   6.479  1.00  0.00     0.000 C 
BRANCH   3   4
ATOM      4  C   UNL     1      -5.813 -15.702   6.335  1.00  0.00     0.000 C 
BRANCH   4   5
ATOM      5  C   UNL     1      -5.804 -16.256   4.902  1.00  0.00     0.006 C 
BRANCH   5   6
ATOM      6  C   UNL     1      -5.664 -17.784   4.860  1.00  0.00     0.053 C 
BRANCH   6   7
ATOM      7  C   UNL     1      -6.963 -18.436   5.216  1.00  0.00     0.041 C 
ATOM      8  O   UNL     1      -7.029 -19.226   6.193  1.00  0.00    -0.550 OA
ATOM      9  O   UNL     1      -8.112 -18.133   4.497  1.00  0.00    -0.550 OA
ENDBRANCH   6   7
ENDBRANCH   5   6
ENDBRANCH   4   5
ENDBRANCH   3   4
ENDBRANCH   2   3
ENDBRANCH   1   2
BRANCH   1  10
ATOM     10  C   UNL     1      -8.816 -12.933   6.885  1.00  0.00     0.000 C 
BRANCH  10  11
ATOM     11  C   UNL     1      -9.616 -11.633   7.072  1.00  0.00    -0.000 C 
BRANCH  11  12
ATOM     12  C   UNL     1     -10.984 -11.674   6.374  1.00  0.00    -0.000 C 
BRANCH  12  13
ATOM     13  C   UNL     1     -11.358 -10.295   5.817  1.00  0.00    -0.000 C 
BRANCH  13  14
ATOM     14  C   UNL     1     -12.532  -9.685   6.599  1.00  0.00    -0.000 C 
BRANCH  14  15
ATOM     15  C   UNL     1     -13.554 -10.741   7.046  1.00  0.00    -0.003 C 
ATOM     16  C   UNL     1     -14.993 -10.229   6.997  1.00  0.00     0.004 C 
ENDBRANCH  14  15
ENDBRANCH  13  14
ENDBRANCH  12  13
ENDBRANCH  11  12
ENDBRANCH  10  11
ENDBRANCH   1  10
TORSDOF 12
ENDMDL
MODEL 5
REMARK VINA RESULT:    -4.499      5.181      9.974
REMARK INTER + INTRA:          -8.103
REMARK INTER:                  -7.622
REMARK INTRA:                  -0.480
REMARK UNBOUND:                -0.448
REMARK SMILES CCCCCCCCCCCCCC(=O)[O-]
REMARK SMILES IDX 8 1 9 2 10 3 11 4 12 5 13 6 14 7 15 8 16 9 7 10 6 11 5 12
REMARK SMILES IDX 4 13 3 14 2 15 1 16
REMARK H PARENT
REMARK Flexibility Score: inf
ROOT
ATOM      1  C   UNL     1      -6.852 -14.385   5.342  1.00  0.00     0.000 C 
ENDROOT
BRANCH   1   2
ATOM      2  C   UNL     1      -6.876 -15.813   5.901  1.00  0.00     0.000 C 
BRANCH   2   3
ATOM      3  C   UNL     1      -5.508 -16.488   5.747  1.00  0.00     0.000 C 
BRANCH   3   4
ATOM      4  C   UNL     1      -4.931 -16.247   4.344  1.00  0.00     0.000 C 
BRANCH   4   5
ATOM      5  C   UNL     1      -3.778 -17.205   4.006  1.00  0.00     0.006 C 
BRANCH   5   6
ATOM      6  C   UNL     1      -2.440 -16.476   3.818  1.00  0.00     0.053 C 
BRANCH   6   7
ATOM      7  C   UNL     1      -1.871 -16.083   5.145  1.00  0.00     0.041 C 
ATOM      8  O   UNL     1      -1.415 -14.923   5.321  1.00  0.00    -0.550 OA
ATOM      9  O   UNL     1      -1.889 -16.982   6.203  1.00  0.00    -0.550 OA
ENDBRANCH   6   7
ENDBRANCH   5   6
ENDBRANCH   4   5
ENDBRANCH   3   4
ENDBRANCH   2   3
ENDBRANCH   1   2
BRANCH   1  10
ATOM     10  C   UNL     1      -8.274 -13.886   5.047  1.00  0.00     0.000 C 
BRANCH  10  11
ATOM     11  C   UNL     1      -8.819 -12.963   6.150  1.00  0.00    -0.000 C 
BRANCH  11  12
ATOM     12  C   UNL     1     -10.241 -12.463   5.855  1.00  0.00    -0.000 C 
BRANCH  12  13
ATOM     13  C   UNL     1     -10.467 -11.069   6.453  1.00  0.00    -0.000 C 
BRANCH  13  14
ATOM     14  C   UNL     1     -11.789 -10.465   5.955  1.00  0.00    -0.000 C 
BRANCH  14  15
ATOM     15  C   UNL     1     -12.663  -9.933   7.102  1.00  0.00    -0.003 C 
ATOM     16  C   UNL     1     -14.128 -10.348   6.970  1.00  0.00     0.004 C 
ENDBRANCH  14  15
ENDBRANCH  13  14
ENDBRANCH  12  13
ENDBRANCH  11  12
ENDBRANCH  10  11
ENDBRANCH   1  10
TORSDOF 12
ENDMDL
MODEL 6
REMARK VINA RESULT:    -4.401      6.839      8.098
REMARK INTER + INTRA:          -7.936
REMARK INTER:                  -6.025
REMARK INTRA:                  -1.911
REMARK UNBOUND:                -0.448
REMARK SMILES CCCCCCCCCCCCCC(=O)[O-]
REMARK SMILES IDX 8 1 9 2 10 3 11 4 12 5 13 6 14 7 15 8 16 9 7 10 6 11 5 12
REMARK SMILES IDX 4 13 3 14 2 15 1 16
REMARK H PARENT
REMARK Flexibility Score: inf
ROOT
ATOM      1  C   UNL     1      -4.089 -16.087   5.617  1.00  0.00     0.000 C 
ENDROOT
BRANCH   1   2
ATOM      2  C   UNL     1      -5.214 -16.257   4.588  1.00  0.00     0.000 C 
BRANCH   2   3
ATOM      3  C   UNL     1      -6.495 -16.773   5.253  1.00  0.00     0.000 C 
BRANCH   3   4
ATOM      4  C   UNL     1      -6.177 -17.865   6.286  1.00  0.00     0.000 C 
BRANCH   4   5
ATOM      5  C   UNL     1      -6.912 -19.184   5.999  1.00  0.00     0.006 C 
BRANCH   5   6
ATOM      6  C   UNL     1      -7.052 -19.467   4.497  1.00  0.00     0.053 C 
BRANCH   6   7
ATOM      7  C   UNL     1      -8.486 -19.708   4.144  1.00  0.00     0.041 C 
ATOM      8  O   UNL     1      -9.095 -20.705   4.611  1.00  0.00    -0.550 OA
ATOM      9  O   UNL     1      -9.164 -18.804   3.337  1.00  0.00    -0.550 OA
ENDBRANCH   6   7
ENDBRANCH   5   6
ENDBRANCH   4   5
ENDBRANCH   3   4
ENDBRANCH   2   3
ENDBRANCH   1   2
BRANCH   1  10
ATOM     10  C   UNL     1      -2.712 -16.147   4.939  1.00  0.00     0.000 C 
BRANCH  10  11
ATOM     11  C   UNL     1      -2.766 -16.788   3.543  1.00  0.00    -0.000 C 
BRANCH  11  12
ATOM     12  C   UNL     1      -1.804 -17.976   3.398  1.00  0.00    -0.000 C 
BRANCH  12  13
ATOM     13  C   UNL     1      -1.788 -18.828   4.675  1.00  0.00    -0.000 C 
BRANCH  13  14
ATOM     14  C   UNL     1      -3.025 -19.736   4.745  1.00  0.00    -0.000 C 
BRANCH  14  15
ATOM     15  C   UNL     1      -3.318 -20.225   6.172  1.00  0.00    -0.003 C 
ATOM     16  C   UNL     1      -2.846 -19.241   7.242  1.00  0.00     0.004 C 
ENDBRANCH  14  15
ENDBRANCH  13  14
ENDBRANCH  12  13
ENDBRANCH  11  12
ENDBRANCH  10  11
ENDBRANCH   1  10
TORSDOF 12
ENDMDL
MODEL 7
REMARK VINA RESULT:    -4.395      1.461      1.670
REMARK INTER + INTRA:          -7.926
REMARK INTER:                  -7.296
REMARK INTRA:                  -0.629
REMARK UNBOUND:                -0.448
REMARK SMILES CCCCCCCCCCCCCC(=O)[O-]
REMARK SMILES IDX 8 1 9 2 10 3 11 4 12 5 13 6 14 7 15 8 16 9 7 10 6 11 5 12
REMARK SMILES IDX 4 13 3 14 2 15 1 16
REMARK H PARENT
REMARK Flexibility Score: inf
ROOT
ATOM      1  C   UNL     1      -9.992 -12.675   6.191  1.00  0.00     0.000 C 
ENDROOT
BRANCH   1   2
ATOM      2  C   UNL     1      -9.186 -11.869   7.216  1.00  0.00     0.000 C 
BRANCH   2   3
ATOM      3  C   UNL     1      -9.340 -10.362   6.976  1.00  0.00     0.000 C 
BRANCH   3   4
ATOM      4  C   UNL     1     -10.022  -9.683   8.174  1.00  0.00     0.000 C 
BRANCH   4   5
ATOM      5  C   UNL     1     -11.369 -10.328   8.533  1.00  0.00     0.006 C 
BRANCH   5   6
ATOM      6  C   UNL     1     -12.568  -9.469   8.106  1.00  0.00     0.053 C 
BRANCH   6   7
ATOM      7  C   UNL     1     -13.280 -10.105   6.954  1.00  0.00     0.041 C 
ATOM      8  O   UNL     1     -14.507 -10.374   7.038  1.00  0.00    -0.550 OA
ATOM      9  O   UNL     1     -12.601 -10.357   5.770  1.00  0.00    -0.550 OA
ENDBRANCH   6   7
ENDBRANCH   5   6
ENDBRANCH   4   5
ENDBRANCH   3   4
ENDBRANCH   2   3
ENDBRANCH   1   2
BRANCH   1  10
ATOM     10  C   UNL     1      -9.062 -13.385   5.196  1.00  0.00     0.000 C 
BRANCH  10  11
ATOM     11  C   UNL     1      -7.681 -13.697   5.795  1.00  0.00    -0.000 C 
BRANCH  11  12
ATOM     12  C   UNL     1      -6.793 -14.513   4.843  1.00  0.00    -0.000 C 
BRANCH  12  13
ATOM     13  C   UNL     1      -6.160 -15.706   5.571  1.00  0.00    -0.000 C 
BRANCH  13  14
ATOM     14  C   UNL     1      -5.040 -16.333   4.727  1.00  0.00    -0.000 C 
BRANCH  14  15
ATOM     15  C   UNL     1      -3.665 -16.235   5.405  1.00  0.00    -0.003 C 
ATOM     16  C   UNL     1      -2.510 -16.243   4.405  1.00  0.00     0.004 C 
ENDBRANCH  14  15
ENDBRANCH  13  14
ENDBRANCH  12  13
ENDBRANCH  11  12
ENDBRANCH  10  11
ENDBRANCH   1  10
TORSDOF 12
ENDMDL
MODEL 8
REMARK VINA RESULT:    -4.385      2.234      3.674
REMARK INTER + INTRA:          -7.910
REMARK INTER:                  -7.215
REMARK INTRA:                  -0.694
REMARK UNBOUND:                -0.448
REMARK SMILES CCCCCCCCCCCCCC(=O)[O-]
REMARK SMILES IDX 8 1 9 2 10 3 11 4 12 5 13 6 14 7 15 8 16 9 7 10 6 11 5 12
REMARK SMILES IDX 4 13 3 14 2 15 1 16
REMARK H PARENT
REMARK Flexibility Score: inf
ROOT
ATOM      1  C   UNL     1      -6.930 -15.565   5.481  1.00  0.00     0.000 C 
ENDROOT
BRANCH   1   2
ATOM      2  C   UNL     1      -7.159 -14.096   5.106  1.00  0.00     0.000 C 
BRANCH   2   3
ATOM      3  C   UNL     1      -8.654 -13.756   5.100  1.00  0.00     0.000 C 
BRANCH   3   4
ATOM      4  C   UNL     1      -8.993 -12.753   6.214  1.00  0.00     0.000 C 
BRANCH   4   5
ATOM      5  C   UNL     1     -10.485 -12.387   6.247  1.00  0.00     0.006 C 
BRANCH   5   6
ATOM      6  C   UNL     1     -10.727 -10.880   6.083  1.00  0.00     0.053 C 
BRANCH   6   7
ATOM      7  C   UNL     1      -9.835 -10.106   7.001  1.00  0.00     0.041 C 
ATOM      8  O   UNL     1      -8.943  -9.353   6.531  1.00  0.00    -0.550 OA
ATOM      9  O   UNL     1     -10.020 -10.179   8.375  1.00  0.00    -0.550 OA
ENDBRANCH   6   7
ENDBRANCH   5   6
ENDBRANCH   4   5
ENDBRANCH   3   4
ENDBRANCH   2   3
ENDBRANCH   1   2
BRANCH   1  10
ATOM     10  C   UNL     1      -5.429 -15.889   5.540  1.00  0.00     0.000 C 
BRANCH  10  11
ATOM     11  C   UNL     1      -4.862 -16.320   4.177  1.00  0.00    -0.000 C 
BRANCH  11  12
ATOM     12  C   UNL     1      -3.820 -17.442   4.297  1.00  0.00    -0.000 C 
BRANCH  12  13
ATOM     13  C   UNL     1      -2.422 -16.935   3.920  1.00  0.00    -0.000 C 
BRANCH  13  14
ATOM     14  C   UNL     1      -1.579 -16.661   5.175  1.00  0.00    -0.000 C 
BRANCH  14  15
ATOM     15  C   UNL     1      -1.515 -15.167   5.528  1.00  0.00    -0.003 C 
ATOM     16  C   UNL     1      -2.090 -14.860   6.910  1.00  0.00     0.004 C 
ENDBRANCH  14  15
ENDBRANCH  13  14
ENDBRANCH  12  13
ENDBRANCH  11  12
ENDBRANCH  10  11
ENDBRANCH   1  10
TORSDOF 12
ENDMDL
MODEL 9
REMARK VINA RESULT:    -4.273      6.602      9.024
REMARK INTER + INTRA:          -7.719
REMARK INTER:                  -6.007
REMARK INTRA:                  -1.713
REMARK UNBOUND:                -0.448
REMARK SMILES CCCCCCCCCCCCCC(=O)[O-]
REMARK SMILES IDX 8 1 9 2 10 3 11 4 12 5 13 6 14 7 15 8 16 9 7 10 6 11 5 12
REMARK SMILES IDX 4 13 3 14 2 15 1 16
REMARK H PARENT
REMARK Flexibility Score: inf
ROOT
ATOM      1  C   UNL     1      -2.271 -20.054   4.741  1.00  0.00     0.000 C 
ENDROOT
BRANCH   1   2
ATOM      2  C   UNL     1      -3.323 -19.860   5.839  1.00  0.00     0.000 C 
BRANCH   2   3
ATOM      3  C   UNL     1      -4.732 -19.763   5.243  1.00  0.00     0.000 C 
BRANCH   3   4
ATOM      4  C   UNL     1      -5.802 -20.023   6.315  1.00  0.00     0.000 C 
BRANCH   4   5
ATOM      5  C   UNL     1      -7.197 -19.542   5.887  1.00  0.00     0.006 C 
BRANCH   5   6
ATOM      6  C   UNL     1      -7.339 -19.422   4.364  1.00  0.00     0.053 C 
BRANCH   6   7
ATOM      7  C   UNL     1      -8.664 -19.958   3.921  1.00  0.00     0.041 C 
ATOM      8  O   UNL     1      -9.186 -20.934   4.521  1.00  0.00    -0.550 OA
ATOM      9  O   UNL     1      -9.346 -19.349   2.875  1.00  0.00    -0.550 OA
ENDBRANCH   6   7
ENDBRANCH   5   6
ENDBRANCH   4   5
ENDBRANCH   3   4
ENDBRANCH   2   3
ENDBRANCH   1   2
BRANCH   1  10
ATOM     10  C   UNL     1      -1.493 -18.754   4.488  1.00  0.00     0.000 C 
BRANCH  10  11
ATOM     11  C   UNL     1      -1.997 -17.992   3.251  1.00  0.00    -0.000 C 
BRANCH  11  12
ATOM     12  C   UNL     1      -2.756 -16.707   3.615  1.00  0.00    -0.000 C 
BRANCH  12  13
ATOM     13  C   UNL     1      -2.598 -16.381   5.106  1.00  0.00    -0.000 C 
BRANCH  13  14
ATOM     14  C   UNL     1      -3.952 -16.013   5.734  1.00  0.00    -0.000 C 
BRANCH  14  15
ATOM     15  C   UNL     1      -5.129 -16.237   4.771  1.00  0.00    -0.003 C 
ATOM     16  C   UNL     1      -6.480 -15.899   5.400  1.00  0.00     0.004 C 
ENDBRANCH  14  15
ENDBRANCH  13  14
ENDBRANCH  12  13
ENDBRANCH  11  12
ENDBRANCH  10  11
ENDBRANCH   1  10
TORSDOF 12
ENDMDL
