MODEL 1
REMARK VINA RESULT:    -3.574      0.000      0.000
REMARK INTER + INTRA:          -6.298
REMARK INTER:                  -5.455
REMARK INTRA:                  -0.843
REMARK UNBOUND:                -0.843
REMARK SMILES O=C([O-])CCCCCCCCC(=O)[O-]
REMARK SMILES IDX 7 1 6 2 5 3 4 4 2 5 1 6 3 7 8 8 9 9 10 10 11 11 12 12 13 13
REMARK SMILES IDX 14 14
REMARK H PARENT
REMARK Flexibility Score: inf
ROOT
ATOM      1  C   UNL     1     -17.033  24.262  35.747  1.00  0.00     0.000 C 
ENDROOT
BRANCH   1   2
ATOM      2  C   UNL     1     -18.035  25.414  35.556  1.00  0.00     0.000 C 
BRANCH   2   3
ATOM      3  C   UNL     1     -17.668  26.323  34.372  1.00  0.00     0.006 C 
BRANCH   3   4
ATOM      4  C   UNL     1     -17.877  25.640  33.014  1.00  0.00     0.053 C 
BRANCH   4   5
ATOM      5  C   UNL     1     -16.972  26.238  31.984  1.00  0.00     0.041 C 
ATOM      6  O   UNL     1     -17.085  27.453  31.669  1.00  0.00    -0.550 OA
ATOM      7  O   UNL     1     -16.036  25.444  31.333  1.00  0.00    -0.550 OA
ENDBRANCH   4   5
ENDBRANCH   3   4
ENDBRANCH   2   3
ENDBRANCH   1   2
BRANCH   1   8
ATOM      8  C   UNL     1     -17.681  22.881  35.555  1.00  0.00     0.000 C 
BRANCH   8   9
ATOM      9  C   UNL     1     -17.155  22.145  34.311  1.00  0.00     0.000 C 
BRANCH   9  10
ATOM     10  C   UNL     1     -15.810  22.708  33.812  1.00  0.00     0.006 C 
BRANCH  10  11
ATOM     11  C   UNL     1     -14.618  21.758  34.008  1.00  0.00     0.053 C 
BRANCH  11  12
ATOM     12  C   UNL     1     -13.795  22.130  35.202  1.00  0.00     0.041 C 
ATOM     13  O   UNL     1     -14.288  22.058  36.359  1.00  0.00    -0.550 OA
ATOM     14  O   UNL     1     -12.495  22.590  35.035  1.00  0.00    -0.550 OA
ENDBRANCH  11  12
ENDBRANCH  10  11
ENDBRANCH   9  10
ENDBRANCH   8   9
ENDBRANCH   1   8
TORSDOF 9
ENDMDL
MODEL 2
REMARK VINA RESULT:    -3.466      1.465      4.585
REMARK INTER + INTRA:          -6.132
REMARK INTER:                  -5.153
REMARK INTRA:                  -0.979
REMARK UNBOUND:                -0.843
REMARK SMILES O=C([O-])CCCCCCCCC(=O)[O-]
REMARK SMILES IDX 7 1 6 2 5 3 4 4 2 5 1 6 3 7 8 8 9 9 10 10 11 11 12 12 13 13
REMARK SMILES IDX 14 14
REMARK H PARENT
REMARK Flexibility Score: inf
ROOT
ATOM      1  C   UNL     1     -17.374  24.984  35.908  1.00  0.00     0.000 C 
ENDROOT
BRANCH   1   2
ATOM      2  C   UNL     1     -18.125  23.791  35.290  1.00  0.00     0.000 C 
BRANCH   2   3
ATOM      3  C   UNL     1     -17.257  22.525  35.211  1.00  0.00     0.006 C 
BRANCH   3   4
ATOM      4  C   UNL     1     -15.756  22.829  35.308  1.00  0.00     0.053 C 
BRANCH   4   5
ATOM      5  C   UNL     1     -15.004  22.092  34.246  1.00  0.00     0.041 C 
ATOM      6  O   UNL     1     -15.619  21.351  33.433  1.00  0.00    -0.550 OA
ATOM      7  O   UNL     1     -13.619  22.181  34.184  1.00  0.00    -0.550 OA
ENDBRANCH   4   5
ENDBRANCH   3   4
ENDBRANCH   2   3
ENDBRANCH   1   2
BRANCH   1   8
ATOM      8  C   UNL     1     -18.000  26.335  35.529  1.00  0.00     0.000 C 
BRANCH   8   9
ATOM      9  C   UNL     1     -17.229  27.052  34.405  1.00  0.00     0.000 C 
BRANCH   9  10
ATOM     10  C   UNL     1     -17.918  26.917  33.034  1.00  0.00     0.006 C 
BRANCH  10  11
ATOM     11  C   UNL     1     -16.979  26.481  31.898  1.00  0.00     0.053 C 
BRANCH  11  12
ATOM     12  C   UNL     1     -16.338  25.157  32.178  1.00  0.00     0.041 C 
ATOM     13  O   UNL     1     -16.991  24.091  32.024  1.00  0.00    -0.550 OA
ATOM     14  O   UNL     1     -15.030  25.102  32.644  1.00  0.00    -0.550 OA
ENDBRANCH  11  12
ENDBRANCH  10  11
ENDBRANCH   9  10
ENDBRANCH   8   9
ENDBRANCH   1   8
TORSDOF 9
ENDMDL
MODEL 3
REMARK VINA RESULT:    -3.348      0.662      5.248
REMARK INTER + INTRA:          -5.953
REMARK INTER:                  -5.147
REMARK INTRA:                  -0.806
REMARK UNBOUND:                -0.843
REMARK SMILES O=C([O-])CCCCCCCCC(=O)[O-]
REMARK SMILES IDX 7 1 6 2 5 3 4 4 2 5 1 6 3 7 8 8 9 9 10 10 11 11 12 12 13 13
REMARK SMILES IDX 14 14
REMARK H PARENT
REMARK Flexibility Score: inf
ROOT
ATOM      1  C   UNL     1     -18.066  22.922  34.600  1.00  0.00     0.000 C 
ENDROOT
BRANCH   1   2
ATOM      2  C   UNL     1     -17.045  22.101  33.795  1.00  0.00     0.000 C 
BRANCH   2   3
ATOM      3  C   UNL     1     -15.653  22.752  33.771  1.00  0.00     0.006 C 
BRANCH   3   4
ATOM      4  C   UNL     1     -14.522  21.744  34.019  1.00  0.00     0.053 C 
BRANCH   4   5
ATOM      5  C   UNL     1     -13.692  22.168  35.189  1.00  0.00     0.041 C 
ATOM      6  O   UNL     1     -12.499  22.536  35.019  1.00  0.00    -0.550 OA
ATOM      7  O   UNL     1     -14.218  22.110  36.474  1.00  0.00    -0.550 OA
ENDBRANCH   4   5
ENDBRANCH   3   4
ENDBRANCH   2   3
ENDBRANCH   1   2
BRANCH   1   8
ATOM      8  C   UNL     1     -17.496  23.424  35.937  1.00  0.00     0.000 C 
BRANCH   8   9
ATOM      9  C   UNL     1     -17.415  24.959  36.009  1.00  0.00     0.000 C 
BRANCH   9  10
ATOM     10  C   UNL     1     -17.937  25.642  34.731  1.00  0.00     0.006 C 
BRANCH  10  11
ATOM     11  C   UNL     1     -16.859  26.392  33.932  1.00  0.00     0.053 C 
BRANCH  11  12
ATOM     12  C   UNL     1     -17.088  26.296  32.455  1.00  0.00     0.041 C 
ATOM     13  O   UNL     1     -16.323  25.597  31.739  1.00  0.00    -0.550 OA
ATOM     14  O   UNL     1     -18.125  27.007  31.864  1.00  0.00    -0.550 OA
ENDBRANCH  11  12
ENDBRANCH  10  11
ENDBRANCH   9  10
ENDBRANCH   8   9
ENDBRANCH   1   8
TORSDOF 9
ENDMDL
MODEL 4
REMARK VINA RESULT:    -3.126     12.439     14.215
REMARK INTER + INTRA:          -5.614
REMARK INTER:                  -5.326
REMARK INTRA:                  -0.288
REMARK UNBOUND:                -0.843
REMARK SMILES O=C([O-])CCCCCCCCC(=O)[O-]
REMARK SMILES IDX 7 1 6 2 5 3 4 4 2 5 1 6 3 7 8 8 9 9 10 10 11 11 12 12 13 13
REMARK SMILES IDX 14 14
REMARK H PARENT
REMARK Flexibility Score: inf
ROOT
ATOM      1  C   UNL     1      -5.629  23.265  26.310  1.00  0.00     0.000 C 
ENDROOT
BRANCH   1   2
ATOM      2  C   UNL     1      -4.660  24.066  25.422  1.00  0.00     0.000 C 
BRANCH   2   3
ATOM      3  C   UNL     1      -3.538  24.736  26.231  1.00  0.00     0.006 C 
BRANCH   3   4
ATOM      4  C   UNL     1      -3.580  26.268  26.146  1.00  0.00     0.053 C 
BRANCH   4   5
ATOM      5  C   UNL     1      -2.505  26.769  25.235  1.00  0.00     0.041 C 
ATOM      6  O   UNL     1      -1.648  25.973  24.767  1.00  0.00    -0.550 OA
ATOM      7  O   UNL     1      -2.417  28.124  24.941  1.00  0.00    -0.550 OA
ENDBRANCH   4   5
ENDBRANCH   3   4
ENDBRANCH   2   3
ENDBRANCH   1   2
BRANCH   1   8
ATOM      8  C   UNL     1      -7.103  23.544  25.974  1.00  0.00     0.000 C 
BRANCH   8   9
ATOM      9  C   UNL     1      -8.055  22.483  26.554  1.00  0.00     0.000 C 
BRANCH   9  10
ATOM     10  C   UNL     1      -9.521  22.711  26.139  1.00  0.00     0.006 C 
BRANCH  10  11
ATOM     11  C   UNL     1      -9.832  22.324  24.684  1.00  0.00     0.053 C 
BRANCH  11  12
ATOM     12  C   UNL     1     -10.222  23.512  23.860  1.00  0.00     0.041 C 
ATOM     13  O   UNL     1      -9.571  24.587  23.948  1.00  0.00    -0.550 OA
ATOM     14  O   UNL     1     -11.326  23.443  23.020  1.00  0.00    -0.550 OA
ENDBRANCH  11  12
ENDBRANCH  10  11
ENDBRANCH   9  10
ENDBRANCH   8   9
ENDBRANCH   1   8
TORSDOF 9
ENDMDL
MODEL 5
REMARK VINA RESULT:    -3.124      1.521      4.789
REMARK INTER + INTRA:          -5.611
REMARK INTER:                  -5.015
REMARK INTRA:                  -0.597
REMARK UNBOUND:                -0.843
REMARK SMILES O=C([O-])CCCCCCCCC(=O)[O-]
REMARK SMILES IDX 7 1 6 2 5 3 4 4 2 5 1 6 3 7 8 8 9 9 10 10 11 11 12 12 13 13
REMARK SMILES IDX 14 14
REMARK H PARENT
REMARK Flexibility Score: inf
ROOT
ATOM      1  C   UNL     1     -17.231  22.482  33.638  1.00  0.00     0.000 C 
ENDROOT
BRANCH   1   2
ATOM      2  C   UNL     1     -17.084  22.498  35.169  1.00  0.00     0.000 C 
BRANCH   2   3
ATOM      3  C   UNL     1     -15.773  23.156  35.628  1.00  0.00     0.006 C 
BRANCH   3   4
ATOM      4  C   UNL     1     -14.675  22.132  35.946  1.00  0.00     0.053 C 
BRANCH   4   5
ATOM      5  C   UNL     1     -13.654  22.105  34.854  1.00  0.00     0.041 C 
ATOM      6  O   UNL     1     -13.924  21.566  33.748  1.00  0.00    -0.550 OA
ATOM      7  O   UNL     1     -12.386  22.629  35.072  1.00  0.00    -0.550 OA
ENDBRANCH   4   5
ENDBRANCH   3   4
ENDBRANCH   2   3
ENDBRANCH   1   2
BRANCH   1   8
ATOM      8  C   UNL     1     -18.125  23.621  33.121  1.00  0.00     0.000 C 
BRANCH   8   9
ATOM      9  C   UNL     1     -17.995  24.905  33.959  1.00  0.00     0.000 C 
BRANCH   9  10
ATOM     10  C   UNL     1     -17.077  25.954  33.301  1.00  0.00     0.006 C 
BRANCH  10  11
ATOM     11  C   UNL     1     -16.728  25.653  31.835  1.00  0.00     0.053 C 
BRANCH  11  12
ATOM     12  C   UNL     1     -15.278  25.319  31.661  1.00  0.00     0.041 C 
ATOM     13  O   UNL     1     -14.712  25.508  30.552  1.00  0.00    -0.550 OA
ATOM     14  O   UNL     1     -14.561  24.765  32.714  1.00  0.00    -0.550 OA
ENDBRANCH  11  12
ENDBRANCH  10  11
ENDBRANCH   9  10
ENDBRANCH   8   9
ENDBRANCH   1   8
TORSDOF 9
ENDMDL
MODEL 6
REMARK VINA RESULT:    -3.108     16.327     17.891
REMARK INTER + INTRA:          -5.586
REMARK INTER:                  -5.080
REMARK INTRA:                  -0.505
REMARK UNBOUND:                -0.843
REMARK SMILES O=C([O-])CCCCCCCCC(=O)[O-]
REMARK SMILES IDX 7 1 6 2 5 3 4 4 2 5 1 6 3 7 8 8 9 9 10 10 11 11 12 12 13 13
REMARK SMILES IDX 14 14
REMARK H PARENT
REMARK Flexibility Score: inf
ROOT
ATOM      1  C   UNL     1      -1.660  26.631  24.372  1.00  0.00     0.000 C 
ENDROOT
BRANCH   1   2
ATOM      2  C   UNL     1      -2.321  27.254  25.615  1.00  0.00     0.000 C 
BRANCH   2   3
ATOM      3  C   UNL     1      -3.517  26.431  26.119  1.00  0.00     0.006 C 
BRANCH   3   4
ATOM      4  C   UNL     1      -3.586  25.035  25.485  1.00  0.00     0.053 C 
BRANCH   4   5
ATOM      5  C   UNL     1      -4.262  24.074  26.410  1.00  0.00     0.041 C 
ATOM      6  O   UNL     1      -5.149  23.293  25.974  1.00  0.00    -0.550 OA
ATOM      7  O   UNL     1      -3.951  24.074  27.764  1.00  0.00    -0.550 OA
ENDBRANCH   4   5
ENDBRANCH   3   4
ENDBRANCH   2   3
ENDBRANCH   1   2
BRANCH   1   8
ATOM      8  C   UNL     1      -0.222  27.132  24.158  1.00  0.00     0.000 C 
BRANCH   8   9
ATOM      9  C   UNL     1       0.738  26.010  23.724  1.00  0.00     0.000 C 
BRANCH   9  10
ATOM     10  C   UNL     1       0.046  24.637  23.635  1.00  0.00     0.006 C 
BRANCH  10  11
ATOM     11  C   UNL     1       0.784  23.616  22.754  1.00  0.00     0.053 C 
BRANCH  11  12
ATOM     12  C   UNL     1      -0.095  22.463  22.376  1.00  0.00     0.041 C 
ATOM     13  O   UNL     1      -0.167  22.088  21.176  1.00  0.00    -0.550 OA
ATOM     14  O   UNL     1      -0.862  21.826  23.344  1.00  0.00    -0.550 OA
ENDBRANCH  11  12
ENDBRANCH  10  11
ENDBRANCH   9  10
ENDBRANCH   8   9
ENDBRANCH   1   8
TORSDOF 9
ENDMDL
MODEL 7
REMARK VINA RESULT:    -3.090     13.017     14.491
REMARK INTER + INTRA:          -5.559
REMARK INTER:                  -5.277
REMARK INTRA:                  -0.282
REMARK UNBOUND:                -0.843
REMARK SMILES O=C([O-])CCCCCCCCC(=O)[O-]
REMARK SMILES IDX 7 1 6 2 5 3 4 4 2 5 1 6 3 7 8 8 9 9 10 10 11 11 12 12 13 13
REMARK SMILES IDX 14 14
REMARK H PARENT
REMARK Flexibility Score: inf
ROOT
ATOM      1  C   UNL     1      -6.009  23.693  25.900  1.00  0.00     0.000 C 
ENDROOT
BRANCH   1   2
ATOM      2  C   UNL     1      -6.911  22.667  26.609  1.00  0.00     0.000 C 
BRANCH   2   3
ATOM      3  C   UNL     1      -8.403  23.019  26.498  1.00  0.00     0.006 C 
BRANCH   3   4
ATOM      4  C   UNL     1      -8.752  23.711  25.173  1.00  0.00     0.053 C 
BRANCH   4   5
ATOM      5  C   UNL     1      -9.873  22.996  24.489  1.00  0.00     0.041 C 
ATOM      6  O   UNL     1     -10.206  21.839  24.860  1.00  0.00    -0.550 OA
ATOM      7  O   UNL     1     -10.518  23.583  23.408  1.00  0.00    -0.550 OA
ENDBRANCH   4   5
ENDBRANCH   3   4
ENDBRANCH   2   3
ENDBRANCH   1   2
BRANCH   1   8
ATOM      8  C   UNL     1      -4.552  23.632  26.387  1.00  0.00     0.000 C 
BRANCH   8   9
ATOM      9  C   UNL     1      -3.611  24.525  25.560  1.00  0.00     0.000 C 
BRANCH   9  10
ATOM     10  C   UNL     1      -3.818  26.026  25.840  1.00  0.00     0.006 C 
BRANCH  10  11
ATOM     11  C   UNL     1      -2.524  26.854  25.822  1.00  0.00     0.053 C 
BRANCH  11  12
ATOM     12  C   UNL     1      -1.778  26.701  24.532  1.00  0.00     0.041 C 
ATOM     13  O   UNL     1      -0.779  25.937  24.464  1.00  0.00    -0.550 OA
ATOM     14  O   UNL     1      -2.165  27.430  23.415  1.00  0.00    -0.550 OA
ENDBRANCH  11  12
ENDBRANCH  10  11
ENDBRANCH   9  10
ENDBRANCH   8   9
ENDBRANCH   1   8
TORSDOF 9
ENDMDL
MODEL 8
REMARK VINA RESULT:    -2.961      2.280      2.760
REMARK INTER + INTRA:          -5.362
REMARK INTER:                  -4.660
REMARK INTRA:                  -0.702
REMARK UNBOUND:                -0.843
REMARK SMILES O=C([O-])CCCCCCCCC(=O)[O-]
REMARK SMILES IDX 7 1 6 2 5 3 4 4 2 5 1 6 3 7 8 8 9 9 10 10 11 11 12 12 13 13
REMARK SMILES IDX 14 14
REMARK H PARENT
REMARK Flexibility Score: inf
ROOT
ATOM      1  C   UNL     1     -17.822  24.261  36.234  1.00  0.00     0.000 C 
ENDROOT
BRANCH   1   2
ATOM      2  C   UNL     1     -18.112  24.950  34.889  1.00  0.00     0.000 C 
BRANCH   2   3
ATOM      3  C   UNL     1     -17.748  26.443  34.902  1.00  0.00     0.006 C 
BRANCH   3   4
ATOM      4  C   UNL     1     -16.613  26.785  33.927  1.00  0.00     0.053 C 
BRANCH   4   5
ATOM      5  C   UNL     1     -16.937  26.291  32.554  1.00  0.00     0.041 C 
ATOM      6  O   UNL     1     -16.374  25.258  32.102  1.00  0.00    -0.550 OA
ATOM      7  O   UNL     1     -17.823  26.998  31.750  1.00  0.00    -0.550 OA
ENDBRANCH   4   5
ENDBRANCH   3   4
ENDBRANCH   2   3
ENDBRANCH   1   2
BRANCH   1   8
ATOM      8  C   UNL     1     -16.982  22.984  36.072  1.00  0.00     0.000 C 
BRANCH   8   9
ATOM      9  C   UNL     1     -15.773  23.182  35.141  1.00  0.00     0.000 C 
BRANCH   9  10
ATOM     10  C   UNL     1     -15.587  22.016  34.152  1.00  0.00     0.006 C 
BRANCH  10  11
ATOM     11  C   UNL     1     -16.649  21.955  33.043  1.00  0.00     0.053 C 
BRANCH  11  12
ATOM     12  C   UNL     1     -17.038  20.546  32.717  1.00  0.00     0.041 C 
ATOM     13  O   UNL     1     -18.125  20.073  33.143  1.00  0.00    -0.550 OA
ATOM     14  O   UNL     1     -16.184  19.744  31.971  1.00  0.00    -0.550 OA
ENDBRANCH  11  12
ENDBRANCH  10  11
ENDBRANCH   9  10
ENDBRANCH   8   9
ENDBRANCH   1   8
TORSDOF 9
ENDMDL
