MODEL 1
REMARK VINA RESULT:    -7.490      0.000      0.000
REMARK INTER + INTRA:          -8.766
REMARK INTER:                  -8.803
REMARK INTRA:                   0.038
REMARK UNBOUND:                 0.038
REMARK SMILES O=c1c(O)c(-c2ccc(O)cc2)oc2cc(O)cc(O)c12
REMARK SMILES IDX 5 1 3 2 2 3 1 4 21 5 19 6 18 7 16 8 15 9 14 10 13 11 6 12
REMARK SMILES IDX 7 13 8 14 9 15 12 16 11 17 10 18 4 20 20 22 17 24
REMARK H PARENT 10 19 4 21 20 23 17 25
REMARK Flexibility Score: inf
ROOT
ATOM      1  C   UNL     1      29.193  23.235  48.971  1.00  0.00     0.180 A 
ATOM      2  C   UNL     1      30.489  22.692  49.075  1.00  0.00     0.208 A 
ATOM      3  C   UNL     1      30.941  22.252  50.330  1.00  0.00     0.238 A 
ATOM      4  O   UNL     1      32.103  21.774  50.437  1.00  0.00    -0.285 OA
ATOM      5  C   UNL     1      30.089  22.343  51.449  1.00  0.00     0.111 A 
ATOM      6  C   UNL     1      30.467  21.920  52.747  1.00  0.00     0.134 A 
ATOM      7  C   UNL     1      29.557  22.035  53.808  1.00  0.00     0.093 A 
ATOM      8  C   UNL     1      28.281  22.564  53.600  1.00  0.00     0.123 A 
ATOM      9  C   UNL     1      27.902  22.985  52.320  1.00  0.00     0.094 A 
ATOM     10  C   UNL     1      28.795  22.880  51.249  1.00  0.00     0.146 A 
ATOM     11  O   UNL     1      28.413  23.292  50.046  1.00  0.00    -0.452 OA
ENDROOT
BRANCH   1  12
ATOM     12  C   UNL     1      28.651  23.739  47.689  1.00  0.00     0.021 A 
ATOM     13  C   UNL     1      27.344  23.395  47.309  1.00  0.00     0.016 A 
ATOM     14  C   UNL     1      26.804  23.877  46.113  1.00  0.00     0.047 A 
ATOM     15  C   UNL     1      27.560  24.720  45.288  1.00  0.00     0.115 A 
ATOM     16  C   UNL     1      29.398  24.602  46.866  1.00  0.00     0.016 A 
ATOM     17  C   UNL     1      28.855  25.083  45.670  1.00  0.00     0.047 A 
BRANCH  15  18
ATOM     18  O   UNL     1      27.033  25.205  44.094  1.00  0.00    -0.508 OA
ATOM     19  H   UNL     1      26.823  26.188  43.968  1.00  0.00     0.293 HD
ENDBRANCH  15  18
ENDBRANCH   1  12
BRANCH   2  20
ATOM     20  O   UNL     1      31.295  22.566  47.942  1.00  0.00    -0.502 OA
ATOM     21  H   UNL     1      32.298  22.445  48.000  1.00  0.00     0.293 HD
ENDBRANCH   2  20
BRANCH   6  22
ATOM     22  O   UNL     1      31.733  21.386  52.987  1.00  0.00    -0.507 OA
ATOM     23  H   UNL     1      32.533  21.634  52.417  1.00  0.00     0.293 HD
ENDBRANCH   6  22
BRANCH   8  24
ATOM     24  O   UNL     1      27.396  22.667  54.671  1.00  0.00    -0.508 OA
ATOM     25  H   UNL     1      27.714  22.927  55.597  1.00  0.00     0.293 HD
ENDBRANCH   8  24
TORSDOF 5
ENDMDL
MODEL 2
REMARK VINA RESULT:    -6.870     12.732     14.074
REMARK INTER + INTRA:          -8.037
REMARK INTER:                  -7.974
REMARK INTRA:                  -0.063
REMARK UNBOUND:                 0.038
REMARK SMILES O=c1c(O)c(-c2ccc(O)cc2)oc2cc(O)cc(O)c12
REMARK SMILES IDX 5 1 3 2 2 3 1 4 21 5 19 6 18 7 16 8 15 9 14 10 13 11 6 12
REMARK SMILES IDX 7 13 8 14 9 15 12 16 11 17 10 18 4 20 20 22 17 24
REMARK H PARENT 10 19 4 21 20 23 17 25
REMARK Flexibility Score: inf
ROOT
ATOM      1  C   UNL     1      18.708  25.324  40.676  1.00  0.00     0.180 A 
ATOM      2  C   UNL     1      19.757  26.236  40.908  1.00  0.00     0.208 A 
ATOM      3  C   UNL     1      19.768  26.963  42.110  1.00  0.00     0.238 A 
ATOM      4  O   UNL     1      20.697  27.789  42.324  1.00  0.00    -0.285 OA
ATOM      5  C   UNL     1      18.750  26.754  43.061  1.00  0.00     0.111 A 
ATOM      6  C   UNL     1      18.691  27.443  44.297  1.00  0.00     0.134 A 
ATOM      7  C   UNL     1      17.649  27.171  45.196  1.00  0.00     0.093 A 
ATOM      8  C   UNL     1      16.667  26.228  44.886  1.00  0.00     0.123 A 
ATOM      9  C   UNL     1      16.720  25.544  43.666  1.00  0.00     0.094 A 
ATOM     10  C   UNL     1      17.749  25.801  42.756  1.00  0.00     0.146 A 
ATOM     11  O   UNL     1      17.772  25.143  41.603  1.00  0.00    -0.452 OA
ENDROOT
BRANCH   1  12
ATOM     12  C   UNL     1      18.614  24.535  39.426  1.00  0.00     0.021 A 
ATOM     13  C   UNL     1      19.650  23.647  39.091  1.00  0.00     0.016 A 
ATOM     14  C   UNL     1      19.571  22.876  37.927  1.00  0.00     0.047 A 
ATOM     15  C   UNL     1      18.451  22.972  37.093  1.00  0.00     0.115 A 
ATOM     16  C   UNL     1      17.483  24.611  38.594  1.00  0.00     0.016 A 
ATOM     17  C   UNL     1      17.407  23.838  37.431  1.00  0.00     0.047 A 
BRANCH  15  18
ATOM     18  O   UNL     1      18.363  22.209  35.930  1.00  0.00    -0.508 OA
ATOM     19  H   UNL     1      19.057  21.507  35.704  1.00  0.00     0.293 HD
ENDBRANCH  15  18
ENDBRANCH   1  12
BRANCH   2  20
ATOM     20  O   UNL     1      20.781  26.388  39.972  1.00  0.00    -0.502 OA
ATOM     21  H   UNL     1      21.571  27.003  40.126  1.00  0.00     0.293 HD
ENDBRANCH   2  20
BRANCH   6  22
ATOM     22  O   UNL     1      19.657  28.390  44.637  1.00  0.00    -0.507 OA
ATOM     23  H   UNL     1      19.579  28.954  45.476  1.00  0.00     0.293 HD
ENDBRANCH   6  22
BRANCH   8  24
ATOM     24  O   UNL     1      15.644  25.976  45.797  1.00  0.00    -0.508 OA
ATOM     25  H   UNL     1      15.173  25.080  45.829  1.00  0.00     0.293 HD
ENDBRANCH   8  24
TORSDOF 5
ENDMDL
MODEL 3
REMARK VINA RESULT:    -6.851     12.678     14.173
REMARK INTER + INTRA:          -8.015
REMARK INTER:                  -7.789
REMARK INTRA:                  -0.226
REMARK UNBOUND:                 0.038
REMARK SMILES O=c1c(O)c(-c2ccc(O)cc2)oc2cc(O)cc(O)c12
REMARK SMILES IDX 5 1 3 2 2 3 1 4 21 5 19 6 18 7 16 8 15 9 14 10 13 11 6 12
REMARK SMILES IDX 7 13 8 14 9 15 12 16 11 17 10 18 4 20 20 22 17 24
REMARK H PARENT 10 19 4 21 20 23 17 25
REMARK Flexibility Score: inf
ROOT
ATOM      1  C   UNL     1      18.259  24.750  41.272  1.00  0.00     0.180 A 
ATOM      2  C   UNL     1      17.044  24.350  41.864  1.00  0.00     0.208 A 
ATOM      3  C   UNL     1      16.621  24.989  43.041  1.00  0.00     0.238 A 
ATOM      4  O   UNL     1      15.540  24.631  43.585  1.00  0.00    -0.285 OA
ATOM      5  C   UNL     1      17.403  26.023  43.593  1.00  0.00     0.111 A 
ATOM      6  C   UNL     1      17.046  26.718  44.774  1.00  0.00     0.134 A 
ATOM      7  C   UNL     1      17.873  27.743  45.255  1.00  0.00     0.093 A 
ATOM      8  C   UNL     1      19.048  28.086  44.582  1.00  0.00     0.123 A 
ATOM      9  C   UNL     1      19.407  27.403  43.415  1.00  0.00     0.094 A 
ATOM     10  C   UNL     1      18.596  26.377  42.920  1.00  0.00     0.146 A 
ATOM     11  O   UNL     1      18.963  25.740  41.814  1.00  0.00    -0.452 OA
ENDROOT
BRANCH   1  12
ATOM     12  C   UNL     1      18.782  24.113  40.043  1.00  0.00     0.021 A 
ATOM     13  C   UNL     1      19.828  23.181  40.140  1.00  0.00     0.016 A 
ATOM     14  C   UNL     1      20.323  22.551  38.994  1.00  0.00     0.047 A 
ATOM     15  C   UNL     1      19.770  22.834  37.740  1.00  0.00     0.115 A 
ATOM     16  C   UNL     1      18.218  24.379  38.782  1.00  0.00     0.016 A 
ATOM     17  C   UNL     1      18.715  23.746  37.638  1.00  0.00     0.047 A 
BRANCH  15  18
ATOM     18  O   UNL     1      20.256  22.214  36.591  1.00  0.00    -0.508 OA
ATOM     19  H   UNL     1      19.727  22.209  35.727  1.00  0.00     0.293 HD
ENDBRANCH  15  18
ENDBRANCH   1  12
BRANCH   2  20
ATOM     20  O   UNL     1      16.263  23.357  41.270  1.00  0.00    -0.502 OA
ATOM     21  H   UNL     1      16.656  22.648  40.663  1.00  0.00     0.293 HD
ENDBRANCH   2  20
BRANCH   6  22
ATOM     22  O   UNL     1      15.878  26.401  45.469  1.00  0.00    -0.507 OA
ATOM     23  H   UNL     1      15.135  27.077  45.599  1.00  0.00     0.293 HD
ENDBRANCH   6  22
BRANCH   8  24
ATOM     24  O   UNL     1      19.852  29.109  45.080  1.00  0.00    -0.508 OA
ATOM     25  H   UNL     1      19.453  29.931  45.517  1.00  0.00     0.293 HD
ENDBRANCH   8  24
TORSDOF 5
ENDMDL
MODEL 4
REMARK VINA RESULT:    -6.587     13.799     15.460
REMARK INTER + INTRA:          -7.704
REMARK INTER:                  -7.435
REMARK INTRA:                  -0.270
REMARK UNBOUND:                 0.038
REMARK SMILES O=c1c(O)c(-c2ccc(O)cc2)oc2cc(O)cc(O)c12
REMARK SMILES IDX 5 1 3 2 2 3 1 4 21 5 19 6 18 7 16 8 15 9 14 10 13 11 6 12
REMARK SMILES IDX 7 13 8 14 9 15 12 16 11 17 10 18 4 20 20 22 17 24
REMARK H PARENT 10 19 4 21 20 23 17 25
REMARK Flexibility Score: inf
ROOT
ATOM      1  C   UNL     1      17.182  23.458  42.216  1.00  0.00     0.180 A 
ATOM      2  C   UNL     1      17.331  24.660  42.936  1.00  0.00     0.208 A 
ATOM      3  C   UNL     1      17.980  25.743  42.320  1.00  0.00     0.238 A 
ATOM      4  O   UNL     1      18.128  26.821  42.959  1.00  0.00    -0.285 OA
ATOM      5  C   UNL     1      18.449  25.614  40.997  1.00  0.00     0.111 A 
ATOM      6  C   UNL     1      19.110  26.658  40.305  1.00  0.00     0.134 A 
ATOM      7  C   UNL     1      19.539  26.454  38.985  1.00  0.00     0.093 A 
ATOM      8  C   UNL     1      19.321  25.231  38.345  1.00  0.00     0.123 A 
ATOM      9  C   UNL     1      18.669  24.196  39.024  1.00  0.00     0.094 A 
ATOM     10  C   UNL     1      18.236  24.379  40.341  1.00  0.00     0.146 A 
ATOM     11  O   UNL     1      17.625  23.378  40.965  1.00  0.00    -0.452 OA
ENDROOT
BRANCH   1  12
ATOM     12  C   UNL     1      16.528  22.266  42.802  1.00  0.00     0.021 A 
ATOM     13  C   UNL     1      17.317  21.263  43.388  1.00  0.00     0.016 A 
ATOM     14  C   UNL     1      16.718  20.140  43.966  1.00  0.00     0.047 A 
ATOM     15  C   UNL     1      15.324  20.012  43.979  1.00  0.00     0.115 A 
ATOM     16  C   UNL     1      15.127  22.141  42.835  1.00  0.00     0.016 A 
ATOM     17  C   UNL     1      14.532  21.017  43.415  1.00  0.00     0.047 A 
BRANCH  15  18
ATOM     18  O   UNL     1      14.717  18.896  44.551  1.00  0.00    -0.508 OA
ATOM     19  H   UNL     1      13.838  18.969  45.048  1.00  0.00     0.293 HD
ENDBRANCH  15  18
ENDBRANCH   1  12
BRANCH   2  20
ATOM     20  O   UNL     1      16.813  24.779  44.227  1.00  0.00    -0.502 OA
ATOM     21  H   UNL     1      16.477  25.659  44.598  1.00  0.00     0.293 HD
ENDBRANCH   2  20
BRANCH   6  22
ATOM     22  O   UNL     1      19.341  27.891  40.915  1.00  0.00    -0.507 OA
ATOM     23  H   UNL     1      19.685  27.958  41.866  1.00  0.00     0.293 HD
ENDBRANCH   6  22
BRANCH   8  24
ATOM     24  O   UNL     1      19.756  25.055  37.033  1.00  0.00    -0.508 OA
ATOM     25  H   UNL     1      19.231  25.421  36.248  1.00  0.00     0.293 HD
ENDBRANCH   8  24
TORSDOF 5
ENDMDL
MODEL 5
REMARK VINA RESULT:    -6.528     13.500     15.013
REMARK INTER + INTRA:          -7.635
REMARK INTER:                  -7.376
REMARK INTRA:                  -0.260
REMARK UNBOUND:                 0.038
REMARK SMILES O=c1c(O)c(-c2ccc(O)cc2)oc2cc(O)cc(O)c12
REMARK SMILES IDX 5 1 3 2 2 3 1 4 21 5 19 6 18 7 16 8 15 9 14 10 13 11 6 12
REMARK SMILES IDX 7 13 8 14 9 15 12 16 11 17 10 18 4 20 20 22 17 24
REMARK H PARENT 10 19 4 21 20 23 17 25
REMARK Flexibility Score: inf
ROOT
ATOM      1  C   UNL     1      16.904  23.555  42.045  1.00  0.00     0.180 A 
ATOM      2  C   UNL     1      15.503  23.663  41.937  1.00  0.00     0.208 A 
ATOM      3  C   UNL     1      14.703  22.621  42.431  1.00  0.00     0.238 A 
ATOM      4  O   UNL     1      13.448  22.702  42.331  1.00  0.00    -0.285 OA
ATOM      5  C   UNL     1      15.310  21.504  43.040  1.00  0.00     0.111 A 
ATOM      6  C   UNL     1      14.575  20.414  43.566  1.00  0.00     0.134 A 
ATOM      7  C   UNL     1      15.254  19.342  44.166  1.00  0.00     0.093 A 
ATOM      8  C   UNL     1      16.648  19.339  44.249  1.00  0.00     0.123 A 
ATOM      9  C   UNL     1      17.380  20.412  43.730  1.00  0.00     0.094 A 
ATOM     10  C   UNL     1      16.722  21.489  43.128  1.00  0.00     0.146 A 
ATOM     11  O   UNL     1      17.440  22.493  42.638  1.00  0.00    -0.452 OA
ENDROOT
BRANCH   1  12
ATOM     12  C   UNL     1      17.816  24.602  41.530  1.00  0.00     0.021 A 
ATOM     13  C   UNL     1      18.050  25.753  42.300  1.00  0.00     0.016 A 
ATOM     14  C   UNL     1      18.925  26.744  41.843  1.00  0.00     0.047 A 
ATOM     15  C   UNL     1      19.587  26.589  40.619  1.00  0.00     0.115 A 
ATOM     16  C   UNL     1      18.500  24.444  40.311  1.00  0.00     0.016 A 
ATOM     17  C   UNL     1      19.375  25.437  39.858  1.00  0.00     0.047 A 
BRANCH  15  18
ATOM     18  O   UNL     1      20.460  27.571  40.154  1.00  0.00    -0.508 OA
ATOM     19  H   UNL     1      20.929  28.205  40.788  1.00  0.00     0.293 HD
ENDBRANCH  15  18
ENDBRANCH   1  12
BRANCH   2  20
ATOM     20  O   UNL     1      14.925  24.803  41.375  1.00  0.00    -0.502 OA
ATOM     21  H   UNL     1      15.127  25.105  40.430  1.00  0.00     0.293 HD
ENDBRANCH   2  20
BRANCH   6  22
ATOM     22  O   UNL     1      13.182  20.388  43.500  1.00  0.00    -0.507 OA
ATOM     23  H   UNL     1      12.610  20.985  44.086  1.00  0.00     0.293 HD
ENDBRANCH   6  22
BRANCH   8  24
ATOM     24  O   UNL     1      17.298  18.263  44.850  1.00  0.00    -0.508 OA
ATOM     25  H   UNL     1      17.826  18.375  45.707  1.00  0.00     0.293 HD
ENDBRANCH   8  24
TORSDOF 5
ENDMDL
MODEL 6
REMARK VINA RESULT:    -6.492     12.722     15.517
REMARK INTER + INTRA:          -7.592
REMARK INTER:                  -7.298
REMARK INTRA:                  -0.294
REMARK UNBOUND:                 0.038
REMARK SMILES O=c1c(O)c(-c2ccc(O)cc2)oc2cc(O)cc(O)c12
REMARK SMILES IDX 5 1 3 2 2 3 1 4 21 5 19 6 18 7 16 8 15 9 14 10 13 11 6 12
REMARK SMILES IDX 7 13 8 14 9 15 12 16 11 17 10 18 4 20 20 22 17 24
REMARK H PARENT 10 19 4 21 20 23 17 25
REMARK Flexibility Score: inf
ROOT
ATOM      1  C   UNL     1      15.259  26.994  46.940  1.00  0.00     0.180 A 
ATOM      2  C   UNL     1      14.889  25.865  46.182  1.00  0.00     0.208 A 
ATOM      3  C   UNL     1      15.678  25.501  45.079  1.00  0.00     0.238 A 
ATOM      4  O   UNL     1      15.350  24.498  44.387  1.00  0.00    -0.285 OA
ATOM      5  C   UNL     1      16.827  26.254  44.765  1.00  0.00     0.111 A 
ATOM      6  C   UNL     1      17.677  25.951  43.673  1.00  0.00     0.134 A 
ATOM      7  C   UNL     1      18.809  26.744  43.433  1.00  0.00     0.093 A 
ATOM      8  C   UNL     1      19.108  27.830  44.258  1.00  0.00     0.123 A 
ATOM      9  C   UNL     1      18.272  28.135  45.338  1.00  0.00     0.094 A 
ATOM     10  C   UNL     1      17.138  27.358  45.595  1.00  0.00     0.146 A 
ATOM     11  O   UNL     1      16.358  27.671  46.622  1.00  0.00    -0.452 OA
ENDROOT
BRANCH   1  12
ATOM     12  C   UNL     1      14.468  27.454  48.104  1.00  0.00     0.021 A 
ATOM     13  C   UNL     1      14.874  27.094  49.400  1.00  0.00     0.016 A 
ATOM     14  C   UNL     1      14.155  27.535  50.515  1.00  0.00     0.047 A 
ATOM     15  C   UNL     1      13.031  28.353  50.349  1.00  0.00     0.115 A 
ATOM     16  C   UNL     1      13.350  28.292  47.946  1.00  0.00     0.016 A 
ATOM     17  C   UNL     1      12.633  28.732  49.064  1.00  0.00     0.047 A 
BRANCH  15  18
ATOM     18  O   UNL     1      12.306  28.797  51.453  1.00  0.00    -0.508 OA
ATOM     19  H   UNL     1      11.318  29.010  51.387  1.00  0.00     0.293 HD
ENDBRANCH  15  18
ENDBRANCH   1  12
BRANCH   2  20
ATOM     20  O   UNL     1      13.773  25.107  46.544  1.00  0.00    -0.502 OA
ATOM     21  H   UNL     1      13.598  24.820  47.499  1.00  0.00     0.293 HD
ENDBRANCH   2  20
BRANCH   6  22
ATOM     22  O   UNL     1      17.407  24.872  42.831  1.00  0.00    -0.507 OA
ATOM     23  H   UNL     1      18.109  24.173  42.620  1.00  0.00     0.293 HD
ENDBRANCH   6  22
BRANCH   8  24
ATOM     24  O   UNL     1      20.239  28.601  43.998  1.00  0.00    -0.508 OA
ATOM     25  H   UNL     1      21.129  28.400  44.437  1.00  0.00     0.293 HD
ENDBRANCH   8  24
TORSDOF 5
ENDMDL
MODEL 7
REMARK VINA RESULT:    -6.413     12.402     15.249
REMARK INTER + INTRA:          -7.499
REMARK INTER:                  -7.202
REMARK INTRA:                  -0.298
REMARK UNBOUND:                 0.038
REMARK SMILES O=c1c(O)c(-c2ccc(O)cc2)oc2cc(O)cc(O)c12
REMARK SMILES IDX 5 1 3 2 2 3 1 4 21 5 19 6 18 7 16 8 15 9 14 10 13 11 6 12
REMARK SMILES IDX 7 13 8 14 9 15 12 16 11 17 10 18 4 20 20 22 17 24
REMARK H PARENT 10 19 4 21 20 23 17 25
REMARK Flexibility Score: inf
ROOT
ATOM      1  C   UNL     1      16.599  25.360  43.483  1.00  0.00     0.180 A 
ATOM      2  C   UNL     1      15.800  25.507  42.332  1.00  0.00     0.208 A 
ATOM      3  C   UNL     1      14.982  24.437  41.934  1.00  0.00     0.238 A 
ATOM      4  O   UNL     1      14.271  24.553  40.898  1.00  0.00    -0.285 OA
ATOM      5  C   UNL     1      14.960  23.254  42.698  1.00  0.00     0.111 A 
ATOM      6  C   UNL     1      14.162  22.132  42.368  1.00  0.00     0.134 A 
ATOM      7  C   UNL     1      14.188  20.993  43.186  1.00  0.00     0.093 A 
ATOM      8  C   UNL     1      14.994  20.953  44.326  1.00  0.00     0.123 A 
ATOM      9  C   UNL     1      15.786  22.058  44.658  1.00  0.00     0.094 A 
ATOM     10  C   UNL     1      15.775  23.202  43.854  1.00  0.00     0.146 A 
ATOM     11  O   UNL     1      16.541  24.234  44.188  1.00  0.00    -0.452 OA
ENDROOT
BRANCH   1  12
ATOM     12  C   UNL     1      17.502  26.434  43.957  1.00  0.00     0.021 A 
ATOM     13  C   UNL     1      17.034  27.364  44.899  1.00  0.00     0.016 A 
ATOM     14  C   UNL     1      17.876  28.373  45.376  1.00  0.00     0.047 A 
ATOM     15  C   UNL     1      19.201  28.455  44.929  1.00  0.00     0.115 A 
ATOM     16  C   UNL     1      18.839  26.510  43.526  1.00  0.00     0.016 A 
ATOM     17  C   UNL     1      19.679  27.520  44.006  1.00  0.00     0.047 A 
BRANCH  15  18
ATOM     18  O   UNL     1      20.049  29.456  45.396  1.00  0.00    -0.508 OA
ATOM     19  H   UNL     1      20.136  30.344  44.916  1.00  0.00     0.293 HD
ENDBRANCH  15  18
ENDBRANCH   1  12
BRANCH   2  20
ATOM     20  O   UNL     1      15.803  26.708  41.619  1.00  0.00    -0.502 OA
ATOM     21  H   UNL     1      16.538  27.397  41.719  1.00  0.00     0.293 HD
ENDBRANCH   2  20
BRANCH   6  22
ATOM     22  O   UNL     1      13.344  22.141  41.237  1.00  0.00    -0.507 OA
ATOM     23  H   UNL     1      12.793  22.954  40.985  1.00  0.00     0.293 HD
ENDBRANCH   6  22
BRANCH   8  24
ATOM     24  O   UNL     1      15.002  19.810  45.123  1.00  0.00    -0.508 OA
ATOM     25  H   UNL     1      14.551  18.954  44.824  1.00  0.00     0.293 HD
ENDBRANCH   8  24
TORSDOF 5
ENDMDL
MODEL 8
REMARK VINA RESULT:    -6.227     12.603     14.809
REMARK INTER + INTRA:          -7.282
REMARK INTER:                  -7.322
REMARK INTRA:                   0.040
REMARK UNBOUND:                 0.038
REMARK SMILES O=c1c(O)c(-c2ccc(O)cc2)oc2cc(O)cc(O)c12
REMARK SMILES IDX 5 1 3 2 2 3 1 4 21 5 19 6 18 7 16 8 15 9 14 10 13 11 6 12
REMARK SMILES IDX 7 13 8 14 9 15 12 16 11 17 10 18 4 20 20 22 17 24
REMARK H PARENT 10 19 4 21 20 23 17 25
REMARK Flexibility Score: inf
ROOT
ATOM      1  C   UNL     1      17.248  25.659  43.681  1.00  0.00     0.180 A 
ATOM      2  C   UNL     1      18.158  26.500  44.351  1.00  0.00     0.208 A 
ATOM      3  C   UNL     1      19.181  27.117  43.612  1.00  0.00     0.238 A 
ATOM      4  O   UNL     1      20.008  27.864  44.204  1.00  0.00    -0.285 OA
ATOM      5  C   UNL     1      19.266  26.900  42.223  1.00  0.00     0.111 A 
ATOM      6  C   UNL     1      20.264  27.486  41.406  1.00  0.00     0.134 A 
ATOM      7  C   UNL     1      20.274  27.228  40.027  1.00  0.00     0.093 A 
ATOM      8  C   UNL     1      19.310  26.398  39.450  1.00  0.00     0.123 A 
ATOM      9  C   UNL     1      18.322  25.816  40.251  1.00  0.00     0.094 A 
ATOM     10  C   UNL     1      18.295  26.059  41.628  1.00  0.00     0.146 A 
ATOM     11  O   UNL     1      17.351  25.489  42.366  1.00  0.00    -0.452 OA
ENDROOT
BRANCH   1  12
ATOM     12  C   UNL     1      16.155  24.957  44.392  1.00  0.00     0.021 A 
ATOM     13  C   UNL     1      16.013  23.569  44.240  1.00  0.00     0.016 A 
ATOM     14  C   UNL     1      15.001  22.883  44.920  1.00  0.00     0.047 A 
ATOM     15  C   UNL     1      14.129  23.574  45.769  1.00  0.00     0.115 A 
ATOM     16  C   UNL     1      15.288  25.643  45.263  1.00  0.00     0.016 A 
ATOM     17  C   UNL     1      14.278  24.954  45.941  1.00  0.00     0.047 A 
BRANCH  15  18
ATOM     18  O   UNL     1      13.117  22.901  46.450  1.00  0.00    -0.508 OA
ATOM     19  H   UNL     1      12.390  22.399  45.956  1.00  0.00     0.293 HD
ENDBRANCH  15  18
ENDBRANCH   1  12
BRANCH   2  20
ATOM     20  O   UNL     1      18.023  26.738  45.720  1.00  0.00    -0.502 OA
ATOM     21  H   UNL     1      18.706  26.420  46.397  1.00  0.00     0.293 HD
ENDBRANCH   2  20
BRANCH   6  22
ATOM     22  O   UNL     1      21.239  28.320  41.953  1.00  0.00    -0.507 OA
ATOM     23  H   UNL     1      22.186  27.998  42.114  1.00  0.00     0.293 HD
ENDBRANCH   6  22
BRANCH   8  24
ATOM     24  O   UNL     1      19.343  26.159  38.077  1.00  0.00    -0.508 OA
ATOM     25  H   UNL     1      19.383  25.218  37.705  1.00  0.00     0.293 HD
ENDBRANCH   8  24
TORSDOF 5
ENDMDL
