MODEL 1
REMARK VINA RESULT:    -4.333      0.000      0.000
REMARK INTER + INTRA:          -5.397
REMARK INTER:                  -5.346
REMARK INTRA:                  -0.052
REMARK UNBOUND:                -0.052
REMARK SMILES CCCCCC(=O)[O-]
REMARK SMILES IDX 4 1 5 2 6 3 7 4 8 5 3 6 2 7 1 8
REMARK H PARENT
REMARK Flexibility Score: inf
ROOT
ATOM      1  C   UNL     1      36.623  42.596  48.212  1.00  0.00     0.006 C 
ENDROOT
BRANCH   1   2
ATOM      2  C   UNL     1      36.571  42.839  46.698  1.00  0.00     0.053 C 
BRANCH   2   3
ATOM      3  C   UNL     1      35.757  44.057  46.393  1.00  0.00     0.041 C 
ATOM      4  O   UNL     1      35.534  44.386  45.198  1.00  0.00    -0.550 OA
ATOM      5  O   UNL     1      35.203  44.800  47.427  1.00  0.00    -0.550 OA
ENDBRANCH   2   3
ENDBRANCH   1   2
BRANCH   1   6
ATOM      6  C   UNL     1      37.999  42.100  48.684  1.00  0.00     0.000 C 
BRANCH   6   7
ATOM      7  C   UNL     1      38.316  42.524  50.126  1.00  0.00    -0.003 C 
ATOM      8  C   UNL     1      39.159  41.467  50.836  1.00  0.00     0.004 C 
ENDBRANCH   6   7
ENDBRANCH   1   6
TORSDOF 4
ENDMDL
MODEL 2
REMARK VINA RESULT:    -4.226      3.032      6.040
REMARK INTER + INTRA:          -5.266
REMARK INTER:                  -5.211
REMARK INTRA:                  -0.055
REMARK UNBOUND:                -0.052
REMARK SMILES CCCCCC(=O)[O-]
REMARK SMILES IDX 4 1 5 2 6 3 7 4 8 5 3 6 2 7 1 8
REMARK H PARENT
REMARK Flexibility Score: inf
ROOT
ATOM      1  C   UNL     1      34.292  44.431  45.592  1.00  0.00     0.006 C 
ENDROOT
BRANCH   1   2
ATOM      2  C   UNL     1      35.761  44.218  45.976  1.00  0.00     0.053 C 
BRANCH   2   3
ATOM      3  C   UNL     1      35.905  43.005  46.840  1.00  0.00     0.041 C 
ATOM      4  O   UNL     1      34.882  42.393  47.247  1.00  0.00    -0.550 OA
ATOM      5  O   UNL     1      37.168  42.521  47.155  1.00  0.00    -0.550 OA
ENDBRANCH   2   3
ENDBRANCH   1   2
BRANCH   1   6
ATOM      6  C   UNL     1      34.117  44.821  44.115  1.00  0.00     0.000 C 
BRANCH   6   7
ATOM      7  C   UNL     1      32.710  44.509  43.585  1.00  0.00    -0.003 C 
ATOM      8  C   UNL     1      32.248  45.575  42.595  1.00  0.00     0.004 C 
ENDBRANCH   6   7
ENDBRANCH   1   6
TORSDOF 4
ENDMDL
MODEL 3
REMARK VINA RESULT:    -4.118      1.085      1.954
REMARK INTER + INTRA:          -5.133
REMARK INTER:                  -5.056
REMARK INTRA:                  -0.076
REMARK UNBOUND:                -0.052
REMARK SMILES CCCCCC(=O)[O-]
REMARK SMILES IDX 4 1 5 2 6 3 7 4 8 5 3 6 2 7 1 8
REMARK H PARENT
REMARK Flexibility Score: inf
ROOT
ATOM      1  C   UNL     1      36.011  42.697  46.768  1.00  0.00     0.006 C 
ENDROOT
BRANCH   1   2
ATOM      2  C   UNL     1      35.935  44.116  46.191  1.00  0.00     0.053 C 
BRANCH   2   3
ATOM      3  C   UNL     1      34.580  44.372  45.610  1.00  0.00     0.041 C 
ATOM      4  O   UNL     1      33.548  44.206  46.313  1.00  0.00    -0.550 OA
ATOM      5  O   UNL     1      34.458  44.840  44.308  1.00  0.00    -0.550 OA
ENDBRANCH   2   3
ENDBRANCH   1   2
BRANCH   1   6
ATOM      6  C   UNL     1      36.457  42.680  48.239  1.00  0.00     0.000 C 
BRANCH   6   7
ATOM      7  C   UNL     1      37.902  42.188  48.412  1.00  0.00    -0.003 C 
ATOM      8  C   UNL     1      38.259  42.044  49.889  1.00  0.00     0.004 C 
ENDBRANCH   6   7
ENDBRANCH   1   6
TORSDOF 4
ENDMDL
MODEL 4
REMARK VINA RESULT:    -4.078      2.510      5.316
REMARK INTER + INTRA:          -5.084
REMARK INTER:                  -5.007
REMARK INTRA:                  -0.077
REMARK UNBOUND:                -0.052
REMARK SMILES CCCCCC(=O)[O-]
REMARK SMILES IDX 4 1 5 2 6 3 7 4 8 5 3 6 2 7 1 8
REMARK H PARENT
REMARK Flexibility Score: inf
ROOT
ATOM      1  C   UNL     1      35.890  44.001  46.097  1.00  0.00     0.006 C 
ENDROOT
BRANCH   1   2
ATOM      2  C   UNL     1      35.887  42.606  46.734  1.00  0.00     0.053 C 
BRANCH   2   3
ATOM      3  C   UNL     1      36.537  42.646  48.081  1.00  0.00     0.041 C 
ATOM      4  O   UNL     1      35.875  42.995  49.094  1.00  0.00    -0.550 OA
ATOM      5  O   UNL     1      37.861  42.250  48.227  1.00  0.00    -0.550 OA
ENDBRANCH   2   3
ENDBRANCH   1   2
BRANCH   1   6
ATOM      6  C   UNL     1      34.478  44.491  45.740  1.00  0.00     0.000 C 
BRANCH   6   7
ATOM      7  C   UNL     1      34.341  44.868  44.257  1.00  0.00    -0.003 C 
ATOM      8  C   UNL     1      32.912  44.650  43.766  1.00  0.00     0.004 C 
ENDBRANCH   6   7
ENDBRANCH   1   6
TORSDOF 4
ENDMDL
MODEL 5
REMARK VINA RESULT:    -4.052      2.741      4.884
REMARK INTER + INTRA:          -5.051
REMARK INTER:                  -5.002
REMARK INTRA:                  -0.049
REMARK UNBOUND:                -0.052
REMARK SMILES CCCCCC(=O)[O-]
REMARK SMILES IDX 4 1 5 2 6 3 7 4 8 5 3 6 2 7 1 8
REMARK H PARENT
REMARK Flexibility Score: inf
ROOT
ATOM      1  C   UNL     1      36.473  42.662  48.308  1.00  0.00     0.006 C 
ENDROOT
BRANCH   1   2
ATOM      2  C   UNL     1      37.910  42.203  48.581  1.00  0.00     0.053 C 
BRANCH   2   3
ATOM      3  C   UNL     1      38.203  42.248  50.048  1.00  0.00     0.041 C 
ATOM      4  O   UNL     1      37.768  43.197  50.752  1.00  0.00    -0.550 OA
ATOM      5  O   UNL     1      38.913  41.216  50.648  1.00  0.00    -0.550 OA
ENDBRANCH   2   3
ENDBRANCH   1   2
BRANCH   1   6
ATOM      6  C   UNL     1      36.226  42.982  46.825  1.00  0.00     0.000 C 
BRANCH   6   7
ATOM      7  C   UNL     1      35.602  44.370  46.617  1.00  0.00    -0.003 C 
ATOM      8  C   UNL     1      35.149  44.557  45.171  1.00  0.00     0.004 C 
ENDBRANCH   6   7
ENDBRANCH   1   6
TORSDOF 4
ENDMDL
MODEL 6
REMARK VINA RESULT:    -3.937      2.939      4.177
REMARK INTER + INTRA:          -4.910
REMARK INTER:                  -4.847
REMARK INTRA:                  -0.063
REMARK UNBOUND:                -0.052
REMARK SMILES CCCCCC(=O)[O-]
REMARK SMILES IDX 4 1 5 2 6 3 7 4 8 5 3 6 2 7 1 8
REMARK H PARENT
REMARK Flexibility Score: inf
ROOT
ATOM      1  C   UNL     1      34.978  44.543  45.136  1.00  0.00     0.006 C 
ENDROOT
BRANCH   1   2
ATOM      2  C   UNL     1      33.458  44.427  44.962  1.00  0.00     0.053 C 
BRANCH   2   3
ATOM      3  C   UNL     1      33.062  44.803  43.569  1.00  0.00     0.041 C 
ATOM      4  O   UNL     1      32.210  44.116  42.947  1.00  0.00    -0.550 OA
ATOM      5  O   UNL     1      33.596  45.940  42.977  1.00  0.00    -0.550 OA
ENDBRANCH   2   3
ENDBRANCH   1   2
BRANCH   1   6
ATOM      6  C   UNL     1      35.416  44.430  46.605  1.00  0.00     0.000 C 
BRANCH   6   7
ATOM      7  C   UNL     1      35.492  42.974  47.089  1.00  0.00    -0.003 C 
ATOM      8  C   UNL     1      36.942  42.525  47.249  1.00  0.00     0.004 C 
ENDBRANCH   6   7
ENDBRANCH   1   6
TORSDOF 4
ENDMDL
MODEL 7
REMARK VINA RESULT:    -3.854      2.910      4.679
REMARK INTER + INTRA:          -4.807
REMARK INTER:                  -4.708
REMARK INTRA:                  -0.099
REMARK UNBOUND:                -0.052
REMARK SMILES CCCCCC(=O)[O-]
REMARK SMILES IDX 4 1 5 2 6 3 7 4 8 5 3 6 2 7 1 8
REMARK H PARENT
REMARK Flexibility Score: inf
ROOT
ATOM      1  C   UNL     1      36.858  42.455  47.906  1.00  0.00     0.006 C 
ENDROOT
BRANCH   1   2
ATOM      2  C   UNL     1      36.021  42.933  49.098  1.00  0.00     0.053 C 
BRANCH   2   3
ATOM      3  C   UNL     1      36.863  43.000  50.333  1.00  0.00     0.041 C 
ATOM      4  O   UNL     1      36.613  43.854  51.224  1.00  0.00    -0.550 OA
ATOM      5  O   UNL     1      37.893  42.088  50.523  1.00  0.00    -0.550 OA
ENDBRANCH   2   3
ENDBRANCH   1   2
BRANCH   1   6
ATOM      6  C   UNL     1      36.217  42.809  46.554  1.00  0.00     0.000 C 
BRANCH   6   7
ATOM      7  C   UNL     1      35.858  44.298  46.442  1.00  0.00    -0.003 C 
ATOM      8  C   UNL     1      34.749  44.520  45.416  1.00  0.00     0.004 C 
ENDBRANCH   6   7
ENDBRANCH   1   6
TORSDOF 4
ENDMDL
MODEL 8
REMARK VINA RESULT:    -3.842      2.170      2.793
REMARK INTER + INTRA:          -4.792
REMARK INTER:                  -4.692
REMARK INTRA:                  -0.100
REMARK UNBOUND:                -0.052
REMARK SMILES CCCCCC(=O)[O-]
REMARK SMILES IDX 4 1 5 2 6 3 7 4 8 5 3 6 2 7 1 8
REMARK H PARENT
REMARK Flexibility Score: inf
ROOT
ATOM      1  C   UNL     1      37.050  42.806  50.187  1.00  0.00     0.006 C 
ENDROOT
BRANCH   1   2
ATOM      2  C   UNL     1      35.563  43.015  49.872  1.00  0.00     0.053 C 
BRANCH   2   3
ATOM      3  C   UNL     1      35.253  44.474  49.762  1.00  0.00     0.041 C 
ATOM      4  O   UNL     1      35.584  45.263  50.686  1.00  0.00    -0.550 OA
ATOM      5  O   UNL     1      34.644  44.971  48.617  1.00  0.00    -0.550 OA
ENDBRANCH   2   3
ENDBRANCH   1   2
BRANCH   1   6
ATOM      6  C   UNL     1      37.827  42.208  49.003  1.00  0.00     0.000 C 
BRANCH   6   7
ATOM      7  C   UNL     1      38.902  41.206  49.449  1.00  0.00    -0.003 C 
ATOM      8  C   UNL     1      39.188  41.336  50.943  1.00  0.00     0.004 C 
ENDBRANCH   6   7
ENDBRANCH   1   6
TORSDOF 4
ENDMDL
MODEL 9
REMARK VINA RESULT:    -3.768      2.899      5.510
REMARK INTER + INTRA:          -4.701
REMARK INTER:                  -4.537
REMARK INTRA:                  -0.165
REMARK UNBOUND:                -0.052
REMARK SMILES CCCCCC(=O)[O-]
REMARK SMILES IDX 4 1 5 2 6 3 7 4 8 5 3 6 2 7 1 8
REMARK H PARENT
REMARK Flexibility Score: inf
ROOT
ATOM      1  C   UNL     1      33.581  44.146  46.524  1.00  0.00     0.006 C 
ENDROOT
BRANCH   1   2
ATOM      2  C   UNL     1      34.387  42.991  47.131  1.00  0.00     0.053 C 
BRANCH   2   3
ATOM      3  C   UNL     1      35.832  43.113  46.762  1.00  0.00     0.041 C 
ATOM      4  O   UNL     1      36.670  42.284  47.205  1.00  0.00    -0.550 OA
ATOM      5  O   UNL     1      36.246  44.111  45.890  1.00  0.00    -0.550 OA
ENDBRANCH   2   3
ENDBRANCH   1   2
BRANCH   1   6
ATOM      6  C   UNL     1      32.289  43.670  45.839  1.00  0.00     0.000 C 
BRANCH   6   7
ATOM      7  C   UNL     1      32.128  44.239  44.422  1.00  0.00    -0.003 C 
ATOM      8  C   UNL     1      33.450  44.797  43.901  1.00  0.00     0.004 C 
ENDBRANCH   6   7
ENDBRANCH   1   6
TORSDOF 4
ENDMDL
