MODEL 1
REMARK VINA RESULT:    -5.612      0.000      0.000
REMARK INTER + INTRA:         -10.039
REMARK INTER:                  -8.565
REMARK INTRA:                  -1.474
REMARK UNBOUND:                -1.474
REMARK SMILES CC(=O)CCC=C(C)CCC=C(C)CCC=C(C)C
REMARK SMILES IDX 10 1 11 2 12 3 13 4 14 5 15 6 16 7 18 8 17 9 19 10 9 11 7 12
REMARK SMILES IDX 6 13 8 14 5 15 4 16 2 17 3 18 1 19
REMARK H PARENT
REMARK Flexibility Score: inf
ROOT
ATOM      1  C   UNL     1       1.699  16.996  -5.438  1.00  0.00     0.032 C 
ENDROOT
BRANCH   1   2
ATOM      2  C   UNL     1       1.646  17.736  -6.750  1.00  0.00    -0.028 C 
ATOM      3  C   UNL     1       2.445  18.779  -7.074  1.00  0.00    -0.077 C 
ATOM      4  C   UNL     1       3.452  19.344  -6.099  1.00  0.00     0.039 C 
BRANCH   3   5
ATOM      5  C   UNL     1       2.315  19.406  -8.444  1.00  0.00     0.034 C 
BRANCH   5   6
ATOM      6  C   UNL     1       3.176  20.670  -8.548  1.00  0.00     0.032 C 
BRANCH   6   7
ATOM      7  C   UNL     1       2.380  21.813  -9.124  1.00  0.00    -0.028 C 
ATOM      8  C   UNL     1       0.799  23.695  -9.125  1.00  0.00     0.039 C 
ATOM      9  C   UNL     1       1.494  22.556  -8.424  1.00  0.00    -0.080 C 
ATOM     10  C   UNL     1       1.173  22.266  -6.976  1.00  0.00     0.039 C 
ENDBRANCH   6   7
ENDBRANCH   5   6
ENDBRANCH   3   5
ENDBRANCH   1   2
BRANCH   1  11
ATOM     11  C   UNL     1       2.291  15.594  -5.628  1.00  0.00     0.034 C 
BRANCH  11  12
ATOM     12  C   UNL     1       3.746  15.662  -6.054  1.00  0.00    -0.077 C 
ATOM     13  C   UNL     1       4.182  15.276  -7.276  1.00  0.00    -0.028 C 
ATOM     14  C   UNL     1       4.762  16.195  -5.077  1.00  0.00     0.039 C 
BRANCH  13  15
ATOM     15  C   UNL     1       3.326  14.692  -8.375  1.00  0.00     0.035 C 
BRANCH  15  16
ATOM     16  C   UNL     1       4.094  13.591  -9.113  1.00  0.00     0.079 C 
BRANCH  16  17
ATOM     17  C   UNL     1       4.398  12.443  -8.190  1.00  0.00     0.130 C 
ATOM     18  O   UNL     1       3.485  11.787  -7.716  1.00  0.00    -0.300 OA
ATOM     19  C   UNL     1       5.818  12.091  -7.862  1.00  0.00     0.087 C 
ENDBRANCH  16  17
ENDBRANCH  15  16
ENDBRANCH  13  15
ENDBRANCH  11  12
ENDBRANCH   1  11
TORSDOF 9
ENDMDL
MODEL 2
REMARK VINA RESULT:    -5.588      2.688      7.535
REMARK INTER + INTRA:         -10.003
REMARK INTER:                  -8.587
REMARK INTRA:                  -1.415
REMARK UNBOUND:                -1.474
REMARK SMILES CC(=O)CCC=C(C)CCC=C(C)CCC=C(C)C
REMARK SMILES IDX 10 1 11 2 12 3 13 4 14 5 15 6 16 7 18 8 17 9 19 10 9 11 7 12
REMARK SMILES IDX 6 13 8 14 5 15 4 16 2 17 3 18 1 19
REMARK H PARENT
REMARK Flexibility Score: inf
ROOT
ATOM      1  C   UNL     1       3.481  18.818  -5.771  1.00  0.00     0.032 C 
ENDROOT
BRANCH   1   2
ATOM      2  C   UNL     1       3.760  17.337  -5.726  1.00  0.00    -0.028 C 
ATOM      3  C   UNL     1       2.806  16.379  -5.668  1.00  0.00    -0.077 C 
ATOM      4  C   UNL     1       1.337  16.722  -5.584  1.00  0.00     0.039 C 
BRANCH   3   5
ATOM      5  C   UNL     1       3.223  14.925  -5.671  1.00  0.00     0.034 C 
BRANCH   5   6
ATOM      6  C   UNL     1       3.043  14.310  -7.064  1.00  0.00     0.032 C 
BRANCH   6   7
ATOM      7  C   UNL     1       3.885  13.068  -7.212  1.00  0.00    -0.028 C 
ATOM      8  C   UNL     1       5.809  11.710  -7.917  1.00  0.00     0.039 C 
ATOM      9  C   UNL     1       5.055  13.015  -7.887  1.00  0.00    -0.080 C 
ATOM     10  C   UNL     1       5.612  14.214  -8.619  1.00  0.00     0.039 C 
ENDBRANCH   6   7
ENDBRANCH   5   6
ENDBRANCH   3   5
ENDBRANCH   1   2
BRANCH   1  11
ATOM     11  C   UNL     1       3.962  19.422  -7.097  1.00  0.00     0.034 C 
BRANCH  11  12
ATOM     12  C   UNL     1       3.453  18.624  -8.283  1.00  0.00    -0.077 C 
ATOM     13  C   UNL     1       2.210  18.770  -8.800  1.00  0.00    -0.028 C 
ATOM     14  C   UNL     1       4.374  17.622  -8.930  1.00  0.00     0.039 C 
BRANCH  13  15
ATOM     15  C   UNL     1       1.139  19.696  -8.275  1.00  0.00     0.035 C 
BRANCH  15  16
ATOM     16  C   UNL     1       1.402  21.129  -8.748  1.00  0.00     0.079 C 
BRANCH  16  17
ATOM     17  C   UNL     1       1.132  22.113  -7.644  1.00  0.00     0.130 C 
ATOM     18  O   UNL     1       1.609  21.927  -6.535  1.00  0.00    -0.300 OA
ATOM     19  C   UNL     1       0.295  23.330  -7.901  1.00  0.00     0.087 C 
ENDBRANCH  16  17
ENDBRANCH  15  16
ENDBRANCH  13  15
ENDBRANCH  11  12
ENDBRANCH   1  11
TORSDOF 9
ENDMDL
MODEL 3
REMARK VINA RESULT:    -5.451      2.685      7.759
REMARK INTER + INTRA:          -9.793
REMARK INTER:                  -8.364
REMARK INTRA:                  -1.429
REMARK UNBOUND:                -1.474
REMARK SMILES CC(=O)CCC=C(C)CCC=C(C)CCC=C(C)C
REMARK SMILES IDX 10 1 11 2 12 3 13 4 14 5 15 6 16 7 18 8 17 9 19 10 9 11 7 12
REMARK SMILES IDX 6 13 8 14 5 15 4 16 2 17 3 18 1 19
REMARK H PARENT
REMARK Flexibility Score: inf
ROOT
ATOM      1  C   UNL     1       1.940  16.726  -6.928  1.00  0.00     0.032 C 
ENDROOT
BRANCH   1   2
ATOM      2  C   UNL     1       3.035  16.087  -7.743  1.00  0.00    -0.028 C 
ATOM      3  C   UNL     1       4.227  15.685  -7.244  1.00  0.00    -0.077 C 
ATOM      4  C   UNL     1       4.597  15.899  -5.795  1.00  0.00     0.039 C 
BRANCH   3   5
ATOM      5  C   UNL     1       5.223  15.019  -8.168  1.00  0.00     0.034 C 
BRANCH   5   6
ATOM      6  C   UNL     1       5.405  13.543  -7.798  1.00  0.00     0.032 C 
BRANCH   6   7
ATOM      7  C   UNL     1       4.483  12.670  -8.611  1.00  0.00    -0.028 C 
ATOM      8  C   UNL     1       2.449  11.389  -9.125  1.00  0.00     0.039 C 
ATOM      9  C   UNL     1       3.282  12.223  -8.184  1.00  0.00    -0.080 C 
ATOM     10  C   UNL     1       2.764  12.519  -6.795  1.00  0.00     0.039 C 
ENDBRANCH   6   7
ENDBRANCH   5   6
ENDBRANCH   3   5
ENDBRANCH   1   2
BRANCH   1  11
ATOM     11  C   UNL     1       1.935  18.248  -7.121  1.00  0.00     0.034 C 
BRANCH  11  12
ATOM     12  C   UNL     1       1.079  18.650  -8.308  1.00  0.00    -0.077 C 
ATOM     13  C   UNL     1       1.375  19.693  -9.119  1.00  0.00    -0.028 C 
ATOM     14  C   UNL     1      -0.161  17.848  -8.611  1.00  0.00     0.039 C 
BRANCH  13  15
ATOM     15  C   UNL     1       2.550  20.628  -8.962  1.00  0.00     0.035 C 
BRANCH  15  16
ATOM     16  C   UNL     1       2.060  22.070  -8.803  1.00  0.00     0.079 C 
BRANCH  16  17
ATOM     17  C   UNL     1       1.305  22.237  -7.513  1.00  0.00     0.130 C 
ATOM     18  O   UNL     1       1.706  21.685  -6.500  1.00  0.00    -0.300 OA
ATOM     19  C   UNL     1       0.074  23.091  -7.460  1.00  0.00     0.087 C 
ENDBRANCH  16  17
ENDBRANCH  15  16
ENDBRANCH  13  15
ENDBRANCH  11  12
ENDBRANCH   1  11
TORSDOF 9
ENDMDL
MODEL 4
REMARK VINA RESULT:    -5.438      1.354      2.629
REMARK INTER + INTRA:          -9.773
REMARK INTER:                  -8.301
REMARK INTRA:                  -1.472
REMARK UNBOUND:                -1.474
REMARK SMILES CC(=O)CCC=C(C)CCC=C(C)CCC=C(C)C
REMARK SMILES IDX 10 1 11 2 12 3 13 4 14 5 15 6 16 7 18 8 17 9 19 10 9 11 7 12
REMARK SMILES IDX 6 13 8 14 5 15 4 16 2 17 3 18 1 19
REMARK H PARENT
REMARK Flexibility Score: inf
ROOT
ATOM      1  C   UNL     1       3.397  15.256  -6.050  1.00  0.00     0.032 C 
ENDROOT
BRANCH   1   2
ATOM      2  C   UNL     1       2.318  15.872  -6.902  1.00  0.00    -0.028 C 
ATOM      3  C   UNL     1       1.842  17.129  -6.746  1.00  0.00    -0.077 C 
ATOM      4  C   UNL     1       2.327  18.032  -5.636  1.00  0.00     0.039 C 
BRANCH   3   5
ATOM      5  C   UNL     1       0.783  17.638  -7.699  1.00  0.00     0.034 C 
BRANCH   5   6
ATOM      6  C   UNL     1       1.421  18.166  -8.990  1.00  0.00     0.032 C 
BRANCH   6   7
ATOM      7  C   UNL     1       1.414  19.674  -9.011  1.00  0.00    -0.028 C 
ATOM      8  C   UNL     1       2.339  21.943  -8.832  1.00  0.00     0.039 C 
ATOM      9  C   UNL     1       2.486  20.446  -8.730  1.00  0.00    -0.080 C 
ATOM     10  C   UNL     1       3.810  19.855  -8.306  1.00  0.00     0.039 C 
ENDBRANCH   6   7
ENDBRANCH   5   6
ENDBRANCH   3   5
ENDBRANCH   1   2
BRANCH   1  11
ATOM     11  C   UNL     1       4.782  15.507  -6.662  1.00  0.00     0.034 C 
BRANCH  11  12
ATOM     12  C   UNL     1       4.787  15.220  -8.152  1.00  0.00    -0.077 C 
ATOM     13  C   UNL     1       4.917  13.976  -8.670  1.00  0.00    -0.028 C 
ATOM     14  C   UNL     1       4.631  16.373  -9.112  1.00  0.00     0.039 C 
BRANCH  13  15
ATOM     15  C   UNL     1       5.112  12.706  -7.878  1.00  0.00     0.035 C 
BRANCH  15  16
ATOM     16  C   UNL     1       4.311  11.562  -8.507  1.00  0.00     0.079 C 
BRANCH  16  17
ATOM     17  C   UNL     1       2.928  11.494  -7.921  1.00  0.00     0.130 C 
ATOM     18  O   UNL     1       2.644  12.185  -6.956  1.00  0.00    -0.300 OA
ATOM     19  C   UNL     1       1.893  10.594  -8.525  1.00  0.00     0.087 C 
ENDBRANCH  16  17
ENDBRANCH  15  16
ENDBRANCH  13  15
ENDBRANCH  11  12
ENDBRANCH   1  11
TORSDOF 9
ENDMDL
MODEL 5
REMARK VINA RESULT:    -5.394      1.159      1.615
REMARK INTER + INTRA:          -9.706
REMARK INTER:                  -8.107
REMARK INTRA:                  -1.598
REMARK UNBOUND:                -1.474
REMARK SMILES CC(=O)CCC=C(C)CCC=C(C)CCC=C(C)C
REMARK SMILES IDX 10 1 11 2 12 3 13 4 14 5 15 6 16 7 18 8 17 9 19 10 9 11 7 12
REMARK SMILES IDX 6 13 8 14 5 15 4 16 2 17 3 18 1 19
REMARK H PARENT
REMARK Flexibility Score: inf
ROOT
ATOM      1  C   UNL     1       2.902  18.096  -5.647  1.00  0.00     0.032 C 
ENDROOT
BRANCH   1   2
ATOM      2  C   UNL     1       3.015  18.991  -6.854  1.00  0.00    -0.028 C 
ATOM      3  C   UNL     1       2.265  18.867  -7.973  1.00  0.00    -0.077 C 
ATOM      4  C   UNL     1       1.257  17.753  -8.137  1.00  0.00     0.039 C 
BRANCH   3   5
ATOM      5  C   UNL     1       2.453  19.861  -9.097  1.00  0.00     0.034 C 
BRANCH   5   6
ATOM      6  C   UNL     1       2.941  21.210  -8.556  1.00  0.00     0.032 C 
BRANCH   6   7
ATOM      7  C   UNL     1       2.115  22.341  -9.115  1.00  0.00    -0.028 C 
ATOM      8  C   UNL     1       0.452  24.150  -9.100  1.00  0.00     0.039 C 
ATOM      9  C   UNL     1       1.172  23.013  -8.420  1.00  0.00    -0.080 C 
ATOM     10  C   UNL     1       0.811  22.648  -6.999  1.00  0.00     0.039 C 
ENDBRANCH   6   7
ENDBRANCH   5   6
ENDBRANCH   3   5
ENDBRANCH   1   2
BRANCH   1  11
ATOM     11  C   UNL     1       3.884  16.921  -5.747  1.00  0.00     0.034 C 
BRANCH  11  12
ATOM     12  C   UNL     1       3.165  15.628  -6.080  1.00  0.00    -0.077 C 
ATOM     13  C   UNL     1       3.402  14.912  -7.205  1.00  0.00    -0.028 C 
ATOM     14  C   UNL     1       2.138  15.100  -5.110  1.00  0.00     0.039 C 
BRANCH  13  15
ATOM     15  C   UNL     1       4.365  15.290  -8.304  1.00  0.00     0.035 C 
BRANCH  15  16
ATOM     16  C   UNL     1       5.734  14.653  -8.049  1.00  0.00     0.079 C 
BRANCH  16  17
ATOM     17  C   UNL     1       5.640  13.153  -8.090  1.00  0.00     0.130 C 
ATOM     18  O   UNL     1       5.271  12.596  -9.112  1.00  0.00    -0.300 OA
ATOM     19  C   UNL     1       6.013  12.337  -6.889  1.00  0.00     0.087 C 
ENDBRANCH  16  17
ENDBRANCH  15  16
ENDBRANCH  13  15
ENDBRANCH  11  12
ENDBRANCH   1  11
TORSDOF 9
ENDMDL
MODEL 6
REMARK VINA RESULT:    -5.362      1.428      2.221
REMARK INTER + INTRA:          -9.658
REMARK INTER:                  -7.674
REMARK INTRA:                  -1.984
REMARK UNBOUND:                -1.474
REMARK SMILES CC(=O)CCC=C(C)CCC=C(C)CCC=C(C)C
REMARK SMILES IDX 10 1 11 2 12 3 13 4 14 5 15 6 16 7 18 8 17 9 19 10 9 11 7 12
REMARK SMILES IDX 6 13 8 14 5 15 4 16 2 17 3 18 1 19
REMARK H PARENT
REMARK Flexibility Score: inf
ROOT
ATOM      1  C   UNL     1       4.007  16.883  -6.278  1.00  0.00     0.032 C 
ENDROOT
BRANCH   1   2
ATOM      2  C   UNL     1       2.906  17.127  -7.278  1.00  0.00    -0.028 C 
ATOM      3  C   UNL     1       1.591  17.206  -6.966  1.00  0.00    -0.077 C 
ATOM      4  C   UNL     1       1.093  16.995  -5.555  1.00  0.00     0.039 C 
BRANCH   3   5
ATOM      5  C   UNL     1       0.592  17.496  -8.064  1.00  0.00     0.034 C 
BRANCH   5   6
ATOM      6  C   UNL     1       1.101  18.614  -8.981  1.00  0.00     0.032 C 
BRANCH   6   7
ATOM      7  C   UNL     1       0.787  19.969  -8.398  1.00  0.00    -0.028 C 
ATOM      8  C   UNL     1       1.231  22.264  -7.641  1.00  0.00     0.039 C 
ATOM      9  C   UNL     1       1.700  20.944  -8.196  1.00  0.00    -0.080 C 
ATOM     10  C   UNL     1       3.168  20.741  -8.496  1.00  0.00     0.039 C 
ENDBRANCH   6   7
ENDBRANCH   5   6
ENDBRANCH   3   5
ENDBRANCH   1   2
BRANCH   1  11
ATOM     11  C   UNL     1       4.593  15.476  -6.447  1.00  0.00     0.034 C 
BRANCH  11  12
ATOM     12  C   UNL     1       3.638  14.415  -5.935  1.00  0.00    -0.077 C 
ATOM     13  C   UNL     1       3.029  13.510  -6.738  1.00  0.00    -0.028 C 
ATOM     14  C   UNL     1       3.352  14.351  -4.456  1.00  0.00     0.039 C 
BRANCH  13  15
ATOM     15  C   UNL     1       3.164  13.432  -8.240  1.00  0.00     0.035 C 
BRANCH  15  16
ATOM     16  C   UNL     1       3.874  12.135  -8.639  1.00  0.00     0.079 C 
BRANCH  16  17
ATOM     17  C   UNL     1       5.364  12.278  -8.500  1.00  0.00     0.130 C 
ATOM     18  O   UNL     1       6.004  11.418  -7.915  1.00  0.00    -0.300 OA
ATOM     19  C   UNL     1       6.070  13.461  -9.090  1.00  0.00     0.087 C 
ENDBRANCH  16  17
ENDBRANCH  15  16
ENDBRANCH  13  15
ENDBRANCH  11  12
ENDBRANCH   1  11
TORSDOF 9
ENDMDL
MODEL 7
REMARK VINA RESULT:    -5.343      2.722      7.802
REMARK INTER + INTRA:          -9.629
REMARK INTER:                  -8.095
REMARK INTRA:                  -1.534
REMARK UNBOUND:                -1.474
REMARK SMILES CC(=O)CCC=C(C)CCC=C(C)CCC=C(C)C
REMARK SMILES IDX 10 1 11 2 12 3 13 4 14 5 15 6 16 7 18 8 17 9 19 10 9 11 7 12
REMARK SMILES IDX 6 13 8 14 5 15 4 16 2 17 3 18 1 19
REMARK H PARENT
REMARK Flexibility Score: inf
ROOT
ATOM      1  C   UNL     1       2.118  16.883  -6.602  1.00  0.00     0.032 C 
ENDROOT
BRANCH   1   2
ATOM      2  C   UNL     1       3.400  16.743  -7.381  1.00  0.00    -0.028 C 
ATOM      3  C   UNL     1       3.587  15.871  -8.399  1.00  0.00    -0.077 C 
ATOM      4  C   UNL     1       2.514  14.894  -8.818  1.00  0.00     0.039 C 
BRANCH   3   5
ATOM      5  C   UNL     1       4.914  15.862  -9.125  1.00  0.00     0.034 C 
BRANCH   5   6
ATOM      6  C   UNL     1       5.547  14.466  -9.086  1.00  0.00     0.032 C 
BRANCH   6   7
ATOM      7  C   UNL     1       5.888  14.073  -7.671  1.00  0.00    -0.028 C 
ATOM      8  C   UNL     1       6.318  12.555  -5.787  1.00  0.00     0.039 C 
ATOM      9  C   UNL     1       5.920  12.800  -7.220  1.00  0.00    -0.080 C 
ATOM     10  C   UNL     1       5.556  11.627  -8.102  1.00  0.00     0.039 C 
ENDBRANCH   6   7
ENDBRANCH   5   6
ENDBRANCH   3   5
ENDBRANCH   1   2
BRANCH   1  11
ATOM     11  C   UNL     1       1.484  18.259  -6.842  1.00  0.00     0.034 C 
BRANCH  11  12
ATOM     12  C   UNL     1       1.143  18.462  -8.307  1.00  0.00    -0.077 C 
ATOM     13  C   UNL     1       1.806  19.325  -9.112  1.00  0.00    -0.028 C 
ATOM     14  C   UNL     1       0.017  17.659  -8.906  1.00  0.00     0.039 C 
BRANCH  13  15
ATOM     15  C   UNL     1       2.936  20.234  -8.692  1.00  0.00     0.035 C 
BRANCH  15  16
ATOM     16  C   UNL     1       2.620  21.682  -9.077  1.00  0.00     0.079 C 
BRANCH  16  17
ATOM     17  C   UNL     1       1.605  22.274  -8.138  1.00  0.00     0.130 C 
ATOM     18  O   UNL     1       1.534  21.869  -6.989  1.00  0.00    -0.300 OA
ATOM     19  C   UNL     1       0.693  23.370  -8.601  1.00  0.00     0.087 C 
ENDBRANCH  16  17
ENDBRANCH  15  16
ENDBRANCH  13  15
ENDBRANCH  11  12
ENDBRANCH   1  11
TORSDOF 9
ENDMDL
MODEL 8
REMARK VINA RESULT:    -5.288      1.355      2.417
REMARK INTER + INTRA:          -9.544
REMARK INTER:                  -7.978
REMARK INTRA:                  -1.567
REMARK UNBOUND:                -1.474
REMARK SMILES CC(=O)CCC=C(C)CCC=C(C)CCC=C(C)C
REMARK SMILES IDX 10 1 11 2 12 3 13 4 14 5 15 6 16 7 18 8 17 9 19 10 9 11 7 12
REMARK SMILES IDX 6 13 8 14 5 15 4 16 2 17 3 18 1 19
REMARK H PARENT
REMARK Flexibility Score: inf
ROOT
ATOM      1  C   UNL     1       2.579  15.086  -5.730  1.00  0.00     0.032 C 
ENDROOT
BRANCH   1   2
ATOM      2  C   UNL     1       2.548  16.563  -6.032  1.00  0.00    -0.028 C 
ATOM      3  C   UNL     1       3.521  17.436  -5.684  1.00  0.00    -0.077 C 
ATOM      4  C   UNL     1       4.732  17.005  -4.891  1.00  0.00     0.039 C 
BRANCH   3   5
ATOM      5  C   UNL     1       3.383  18.888  -6.086  1.00  0.00     0.034 C 
BRANCH   5   6
ATOM      6  C   UNL     1       3.729  19.078  -7.568  1.00  0.00     0.032 C 
BRANCH   6   7
ATOM      7  C   UNL     1       3.235  20.412  -8.066  1.00  0.00    -0.028 C 
ATOM      8  C   UNL     1       1.685  22.000  -9.121  1.00  0.00     0.039 C 
ATOM      9  C   UNL     1       2.067  20.599  -8.717  1.00  0.00    -0.080 C 
ATOM     10  C   UNL     1       1.149  19.449  -9.062  1.00  0.00     0.039 C 
ENDBRANCH   6   7
ENDBRANCH   5   6
ENDBRANCH   3   5
ENDBRANCH   1   2
BRANCH   1  11
ATOM     11  C   UNL     1       2.583  14.267  -7.027  1.00  0.00     0.034 C 
BRANCH  11  12
ATOM     12  C   UNL     1       2.883  15.140  -8.231  1.00  0.00    -0.077 C 
ATOM     13  C   UNL     1       4.139  15.434  -8.642  1.00  0.00    -0.028 C 
ATOM     14  C   UNL     1       1.730  15.707  -9.020  1.00  0.00     0.039 C 
BRANCH  13  15
ATOM     15  C   UNL     1       5.415  14.987  -7.970  1.00  0.00     0.035 C 
BRANCH  15  16
ATOM     16  C   UNL     1       5.993  13.766  -8.691  1.00  0.00     0.079 C 
BRANCH  16  17
ATOM     17  C   UNL     1       5.883  12.537  -7.831  1.00  0.00     0.130 C 
ATOM     18  O   UNL     1       5.764  11.440  -8.353  1.00  0.00    -0.300 OA
ATOM     19  C   UNL     1       5.935  12.651  -6.337  1.00  0.00     0.087 C 
ENDBRANCH  16  17
ENDBRANCH  15  16
ENDBRANCH  13  15
ENDBRANCH  11  12
ENDBRANCH   1  11
TORSDOF 9
ENDMDL
MODEL 9
REMARK VINA RESULT:    -5.204      2.622      7.660
REMARK INTER + INTRA:          -9.417
REMARK INTER:                  -8.148
REMARK INTRA:                  -1.268
REMARK UNBOUND:                -1.474
REMARK SMILES CC(=O)CCC=C(C)CCC=C(C)CCC=C(C)C
REMARK SMILES IDX 10 1 11 2 12 3 13 4 14 5 15 6 16 7 18 8 17 9 19 10 9 11 7 12
REMARK SMILES IDX 6 13 8 14 5 15 4 16 2 17 3 18 1 19
REMARK H PARENT
REMARK Flexibility Score: inf
ROOT
ATOM      1  C   UNL     1       2.090  16.729  -6.513  1.00  0.00     0.032 C 
ENDROOT
BRANCH   1   2
ATOM      2  C   UNL     1       2.891  16.444  -7.757  1.00  0.00    -0.028 C 
ATOM      3  C   UNL     1       4.125  15.888  -7.764  1.00  0.00    -0.077 C 
ATOM      4  C   UNL     1       4.852  15.546  -6.485  1.00  0.00     0.039 C 
BRANCH   3   5
ATOM      5  C   UNL     1       4.801  15.618  -9.090  1.00  0.00     0.034 C 
BRANCH   5   6
ATOM      6  C   UNL     1       5.385  14.200  -9.125  1.00  0.00     0.032 C 
BRANCH   6   7
ATOM      7  C   UNL     1       4.284  13.169  -9.121  1.00  0.00    -0.028 C 
ATOM      8  C   UNL     1       3.116  11.110  -8.462  1.00  0.00     0.039 C 
ATOM      9  C   UNL     1       4.309  12.029  -8.396  1.00  0.00    -0.080 C 
ATOM     10  C   UNL     1       5.496  11.649  -7.542  1.00  0.00     0.039 C 
ENDBRANCH   6   7
ENDBRANCH   5   6
ENDBRANCH   3   5
ENDBRANCH   1   2
BRANCH   1  11
ATOM     11  C   UNL     1       1.833  18.234  -6.365  1.00  0.00     0.034 C 
BRANCH  11  12
ATOM     12  C   UNL     1       3.124  19.026  -6.450  1.00  0.00    -0.077 C 
ATOM     13  C   UNL     1       3.409  19.878  -7.463  1.00  0.00    -0.028 C 
ATOM     14  C   UNL     1       4.145  18.868  -5.352  1.00  0.00     0.039 C 
BRANCH  13  15
ATOM     15  C   UNL     1       2.532  20.148  -8.662  1.00  0.00     0.035 C 
BRANCH  15  16
ATOM     16  C   UNL     1       2.497  21.649  -8.964  1.00  0.00     0.079 C 
BRANCH  16  17
ATOM     17  C   UNL     1       1.398  22.323  -8.189  1.00  0.00     0.130 C 
ATOM     18  O   UNL     1       1.154  21.966  -7.048  1.00  0.00    -0.300 OA
ATOM     19  C   UNL     1       0.613  23.441  -8.806  1.00  0.00     0.087 C 
ENDBRANCH  16  17
ENDBRANCH  15  16
ENDBRANCH  13  15
ENDBRANCH  11  12
ENDBRANCH   1  11
TORSDOF 9
ENDMDL
