MODEL 1
REMARK VINA RESULT:    -4.004      0.000      0.000
REMARK INTER + INTRA:          -4.382
REMARK INTER:                  -4.355
REMARK INTRA:                  -0.027
REMARK UNBOUND:                -0.027
REMARK SMILES O=C([O-])c1ccc(O)cc1
REMARK SMILES IDX 7 1 6 2 9 3 5 4 10 5 4 6 8 7 2 9 1 10 3 11
REMARK H PARENT 8 8
REMARK Flexibility Score: inf
ROOT
ATOM      1  C   UNL     1     171.165 186.435  32.717  1.00  0.00     0.115 A 
ATOM      2  C   UNL     1     170.034 187.226  32.954  1.00  0.00     0.047 A 
ATOM      3  C   UNL     1     171.204 185.597  31.599  1.00  0.00     0.047 A 
ATOM      4  C   UNL     1     168.947 187.179  32.075  1.00  0.00     0.014 A 
ATOM      5  C   UNL     1     170.120 185.548  30.718  1.00  0.00     0.014 A 
ATOM      6  C   UNL     1     168.979 186.339  30.947  1.00  0.00    -0.003 A 
ENDROOT
BRANCH   1   7
ATOM      7  O   UNL     1     172.254 186.473  33.586  1.00  0.00    -0.508 OA
ATOM      8  H   UNL     1     172.434 187.279  34.175  1.00  0.00     0.293 HD
ENDBRANCH   1   7
BRANCH   6   9
ATOM      9  C   UNL     1     167.828 186.292  30.019  1.00  0.00     0.071 C 
ATOM     10  O   UNL     1     166.983 185.361  30.094  1.00  0.00    -0.545 OA
ATOM     11  O   UNL     1     167.663 187.275  29.051  1.00  0.00    -0.545 OA
ENDBRANCH   6   9
TORSDOF 2
ENDMDL
MODEL 2
REMARK VINA RESULT:    -3.996      0.070      1.534
REMARK INTER + INTRA:          -4.373
REMARK INTER:                  -4.346
REMARK INTRA:                  -0.027
REMARK UNBOUND:                -0.027
REMARK SMILES O=C([O-])c1ccc(O)cc1
REMARK SMILES IDX 7 1 6 2 9 3 5 4 10 5 4 6 8 7 2 9 1 10 3 11
REMARK H PARENT 8 8
REMARK Flexibility Score: inf
ROOT
ATOM      1  C   UNL     1     171.187 186.379  32.775  1.00  0.00     0.115 A 
ATOM      2  C   UNL     1     171.221 185.553  31.645  1.00  0.00     0.047 A 
ATOM      3  C   UNL     1     170.068 187.181  33.014  1.00  0.00     0.047 A 
ATOM      4  C   UNL     1     170.140 185.529  30.758  1.00  0.00     0.014 A 
ATOM      5  C   UNL     1     168.984 187.159  32.131  1.00  0.00     0.014 A 
ATOM      6  C   UNL     1     169.009 186.332  30.993  1.00  0.00    -0.003 A 
ENDROOT
BRANCH   1   7
ATOM      7  O   UNL     1     172.259 186.412  33.665  1.00  0.00    -0.508 OA
ATOM      8  H   UNL     1     172.897 185.629  33.755  1.00  0.00     0.293 HD
ENDBRANCH   1   7
BRANCH   6   9
ATOM      9  C   UNL     1     167.867 186.304  30.054  1.00  0.00     0.071 C 
ATOM     10  O   UNL     1     167.016 185.376  30.107  1.00  0.00    -0.545 OA
ATOM     11  O   UNL     1     167.716 187.302  29.097  1.00  0.00    -0.545 OA
ENDBRANCH   6   9
TORSDOF 2
ENDMDL
MODEL 3
REMARK VINA RESULT:    -3.750      2.257      4.885
REMARK INTER + INTRA:          -4.106
REMARK INTER:                  -4.077
REMARK INTRA:                  -0.029
REMARK UNBOUND:                -0.027
REMARK SMILES O=C([O-])c1ccc(O)cc1
REMARK SMILES IDX 7 1 6 2 9 3 5 4 10 5 4 6 8 7 2 9 1 10 3 11
REMARK H PARENT 8 8
REMARK Flexibility Score: inf
ROOT
ATOM      1  C   UNL     1     169.898 186.284  31.774  1.00  0.00     0.115 A 
ATOM      2  C   UNL     1     170.021 184.985  31.264  1.00  0.00     0.047 A 
ATOM      3  C   UNL     1     170.783 186.727  32.761  1.00  0.00     0.047 A 
ATOM      4  C   UNL     1     171.025 184.135  31.738  1.00  0.00     0.014 A 
ATOM      5  C   UNL     1     171.789 185.881  33.237  1.00  0.00     0.014 A 
ATOM      6  C   UNL     1     171.920 184.574  32.730  1.00  0.00    -0.003 A 
ENDROOT
BRANCH   1   7
ATOM      7  O   UNL     1     168.902 187.139  31.310  1.00  0.00    -0.508 OA
ATOM      8  H   UNL     1     168.626 187.151  30.334  1.00  0.00     0.293 HD
ENDBRANCH   1   7
BRANCH   6   9
ATOM      9  C   UNL     1     172.981 183.673  33.230  1.00  0.00     0.071 C 
ATOM     10  O   UNL     1     173.055 183.389  34.455  1.00  0.00    -0.545 OA
ATOM     11  O   UNL     1     173.913 183.128  32.353  1.00  0.00    -0.545 OA
ENDBRANCH   6   9
TORSDOF 2
ENDMDL
MODEL 4
REMARK VINA RESULT:    -3.742      1.227      4.168
REMARK INTER + INTRA:          -4.097
REMARK INTER:                  -4.061
REMARK INTRA:                  -0.036
REMARK UNBOUND:                -0.027
REMARK SMILES O=C([O-])c1ccc(O)cc1
REMARK SMILES IDX 7 1 6 2 9 3 5 4 10 5 4 6 8 7 2 9 1 10 3 11
REMARK H PARENT 8 8
REMARK Flexibility Score: inf
ROOT
ATOM      1  C   UNL     1     168.433 185.822  30.211  1.00  0.00     0.115 A 
ATOM      2  C   UNL     1     167.830 186.463  31.301  1.00  0.00     0.047 A 
ATOM      3  C   UNL     1     169.764 185.406  30.301  1.00  0.00     0.047 A 
ATOM      4  C   UNL     1     168.557 186.686  32.475  1.00  0.00     0.014 A 
ATOM      5  C   UNL     1     170.494 185.627  31.473  1.00  0.00     0.014 A 
ATOM      6  C   UNL     1     169.897 186.270  32.573  1.00  0.00    -0.003 A 
ENDROOT
BRANCH   1   7
ATOM      7  O   UNL     1     167.720 185.595  29.036  1.00  0.00    -0.508 OA
ATOM      8  H   UNL     1     167.543 184.656  28.696  1.00  0.00     0.293 HD
ENDBRANCH   1   7
BRANCH   6   9
ATOM      9  C   UNL     1     170.662 186.506  33.817  1.00  0.00     0.071 C 
ATOM     10  O   UNL     1     171.817 186.023  33.959  1.00  0.00    -0.545 OA
ATOM     11  O   UNL     1     170.117 187.265  34.846  1.00  0.00    -0.545 OA
ENDBRANCH   6   9
TORSDOF 2
ENDMDL
MODEL 5
REMARK VINA RESULT:    -3.723      1.167      4.436
REMARK INTER + INTRA:          -4.077
REMARK INTER:                  -4.041
REMARK INTRA:                  -0.036
REMARK UNBOUND:                -0.027
REMARK SMILES O=C([O-])c1ccc(O)cc1
REMARK SMILES IDX 7 1 6 2 9 3 5 4 10 5 4 6 8 7 2 9 1 10 3 11
REMARK H PARENT 8 8
REMARK Flexibility Score: inf
ROOT
ATOM      1  C   UNL     1     168.432 185.834  30.224  1.00  0.00     0.115 A 
ATOM      2  C   UNL     1     169.768 185.412  30.241  1.00  0.00     0.047 A 
ATOM      3  C   UNL     1     167.878 186.428  31.361  1.00  0.00     0.047 A 
ATOM      4  C   UNL     1     170.545 185.584  31.391  1.00  0.00     0.014 A 
ATOM      5  C   UNL     1     168.652 186.603  32.512  1.00  0.00     0.014 A 
ATOM      6  C   UNL     1     169.995 186.183  32.539  1.00  0.00    -0.003 A 
ENDROOT
BRANCH   1   7
ATOM      7  O   UNL     1     167.648 185.667  29.084  1.00  0.00    -0.508 OA
ATOM      8  H   UNL     1     167.381 184.745  28.755  1.00  0.00     0.293 HD
ENDBRANCH   1   7
BRANCH   6   9
ATOM      9  C   UNL     1     170.820 186.365  33.753  1.00  0.00     0.071 C 
ATOM     10  O   UNL     1     171.964 185.845  33.833  1.00  0.00    -0.545 OA
ATOM     11  O   UNL     1     170.342 187.112  34.824  1.00  0.00    -0.545 OA
ENDBRANCH   6   9
TORSDOF 2
ENDMDL
MODEL 6
REMARK VINA RESULT:    -3.693      1.541      1.775
REMARK INTER + INTRA:          -4.044
REMARK INTER:                  -4.009
REMARK INTRA:                  -0.035
REMARK UNBOUND:                -0.027
REMARK SMILES O=C([O-])c1ccc(O)cc1
REMARK SMILES IDX 7 1 6 2 9 3 5 4 10 5 4 6 8 7 2 9 1 10 3 11
REMARK H PARENT 8 8
REMARK Flexibility Score: inf
ROOT
ATOM      1  C   UNL     1     172.015 184.815  33.061  1.00  0.00     0.115 A 
ATOM      2  C   UNL     1     171.626 186.136  33.314  1.00  0.00     0.047 A 
ATOM      3  C   UNL     1     171.324 184.059  32.111  1.00  0.00     0.047 A 
ATOM      4  C   UNL     1     170.551 186.698  32.618  1.00  0.00     0.014 A 
ATOM      5  C   UNL     1     170.249 184.617  31.412  1.00  0.00     0.014 A 
ATOM      6  C   UNL     1     169.851 185.944  31.659  1.00  0.00    -0.003 A 
ENDROOT
BRANCH   1   7
ATOM      7  O   UNL     1     173.084 184.244  33.748  1.00  0.00    -0.508 OA
ATOM      8  H   UNL     1     172.944 183.721  34.606  1.00  0.00     0.293 HD
ENDBRANCH   1   7
BRANCH   6   9
ATOM      9  C   UNL     1     168.715 186.541  30.925  1.00  0.00     0.071 C 
ATOM     10  O   UNL     1     168.329 186.049  29.831  1.00  0.00    -0.545 OA
ATOM     11  O   UNL     1     168.055 187.656  31.431  1.00  0.00    -0.545 OA
ENDBRANCH   6   9
TORSDOF 2
ENDMDL
MODEL 7
REMARK VINA RESULT:    -3.464      6.771      8.508
REMARK INTER + INTRA:          -3.795
REMARK INTER:                  -3.767
REMARK INTRA:                  -0.028
REMARK UNBOUND:                -0.027
REMARK SMILES O=C([O-])c1ccc(O)cc1
REMARK SMILES IDX 7 1 6 2 9 3 5 4 10 5 4 6 8 7 2 9 1 10 3 11
REMARK H PARENT 8 8
REMARK Flexibility Score: inf
ROOT
ATOM      1  C   UNL     1     164.417 182.749  30.223  1.00  0.00     0.115 A 
ATOM      2  C   UNL     1     163.165 182.212  29.897  1.00  0.00     0.047 A 
ATOM      3  C   UNL     1     165.091 182.297  31.360  1.00  0.00     0.047 A 
ATOM      4  C   UNL     1     162.591 181.227  30.706  1.00  0.00     0.014 A 
ATOM      5  C   UNL     1     164.521 181.311  32.171  1.00  0.00     0.014 A 
ATOM      6  C   UNL     1     163.263 180.765  31.852  1.00  0.00    -0.003 A 
ENDROOT
BRANCH   1   7
ATOM      7  O   UNL     1     164.999 183.732  29.424  1.00  0.00    -0.508 OA
ATOM      8  H   UNL     1     164.736 183.849  28.452  1.00  0.00     0.293 HD
ENDBRANCH   1   7
BRANCH   6   9
ATOM      9  C   UNL     1     162.654 179.722  32.706  1.00  0.00     0.071 C 
ATOM     10  O   UNL     1     161.650 179.985  33.420  1.00  0.00    -0.545 OA
ATOM     11  O   UNL     1     163.181 178.436  32.732  1.00  0.00    -0.545 OA
ENDBRANCH   6   9
TORSDOF 2
ENDMDL
MODEL 8
REMARK VINA RESULT:    -3.451      2.196      4.543
REMARK INTER + INTRA:          -3.780
REMARK INTER:                  -3.747
REMARK INTRA:                  -0.034
REMARK UNBOUND:                -0.027
REMARK SMILES O=C([O-])c1ccc(O)cc1
REMARK SMILES IDX 7 1 6 2 9 3 5 4 10 5 4 6 8 7 2 9 1 10 3 11
REMARK H PARENT 8 8
REMARK Flexibility Score: inf
ROOT
ATOM      1  C   UNL     1     168.459 185.739  30.272  1.00  0.00     0.115 A 
ATOM      2  C   UNL     1     169.815 185.389  30.277  1.00  0.00     0.047 A 
ATOM      3  C   UNL     1     167.681 185.516  31.411  1.00  0.00     0.047 A 
ATOM      4  C   UNL     1     170.390 184.818  31.418  1.00  0.00     0.014 A 
ATOM      5  C   UNL     1     168.252 184.947  32.554  1.00  0.00     0.014 A 
ATOM      6  C   UNL     1     169.614 184.592  32.569  1.00  0.00    -0.003 A 
ENDROOT
BRANCH   1   7
ATOM      7  O   UNL     1     167.876 186.307  29.142  1.00  0.00    -0.508 OA
ATOM      8  H   UNL     1     168.439 186.699  28.395  1.00  0.00     0.293 HD
ENDBRANCH   1   7
BRANCH   6   9
ATOM      9  C   UNL     1     170.224 183.989  33.774  1.00  0.00     0.071 C 
ATOM     10  O   UNL     1     169.788 184.271  34.922  1.00  0.00    -0.545 OA
ATOM     11  O   UNL     1     171.289 183.103  33.656  1.00  0.00    -0.545 OA
ENDBRANCH   6   9
TORSDOF 2
ENDMDL
MODEL 9
REMARK VINA RESULT:    -3.446      6.744      8.469
REMARK INTER + INTRA:          -3.775
REMARK INTER:                  -3.747
REMARK INTRA:                  -0.028
REMARK UNBOUND:                -0.027
REMARK SMILES O=C([O-])c1ccc(O)cc1
REMARK SMILES IDX 7 1 6 2 9 3 5 4 10 5 4 6 8 7 2 9 1 10 3 11
REMARK H PARENT 8 8
REMARK Flexibility Score: inf
ROOT
ATOM      1  C   UNL     1     164.482 182.770  30.263  1.00  0.00     0.115 A 
ATOM      2  C   UNL     1     165.098 182.341  31.445  1.00  0.00     0.047 A 
ATOM      3  C   UNL     1     163.260 182.214  29.876  1.00  0.00     0.047 A 
ATOM      4  C   UNL     1     164.493 181.358  32.236  1.00  0.00     0.014 A 
ATOM      5  C   UNL     1     162.652 181.232  30.665  1.00  0.00     0.014 A 
ATOM      6  C   UNL     1     163.263 180.794  31.854  1.00  0.00    -0.003 A 
ENDROOT
BRANCH   1   7
ATOM      7  O   UNL     1     165.075 183.748  29.467  1.00  0.00    -0.508 OA
ATOM      8  H   UNL     1     165.758 183.510  28.756  1.00  0.00     0.293 HD
ENDBRANCH   1   7
BRANCH   6   9
ATOM      9  C   UNL     1     162.625 179.756  32.693  1.00  0.00     0.071 C 
ATOM     10  O   UNL     1     161.593 180.021  33.365  1.00  0.00    -0.545 OA
ATOM     11  O   UNL     1     163.157 178.472  32.752  1.00  0.00    -0.545 OA
ENDBRANCH   6   9
TORSDOF 2
ENDMDL
