MODEL 1
REMARK VINA RESULT:    -4.295      0.000      0.000
REMARK INTER + INTRA:          -8.887
REMARK INTER:                  -7.308
REMARK INTRA:                  -1.580
REMARK UNBOUND:                -1.580
REMARK SMILES CCCCCCCCCCCCCC(=O)[O-]
REMARK SMILES IDX 8 1 9 2 10 3 11 4 12 5 13 6 14 7 15 8 16 9 7 10 6 11 5 12
REMARK SMILES IDX 4 13 3 14 2 15 1 16
REMARK H PARENT
REMARK Flexibility Score: inf
ROOT
ATOM      1  C   UNL     1      10.863  28.662 -14.275  1.00  0.00     0.000 C 
ENDROOT
BRANCH   1   2
ATOM      2  C   UNL     1      10.322  28.510 -12.847  1.00  0.00     0.000 C 
BRANCH   2   3
ATOM      3  C   UNL     1       8.911  29.097 -12.676  1.00  0.00     0.000 C 
BRANCH   3   4
ATOM      4  C   UNL     1       7.788  28.041 -12.771  1.00  0.00     0.000 C 
BRANCH   4   5
ATOM      5  C   UNL     1       6.897  28.253 -14.009  1.00  0.00     0.006 C 
BRANCH   5   6
ATOM      6  C   UNL     1       7.425  29.367 -14.921  1.00  0.00     0.053 C 
BRANCH   6   7
ATOM      7  C   UNL     1       6.468  30.515 -15.007  1.00  0.00     0.041 C 
ATOM      8  O   UNL     1       5.231  30.323 -14.868  1.00  0.00    -0.550 OA
ATOM      9  O   UNL     1       6.939  31.795 -15.276  1.00  0.00    -0.550 OA
ENDBRANCH   6   7
ENDBRANCH   5   6
ENDBRANCH   4   5
ENDBRANCH   3   4
ENDBRANCH   2   3
ENDBRANCH   1   2
BRANCH   1  10
ATOM     10  C   UNL     1      10.980  27.298 -14.969  1.00  0.00     0.000 C 
BRANCH  10  11
ATOM     11  C   UNL     1      10.848  26.116 -13.992  1.00  0.00    -0.000 C 
BRANCH  11  12
ATOM     12  C   UNL     1       9.652  25.178 -14.254  1.00  0.00    -0.000 C 
BRANCH  12  13
ATOM     13  C   UNL     1       9.210  24.332 -13.048  1.00  0.00    -0.000 C 
BRANCH  13  14
ATOM     14  C   UNL     1       9.542  24.996 -11.700  1.00  0.00    -0.000 C 
BRANCH  14  15
ATOM     15  C   UNL     1       8.666  24.470 -10.553  1.00  0.00    -0.003 C 
ATOM     16  C   UNL     1       8.277  23.002 -10.735  1.00  0.00     0.004 C 
ENDBRANCH  14  15
ENDBRANCH  13  14
ENDBRANCH  12  13
ENDBRANCH  11  12
ENDBRANCH  10  11
ENDBRANCH   1  10
TORSDOF 12
ENDMDL
MODEL 2
REMARK VINA RESULT:    -4.252      1.470      2.183
REMARK INTER + INTRA:          -8.814
REMARK INTER:                  -7.575
REMARK INTRA:                  -1.240
REMARK UNBOUND:                -1.580
REMARK SMILES CCCCCCCCCCCCCC(=O)[O-]
REMARK SMILES IDX 8 1 9 2 10 3 11 4 12 5 13 6 14 7 15 8 16 9 7 10 6 11 5 12
REMARK SMILES IDX 4 13 3 14 2 15 1 16
REMARK H PARENT
REMARK Flexibility Score: inf
ROOT
ATOM      1  C   UNL     1       9.273  28.390 -12.718  1.00  0.00     0.000 C 
ENDROOT
BRANCH   1   2
ATOM      2  C   UNL     1       7.904  29.043 -12.947  1.00  0.00     0.000 C 
BRANCH   2   3
ATOM      3  C   UNL     1       7.015  28.244 -13.915  1.00  0.00     0.000 C 
BRANCH   3   4
ATOM      4  C   UNL     1       6.497  29.076 -15.108  1.00  0.00     0.000 C 
BRANCH   4   5
ATOM      5  C   UNL     1       6.782  30.579 -14.934  1.00  0.00     0.006 C 
BRANCH   5   6
ATOM      6  C   UNL     1       5.592  31.450 -15.358  1.00  0.00     0.053 C 
BRANCH   6   7
ATOM      7  C   UNL     1       5.961  32.397 -16.457  1.00  0.00     0.041 C 
ATOM      8  O   UNL     1       5.867  32.040 -17.661  1.00  0.00    -0.550 OA
ATOM      9  O   UNL     1       6.442  33.665 -16.150  1.00  0.00    -0.550 OA
ENDBRANCH   6   7
ENDBRANCH   5   6
ENDBRANCH   4   5
ENDBRANCH   3   4
ENDBRANCH   2   3
ENDBRANCH   1   2
BRANCH   1  10
ATOM     10  C   UNL     1       9.847  27.835 -14.030  1.00  0.00     0.000 C 
BRANCH  10  11
ATOM     11  C   UNL     1      10.693  26.567 -13.824  1.00  0.00    -0.000 C 
BRANCH  11  12
ATOM     12  C   UNL     1      10.219  25.327 -14.612  1.00  0.00    -0.000 C 
BRANCH  12  13
ATOM     13  C   UNL     1       9.334  24.351 -13.819  1.00  0.00    -0.000 C 
BRANCH  13  14
ATOM     14  C   UNL     1       9.233  24.714 -12.327  1.00  0.00    -0.000 C 
BRANCH  14  15
ATOM     15  C   UNL     1       7.893  24.293 -11.707  1.00  0.00    -0.003 C 
ATOM     16  C   UNL     1       6.692  24.906 -12.429  1.00  0.00     0.004 C 
ENDBRANCH  14  15
ENDBRANCH  13  14
ENDBRANCH  12  13
ENDBRANCH  11  12
ENDBRANCH  10  11
ENDBRANCH   1  10
TORSDOF 12
ENDMDL
MODEL 3
REMARK VINA RESULT:    -4.195     10.365     12.466
REMARK INTER + INTRA:          -8.717
REMARK INTER:                  -6.869
REMARK INTRA:                  -1.848
REMARK UNBOUND:                -1.580
REMARK SMILES CCCCCCCCCCCCCC(=O)[O-]
REMARK SMILES IDX 8 1 9 2 10 3 11 4 12 5 13 6 14 7 15 8 16 9 7 10 6 11 5 12
REMARK SMILES IDX 4 13 3 14 2 15 1 16
REMARK H PARENT
REMARK Flexibility Score: inf
ROOT
ATOM      1  C   UNL     1       2.082  21.761  -7.750  1.00  0.00     0.000 C 
ENDROOT
BRANCH   1   2
ATOM      2  C   UNL     1       3.214  20.887  -8.304  1.00  0.00     0.000 C 
BRANCH   2   3
ATOM      3  C   UNL     1       2.966  19.383  -8.099  1.00  0.00     0.000 C 
BRANCH   3   4
ATOM      4  C   UNL     1       3.210  18.538  -9.368  1.00  0.00     0.000 C 
BRANCH   4   5
ATOM      5  C   UNL     1       3.200  19.395 -10.646  1.00  0.00     0.006 C 
BRANCH   5   6
ATOM      6  C   UNL     1       2.102  18.963 -11.627  1.00  0.00     0.053 C 
BRANCH   6   7
ATOM      7  C   UNL     1       0.912  19.869 -11.564  1.00  0.00     0.041 C 
ATOM      8  O   UNL     1      -0.220  19.455 -11.927  1.00  0.00    -0.550 OA
ATOM      9  O   UNL     1       1.061  21.184 -11.138  1.00  0.00    -0.550 OA
ENDBRANCH   6   7
ENDBRANCH   5   6
ENDBRANCH   4   5
ENDBRANCH   3   4
ENDBRANCH   2   3
ENDBRANCH   1   2
BRANCH   1  10
ATOM     10  C   UNL     1       0.846  20.914  -7.414  1.00  0.00     0.000 C 
BRANCH  10  11
ATOM     11  C   UNL     1       0.367  21.101  -5.964  1.00  0.00    -0.000 C 
BRANCH  11  12
ATOM     12  C   UNL     1      -0.035  19.803  -5.233  1.00  0.00    -0.000 C 
BRANCH  12  13
ATOM     13  C   UNL     1       1.107  18.795  -5.020  1.00  0.00    -0.000 C 
BRANCH  13  14
ATOM     14  C   UNL     1       0.898  17.484  -5.798  1.00  0.00    -0.000 C 
BRANCH  14  15
ATOM     15  C   UNL     1      -0.420  17.471  -6.586  1.00  0.00    -0.003 C 
ATOM     16  C   UNL     1      -0.203  17.376  -8.097  1.00  0.00     0.004 C 
ENDBRANCH  14  15
ENDBRANCH  13  14
ENDBRANCH  12  13
ENDBRANCH  11  12
ENDBRANCH  10  11
ENDBRANCH   1  10
TORSDOF 12
ENDMDL
MODEL 4
REMARK VINA RESULT:    -4.188      8.661     10.857
REMARK INTER + INTRA:          -8.705
REMARK INTER:                  -8.013
REMARK INTRA:                  -0.692
REMARK UNBOUND:                -1.580
REMARK SMILES CCCCCCCCCCCCCC(=O)[O-]
REMARK SMILES IDX 8 1 9 2 10 3 11 4 12 5 13 6 14 7 15 8 16 9 7 10 6 11 5 12
REMARK SMILES IDX 4 13 3 14 2 15 1 16
REMARK H PARENT
REMARK Flexibility Score: inf
ROOT
ATOM      1  C   UNL     1       2.866  21.606 -14.992  1.00  0.00     0.000 C 
ENDROOT
BRANCH   1   2
ATOM      2  C   UNL     1       2.930  22.545 -13.780  1.00  0.00     0.000 C 
BRANCH   2   3
ATOM      3  C   UNL     1       2.240  21.962 -12.535  1.00  0.00     0.000 C 
BRANCH   3   4
ATOM      4  C   UNL     1       2.324  20.423 -12.445  1.00  0.00     0.000 C 
BRANCH   4   5
ATOM      5  C   UNL     1       2.234  19.921 -10.993  1.00  0.00     0.006 C 
BRANCH   5   6
ATOM      6  C   UNL     1       3.304  20.551 -10.092  1.00  0.00     0.053 C 
BRANCH   6   7
ATOM      7  C   UNL     1       2.808  20.750  -8.694  1.00  0.00     0.041 C 
ATOM      8  O   UNL     1       2.284  21.845  -8.357  1.00  0.00    -0.550 OA
ATOM      9  O   UNL     1       2.956  19.739  -7.753  1.00  0.00    -0.550 OA
ENDBRANCH   6   7
ENDBRANCH   5   6
ENDBRANCH   4   5
ENDBRANCH   3   4
ENDBRANCH   2   3
ENDBRANCH   1   2
BRANCH   1  10
ATOM     10  C   UNL     1       3.744  22.127 -16.139  1.00  0.00     0.000 C 
BRANCH  10  11
ATOM     11  C   UNL     1       2.924  22.690 -17.313  1.00  0.00    -0.000 C 
BRANCH  11  12
ATOM     12  C   UNL     1       1.448  22.242 -17.355  1.00  0.00    -0.000 C 
BRANCH  12  13
ATOM     13  C   UNL     1       0.955  21.752 -18.728  1.00  0.00    -0.000 C 
BRANCH  13  14
ATOM     14  C   UNL     1       2.106  21.332 -19.659  1.00  0.00    -0.000 C 
BRANCH  14  15
ATOM     15  C   UNL     1       1.981  19.876 -20.130  1.00  0.00    -0.003 C 
ATOM     16  C   UNL     1       3.225  19.388 -20.874  1.00  0.00     0.004 C 
ENDBRANCH  14  15
ENDBRANCH  13  14
ENDBRANCH  12  13
ENDBRANCH  11  12
ENDBRANCH  10  11
ENDBRANCH   1  10
TORSDOF 12
ENDMDL
MODEL 5
REMARK VINA RESULT:    -4.169      1.897      3.251
REMARK INTER + INTRA:          -8.674
REMARK INTER:                  -7.819
REMARK INTRA:                  -0.854
REMARK UNBOUND:                -1.580
REMARK SMILES CCCCCCCCCCCCCC(=O)[O-]
REMARK SMILES IDX 8 1 9 2 10 3 11 4 12 5 13 6 14 7 15 8 16 9 7 10 6 11 5 12
REMARK SMILES IDX 4 13 3 14 2 15 1 16
REMARK H PARENT
REMARK Flexibility Score: inf
ROOT
ATOM      1  C   UNL     1       7.945  30.423 -12.694  1.00  0.00     0.000 C 
ENDROOT
BRANCH   1   2
ATOM      2  C   UNL     1       7.870  30.891 -14.153  1.00  0.00     0.000 C 
BRANCH   2   3
ATOM      3  C   UNL     1       6.888  30.061 -14.998  1.00  0.00     0.000 C 
BRANCH   3   4
ATOM      4  C   UNL     1       5.440  30.595 -14.965  1.00  0.00     0.000 C 
BRANCH   4   5
ATOM      5  C   UNL     1       5.385  32.101 -14.650  1.00  0.00     0.006 C 
BRANCH   5   6
ATOM      6  C   UNL     1       4.979  32.936 -15.871  1.00  0.00     0.053 C 
BRANCH   6   7
ATOM      7  C   UNL     1       6.004  32.864 -16.960  1.00  0.00     0.041 C 
ATOM      8  O   UNL     1       7.107  33.458 -16.833  1.00  0.00    -0.550 OA
ATOM      9  O   UNL     1       5.727  32.170 -18.132  1.00  0.00    -0.550 OA
ENDBRANCH   6   7
ENDBRANCH   5   6
ENDBRANCH   4   5
ENDBRANCH   3   4
ENDBRANCH   2   3
ENDBRANCH   1   2
BRANCH   1  10
ATOM     10  C   UNL     1       7.861  28.893 -12.600  1.00  0.00     0.000 C 
BRANCH  10  11
ATOM     11  C   UNL     1       9.240  28.213 -12.649  1.00  0.00    -0.000 C 
BRANCH  11  12
ATOM     12  C   UNL     1       9.208  26.676 -12.778  1.00  0.00    -0.000 C 
BRANCH  12  13
ATOM     13  C   UNL     1       7.816  26.038 -12.628  1.00  0.00    -0.000 C 
BRANCH  13  14
ATOM     14  C   UNL     1       7.880  24.577 -12.149  1.00  0.00    -0.000 C 
BRANCH  14  15
ATOM     15  C   UNL     1       8.655  24.422 -10.832  1.00  0.00    -0.003 C 
ATOM     16  C   UNL     1       7.959  23.483  -9.845  1.00  0.00     0.004 C 
ENDBRANCH  14  15
ENDBRANCH  13  14
ENDBRANCH  12  13
ENDBRANCH  11  12
ENDBRANCH  10  11
ENDBRANCH   1  10
TORSDOF 12
ENDMDL
MODEL 6
REMARK VINA RESULT:    -4.156      8.572     10.168
REMARK INTER + INTRA:          -8.652
REMARK INTER:                  -8.171
REMARK INTRA:                  -0.481
REMARK UNBOUND:                -1.580
REMARK SMILES CCCCCCCCCCCCCC(=O)[O-]
REMARK SMILES IDX 8 1 9 2 10 3 11 4 12 5 13 6 14 7 15 8 16 9 7 10 6 11 5 12
REMARK SMILES IDX 4 13 3 14 2 15 1 16
REMARK H PARENT
REMARK Flexibility Score: inf
ROOT
ATOM      1  C   UNL     1       2.360  20.365 -13.137  1.00  0.00     0.000 C 
ENDROOT
BRANCH   1   2
ATOM      2  C   UNL     1       2.558  21.863 -13.403  1.00  0.00     0.000 C 
BRANCH   2   3
ATOM      3  C   UNL     1       3.192  22.149 -14.774  1.00  0.00     0.000 C 
BRANCH   3   4
ATOM      4  C   UNL     1       2.387  21.575 -15.960  1.00  0.00     0.000 C 
BRANCH   4   5
ATOM      5  C   UNL     1       2.452  22.486 -17.199  1.00  0.00     0.006 C 
BRANCH   5   6
ATOM      6  C   UNL     1       1.338  22.175 -18.208  1.00  0.00     0.053 C 
BRANCH   6   7
ATOM      7  C   UNL     1       1.866  21.476 -19.421  1.00  0.00     0.041 C 
ATOM      8  O   UNL     1       2.840  21.959 -20.059  1.00  0.00    -0.550 OA
ATOM      9  O   UNL     1       1.261  20.309 -19.870  1.00  0.00    -0.550 OA
ENDBRANCH   6   7
ENDBRANCH   5   6
ENDBRANCH   4   5
ENDBRANCH   3   4
ENDBRANCH   2   3
ENDBRANCH   1   2
BRANCH   1  10
ATOM     10  C   UNL     1       2.254  20.081 -11.632  1.00  0.00     0.000 C 
BRANCH  10  11
ATOM     11  C   UNL     1       1.854  21.322 -10.815  1.00  0.00    -0.000 C 
BRANCH  11  12
ATOM     12  C   UNL     1       2.760  21.629  -9.604  1.00  0.00    -0.000 C 
BRANCH  12  13
ATOM     13  C   UNL     1       2.035  21.699  -8.249  1.00  0.00    -0.000 C 
BRANCH  13  14
ATOM     14  C   UNL     1       2.794  20.966  -7.129  1.00  0.00    -0.000 C 
BRANCH  14  15
ATOM     15  C   UNL     1       1.876  20.552  -5.969  1.00  0.00    -0.003 C 
ATOM     16  C   UNL     1       0.505  21.227  -6.034  1.00  0.00     0.004 C 
ENDBRANCH  14  15
ENDBRANCH  13  14
ENDBRANCH  12  13
ENDBRANCH  11  12
ENDBRANCH  10  11
ENDBRANCH   1  10
TORSDOF 12
ENDMDL
MODEL 7
REMARK VINA RESULT:    -4.120      3.293      6.039
REMARK INTER + INTRA:          -8.590
REMARK INTER:                  -6.940
REMARK INTRA:                  -1.650
REMARK UNBOUND:                -1.580
REMARK SMILES CCCCCCCCCCCCCC(=O)[O-]
REMARK SMILES IDX 8 1 9 2 10 3 11 4 12 5 13 6 14 7 15 8 16 9 7 10 6 11 5 12
REMARK SMILES IDX 4 13 3 14 2 15 1 16
REMARK H PARENT
REMARK Flexibility Score: inf
ROOT
ATOM      1  C   UNL     1      10.214  29.638 -13.986  1.00  0.00     0.000 C 
ENDROOT
BRANCH   1   2
ATOM      2  C   UNL     1       9.500  28.305 -14.244  1.00  0.00     0.000 C 
BRANCH   2   3
ATOM      3  C   UNL     1       9.016  27.625 -12.952  1.00  0.00     0.000 C 
BRANCH   3   4
ATOM      4  C   UNL     1       7.478  27.553 -12.831  1.00  0.00     0.000 C 
BRANCH   4   5
ATOM      5  C   UNL     1       6.957  26.107 -12.921  1.00  0.00     0.006 C 
BRANCH   5   6
ATOM      6  C   UNL     1       8.076  25.073 -12.739  1.00  0.00     0.053 C 
BRANCH   6   7
ATOM      7  C   UNL     1       7.998  24.397 -11.406  1.00  0.00     0.041 C 
ATOM      8  O   UNL     1       9.046  24.185 -10.740  1.00  0.00    -0.550 OA
ATOM      9  O   UNL     1       6.771  23.969 -10.915  1.00  0.00    -0.550 OA
ENDBRANCH   6   7
ENDBRANCH   5   6
ENDBRANCH   4   5
ENDBRANCH   3   4
ENDBRANCH   2   3
ENDBRANCH   1   2
BRANCH   1  10
ATOM     10  C   UNL     1      10.047  30.080 -12.525  1.00  0.00     0.000 C 
BRANCH  10  11
ATOM     11  C   UNL     1       9.223  31.371 -12.381  1.00  0.00    -0.000 C 
BRANCH  11  12
ATOM     12  C   UNL     1       7.698  31.197 -12.536  1.00  0.00    -0.000 C 
BRANCH  12  13
ATOM     13  C   UNL     1       7.045  32.088 -13.607  1.00  0.00    -0.000 C 
BRANCH  13  14
ATOM     14  C   UNL     1       7.015  31.425 -14.996  1.00  0.00    -0.000 C 
BRANCH  14  15
ATOM     15  C   UNL     1       5.937  30.336 -15.105  1.00  0.00    -0.003 C 
ATOM     16  C   UNL     1       6.389  29.142 -15.947  1.00  0.00     0.004 C 
ENDBRANCH  14  15
ENDBRANCH  13  14
ENDBRANCH  12  13
ENDBRANCH  11  12
ENDBRANCH  10  11
ENDBRANCH   1  10
TORSDOF 12
ENDMDL
MODEL 8
REMARK VINA RESULT:    -4.110     10.414     12.590
REMARK INTER + INTRA:          -8.573
REMARK INTER:                  -6.750
REMARK INTRA:                  -1.823
REMARK UNBOUND:                -1.580
REMARK SMILES CCCCCCCCCCCCCC(=O)[O-]
REMARK SMILES IDX 8 1 9 2 10 3 11 4 12 5 13 6 14 7 15 8 16 9 7 10 6 11 5 12
REMARK SMILES IDX 4 13 3 14 2 15 1 16
REMARK H PARENT
REMARK Flexibility Score: inf
ROOT
ATOM      1  C   UNL     1       0.436  18.408  -8.363  1.00  0.00     0.000 C 
ENDROOT
BRANCH   1   2
ATOM      2  C   UNL     1       1.516  17.489  -8.948  1.00  0.00     0.000 C 
BRANCH   2   3
ATOM      3  C   UNL     1       2.943  17.996  -8.680  1.00  0.00     0.000 C 
BRANCH   3   4
ATOM      4  C   UNL     1       3.685  18.457  -9.954  1.00  0.00     0.000 C 
BRANCH   4   5
ATOM      5  C   UNL     1       2.799  18.356 -11.209  1.00  0.00     0.006 C 
BRANCH   5   6
ATOM      6  C   UNL     1       2.540  19.726 -11.849  1.00  0.00     0.053 C 
BRANCH   6   7
ATOM      7  C   UNL     1       1.123  20.170 -11.660  1.00  0.00     0.041 C 
ATOM      8  O   UNL     1       0.867  21.366 -11.362  1.00  0.00    -0.550 OA
ATOM      9  O   UNL     1       0.085  19.253 -11.779  1.00  0.00    -0.550 OA
ENDBRANCH   6   7
ENDBRANCH   5   6
ENDBRANCH   4   5
ENDBRANCH   3   4
ENDBRANCH   2   3
ENDBRANCH   1   2
BRANCH   1  10
ATOM     10  C   UNL     1      -0.138  17.826  -7.063  1.00  0.00     0.000 C 
BRANCH  10  11
ATOM     11  C   UNL     1       0.600  18.321  -5.807  1.00  0.00    -0.000 C 
BRANCH  11  12
ATOM     12  C   UNL     1       0.096  19.664  -5.238  1.00  0.00    -0.000 C 
BRANCH  12  13
ATOM     13  C   UNL     1       1.015  20.869  -5.501  1.00  0.00    -0.000 C 
BRANCH  13  14
ATOM     14  C   UNL     1       2.410  20.457  -6.004  1.00  0.00    -0.000 C 
BRANCH  14  15
ATOM     15  C   UNL     1       2.877  21.299  -7.200  1.00  0.00    -0.003 C 
ATOM     16  C   UNL     1       1.725  21.707  -8.119  1.00  0.00     0.004 C 
ENDBRANCH  14  15
ENDBRANCH  13  14
ENDBRANCH  12  13
ENDBRANCH  11  12
ENDBRANCH  10  11
ENDBRANCH   1  10
TORSDOF 12
ENDMDL
MODEL 9
REMARK VINA RESULT:    -4.071      2.845      6.067
REMARK INTER + INTRA:          -8.506
REMARK INTER:                  -6.953
REMARK INTRA:                  -1.553
REMARK UNBOUND:                -1.580
REMARK SMILES CCCCCCCCCCCCCC(=O)[O-]
REMARK SMILES IDX 8 1 9 2 10 3 11 4 12 5 13 6 14 7 15 8 16 9 7 10 6 11 5 12
REMARK SMILES IDX 4 13 3 14 2 15 1 16
REMARK H PARENT
REMARK Flexibility Score: inf
ROOT
ATOM      1  C   UNL     1       8.589  28.911 -12.572  1.00  0.00     0.000 C 
ENDROOT
BRANCH   1   2
ATOM      2  C   UNL     1       9.902  28.608 -13.304  1.00  0.00     0.000 C 
BRANCH   2   3
ATOM      3  C   UNL     1      10.240  27.107 -13.330  1.00  0.00     0.000 C 
BRANCH   3   4
ATOM      4  C   UNL     1      10.658  26.543 -11.955  1.00  0.00     0.000 C 
BRANCH   4   5
ATOM      5  C   UNL     1       9.725  25.412 -11.485  1.00  0.00     0.006 C 
BRANCH   5   6
ATOM      6  C   UNL     1       8.786  24.933 -12.599  1.00  0.00     0.053 C 
BRANCH   6   7
ATOM      7  C   UNL     1       7.412  24.642 -12.082  1.00  0.00     0.041 C 
ATOM      8  O   UNL     1       6.399  25.078 -12.691  1.00  0.00    -0.550 OA
ATOM      9  O   UNL     1       7.250  23.918 -10.907  1.00  0.00    -0.550 OA
ENDBRANCH   6   7
ENDBRANCH   5   6
ENDBRANCH   4   5
ENDBRANCH   3   4
ENDBRANCH   2   3
ENDBRANCH   1   2
BRANCH   1  10
ATOM     10  C   UNL     1       7.381  28.410 -13.377  1.00  0.00     0.000 C 
BRANCH  10  11
ATOM     11  C   UNL     1       7.265  29.076 -14.759  1.00  0.00    -0.000 C 
BRANCH  11  12
ATOM     12  C   UNL     1       5.924  29.789 -15.033  1.00  0.00    -0.000 C 
BRANCH  12  13
ATOM     13  C   UNL     1       5.912  31.295 -14.720  1.00  0.00    -0.000 C 
BRANCH  13  14
ATOM     14  C   UNL     1       7.325  31.882 -14.557  1.00  0.00    -0.000 C 
BRANCH  14  15
ATOM     15  C   UNL     1       7.594  32.380 -13.129  1.00  0.00    -0.003 C 
ATOM     16  C   UNL     1       6.451  32.053 -12.166  1.00  0.00     0.004 C 
ENDBRANCH  14  15
ENDBRANCH  13  14
ENDBRANCH  12  13
ENDBRANCH  11  12
ENDBRANCH  10  11
ENDBRANCH   1  10
TORSDOF 12
ENDMDL
