MODEL 1
REMARK VINA RESULT:    15.597      0.000      0.000
REMARK INTER + INTRA:          21.484
REMARK INTER:                  21.980
REMARK INTRA:                  -0.495
REMARK UNBOUND:                -0.495
REMARK SMILES O=C(C=Cc1ccc(O)cc1)CC(=O)C=Cc1ccc(O)cc1
REMARK SMILES IDX 12 1 2 2 1 3 3 4 4 5 5 6 6 7 7 8 8 9 11 10 10 11 9 12 13 14
REMARK SMILES IDX 14 15 15 16 16 17 17 18 18 19 23 20 19 21 22 22 20 23 21 24
REMARK H PARENT 9 13 21 25
REMARK Flexibility Score: inf
ROOT
ATOM      1  C   UNL     1      -6.089   7.888  15.001  1.00  0.00     0.160 C 
ENDROOT
BRANCH   1   2
ATOM      2  C   UNL     1      -5.752   8.828  16.127  1.00  0.00     0.163 C 
ATOM      3  O   UNL     1      -6.566   9.740  16.428  1.00  0.00    -0.294 OA
BRANCH   2   4
ATOM      4  C   UNL     1      -4.462   8.771  16.842  1.00  0.00     0.048 C 
ATOM      5  C   UNL     1      -3.557   9.761  16.898  1.00  0.00     0.012 C 
BRANCH   5   6
ATOM      6  C   UNL     1      -3.605  11.013  16.110  1.00  0.00    -0.025 A 
ATOM      7  C   UNL     1      -3.009  11.106  14.840  1.00  0.00     0.012 A 
ATOM      8  C   UNL     1      -3.048  12.309  14.130  1.00  0.00     0.047 A 
ATOM      9  C   UNL     1      -3.663  13.437  14.690  1.00  0.00     0.115 A 
ATOM     10  C   UNL     1      -4.193  12.153  16.677  1.00  0.00     0.012 A 
ATOM     11  C   UNL     1      -4.231  13.356  15.965  1.00  0.00     0.047 A 
BRANCH   9  12
ATOM     12  O   UNL     1      -3.711  14.642  13.991  1.00  0.00    -0.508 OA
ATOM     13  H   UNL     1      -2.867  15.097  13.664  1.00  0.00     0.293 HD
ENDBRANCH   9  12
ENDBRANCH   5   6
ENDBRANCH   2   4
ENDBRANCH   1   2
BRANCH   1  14
ATOM     14  C   UNL     1      -6.821   6.687  15.520  1.00  0.00     0.163 C 
ATOM     15  O   UNL     1      -6.603   6.300  16.699  1.00  0.00    -0.294 OA
BRANCH  14  16
ATOM     16  C   UNL     1      -7.701   5.911  14.616  1.00  0.00     0.048 C 
ATOM     17  C   UNL     1      -7.529   4.623  14.280  1.00  0.00     0.012 C 
BRANCH  17  18
ATOM     18  C   UNL     1      -6.547   3.704  14.892  1.00  0.00    -0.025 A 
ATOM     19  C   UNL     1      -5.278   3.505  14.322  1.00  0.00     0.012 A 
ATOM     20  C   UNL     1      -6.849   3.096  16.121  1.00  0.00     0.012 A 
ATOM     21  C   UNL     1      -4.347   2.669  14.946  1.00  0.00     0.047 A 
ATOM     22  C   UNL     1      -5.916   2.260  16.744  1.00  0.00     0.047 A 
ATOM     23  C   UNL     1      -4.663   2.042  16.156  1.00  0.00     0.115 A 
BRANCH  23  24
ATOM     24  O   UNL     1      -3.726   1.213  16.767  1.00  0.00    -0.508 OA
ATOM     25  H   UNL     1      -2.908   1.591  17.232  1.00  0.00     0.293 HD
ENDBRANCH  23  24
ENDBRANCH  17  18
ENDBRANCH  14  16
ENDBRANCH   1  14
TORSDOF 8
ENDMDL
MODEL 2
REMARK VINA RESULT:    15.897      0.227      8.745
REMARK INTER + INTRA:          21.907
REMARK INTER:                  22.370
REMARK INTRA:                  -0.464
REMARK UNBOUND:                -0.495
REMARK SMILES O=C(C=Cc1ccc(O)cc1)CC(=O)C=Cc1ccc(O)cc1
REMARK SMILES IDX 12 1 2 2 1 3 3 4 4 5 5 6 6 7 7 8 8 9 11 10 10 11 9 12 13 14
REMARK SMILES IDX 14 15 15 16 16 17 17 18 18 19 23 20 19 21 22 22 20 23 21 24
REMARK H PARENT 9 13 21 25
REMARK Flexibility Score: inf
ROOT
ATOM      1  C   UNL     1      -6.024   7.925  14.991  1.00  0.00     0.160 C 
ENDROOT
BRANCH   1   2
ATOM      2  C   UNL     1      -6.816   6.739  15.473  1.00  0.00     0.163 C 
ATOM      3  O   UNL     1      -6.690   6.362  16.668  1.00  0.00    -0.294 OA
BRANCH   2   4
ATOM      4  C   UNL     1      -7.680   5.949  14.572  1.00  0.00     0.048 C 
ATOM      5  C   UNL     1      -7.664   4.612  14.451  1.00  0.00     0.012 C 
BRANCH   5   6
ATOM      6  C   UNL     1      -6.664   3.707  15.061  1.00  0.00    -0.025 A 
ATOM      7  C   UNL     1      -6.890   3.094  16.306  1.00  0.00     0.012 A 
ATOM      8  C   UNL     1      -5.917   2.264  16.871  1.00  0.00     0.047 A 
ATOM      9  C   UNL     1      -4.700   2.057  16.208  1.00  0.00     0.115 A 
ATOM     10  C   UNL     1      -5.432   3.519  14.418  1.00  0.00     0.012 A 
ATOM     11  C   UNL     1      -4.459   2.690  14.984  1.00  0.00     0.047 A 
BRANCH   9  12
ATOM     12  O   UNL     1      -3.721   1.230  16.758  1.00  0.00    -0.508 OA
ATOM     13  H   UNL     1      -2.779   1.564  16.921  1.00  0.00     0.293 HD
ENDBRANCH   9  12
ENDBRANCH   5   6
ENDBRANCH   2   4
ENDBRANCH   1   2
BRANCH   1  14
ATOM     14  C   UNL     1      -5.730   8.857  16.127  1.00  0.00     0.163 C 
ATOM     15  O   UNL     1      -6.580   9.735  16.434  1.00  0.00    -0.294 OA
BRANCH  14  16
ATOM     16  C   UNL     1      -4.412   8.808  16.800  1.00  0.00     0.048 C 
ATOM     17  C   UNL     1      -3.468   9.759  16.730  1.00  0.00     0.012 C 
BRANCH  17  18
ATOM     18  C   UNL     1      -3.645  11.097  16.128  1.00  0.00    -0.025 A 
ATOM     19  C   UNL     1      -4.274  12.139  16.834  1.00  0.00     0.012 A 
ATOM     20  C   UNL     1      -3.086  11.363  14.869  1.00  0.00     0.012 A 
ATOM     21  C   UNL     1      -4.385  13.411  16.264  1.00  0.00     0.047 A 
ATOM     22  C   UNL     1      -3.198  12.637  14.300  1.00  0.00     0.047 A 
ATOM     23  C   UNL     1      -3.852  13.663  14.995  1.00  0.00     0.115 A 
BRANCH  23  24
ATOM     24  O   UNL     1      -3.970  14.935  14.440  1.00  0.00    -0.508 OA
ATOM     25  H   UNL     1      -4.511  15.662  14.894  1.00  0.00     0.293 HD
ENDBRANCH  23  24
ENDBRANCH  17  18
ENDBRANCH  14  16
ENDBRANCH   1  14
TORSDOF 8
ENDMDL
MODEL 3
REMARK VINA RESULT:    16.679      3.026      3.968
REMARK INTER + INTRA:          23.009
REMARK INTER:                  22.703
REMARK INTRA:                   0.306
REMARK UNBOUND:                -0.495
REMARK SMILES O=C(C=Cc1ccc(O)cc1)CC(=O)C=Cc1ccc(O)cc1
REMARK SMILES IDX 12 1 2 2 1 3 3 4 4 5 5 6 6 7 7 8 8 9 11 10 10 11 9 12 13 14
REMARK SMILES IDX 14 15 15 16 16 17 17 18 18 19 23 20 19 21 22 22 20 23 21 24
REMARK H PARENT 9 13 21 25
REMARK Flexibility Score: inf
ROOT
ATOM      1  C   UNL     1      -6.263   7.653  15.200  1.00  0.00     0.160 C 
ENDROOT
BRANCH   1   2
ATOM      2  C   UNL     1      -7.137   8.870  15.341  1.00  0.00     0.163 C 
ATOM      3  O   UNL     1      -7.030   9.586  16.372  1.00  0.00    -0.294 OA
BRANCH   2   4
ATOM      4  C   UNL     1      -8.177   9.214  14.351  1.00  0.00     0.048 C 
ATOM      5  C   UNL     1      -9.040  10.237  14.449  1.00  0.00     0.012 C 
BRANCH   5   6
ATOM      6  C   UNL     1      -9.224  11.092  15.643  1.00  0.00    -0.025 A 
ATOM      7  C   UNL     1      -9.835  10.602  16.811  1.00  0.00     0.012 A 
ATOM      8  C   UNL     1     -10.019  11.440  17.915  1.00  0.00     0.047 A 
ATOM      9  C   UNL     1      -9.616  12.781  17.854  1.00  0.00     0.115 A 
ATOM     10  C   UNL     1      -8.850  12.442  15.579  1.00  0.00     0.012 A 
ATOM     11  C   UNL     1      -9.036  13.279  16.684  1.00  0.00     0.047 A 
BRANCH   9  12
ATOM     12  O   UNL     1      -9.792  13.626  18.949  1.00  0.00    -0.508 OA
ATOM     13  H   UNL     1      -9.001  13.995  19.463  1.00  0.00     0.293 HD
ENDBRANCH   9  12
ENDBRANCH   5   6
ENDBRANCH   2   4
ENDBRANCH   1   2
BRANCH   1  14
ATOM     14  C   UNL     1      -7.005   6.421  15.620  1.00  0.00     0.163 C 
ATOM     15  O   UNL     1      -6.917   6.030  16.815  1.00  0.00    -0.294 OA
BRANCH  14  16
ATOM     16  C   UNL     1      -7.740   5.622  14.613  1.00  0.00     0.048 C 
ATOM     17  C   UNL     1      -7.390   4.399  14.185  1.00  0.00     0.012 C 
BRANCH  17  18
ATOM     18  C   UNL     1      -6.326   3.560  14.773  1.00  0.00    -0.025 A 
ATOM     19  C   UNL     1      -5.068   3.436  14.158  1.00  0.00     0.012 A 
ATOM     20  C   UNL     1      -6.540   2.956  16.022  1.00  0.00     0.012 A 
ATOM     21  C   UNL     1      -4.060   2.676  14.759  1.00  0.00     0.047 A 
ATOM     22  C   UNL     1      -5.529   2.196  16.622  1.00  0.00     0.047 A 
ATOM     23  C   UNL     1      -4.287   2.052  15.990  1.00  0.00     0.115 A 
BRANCH  23  24
ATOM     24  O   UNL     1      -3.273   1.299  16.577  1.00  0.00    -0.508 OA
ATOM     25  H   UNL     1      -2.982   0.410  16.188  1.00  0.00     0.293 HD
ENDBRANCH  23  24
ENDBRANCH  17  18
ENDBRANCH  14  16
ENDBRANCH   1  14
TORSDOF 8
ENDMDL
MODEL 4
REMARK VINA RESULT:    17.035      4.455      8.385
REMARK INTER + INTRA:          23.511
REMARK INTER:                  23.572
REMARK INTRA:                  -0.061
REMARK UNBOUND:                -0.495
REMARK SMILES O=C(C=Cc1ccc(O)cc1)CC(=O)C=Cc1ccc(O)cc1
REMARK SMILES IDX 12 1 2 2 1 3 3 4 4 5 5 6 6 7 7 8 8 9 11 10 10 11 9 12 13 14
REMARK SMILES IDX 14 15 15 16 16 17 17 18 18 19 23 20 19 21 22 22 20 23 21 24
REMARK H PARENT 9 13 21 25
REMARK Flexibility Score: inf
ROOT
ATOM      1  C   UNL     1      -2.898   2.637  14.547  1.00  0.00     0.160 C 
ENDROOT
BRANCH   1   2
ATOM      2  C   UNL     1      -2.578   2.348  13.105  1.00  0.00     0.163 C 
ATOM      3  O   UNL     1      -2.354   1.159  12.753  1.00  0.00    -0.294 OA
BRANCH   2   4
ATOM      4  C   UNL     1      -2.435   3.419  12.099  1.00  0.00     0.048 C 
ATOM      5  C   UNL     1      -1.316   3.700  11.412  1.00  0.00     0.012 C 
BRANCH   5   6
ATOM      6  C   UNL     1       0.017   3.110  11.666  1.00  0.00    -0.025 A 
ATOM      7  C   UNL     1       0.988   3.787  12.425  1.00  0.00     0.012 A 
ATOM      8  C   UNL     1       2.249   3.218  12.627  1.00  0.00     0.047 A 
ATOM      9  C   UNL     1       2.559   1.977  12.055  1.00  0.00     0.115 A 
ATOM     10  C   UNL     1       0.344   1.882  11.073  1.00  0.00     0.012 A 
ATOM     11  C   UNL     1       1.606   1.314  11.275  1.00  0.00     0.047 A 
BRANCH   9  12
ATOM     12  O   UNL     1       3.811   1.396  12.251  1.00  0.00    -0.508 OA
ATOM     13  H   UNL     1       3.932   0.390  12.253  1.00  0.00     0.293 HD
ENDBRANCH   9  12
ENDBRANCH   5   6
ENDBRANCH   2   4
ENDBRANCH   1   2
BRANCH   1  14
ATOM     14  C   UNL     1      -4.382   2.694  14.754  1.00  0.00     0.163 C 
ATOM     15  O   UNL     1      -5.121   3.044  13.795  1.00  0.00    -0.294 OA
BRANCH  14  16
ATOM     16  C   UNL     1      -4.949   2.446  16.099  1.00  0.00     0.048 C 
ATOM     17  C   UNL     1      -5.909   3.179  16.685  1.00  0.00     0.012 C 
BRANCH  17  18
ATOM     18  C   UNL     1      -6.697   4.240  16.024  1.00  0.00    -0.025 A 
ATOM     19  C   UNL     1      -6.317   5.591  16.107  1.00  0.00     0.012 A 
ATOM     20  C   UNL     1      -7.787   3.883  15.216  1.00  0.00     0.012 A 
ATOM     21  C   UNL     1      -7.050   6.573  15.432  1.00  0.00     0.047 A 
ATOM     22  C   UNL     1      -8.519   4.867  14.541  1.00  0.00     0.047 A 
ATOM     23  C   UNL     1      -8.153   6.215  14.650  1.00  0.00     0.115 A 
BRANCH  23  24
ATOM     24  O   UNL     1      -8.873   7.204  13.983  1.00  0.00    -0.508 OA
ATOM     25  H   UNL     1      -9.756   7.547  14.340  1.00  0.00     0.293 HD
ENDBRANCH  23  24
ENDBRANCH  17  18
ENDBRANCH  14  16
ENDBRANCH   1  14
TORSDOF 8
ENDMDL
