MODEL 1
REMARK VINA RESULT:    -7.204      0.000      0.000
REMARK INTER + INTRA:         -10.628
REMARK INTER:                  -9.521
REMARK INTRA:                  -1.107
REMARK UNBOUND:                -1.107
REMARK SMILES CC(C)=CCC[C@@H](C(=O)[O-])[C@@H]1CC[C@]2(C)C3=C(CC[C@@]12C)[C@]1(C)CC[C@H](O)C(C)(C)[C@@H]1CC3
REMARK SMILES IDX 6 1 7 2 8 3 9 4 10 5 11 6 12 7 20 8 13 9 14 10 19 11 21 12
REMARK SMILES IDX 15 13 16 14 18 15 17 16 33 17 22 18 32 19 31 20 24 21 23 22
REMARK SMILES IDX 28 23 25 24 26 25 29 26 30 27 27 28 5 30 4 31 2 32 1 33 3 34
REMARK H PARENT 27 29
REMARK Flexibility Score: inf
ROOT
ATOM      1  C   UNL     1      -8.699  35.046   4.153  1.00  0.00     0.014 C 
ENDROOT
BRANCH   1   2
ATOM      2  C   UNL     1      -7.755  35.813   3.189  1.00  0.00     0.039 C 
BRANCH   2   3
ATOM      3  C   UNL     1      -6.305  35.646   3.577  1.00  0.00     0.045 C 
ATOM      4  O   UNL     1      -5.859  34.529   3.955  1.00  0.00    -0.550 OA
ATOM      5  O   UNL     1      -5.441  36.733   3.495  1.00  0.00    -0.550 OA
ENDBRANCH   2   3
BRANCH   2   6
ATOM      6  C   UNL     1      -8.082  35.535   1.672  1.00  0.00     0.004 C 
ATOM      7  C   UNL     1      -6.896  35.456   0.666  1.00  0.00     0.006 C 
ATOM      8  C   UNL     1      -9.059  36.520   0.986  1.00  0.00    -0.020 C 
ATOM      9  C   UNL     1      -7.423  35.993  -0.685  1.00  0.00     0.012 C 
ATOM     10  C   UNL     1      -8.949  36.106  -0.509  1.00  0.00    -0.006 C 
ATOM     11  C   UNL     1     -10.529  36.396   1.412  1.00  0.00     0.012 C 
ATOM     12  C   UNL     1      -8.580  38.000   1.235  1.00  0.00     0.012 C 
ATOM     13  C   UNL     1      -9.560  34.710  -0.875  1.00  0.00     0.017 C 
ATOM     14  C   UNL     1      -9.710  37.109  -1.365  1.00  0.00    -0.064 C 
ATOM     15  C   UNL     1     -11.450  37.231   0.486  1.00  0.00     0.032 C 
ATOM     16  C   UNL     1     -10.944  37.537  -0.951  1.00  0.00    -0.064 C 
ATOM     17  C   UNL     1      -9.236  37.418  -2.757  1.00  0.00     0.032 C 
ATOM     18  C   UNL     1     -11.914  38.240  -1.948  1.00  0.00    -0.008 C 
ATOM     19  C   UNL     1      -9.630  38.842  -3.110  1.00  0.00     0.009 C 
ATOM     20  C   UNL     1     -11.170  39.018  -3.132  1.00  0.00     0.007 C 
ATOM     21  C   UNL     1     -12.830  37.124  -2.511  1.00  0.00     0.014 C 
ATOM     22  C   UNL     1     -12.790  39.256  -1.154  1.00  0.00     0.016 C 
ATOM     23  C   UNL     1     -11.815  38.874  -4.585  1.00  0.00    -0.006 C 
ATOM     24  C   UNL     1     -13.851  37.594  -3.557  1.00  0.00     0.033 C 
ATOM     25  C   UNL     1     -13.368  38.760  -4.455  1.00  0.00     0.120 C 
ATOM     26  C   UNL     1     -11.509  40.162  -5.401  1.00  0.00     0.014 C 
ATOM     27  C   UNL     1     -11.253  37.679  -5.407  1.00  0.00     0.014 C 
BRANCH  25  28
ATOM     28  O   UNL     1     -14.008  38.727  -5.711  1.00  0.00    -0.393 OA
ATOM     29  H   UNL     1     -14.846  39.254  -5.652  1.00  0.00     0.210 HD
ENDBRANCH  25  28
ENDBRANCH   2   6
ENDBRANCH   1   2
BRANCH   1  30
ATOM     30  C   UNL     1      -9.773  35.917   4.838  1.00  0.00     0.028 C 
BRANCH  30  31
ATOM     31  C   UNL     1     -10.833  35.060   5.487  1.00  0.00    -0.028 C 
ATOM     32  C   UNL     1     -12.164  35.268   5.363  1.00  0.00    -0.080 C 
ATOM     33  C   UNL     1     -13.130  34.342   6.054  1.00  0.00     0.039 C 
ATOM     34  C   UNL     1     -12.732  36.357   4.485  1.00  0.00     0.039 C 
ENDBRANCH  30  31
ENDBRANCH   1  30
TORSDOF 6
ENDMDL
MODEL 2
REMARK VINA RESULT:    -7.166      2.524      3.995
REMARK INTER + INTRA:         -10.578
REMARK INTER:                  -9.491
REMARK INTRA:                  -1.087
REMARK UNBOUND:                -1.107
REMARK SMILES CC(C)=CCC[C@@H](C(=O)[O-])[C@@H]1CC[C@]2(C)C3=C(CC[C@@]12C)[C@]1(C)CC[C@H](O)C(C)(C)[C@@H]1CC3
REMARK SMILES IDX 6 1 7 2 8 3 9 4 10 5 11 6 12 7 20 8 13 9 14 10 19 11 21 12
REMARK SMILES IDX 15 13 16 14 18 15 17 16 33 17 22 18 32 19 31 20 24 21 23 22
REMARK SMILES IDX 28 23 25 24 26 25 29 26 30 27 27 28 5 30 4 31 2 32 1 33 3 34
REMARK H PARENT 27 29
REMARK Flexibility Score: inf
ROOT
ATOM      1  C   UNL     1      -4.054  35.247   4.109  1.00  0.00     0.014 C 
ENDROOT
BRANCH   1   2
ATOM      2  C   UNL     1      -4.367  36.591   3.401  1.00  0.00     0.039 C 
BRANCH   2   3
ATOM      3  C   UNL     1      -3.219  37.565   3.519  1.00  0.00     0.045 C 
ATOM      4  O   UNL     1      -3.427  38.790   3.733  1.00  0.00    -0.550 OA
ATOM      5  O   UNL     1      -1.911  37.104   3.415  1.00  0.00    -0.550 OA
ENDBRANCH   2   3
BRANCH   2   6
ATOM      6  C   UNL     1      -4.933  36.392   1.943  1.00  0.00     0.004 C 
ATOM      7  C   UNL     1      -4.132  36.996   0.752  1.00  0.00     0.006 C 
ATOM      8  C   UNL     1      -6.374  36.896   1.688  1.00  0.00    -0.020 C 
ATOM      9  C   UNL     1      -5.169  37.399  -0.322  1.00  0.00     0.012 C 
ATOM     10  C   UNL     1      -6.498  36.774   0.143  1.00  0.00    -0.006 C 
ATOM     11  C   UNL     1      -7.490  36.056   2.327  1.00  0.00     0.012 C 
ATOM     12  C   UNL     1      -6.509  38.385   2.184  1.00  0.00     0.012 C 
ATOM     13  C   UNL     1      -6.543  35.313  -0.423  1.00  0.00     0.017 C 
ATOM     14  C   UNL     1      -7.802  37.415  -0.309  1.00  0.00    -0.064 C 
ATOM     15  C   UNL     1      -8.883  36.485   1.798  1.00  0.00     0.032 C 
ATOM     16  C   UNL     1      -8.946  37.170   0.405  1.00  0.00    -0.064 C 
ATOM     17  C   UNL     1      -7.884  38.082  -1.653  1.00  0.00     0.032 C 
ATOM     18  C   UNL     1     -10.345  37.470  -0.215  1.00  0.00    -0.008 C 
ATOM     19  C   UNL     1      -8.913  39.197  -1.590  1.00  0.00     0.009 C 
ATOM     20  C   UNL     1     -10.332  38.647  -1.298  1.00  0.00     0.007 C 
ATOM     21  C   UNL     1     -10.824  36.140  -0.850  1.00  0.00     0.014 C 
ATOM     22  C   UNL     1     -11.323  37.859   0.935  1.00  0.00     0.016 C 
ATOM     23  C   UNL     1     -11.214  38.410  -2.607  1.00  0.00    -0.006 C 
ATOM     24  C   UNL     1     -12.183  36.217  -1.561  1.00  0.00     0.033 C 
ATOM     25  C   UNL     1     -12.484  37.579  -2.235  1.00  0.00     0.120 C 
ATOM     26  C   UNL     1     -11.699  39.786  -3.143  1.00  0.00     0.014 C 
ATOM     27  C   UNL     1     -10.442  37.723  -3.770  1.00  0.00     0.014 C 
BRANCH  25  28
ATOM     28  O   UNL     1     -13.356  37.417  -3.331  1.00  0.00    -0.393 OA
ATOM     29  H   UNL     1     -12.866  36.956  -4.059  1.00  0.00     0.210 HD
ENDBRANCH  25  28
ENDBRANCH   2   6
ENDBRANCH   1   2
BRANCH   1  30
ATOM     30  C   UNL     1      -5.249  34.611   4.851  1.00  0.00     0.028 C 
BRANCH  30  31
ATOM     31  C   UNL     1      -5.535  33.225   4.329  1.00  0.00    -0.028 C 
ATOM     32  C   UNL     1      -5.037  32.088   4.868  1.00  0.00    -0.080 C 
ATOM     33  C   UNL     1      -5.397  30.757   4.263  1.00  0.00     0.039 C 
ATOM     34  C   UNL     1      -4.187  32.092   6.116  1.00  0.00     0.039 C 
ENDBRANCH  30  31
ENDBRANCH   1  30
TORSDOF 6
ENDMDL
MODEL 3
REMARK VINA RESULT:    -7.037      1.836      2.980
REMARK INTER + INTRA:         -10.407
REMARK INTER:                 -10.030
REMARK INTRA:                  -0.377
REMARK UNBOUND:                -1.107
REMARK SMILES CC(C)=CCC[C@@H](C(=O)[O-])[C@@H]1CC[C@]2(C)C3=C(CC[C@@]12C)[C@]1(C)CC[C@H](O)C(C)(C)[C@@H]1CC3
REMARK SMILES IDX 6 1 7 2 8 3 9 4 10 5 11 6 12 7 20 8 13 9 14 10 19 11 21 12
REMARK SMILES IDX 15 13 16 14 18 15 17 16 33 17 22 18 32 19 31 20 24 21 23 22
REMARK SMILES IDX 28 23 25 24 26 25 29 26 30 27 27 28 5 30 4 31 2 32 1 33 3 34
REMARK H PARENT 27 29
REMARK Flexibility Score: inf
ROOT
ATOM      1  C   UNL     1      -7.360  34.948   3.912  1.00  0.00     0.014 C 
ENDROOT
BRANCH   1   2
ATOM      2  C   UNL     1      -6.931  36.033   2.890  1.00  0.00     0.039 C 
BRANCH   2   3
ATOM      3  C   UNL     1      -5.464  36.371   3.016  1.00  0.00     0.045 C 
ATOM      4  O   UNL     1      -4.579  35.489   2.852  1.00  0.00    -0.550 OA
ATOM      5  O   UNL     1      -5.080  37.679   3.292  1.00  0.00    -0.550 OA
ENDBRANCH   2   3
BRANCH   2   6
ATOM      6  C   UNL     1      -7.425  35.718   1.426  1.00  0.00     0.004 C 
ATOM      7  C   UNL     1      -6.362  35.633   0.292  1.00  0.00     0.006 C 
ATOM      8  C   UNL     1      -8.491  36.674   0.838  1.00  0.00    -0.020 C 
ATOM      9  C   UNL     1      -7.049  36.133  -1.000  1.00  0.00     0.012 C 
ATOM     10  C   UNL     1      -8.547  36.228  -0.651  1.00  0.00    -0.006 C 
ATOM     11  C   UNL     1      -9.900  36.539   1.433  1.00  0.00     0.012 C 
ATOM     12  C   UNL     1      -8.011  38.165   0.999  1.00  0.00     0.012 C 
ATOM     13  C   UNL     1      -9.172  34.816  -0.916  1.00  0.00     0.017 C 
ATOM     14  C   UNL     1      -9.417  37.201  -1.434  1.00  0.00    -0.064 C 
ATOM     15  C   UNL     1     -10.935  37.339   0.602  1.00  0.00     0.032 C 
ATOM     16  C   UNL     1     -10.602  37.620  -0.889  1.00  0.00    -0.064 C 
ATOM     17  C   UNL     1      -9.112  37.485  -2.878  1.00  0.00     0.032 C 
ATOM     18  C   UNL     1     -11.691  38.287  -1.782  1.00  0.00    -0.008 C 
ATOM     19  C   UNL     1      -9.567  38.895  -3.212  1.00  0.00     0.009 C 
ATOM     20  C   UNL     1     -11.102  39.050  -3.060  1.00  0.00     0.007 C 
ATOM     21  C   UNL     1     -12.648  37.147  -2.213  1.00  0.00     0.014 C 
ATOM     22  C   UNL     1     -12.487  39.309  -0.914  1.00  0.00     0.016 C 
ATOM     23  C   UNL     1     -11.907  38.864  -4.425  1.00  0.00    -0.006 C 
ATOM     24  C   UNL     1     -13.791  37.579  -3.144  1.00  0.00     0.033 C 
ATOM     25  C   UNL     1     -13.433  38.731  -4.115  1.00  0.00     0.120 C 
ATOM     26  C   UNL     1     -11.719  40.138  -5.297  1.00  0.00     0.014 C 
ATOM     27  C   UNL     1     -11.424  37.659  -5.282  1.00  0.00     0.014 C 
BRANCH  25  28
ATOM     28  O   UNL     1     -14.212  38.662  -5.288  1.00  0.00    -0.393 OA
ATOM     29  H   UNL     1     -14.281  37.712  -5.565  1.00  0.00     0.210 HD
ENDBRANCH  25  28
ENDBRANCH   2   6
ENDBRANCH   1   2
BRANCH   1  30
ATOM     30  C   UNL     1      -6.384  34.743   5.089  1.00  0.00     0.028 C 
BRANCH  30  31
ATOM     31  C   UNL     1      -5.919  33.309   5.164  1.00  0.00    -0.028 C 
ATOM     32  C   UNL     1      -4.662  32.930   5.494  1.00  0.00    -0.080 C 
ATOM     33  C   UNL     1      -4.314  31.466   5.541  1.00  0.00     0.039 C 
ATOM     34  C   UNL     1      -3.601  33.924   5.900  1.00  0.00     0.039 C 
ENDBRANCH  30  31
ENDBRANCH   1  30
TORSDOF 6
ENDMDL
MODEL 4
REMARK VINA RESULT:    -6.636      2.417      5.200
REMARK INTER + INTRA:          -9.876
REMARK INTER:                  -8.200
REMARK INTRA:                  -1.676
REMARK UNBOUND:                -1.107
REMARK SMILES CC(C)=CCC[C@@H](C(=O)[O-])[C@@H]1CC[C@]2(C)C3=C(CC[C@@]12C)[C@]1(C)CC[C@H](O)C(C)(C)[C@@H]1CC3
REMARK SMILES IDX 6 1 7 2 8 3 9 4 10 5 11 6 12 7 20 8 13 9 14 10 19 11 21 12
REMARK SMILES IDX 15 13 16 14 18 15 17 16 33 17 22 18 32 19 31 20 24 21 23 22
REMARK SMILES IDX 28 23 25 24 26 25 29 26 30 27 27 28 5 30 4 31 2 32 1 33 3 34
REMARK H PARENT 27 29
REMARK Flexibility Score: inf
ROOT
ATOM      1  C   UNL     1      -4.110  37.076   0.748  1.00  0.00     0.014 C 
ENDROOT
BRANCH   1   2
ATOM      2  C   UNL     1      -5.412  36.464   1.328  1.00  0.00     0.039 C 
BRANCH   2   3
ATOM      3  C   UNL     1      -5.215  35.965   2.740  1.00  0.00     0.045 C 
ATOM      4  O   UNL     1      -5.507  34.780   3.055  1.00  0.00    -0.550 OA
ATOM      5  O   UNL     1      -4.682  36.815   3.703  1.00  0.00    -0.550 OA
ENDBRANCH   2   3
BRANCH   2   6
ATOM      6  C   UNL     1      -6.668  37.393   1.112  1.00  0.00     0.004 C 
ATOM      7  C   UNL     1      -7.744  37.451   2.236  1.00  0.00     0.006 C 
ATOM      8  C   UNL     1      -7.506  37.132  -0.163  1.00  0.00    -0.020 C 
ATOM      9  C   UNL     1      -9.104  37.681   1.537  1.00  0.00     0.012 C 
ATOM     10  C   UNL     1      -8.757  38.025   0.077  1.00  0.00    -0.006 C 
ATOM     11  C   UNL     1      -6.853  37.566  -1.483  1.00  0.00     0.012 C 
ATOM     12  C   UNL     1      -7.870  35.602  -0.254  1.00  0.00     0.012 C 
ATOM     13  C   UNL     1      -8.511  39.571   0.013  1.00  0.00     0.017 C 
ATOM     14  C   UNL     1      -9.791  37.742  -1.004  1.00  0.00    -0.064 C 
ATOM     15  C   UNL     1      -7.868  37.508  -2.653  1.00  0.00     0.032 C 
ATOM     16  C   UNL     1      -9.378  37.627  -2.306  1.00  0.00    -0.064 C 
ATOM     17  C   UNL     1     -11.256  37.851  -0.688  1.00  0.00     0.032 C 
ATOM     18  C   UNL     1     -10.405  37.726  -3.473  1.00  0.00    -0.008 C 
ATOM     19  C   UNL     1     -12.027  36.891  -1.576  1.00  0.00     0.009 C 
ATOM     20  C   UNL     1     -11.884  37.261  -3.075  1.00  0.00     0.007 C 
ATOM     21  C   UNL     1     -10.396  39.208  -3.925  1.00  0.00     0.014 C 
ATOM     22  C   UNL     1      -9.903  36.838  -4.653  1.00  0.00     0.016 C 
ATOM     23  C   UNL     1     -13.080  38.156  -3.635  1.00  0.00    -0.006 C 
ATOM     24  C   UNL     1     -11.379  39.544  -5.057  1.00  0.00     0.033 C 
ATOM     25  C   UNL     1     -12.691  38.722  -5.039  1.00  0.00     0.120 C 
ATOM     26  C   UNL     1     -14.334  37.257  -3.827  1.00  0.00     0.014 C 
ATOM     27  C   UNL     1     -13.499  39.314  -2.684  1.00  0.00     0.014 C 
BRANCH  25  28
ATOM     28  O   UNL     1     -13.746  39.445  -5.634  1.00  0.00    -0.393 OA
ATOM     29  H   UNL     1     -13.672  39.357  -6.619  1.00  0.00     0.210 HD
ENDBRANCH  25  28
ENDBRANCH   2   6
ENDBRANCH   1   2
BRANCH   1  30
ATOM     30  C   UNL     1      -4.096  38.617   0.672  1.00  0.00     0.028 C 
BRANCH  30  31
ATOM     31  C   UNL     1      -3.588  39.089  -0.669  1.00  0.00    -0.028 C 
ATOM     32  C   UNL     1      -4.140  40.098  -1.382  1.00  0.00    -0.080 C 
ATOM     33  C   UNL     1      -3.543  40.485  -2.709  1.00  0.00     0.039 C 
ATOM     34  C   UNL     1      -5.295  40.917  -0.858  1.00  0.00     0.039 C 
ENDBRANCH  30  31
ENDBRANCH   1  30
TORSDOF 6
ENDMDL
MODEL 5
REMARK VINA RESULT:    -6.523      8.179     11.908
REMARK INTER + INTRA:          -9.727
REMARK INTER:                  -8.266
REMARK INTRA:                  -1.461
REMARK UNBOUND:                -1.107
REMARK SMILES CC(C)=CCC[C@@H](C(=O)[O-])[C@@H]1CC[C@]2(C)C3=C(CC[C@@]12C)[C@]1(C)CC[C@H](O)C(C)(C)[C@@H]1CC3
REMARK SMILES IDX 6 1 7 2 8 3 9 4 10 5 11 6 12 7 20 8 13 9 14 10 19 11 21 12
REMARK SMILES IDX 15 13 16 14 18 15 17 16 33 17 22 18 32 19 31 20 24 21 23 22
REMARK SMILES IDX 28 23 25 24 26 25 29 26 30 27 27 28 5 30 4 31 2 32 1 33 3 34
REMARK H PARENT 27 29
REMARK Flexibility Score: inf
ROOT
ATOM      1  C   UNL     1     -20.885  35.869   4.719  1.00  0.00     0.014 C 
ENDROOT
BRANCH   1   2
ATOM      2  C   UNL     1     -19.767  35.035   5.400  1.00  0.00     0.039 C 
BRANCH   2   3
ATOM      3  C   UNL     1     -19.874  33.569   5.054  1.00  0.00     0.045 C 
ATOM      4  O   UNL     1     -20.367  33.196   3.955  1.00  0.00    -0.550 OA
ATOM      5  O   UNL     1     -19.398  32.614   5.946  1.00  0.00    -0.550 OA
ENDBRANCH   2   3
BRANCH   2   6
ATOM      6  C   UNL     1     -18.336  35.669   5.209  1.00  0.00     0.004 C 
ATOM      7  C   UNL     1     -17.235  34.809   4.522  1.00  0.00     0.006 C 
ATOM      8  C   UNL     1     -17.633  36.182   6.489  1.00  0.00    -0.020 C 
ATOM      9  C   UNL     1     -15.887  35.226   5.154  1.00  0.00     0.012 C 
ATOM     10  C   UNL     1     -16.198  36.491   5.976  1.00  0.00    -0.006 C 
ATOM     11  C   UNL     1     -18.215  37.468   7.092  1.00  0.00     0.012 C 
ATOM     12  C   UNL     1     -17.646  35.053   7.588  1.00  0.00     0.012 C 
ATOM     13  C   UNL     1     -16.071  37.714   5.005  1.00  0.00     0.017 C 
ATOM     14  C   UNL     1     -15.303  36.829   7.160  1.00  0.00    -0.064 C 
ATOM     15  C   UNL     1     -17.288  38.035   8.198  1.00  0.00     0.032 C 
ATOM     16  C   UNL     1     -15.781  37.661   8.139  1.00  0.00    -0.064 C 
ATOM     17  C   UNL     1     -13.843  36.476   7.122  1.00  0.00     0.032 C 
ATOM     18  C   UNL     1     -14.805  38.340   9.146  1.00  0.00    -0.008 C 
ATOM     19  C   UNL     1     -13.356  36.228   8.539  1.00  0.00     0.009 C 
ATOM     20  C   UNL     1     -13.465  37.505   9.411  1.00  0.00     0.007 C 
ATOM     21  C   UNL     1     -14.480  39.733   8.552  1.00  0.00     0.014 C 
ATOM     22  C   UNL     1     -15.549  38.533  10.503  1.00  0.00     0.016 C 
ATOM     23  C   UNL     1     -12.113  38.349   9.490  1.00  0.00    -0.006 C 
ATOM     24  C   UNL     1     -13.489  40.571   9.375  1.00  0.00     0.033 C 
ATOM     25  C   UNL     1     -12.410  39.748  10.121  1.00  0.00     0.120 C 
ATOM     26  C   UNL     1     -11.117  37.616  10.431  1.00  0.00     0.014 C 
ATOM     27  C   UNL     1     -11.395  38.517   8.120  1.00  0.00     0.014 C 
BRANCH  25  28
ATOM     28  O   UNL     1     -11.237  40.508  10.309  1.00  0.00    -0.393 OA
ATOM     29  H   UNL     1     -11.312  40.994  11.170  1.00  0.00     0.210 HD
ENDBRANCH  25  28
ENDBRANCH   2   6
ENDBRANCH   1   2
BRANCH   1  30
ATOM     30  C   UNL     1     -20.413  36.749   3.544  1.00  0.00     0.028 C 
BRANCH  30  31
ATOM     31  C   UNL     1     -20.950  36.234   2.231  1.00  0.00    -0.028 C 
ATOM     32  C   UNL     1     -20.179  35.776   1.218  1.00  0.00    -0.080 C 
ATOM     33  C   UNL     1     -20.828  35.281  -0.048  1.00  0.00     0.039 C 
ATOM     34  C   UNL     1     -18.677  35.664   1.334  1.00  0.00     0.039 C 
ENDBRANCH  30  31
ENDBRANCH   1  30
TORSDOF 6
ENDMDL
MODEL 6
REMARK VINA RESULT:    -6.502      2.654      4.228
REMARK INTER + INTRA:          -9.700
REMARK INTER:                  -7.947
REMARK INTRA:                  -1.752
REMARK UNBOUND:                -1.107
REMARK SMILES CC(C)=CCC[C@@H](C(=O)[O-])[C@@H]1CC[C@]2(C)C3=C(CC[C@@]12C)[C@]1(C)CC[C@H](O)C(C)(C)[C@@H]1CC3
REMARK SMILES IDX 6 1 7 2 8 3 9 4 10 5 11 6 12 7 20 8 13 9 14 10 19 11 21 12
REMARK SMILES IDX 15 13 16 14 18 15 17 16 33 17 22 18 32 19 31 20 24 21 23 22
REMARK SMILES IDX 28 23 25 24 26 25 29 26 30 27 27 28 5 30 4 31 2 32 1 33 3 34
REMARK H PARENT 27 29
REMARK Flexibility Score: inf
ROOT
ATOM      1  C   UNL     1      -8.878  35.220  -0.470  1.00  0.00     0.014 C 
ENDROOT
BRANCH   1   2
ATOM      2  C   UNL     1      -8.472  36.601  -1.048  1.00  0.00     0.039 C 
BRANCH   2   3
ATOM      3  C   UNL     1      -6.991  36.858  -0.894  1.00  0.00     0.045 C 
ATOM      4  O   UNL     1      -6.150  35.938  -1.080  1.00  0.00    -0.550 OA
ATOM      5  O   UNL     1      -6.544  38.134  -0.567  1.00  0.00    -0.550 OA
ENDBRANCH   2   3
BRANCH   2   6
ATOM      6  C   UNL     1      -9.050  36.848  -2.494  1.00  0.00     0.004 C 
ATOM      7  C   UNL     1      -8.108  37.465  -3.569  1.00  0.00     0.006 C 
ATOM      8  C   UNL     1     -10.317  37.732  -2.588  1.00  0.00    -0.020 C 
ATOM      9  C   UNL     1      -8.998  38.321  -4.501  1.00  0.00     0.012 C 
ATOM     10  C   UNL     1     -10.447  37.961  -4.121  1.00  0.00    -0.006 C 
ATOM     11  C   UNL     1     -11.615  37.081  -2.088  1.00  0.00     0.012 C 
ATOM     12  C   UNL     1     -10.085  39.075  -1.798  1.00  0.00     0.012 C 
ATOM     13  C   UNL     1     -10.846  36.703  -4.965  1.00  0.00     0.017 C 
ATOM     14  C   UNL     1     -11.545  38.981  -4.385  1.00  0.00    -0.064 C 
ATOM     15  C   UNL     1     -12.850  37.937  -2.467  1.00  0.00     0.032 C 
ATOM     16  C   UNL     1     -12.723  38.886  -3.691  1.00  0.00    -0.064 C 
ATOM     17  C   UNL     1     -11.440  39.907  -5.564  1.00  0.00     0.032 C 
ATOM     18  C   UNL     1     -13.995  39.639  -4.185  1.00  0.00    -0.008 C 
ATOM     19  C   UNL     1     -12.161  41.204  -5.240  1.00  0.00     0.009 C 
ATOM     20  C   UNL     1     -13.676  40.973  -5.010  1.00  0.00     0.007 C 
ATOM     21  C   UNL     1     -14.781  38.626  -5.054  1.00  0.00     0.014 C 
ATOM     22  C   UNL     1     -14.861  40.015  -2.944  1.00  0.00     0.016 C 
ATOM     23  C   UNL     1     -14.572  41.231  -6.305  1.00  0.00    -0.006 C 
ATOM     24  C   UNL     1     -16.069  39.179  -5.684  1.00  0.00     0.033 C 
ATOM     25  C   UNL     1     -16.013  40.680  -6.059  1.00  0.00     0.120 C 
ATOM     26  C   UNL     1     -14.692  42.764  -6.536  1.00  0.00     0.014 C 
ATOM     27  C   UNL     1     -13.980  40.627  -7.611  1.00  0.00     0.014 C 
BRANCH  25  28
ATOM     28  O   UNL     1     -16.884  40.964  -7.131  1.00  0.00    -0.393 OA
ATOM     29  H   UNL     1     -17.287  41.858  -6.981  1.00  0.00     0.210 HD
ENDBRANCH  25  28
ENDBRANCH   2   6
ENDBRANCH   1   2
BRANCH   1  30
ATOM     30  C   UNL     1      -9.493  35.264   0.944  1.00  0.00     0.028 C 
BRANCH  30  31
ATOM     31  C   UNL     1     -10.655  36.225   0.999  1.00  0.00    -0.028 C 
ATOM     32  C   UNL     1     -10.620  37.431   1.612  1.00  0.00    -0.080 C 
ATOM     33  C   UNL     1     -11.843  38.309   1.598  1.00  0.00     0.039 C 
ATOM     34  C   UNL     1      -9.364  37.975   2.249  1.00  0.00     0.039 C 
ENDBRANCH  30  31
ENDBRANCH   1  30
TORSDOF 6
ENDMDL
MODEL 7
REMARK VINA RESULT:    -6.447      2.769      4.415
REMARK INTER + INTRA:          -9.627
REMARK INTER:                  -7.975
REMARK INTRA:                  -1.652
REMARK UNBOUND:                -1.107
REMARK SMILES CC(C)=CCC[C@@H](C(=O)[O-])[C@@H]1CC[C@]2(C)C3=C(CC[C@@]12C)[C@]1(C)CC[C@H](O)C(C)(C)[C@@H]1CC3
REMARK SMILES IDX 6 1 7 2 8 3 9 4 10 5 11 6 12 7 20 8 13 9 14 10 19 11 21 12
REMARK SMILES IDX 15 13 16 14 18 15 17 16 33 17 22 18 32 19 31 20 24 21 23 22
REMARK SMILES IDX 28 23 25 24 26 25 29 26 30 27 27 28 5 30 4 31 2 32 1 33 3 34
REMARK H PARENT 27 29
REMARK Flexibility Score: inf
ROOT
ATOM      1  C   UNL     1      -6.133  36.910  -0.298  1.00  0.00     0.014 C 
ENDROOT
BRANCH   1   2
ATOM      2  C   UNL     1      -6.172  37.818  -1.555  1.00  0.00     0.039 C 
BRANCH   2   3
ATOM      3  C   UNL     1      -4.835  37.860  -2.257  1.00  0.00     0.045 C 
ATOM      4  O   UNL     1      -4.250  38.955  -2.474  1.00  0.00    -0.550 OA
ATOM      5  O   UNL     1      -4.226  36.672  -2.649  1.00  0.00    -0.550 OA
ENDBRANCH   2   3
BRANCH   2   6
ATOM      6  C   UNL     1      -7.410  37.516  -2.484  1.00  0.00     0.004 C 
ATOM      7  C   UNL     1      -7.151  37.262  -3.998  1.00  0.00     0.006 C 
ATOM      8  C   UNL     1      -8.539  38.575  -2.493  1.00  0.00    -0.020 C 
ATOM      9  C   UNL     1      -8.388  37.799  -4.756  1.00  0.00     0.012 C 
ATOM     10  C   UNL     1      -9.437  38.089  -3.666  1.00  0.00    -0.006 C 
ATOM     11  C   UNL     1      -9.399  38.634  -1.222  1.00  0.00     0.012 C 
ATOM     12  C   UNL     1      -7.925  40.001  -2.759  1.00  0.00     0.012 C 
ATOM     13  C   UNL     1     -10.222  36.756  -3.415  1.00  0.00     0.017 C 
ATOM     14  C   UNL     1     -10.508  39.133  -3.945  1.00  0.00    -0.064 C 
ATOM     15  C   UNL     1     -10.648  39.527  -1.436  1.00  0.00     0.032 C 
ATOM     16  C   UNL     1     -11.163  39.714  -2.890  1.00  0.00    -0.064 C 
ATOM     17  C   UNL     1     -11.019  39.329  -5.345  1.00  0.00     0.032 C 
ATOM     18  C   UNL     1     -12.502  40.478  -3.114  1.00  0.00    -0.008 C 
ATOM     19  C   UNL     1     -11.462  40.772  -5.514  1.00  0.00     0.009 C 
ATOM     20  C   UNL     1     -12.644  41.119  -4.574  1.00  0.00     0.007 C 
ATOM     21  C   UNL     1     -13.630  39.450  -2.850  1.00  0.00     0.014 C 
ATOM     22  C   UNL     1     -12.604  41.619  -2.056  1.00  0.00     0.016 C 
ATOM     23  C   UNL     1     -14.077  40.987  -5.265  1.00  0.00    -0.006 C 
ATOM     24  C   UNL     1     -15.055  39.987  -3.055  1.00  0.00     0.033 C 
ATOM     25  C   UNL     1     -15.190  41.052  -4.170  1.00  0.00     0.120 C 
ATOM     26  C   UNL     1     -14.289  42.197  -6.218  1.00  0.00     0.014 C 
ATOM     27  C   UNL     1     -14.245  39.703  -6.127  1.00  0.00     0.014 C 
BRANCH  25  28
ATOM     28  O   UNL     1     -16.486  41.039  -4.725  1.00  0.00    -0.393 OA
ATOM     29  H   UNL     1     -16.643  41.906  -5.181  1.00  0.00     0.210 HD
ENDBRANCH  25  28
ENDBRANCH   2   6
ENDBRANCH   1   2
BRANCH   1  30
ATOM     30  C   UNL     1      -7.214  35.811  -0.258  1.00  0.00     0.028 C 
BRANCH  30  31
ATOM     31  C   UNL     1      -8.206  36.067   0.850  1.00  0.00    -0.028 C 
ATOM     32  C   UNL     1      -9.508  35.701   0.808  1.00  0.00    -0.080 C 
ATOM     33  C   UNL     1     -10.406  36.005   1.979  1.00  0.00     0.039 C 
ATOM     34  C   UNL     1     -10.089  34.918  -0.344  1.00  0.00     0.039 C 
ENDBRANCH  30  31
ENDBRANCH   1  30
TORSDOF 6
ENDMDL
MODEL 8
REMARK VINA RESULT:    -6.403      2.385      4.017
REMARK INTER + INTRA:          -9.568
REMARK INTER:                  -8.298
REMARK INTRA:                  -1.270
REMARK UNBOUND:                -1.107
REMARK SMILES CC(C)=CCC[C@@H](C(=O)[O-])[C@@H]1CC[C@]2(C)C3=C(CC[C@@]12C)[C@]1(C)CC[C@H](O)C(C)(C)[C@@H]1CC3
REMARK SMILES IDX 6 1 7 2 8 3 9 4 10 5 11 6 12 7 20 8 13 9 14 10 19 11 21 12
REMARK SMILES IDX 15 13 16 14 18 15 17 16 33 17 22 18 32 19 31 20 24 21 23 22
REMARK SMILES IDX 28 23 25 24 26 25 29 26 30 27 27 28 5 30 4 31 2 32 1 33 3 34
REMARK H PARENT 27 29
REMARK Flexibility Score: inf
ROOT
ATOM      1  C   UNL     1      -3.877  36.000   2.833  1.00  0.00     0.014 C 
ENDROOT
BRANCH   1   2
ATOM      2  C   UNL     1      -4.492  37.393   3.131  1.00  0.00     0.039 C 
BRANCH   2   3
ATOM      3  C   UNL     1      -3.616  38.205   4.054  1.00  0.00     0.045 C 
ATOM      4  O   UNL     1      -4.036  38.581   5.182  1.00  0.00    -0.550 OA
ATOM      5  O   UNL     1      -2.318  38.524   3.670  1.00  0.00    -0.550 OA
ENDBRANCH   2   3
BRANCH   2   6
ATOM      6  C   UNL     1      -4.966  38.138   1.825  1.00  0.00     0.004 C 
ATOM      7  C   UNL     1      -5.093  39.690   1.867  1.00  0.00     0.006 C 
ATOM      8  C   UNL     1      -6.324  37.691   1.230  1.00  0.00    -0.020 C 
ATOM      9  C   UNL     1      -6.253  40.066   0.916  1.00  0.00     0.012 C 
ATOM     10  C   UNL     1      -6.581  38.774   0.144  1.00  0.00    -0.006 C 
ATOM     11  C   UNL     1      -6.324  36.316   0.547  1.00  0.00     0.012 C 
ATOM     12  C   UNL     1      -7.424  37.700   2.357  1.00  0.00     0.012 C 
ATOM     13  C   UNL     1      -5.631  38.727  -1.102  1.00  0.00     0.017 C 
ATOM     14  C   UNL     1      -7.983  38.598  -0.419  1.00  0.00    -0.064 C 
ATOM     15  C   UNL     1      -7.641  36.084  -0.237  1.00  0.00     0.032 C 
ATOM     16  C   UNL     1      -8.428  37.335  -0.715  1.00  0.00    -0.064 C 
ATOM     17  C   UNL     1      -8.760  39.796  -0.887  1.00  0.00     0.032 C 
ATOM     18  C   UNL     1      -9.669  37.129  -1.634  1.00  0.00    -0.008 C 
ATOM     19  C   UNL     1     -10.244  39.524  -0.709  1.00  0.00     0.009 C 
ATOM     20  C   UNL     1     -10.716  38.338  -1.588  1.00  0.00     0.007 C 
ATOM     21  C   UNL     1      -9.112  36.935  -3.067  1.00  0.00     0.014 C 
ATOM     22  C   UNL     1     -10.397  35.821  -1.198  1.00  0.00     0.016 C 
ATOM     23  C   UNL     1     -11.343  38.782  -2.987  1.00  0.00    -0.006 C 
ATOM     24  C   UNL     1     -10.180  36.751  -4.156  1.00  0.00     0.033 C 
ATOM     25  C   UNL     1     -11.496  37.529  -3.909  1.00  0.00     0.120 C 
ATOM     26  C   UNL     1     -12.767  39.356  -2.741  1.00  0.00     0.014 C 
ATOM     27  C   UNL     1     -10.532  39.891  -3.717  1.00  0.00     0.014 C 
BRANCH  25  28
ATOM     28  O   UNL     1     -12.135  37.837  -5.127  1.00  0.00    -0.393 OA
ATOM     29  H   UNL     1     -13.105  37.649  -5.031  1.00  0.00     0.210 HD
ENDBRANCH  25  28
ENDBRANCH   2   6
ENDBRANCH   1   2
BRANCH   1  30
ATOM     30  C   UNL     1      -4.287  34.886   3.818  1.00  0.00     0.028 C 
BRANCH  30  31
ATOM     31  C   UNL     1      -5.786  34.832   3.983  1.00  0.00    -0.028 C 
ATOM     32  C   UNL     1      -6.416  34.476   5.126  1.00  0.00    -0.080 C 
ATOM     33  C   UNL     1      -7.921  34.464   5.174  1.00  0.00     0.039 C 
ATOM     34  C   UNL     1      -5.665  34.163   6.398  1.00  0.00     0.039 C 
ENDBRANCH  30  31
ENDBRANCH   1  30
TORSDOF 6
ENDMDL
