MODEL 1
REMARK VINA RESULT:    -5.249      0.000      0.000
REMARK INTER + INTRA:          -5.654
REMARK INTER:                  -5.555
REMARK INTRA:                  -0.099
REMARK UNBOUND:                -0.099
REMARK SMILES C=C(C)[C@H]1CC=C(C)C(=O)C1
REMARK SMILES IDX 8 1 7 2 6 3 5 4 4 5 11 6 9 7 10 8 2 9 1 10 3 11
REMARK H PARENT
REMARK Flexibility Score: inf
ROOT
ATOM      1  C   UNL     1      13.608  25.302  23.842  1.00  0.00     0.048 C 
ATOM      2  C   UNL     1      12.277  24.611  23.719  1.00  0.00    -0.012 C 
ATOM      3  C   UNL     1      12.171  23.305  24.019  1.00  0.00    -0.019 C 
ATOM      4  C   UNL     1      10.868  22.561  23.895  1.00  0.00     0.036 C 
ATOM      5  C   UNL     1       9.673  23.484  24.198  1.00  0.00     0.025 C 
ATOM      6  C   UNL     1       9.719  24.732  23.298  1.00  0.00     0.089 C 
ATOM      7  C   UNL     1      11.064  25.400  23.387  1.00  0.00     0.158 C 
ATOM      8  O   UNL     1      11.156  26.631  23.140  1.00  0.00    -0.295 OA
ENDROOT
BRANCH   5   9
ATOM      9  C   UNL     1       8.348  22.745  24.057  1.00  0.00    -0.077 C 
ATOM     10  C   UNL     1       7.438  23.159  23.162  1.00  0.00     0.008 C 
ATOM     11  C   UNL     1       8.026  21.539  24.906  1.00  0.00     0.039 C 
ENDBRANCH   5   9
TORSDOF 1
ENDMDL
MODEL 2
REMARK VINA RESULT:    -5.025      1.878      4.741
REMARK INTER + INTRA:          -5.418
REMARK INTER:                  -5.320
REMARK INTRA:                  -0.098
REMARK UNBOUND:                -0.099
REMARK SMILES C=C(C)[C@H]1CC=C(C)C(=O)C1
REMARK SMILES IDX 8 1 7 2 6 3 5 4 4 5 11 6 9 7 10 8 2 9 1 10 3 11
REMARK H PARENT
REMARK Flexibility Score: inf
ROOT
ATOM      1  C   UNL     1       7.522  22.831  23.829  1.00  0.00     0.048 C 
ATOM      2  C   UNL     1       8.875  23.469  23.670  1.00  0.00    -0.012 C 
ATOM      3  C   UNL     1       8.981  24.807  23.605  1.00  0.00    -0.019 C 
ATOM      4  C   UNL     1      10.309  25.495  23.427  1.00  0.00     0.036 C 
ATOM      5  C   UNL     1      11.439  24.700  24.107  1.00  0.00     0.025 C 
ATOM      6  C   UNL     1      11.460  23.250  23.590  1.00  0.00     0.089 C 
ATOM      7  C   UNL     1      10.097  22.626  23.709  1.00  0.00     0.158 C 
ATOM      8  O   UNL     1      10.001  21.374  23.805  1.00  0.00    -0.295 OA
ENDROOT
BRANCH   5   9
ATOM      9  C   UNL     1      12.790  25.379  23.916  1.00  0.00    -0.077 C 
ATOM     10  C   UNL     1      13.723  24.812  23.136  1.00  0.00     0.008 C 
ATOM     11  C   UNL     1      13.113  26.691  24.588  1.00  0.00     0.039 C 
ENDBRANCH   5   9
TORSDOF 1
ENDMDL
MODEL 3
REMARK VINA RESULT:    -4.906      1.383      2.034
REMARK INTER + INTRA:          -5.292
REMARK INTER:                  -5.197
REMARK INTRA:                  -0.095
REMARK UNBOUND:                -0.099
REMARK SMILES C=C(C)[C@H]1CC=C(C)C(=O)C1
REMARK SMILES IDX 8 1 7 2 6 3 5 4 4 5 11 6 9 7 10 8 2 9 1 10 3 11
REMARK H PARENT
REMARK Flexibility Score: inf
ROOT
ATOM      1  C   UNL     1      13.504  25.879  23.475  1.00  0.00     0.048 C 
ATOM      2  C   UNL     1      12.190  25.182  23.696  1.00  0.00    -0.012 C 
ATOM      3  C   UNL     1      11.049  25.754  23.277  1.00  0.00    -0.019 C 
ATOM      4  C   UNL     1       9.706  25.108  23.490  1.00  0.00     0.036 C 
ATOM      5  C   UNL     1       9.817  23.573  23.444  1.00  0.00     0.025 C 
ATOM      6  C   UNL     1      10.868  23.081  24.457  1.00  0.00     0.089 C 
ATOM      7  C   UNL     1      12.170  23.810  24.264  1.00  0.00     0.158 C 
ATOM      8  O   UNL     1      13.242  23.257  24.626  1.00  0.00    -0.295 OA
ENDROOT
BRANCH   5   9
ATOM      9  C   UNL     1       8.466  22.909  23.678  1.00  0.00    -0.077 C 
ATOM     10  C   UNL     1       7.373  23.366  23.047  1.00  0.00     0.008 C 
ATOM     11  C   UNL     1       8.320  21.731  24.611  1.00  0.00     0.039 C 
ENDBRANCH   5   9
TORSDOF 1
ENDMDL
MODEL 4
REMARK VINA RESULT:    -4.557      1.491      4.342
REMARK INTER + INTRA:          -4.922
REMARK INTER:                  -4.827
REMARK INTRA:                  -0.095
REMARK UNBOUND:                -0.099
REMARK SMILES C=C(C)[C@H]1CC=C(C)C(=O)C1
REMARK SMILES IDX 8 1 7 2 6 3 5 4 4 5 11 6 9 7 10 8 2 9 1 10 3 11
REMARK H PARENT
REMARK Flexibility Score: inf
ROOT
ATOM      1  C   UNL     1       7.831  22.050  23.697  1.00  0.00     0.048 C 
ATOM      2  C   UNL     1       9.111  22.825  23.848  1.00  0.00    -0.012 C 
ATOM      3  C   UNL     1      10.290  22.221  23.627  1.00  0.00    -0.019 C 
ATOM      4  C   UNL     1      11.601  22.945  23.783  1.00  0.00     0.036 C 
ATOM      5  C   UNL     1      11.457  24.433  23.414  1.00  0.00     0.025 C 
ATOM      6  C   UNL     1      10.331  25.083  24.237  1.00  0.00     0.089 C 
ATOM      7  C   UNL     1       9.062  24.284  24.121  1.00  0.00     0.158 C 
ATOM      8  O   UNL     1       7.955  24.860  24.294  1.00  0.00    -0.295 OA
ENDROOT
BRANCH   5   9
ATOM      9  C   UNL     1      12.774  25.180  23.587  1.00  0.00    -0.077 C 
ATOM     10  C   UNL     1      13.910  24.665  23.091  1.00  0.00     0.008 C 
ATOM     11  C   UNL     1      12.839  26.504  24.309  1.00  0.00     0.039 C 
ENDBRANCH   5   9
TORSDOF 1
ENDMDL
MODEL 5
REMARK VINA RESULT:    -4.174      9.911     11.494
REMARK INTER + INTRA:          -4.517
REMARK INTER:                  -4.422
REMARK INTRA:                  -0.095
REMARK UNBOUND:                -0.099
REMARK SMILES C=C(C)[C@H]1CC=C(C)C(=O)C1
REMARK SMILES IDX 8 1 7 2 6 3 5 4 4 5 11 6 9 7 10 8 2 9 1 10 3 11
REMARK H PARENT
REMARK Flexibility Score: inf
ROOT
ATOM      1  C   UNL     1       4.799  16.129  14.504  1.00  0.00     0.048 C 
ATOM      2  C   UNL     1       5.957  17.008  14.891  1.00  0.00    -0.012 C 
ATOM      3  C   UNL     1       7.215  16.608  14.636  1.00  0.00    -0.019 C 
ATOM      4  C   UNL     1       8.409  17.441  15.020  1.00  0.00     0.036 C 
ATOM      5  C   UNL     1       8.085  18.944  14.939  1.00  0.00     0.025 C 
ATOM      6  C   UNL     1       6.848  19.272  15.795  1.00  0.00     0.089 C 
ATOM      7  C   UNL     1       5.703  18.364  15.439  1.00  0.00     0.158 C 
ATOM      8  O   UNL     1       4.523  18.754  15.645  1.00  0.00    -0.295 OA
ENDROOT
BRANCH   5   9
ATOM      9  C   UNL     1       9.283  19.794  15.344  1.00  0.00    -0.077 C 
ATOM     10  C   UNL     1      10.509  19.488  14.893  1.00  0.00     0.008 C 
ATOM     11  C   UNL     1       9.126  20.992  16.249  1.00  0.00     0.039 C 
ENDBRANCH   5   9
TORSDOF 1
ENDMDL
MODEL 6
REMARK VINA RESULT:    -4.118      9.775     10.922
REMARK INTER + INTRA:          -4.458
REMARK INTER:                  -4.359
REMARK INTRA:                  -0.098
REMARK UNBOUND:                -0.099
REMARK SMILES C=C(C)[C@H]1CC=C(C)C(=O)C1
REMARK SMILES IDX 8 1 7 2 6 3 5 4 4 5 11 6 9 7 10 8 2 9 1 10 3 11
REMARK H PARENT
REMARK Flexibility Score: inf
ROOT
ATOM      1  C   UNL     1      16.351  30.357  13.686  1.00  0.00     0.048 C 
ATOM      2  C   UNL     1      15.161  29.558  14.140  1.00  0.00    -0.012 C 
ATOM      3  C   UNL     1      13.921  29.957  13.810  1.00  0.00    -0.019 C 
ATOM      4  C   UNL     1      12.694  29.205  14.254  1.00  0.00     0.036 C 
ATOM      5  C   UNL     1      12.978  27.694  14.352  1.00  0.00     0.025 C 
ATOM      6  C   UNL     1      14.185  27.435  15.271  1.00  0.00     0.089 C 
ATOM      7  C   UNL     1      15.364  28.267  14.844  1.00  0.00     0.158 C 
ATOM      8  O   UNL     1      16.527  27.873  15.124  1.00  0.00    -0.295 OA
ENDROOT
BRANCH   5   9
ATOM      9  C   UNL     1      11.748  26.926  14.820  1.00  0.00    -0.077 C 
ATOM     10  C   UNL     1      11.869  25.955  15.738  1.00  0.00     0.008 C 
ATOM     11  C   UNL     1      10.375  27.232  14.273  1.00  0.00     0.039 C 
ENDBRANCH   5   9
TORSDOF 1
ENDMDL
MODEL 7
REMARK VINA RESULT:    -4.118      9.412     10.644
REMARK INTER + INTRA:          -4.457
REMARK INTER:                  -4.359
REMARK INTRA:                  -0.098
REMARK UNBOUND:                -0.099
REMARK SMILES C=C(C)[C@H]1CC=C(C)C(=O)C1
REMARK SMILES IDX 8 1 7 2 6 3 5 4 4 5 11 6 9 7 10 8 2 9 1 10 3 11
REMARK H PARENT
REMARK Flexibility Score: inf
ROOT
ATOM      1  C   UNL     1       9.189  20.999  16.204  1.00  0.00     0.048 C 
ATOM      2  C   UNL     1       8.043  20.165  15.701  1.00  0.00    -0.012 C 
ATOM      3  C   UNL     1       7.997  18.851  15.982  1.00  0.00    -0.019 C 
ATOM      4  C   UNL     1       6.884  17.967  15.488  1.00  0.00     0.036 C 
ATOM      5  C   UNL     1       5.558  18.745  15.396  1.00  0.00     0.025 C 
ATOM      6  C   UNL     1       5.734  20.002  14.525  1.00  0.00     0.089 C 
ATOM      7  C   UNL     1       6.907  20.816  15.001  1.00  0.00     0.158 C 
ATOM      8  O   UNL     1       6.931  22.053  14.767  1.00  0.00    -0.295 OA
ENDROOT
BRANCH   5   9
ATOM      9  C   UNL     1       4.429  17.863  14.878  1.00  0.00    -0.077 C 
ATOM     10  C   UNL     1       4.585  16.531  14.826  1.00  0.00     0.008 C 
ATOM     11  C   UNL     1       3.119  18.454  14.417  1.00  0.00     0.039 C 
ENDBRANCH   5   9
TORSDOF 1
ENDMDL
MODEL 8
REMARK VINA RESULT:    -4.107     11.109     11.902
REMARK INTER + INTRA:          -4.447
REMARK INTER:                  -4.348
REMARK INTRA:                  -0.098
REMARK UNBOUND:                -0.099
REMARK SMILES C=C(C)[C@H]1CC=C(C)C(=O)C1
REMARK SMILES IDX 8 1 7 2 6 3 5 4 4 5 11 6 9 7 10 8 2 9 1 10 3 11
REMARK H PARENT
REMARK Flexibility Score: inf
ROOT
ATOM      1  C   UNL     1      17.722  19.141  15.893  1.00  0.00     0.048 C 
ATOM      2  C   UNL     1      16.758  18.053  16.280  1.00  0.00    -0.012 C 
ATOM      3  C   UNL     1      15.453  18.337  16.430  1.00  0.00    -0.019 C 
ATOM      4  C   UNL     1      14.449  17.291  16.835  1.00  0.00     0.036 C 
ATOM      5  C   UNL     1      14.841  15.907  16.285  1.00  0.00     0.025 C 
ATOM      6  C   UNL     1      16.271  15.542  16.723  1.00  0.00     0.089 C 
ATOM      7  C   UNL     1      17.229  16.648  16.375  1.00  0.00     0.158 C 
ATOM      8  O   UNL     1      18.446  16.374  16.200  1.00  0.00    -0.295 OA
ENDROOT
BRANCH   5   9
ATOM      9  C   UNL     1      13.841  14.837  16.706  1.00  0.00    -0.077 C 
ATOM     10  C   UNL     1      14.206  13.875  17.567  1.00  0.00     0.008 C 
ATOM     11  C   UNL     1      12.428  14.829  16.175  1.00  0.00     0.039 C 
ENDBRANCH   5   9
TORSDOF 1
ENDMDL
MODEL 9
REMARK VINA RESULT:    -4.037      9.778     10.798
REMARK INTER + INTRA:          -4.372
REMARK INTER:                  -4.277
REMARK INTRA:                  -0.095
REMARK UNBOUND:                -0.099
REMARK SMILES C=C(C)[C@H]1CC=C(C)C(=O)C1
REMARK SMILES IDX 8 1 7 2 6 3 5 4 4 5 11 6 9 7 10 8 2 9 1 10 3 11
REMARK H PARENT
REMARK Flexibility Score: inf
ROOT
ATOM      1  C   UNL     1      16.618  29.974  14.119  1.00  0.00     0.048 C 
ATOM      2  C   UNL     1      15.411  29.081  14.209  1.00  0.00    -0.012 C 
ATOM      3  C   UNL     1      15.501  27.893  14.830  1.00  0.00    -0.019 C 
ATOM      4  C   UNL     1      14.329  26.953  14.932  1.00  0.00     0.036 C 
ATOM      5  C   UNL     1      13.003  27.731  15.023  1.00  0.00     0.025 C 
ATOM      6  C   UNL     1      12.870  28.703  13.836  1.00  0.00     0.089 C 
ATOM      7  C   UNL     1      14.096  29.567  13.720  1.00  0.00     0.158 C 
ATOM      8  O   UNL     1      14.002  30.695  13.168  1.00  0.00    -0.295 OA
ENDROOT
BRANCH   5   9
ATOM      9  C   UNL     1      11.809  26.788  15.107  1.00  0.00    -0.077 C 
ATOM     10  C   UNL     1      11.830  25.749  15.956  1.00  0.00     0.008 C 
ATOM     11  C   UNL     1      10.583  26.995  14.251  1.00  0.00     0.039 C 
ENDBRANCH   5   9
TORSDOF 1
ENDMDL
