MODEL 1
REMARK VINA RESULT:    -1.624      0.000      0.000
REMARK INTER + INTRA:          -2.563
REMARK INTER:                  -2.194
REMARK INTRA:                  -0.369
REMARK UNBOUND:                -0.369
REMARK SMILES CCCCCCCC(=O)[O-]
REMARK SMILES IDX 5 1 6 2 7 3 8 4 9 5 10 6 4 7 3 8 2 9 1 10
REMARK H PARENT
REMARK Flexibility Score: inf
ROOT
ATOM      1  C   UNL     1     173.072 177.053 197.341  1.00  0.00     0.000 C 
ENDROOT
BRANCH   1   2
ATOM      2  C   UNL     1     173.050 177.804 196.002  1.00  0.00     0.006 C 
BRANCH   2   3
ATOM      3  C   UNL     1     173.246 179.315 196.178  1.00  0.00     0.053 C 
BRANCH   3   4
ATOM      4  C   UNL     1     173.262 180.031 194.863  1.00  0.00     0.041 C 
ATOM      5  O   UNL     1     172.463 180.978 194.646  1.00  0.00    -0.550 OA
ATOM      6  O   UNL     1     174.185 179.673 193.887  1.00  0.00    -0.550 OA
ENDBRANCH   3   4
ENDBRANCH   2   3
ENDBRANCH   1   2
BRANCH   1   7
ATOM      7  C   UNL     1     173.100 178.032 198.520  1.00  0.00     0.000 C 
BRANCH   7   8
ATOM      8  C   UNL     1     172.162 177.570 199.642  1.00  0.00    -0.000 C 
BRANCH   8   9
ATOM      9  C   UNL     1     171.527 178.768 200.357  1.00  0.00    -0.003 C 
ATOM     10  C   UNL     1     171.695 180.048 199.544  1.00  0.00     0.004 C 
ENDBRANCH   8   9
ENDBRANCH   7   8
ENDBRANCH   1   7
TORSDOF 6
ENDMDL
MODEL 2
REMARK VINA RESULT:    -1.613      3.369      5.299
REMARK INTER + INTRA:          -2.548
REMARK INTER:                  -2.287
REMARK INTRA:                  -0.260
REMARK UNBOUND:                -0.369
REMARK SMILES CCCCCCCC(=O)[O-]
REMARK SMILES IDX 5 1 6 2 7 3 8 4 9 5 10 6 4 7 3 8 2 9 1 10
REMARK H PARENT
REMARK Flexibility Score: inf
ROOT
ATOM      1  C   UNL     1     173.101 178.333 195.734  1.00  0.00     0.000 C 
ENDROOT
BRANCH   1   2
ATOM      2  C   UNL     1     173.681 178.374 197.155  1.00  0.00     0.006 C 
BRANCH   2   3
ATOM      3  C   UNL     1     173.130 177.250 198.041  1.00  0.00     0.053 C 
BRANCH   3   4
ATOM      4  C   UNL     1     172.965 177.692 199.463  1.00  0.00     0.041 C 
ATOM      5  O   UNL     1     171.869 178.171 199.854  1.00  0.00    -0.550 OA
ATOM      6  O   UNL     1     174.013 177.544 200.364  1.00  0.00    -0.550 OA
ENDBRANCH   3   4
ENDBRANCH   2   3
ENDBRANCH   1   2
BRANCH   1   7
ATOM      7  C   UNL     1     172.705 176.906 195.342  1.00  0.00     0.000 C 
BRANCH   7   8
ATOM      8  C   UNL     1     172.059 176.875 193.951  1.00  0.00    -0.000 C 
BRANCH   8   9
ATOM      9  C   UNL     1     172.714 177.898 193.017  1.00  0.00    -0.003 C 
ATOM     10  C   UNL     1     171.684 178.544 192.096  1.00  0.00     0.004 C 
ENDBRANCH   8   9
ENDBRANCH   7   8
ENDBRANCH   1   7
TORSDOF 6
ENDMDL
MODEL 3
REMARK VINA RESULT:    -1.598      3.182      5.053
REMARK INTER + INTRA:          -2.528
REMARK INTER:                  -2.156
REMARK INTRA:                  -0.372
REMARK UNBOUND:                -0.369
REMARK SMILES CCCCCCCC(=O)[O-]
REMARK SMILES IDX 5 1 6 2 7 3 8 4 9 5 10 6 4 7 3 8 2 9 1 10
REMARK H PARENT
REMARK Flexibility Score: inf
ROOT
ATOM      1  C   UNL     1     174.380 178.884 197.593  1.00  0.00     0.000 C 
ENDROOT
BRANCH   1   2
ATOM      2  C   UNL     1     173.912 178.382 198.967  1.00  0.00     0.006 C 
BRANCH   2   3
ATOM      3  C   UNL     1     172.666 177.494 198.868  1.00  0.00     0.053 C 
BRANCH   3   4
ATOM      4  C   UNL     1     171.629 177.876 199.879  1.00  0.00     0.041 C 
ATOM      5  O   UNL     1     171.415 179.088 200.141  1.00  0.00    -0.550 OA
ATOM      6  O   UNL     1     170.875 176.893 200.509  1.00  0.00    -0.550 OA
ENDBRANCH   3   4
ENDBRANCH   2   3
ENDBRANCH   1   2
BRANCH   1   7
ATOM      7  C   UNL     1     173.228 179.540 196.825  1.00  0.00     0.000 C 
BRANCH   7   8
ATOM      8  C   UNL     1     173.240 179.122 195.350  1.00  0.00    -0.000 C 
BRANCH   8   9
ATOM      9  C   UNL     1     172.783 177.668 195.186  1.00  0.00    -0.003 C 
ATOM     10  C   UNL     1     172.769 177.256 193.717  1.00  0.00     0.004 C 
ENDBRANCH   8   9
ENDBRANCH   7   8
ENDBRANCH   1   7
TORSDOF 6
ENDMDL
MODEL 4
REMARK VINA RESULT:    -1.571      2.064      2.724
REMARK INTER + INTRA:          -2.492
REMARK INTER:                  -2.247
REMARK INTRA:                  -0.244
REMARK UNBOUND:                -0.369
REMARK SMILES CCCCCCCC(=O)[O-]
REMARK SMILES IDX 5 1 6 2 7 3 8 4 9 5 10 6 4 7 3 8 2 9 1 10
REMARK H PARENT
REMARK Flexibility Score: inf
ROOT
ATOM      1  C   UNL     1     173.133 178.514 196.142  1.00  0.00     0.000 C 
ENDROOT
BRANCH   1   2
ATOM      2  C   UNL     1     172.793 177.138 195.549  1.00  0.00     0.006 C 
BRANCH   2   3
ATOM      3  C   UNL     1     173.527 176.875 194.228  1.00  0.00     0.053 C 
BRANCH   3   4
ATOM      4  C   UNL     1     172.696 177.265 193.044  1.00  0.00     0.041 C 
ATOM      5  O   UNL     1     173.245 177.724 192.009  1.00  0.00    -0.550 OA
ATOM      6  O   UNL     1     171.318 177.090 193.073  1.00  0.00    -0.550 OA
ENDBRANCH   3   4
ENDBRANCH   2   3
ENDBRANCH   1   2
BRANCH   1   7
ATOM      7  C   UNL     1     173.672 178.379 197.570  1.00  0.00     0.000 C 
BRANCH   7   8
ATOM      8  C   UNL     1     172.956 177.253 198.325  1.00  0.00    -0.000 C 
BRANCH   8   9
ATOM      9  C   UNL     1     172.679 177.654 199.778  1.00  0.00    -0.003 C 
ATOM     10  C   UNL     1     171.267 177.259 200.200  1.00  0.00     0.004 C 
ENDBRANCH   8   9
ENDBRANCH   7   8
ENDBRANCH   1   7
TORSDOF 6
ENDMDL
MODEL 5
REMARK VINA RESULT:    -1.565      1.720      2.368
REMARK INTER + INTRA:          -2.483
REMARK INTER:                  -2.241
REMARK INTRA:                  -0.242
REMARK UNBOUND:                -0.369
REMARK SMILES CCCCCCCC(=O)[O-]
REMARK SMILES IDX 5 1 6 2 7 3 8 4 9 5 10 6 4 7 3 8 2 9 1 10
REMARK H PARENT
REMARK Flexibility Score: inf
ROOT
ATOM      1  C   UNL     1     173.554 179.116 196.725  1.00  0.00     0.000 C 
ENDROOT
BRANCH   1   2
ATOM      2  C   UNL     1     173.903 177.966 195.767  1.00  0.00     0.006 C 
BRANCH   2   3
ATOM      3  C   UNL     1     172.658 177.206 195.292  1.00  0.00     0.053 C 
BRANCH   3   4
ATOM      4  C   UNL     1     172.443 177.359 193.818  1.00  0.00     0.041 C 
ATOM      5  O   UNL     1     171.416 176.876 193.273  1.00  0.00    -0.550 OA
ATOM      6  O   UNL     1     173.362 178.064 193.050  1.00  0.00    -0.550 OA
ENDBRANCH   3   4
ENDBRANCH   2   3
ENDBRANCH   1   2
BRANCH   1   7
ATOM      7  C   UNL     1     173.072 178.579 198.077  1.00  0.00     0.000 C 
BRANCH   7   8
ATOM      8  C   UNL     1     172.327 179.662 198.866  1.00  0.00    -0.000 C 
BRANCH   8   9
ATOM      9  C   UNL     1     171.656 179.072 200.111  1.00  0.00    -0.003 C 
ATOM     10  C   UNL     1     171.600 177.550 200.039  1.00  0.00     0.004 C 
ENDBRANCH   8   9
ENDBRANCH   7   8
ENDBRANCH   1   7
TORSDOF 6
ENDMDL
MODEL 6
REMARK VINA RESULT:    -1.554      1.734      2.519
REMARK INTER + INTRA:          -2.468
REMARK INTER:                  -2.084
REMARK INTRA:                  -0.383
REMARK UNBOUND:                -0.369
REMARK SMILES CCCCCCCC(=O)[O-]
REMARK SMILES IDX 5 1 6 2 7 3 8 4 9 5 10 6 4 7 3 8 2 9 1 10
REMARK H PARENT
REMARK Flexibility Score: inf
ROOT
ATOM      1  C   UNL     1     173.151 180.353 198.686  1.00  0.00     0.000 C 
ENDROOT
BRANCH   1   2
ATOM      2  C   UNL     1     173.157 179.870 197.227  1.00  0.00     0.006 C 
BRANCH   2   3
ATOM      3  C   UNL     1     173.163 178.340 197.121  1.00  0.00     0.053 C 
BRANCH   3   4
ATOM      4  C   UNL     1     173.538 177.879 195.746  1.00  0.00     0.041 C 
ATOM      5  O   UNL     1     172.685 177.882 194.821  1.00  0.00    -0.550 OA
ATOM      6  O   UNL     1     174.842 177.478 195.478  1.00  0.00    -0.550 OA
ENDBRANCH   3   4
ENDBRANCH   2   3
ENDBRANCH   1   2
BRANCH   1   7
ATOM      7  C   UNL     1     172.046 179.659 199.490  1.00  0.00     0.000 C 
BRANCH   7   8
ATOM      8  C   UNL     1     172.609 179.033 200.772  1.00  0.00    -0.000 C 
BRANCH   8   9
ATOM      9  C   UNL     1     172.360 177.521 200.801  1.00  0.00    -0.003 C 
ATOM     10  C   UNL     1     170.939 177.187 200.356  1.00  0.00     0.004 C 
ENDBRANCH   8   9
ENDBRANCH   7   8
ENDBRANCH   1   7
TORSDOF 6
ENDMDL
MODEL 7
REMARK VINA RESULT:    -1.476      2.857      4.626
REMARK INTER + INTRA:          -2.363
REMARK INTER:                  -2.013
REMARK INTRA:                  -0.350
REMARK UNBOUND:                -0.369
REMARK SMILES CCCCCCCC(=O)[O-]
REMARK SMILES IDX 5 1 6 2 7 3 8 4 9 5 10 6 4 7 3 8 2 9 1 10
REMARK H PARENT
REMARK Flexibility Score: inf
ROOT
ATOM      1  C   UNL     1     173.935 177.859 197.303  1.00  0.00     0.000 C 
ENDROOT
BRANCH   1   2
ATOM      2  C   UNL     1     173.228 178.367 198.568  1.00  0.00     0.006 C 
BRANCH   2   3
ATOM      3  C   UNL     1     172.692 179.794 198.402  1.00  0.00     0.053 C 
BRANCH   3   4
ATOM      4  C   UNL     1     171.862 180.217 199.575  1.00  0.00     0.041 C 
ATOM      5  O   UNL     1     171.333 181.358 199.600  1.00  0.00    -0.550 OA
ATOM      6  O   UNL     1     171.645 179.335 200.628  1.00  0.00    -0.550 OA
ENDBRANCH   3   4
ENDBRANCH   2   3
ENDBRANCH   1   2
BRANCH   1   7
ATOM      7  C   UNL     1     173.047 176.875 196.533  1.00  0.00     0.000 C 
BRANCH   7   8
ATOM      8  C   UNL     1     172.928 177.277 195.058  1.00  0.00    -0.000 C 
BRANCH   8   9
ATOM      9  C   UNL     1     173.523 178.669 194.818  1.00  0.00    -0.003 C 
ATOM     10  C   UNL     1     172.824 179.375 193.660  1.00  0.00     0.004 C 
ENDBRANCH   8   9
ENDBRANCH   7   8
ENDBRANCH   1   7
TORSDOF 6
ENDMDL
MODEL 8
REMARK VINA RESULT:    -1.463      2.288      4.078
REMARK INTER + INTRA:          -2.345
REMARK INTER:                  -1.907
REMARK INTRA:                  -0.438
REMARK UNBOUND:                -0.369
REMARK SMILES CCCCCCCC(=O)[O-]
REMARK SMILES IDX 5 1 6 2 7 3 8 4 9 5 10 6 4 7 3 8 2 9 1 10
REMARK H PARENT
REMARK Flexibility Score: inf
ROOT
ATOM      1  C   UNL     1     172.559 177.560 199.419  1.00  0.00     0.000 C 
ENDROOT
BRANCH   1   2
ATOM      2  C   UNL     1     172.593 178.896 200.177  1.00  0.00     0.006 C 
BRANCH   2   3
ATOM      3  C   UNL     1     171.628 179.928 199.580  1.00  0.00     0.053 C 
BRANCH   3   4
ATOM      4  C   UNL     1     172.359 181.093 198.986  1.00  0.00     0.041 C 
ATOM      5  O   UNL     1     173.541 180.958 198.576  1.00  0.00    -0.550 OA
ATOM      6  O   UNL     1     171.721 182.321 198.854  1.00  0.00    -0.550 OA
ENDBRANCH   3   4
ENDBRANCH   2   3
ENDBRANCH   1   2
BRANCH   1   7
ATOM      7  C   UNL     1     173.924 177.245 198.797  1.00  0.00     0.000 C 
BRANCH   7   8
ATOM      8  C   UNL     1     173.783 176.875 197.316  1.00  0.00    -0.000 C 
BRANCH   8   9
ATOM      9  C   UNL     1     173.193 178.038 196.511  1.00  0.00    -0.003 C 
ATOM     10  C   UNL     1     172.749 177.581 195.125  1.00  0.00     0.004 C 
ENDBRANCH   8   9
ENDBRANCH   7   8
ENDBRANCH   1   7
TORSDOF 6
ENDMDL
