MODEL 1
REMARK VINA RESULT:    -7.536      0.000      0.000
REMARK INTER + INTRA:          -8.869
REMARK INTER:                  -8.858
REMARK INTRA:                  -0.011
REMARK UNBOUND:                -0.011
REMARK SMILES O=c1c(O)c(-c2ccc(O)cc2)oc2cc(O)cc(O)c12
REMARK SMILES IDX 5 1 3 2 2 3 1 4 21 5 19 6 18 7 16 8 15 9 14 10 13 11 6 12
REMARK SMILES IDX 7 13 8 14 9 15 12 16 11 17 10 18 4 20 20 22 17 24
REMARK H PARENT 10 19 4 21 20 23 17 25
REMARK Flexibility Score: inf
ROOT
ATOM      1  C   UNL     1     -13.320 -29.461 -10.338  1.00  0.00     0.180 A 
ATOM      2  C   UNL     1     -14.196 -30.470 -10.773  1.00  0.00     0.208 A 
ATOM      3  C   UNL     1     -15.058 -30.206 -11.850  1.00  0.00     0.238 A 
ATOM      4  O   UNL     1     -15.801 -31.130 -12.270  1.00  0.00    -0.285 OA
ATOM      5  C   UNL     1     -15.045 -28.931 -12.466  1.00  0.00     0.111 A 
ATOM      6  C   UNL     1     -15.902 -28.541 -13.538  1.00  0.00     0.134 A 
ATOM      7  C   UNL     1     -15.713 -27.298 -14.157  1.00  0.00     0.093 A 
ATOM      8  C   UNL     1     -14.742 -26.408 -13.702  1.00  0.00     0.123 A 
ATOM      9  C   UNL     1     -13.936 -26.756 -12.616  1.00  0.00     0.094 A 
ATOM     10  C   UNL     1     -14.078 -28.002 -12.001  1.00  0.00     0.146 A 
ATOM     11  O   UNL     1     -13.285 -28.298 -10.977  1.00  0.00    -0.452 OA
ENDROOT
BRANCH   1  12
ATOM     12  C   UNL     1     -12.400 -29.656  -9.194  1.00  0.00     0.021 A 
ATOM     13  C   UNL     1     -11.472 -30.711  -9.225  1.00  0.00     0.016 A 
ATOM     14  C   UNL     1     -10.578 -30.899  -8.166  1.00  0.00     0.047 A 
ATOM     15  C   UNL     1     -10.591 -30.027  -7.070  1.00  0.00     0.115 A 
ATOM     16  C   UNL     1     -12.393 -28.772  -8.099  1.00  0.00     0.016 A 
ATOM     17  C   UNL     1     -11.498 -28.962  -7.043  1.00  0.00     0.047 A 
BRANCH  15  18
ATOM     18  O   UNL     1      -9.707 -30.205  -6.009  1.00  0.00    -0.508 OA
ATOM     19  H   UNL     1      -9.775 -31.005  -5.392  1.00  0.00     0.293 HD
ENDBRANCH  15  18
ENDBRANCH   1  12
BRANCH   2  20
ATOM     20  O   UNL     1     -14.178 -31.728 -10.165  1.00  0.00    -0.502 OA
ATOM     21  H   UNL     1     -14.513 -32.563 -10.630  1.00  0.00     0.293 HD
ENDBRANCH   2  20
BRANCH   6  22
ATOM     22  O   UNL     1     -16.965 -29.317 -14.010  1.00  0.00    -0.507 OA
ATOM     23  H   UNL     1     -17.815 -29.499 -13.498  1.00  0.00     0.293 HD
ENDBRANCH   6  22
BRANCH   8  24
ATOM     24  O   UNL     1     -14.590 -25.174 -14.331  1.00  0.00    -0.508 OA
ATOM     25  H   UNL     1     -13.704 -24.888 -14.730  1.00  0.00     0.293 HD
ENDBRANCH   8  24
TORSDOF 5
ENDMDL
MODEL 2
REMARK VINA RESULT:    -7.331      1.559      3.095
REMARK INTER + INTRA:          -8.628
REMARK INTER:                  -9.002
REMARK INTRA:                   0.375
REMARK UNBOUND:                -0.011
REMARK SMILES O=c1c(O)c(-c2ccc(O)cc2)oc2cc(O)cc(O)c12
REMARK SMILES IDX 5 1 3 2 2 3 1 4 21 5 19 6 18 7 16 8 15 9 14 10 13 11 6 12
REMARK SMILES IDX 7 13 8 14 9 15 12 16 11 17 10 18 4 20 20 22 17 24
REMARK H PARENT 10 19 4 21 20 23 17 25
REMARK Flexibility Score: inf
ROOT
ATOM      1  C   UNL     1     -12.884 -29.680  -9.680  1.00  0.00     0.180 A 
ATOM      2  C   UNL     1     -13.294 -28.368  -9.973  1.00  0.00     0.208 A 
ATOM      3  C   UNL     1     -14.207 -28.157 -11.020  1.00  0.00     0.238 A 
ATOM      4  O   UNL     1     -14.611 -26.987 -11.243  1.00  0.00    -0.285 OA
ATOM      5  C   UNL     1     -14.685 -29.259 -11.770  1.00  0.00     0.111 A 
ATOM      6  C   UNL     1     -15.580 -29.158 -12.876  1.00  0.00     0.134 A 
ATOM      7  C   UNL     1     -16.089 -30.325 -13.462  1.00  0.00     0.093 A 
ATOM      8  C   UNL     1     -15.687 -31.585 -13.023  1.00  0.00     0.123 A 
ATOM      9  C   UNL     1     -14.766 -31.695 -11.980  1.00  0.00     0.094 A 
ATOM     10  C   UNL     1     -14.268 -30.550 -11.352  1.00  0.00     0.146 A 
ATOM     11  O   UNL     1     -13.401 -30.698 -10.357  1.00  0.00    -0.452 OA
ENDROOT
BRANCH   1  12
ATOM     12  C   UNL     1     -11.907 -29.979  -8.608  1.00  0.00     0.021 A 
ATOM     13  C   UNL     1     -11.110 -31.133  -8.700  1.00  0.00     0.016 A 
ATOM     14  C   UNL     1     -10.165 -31.422  -7.711  1.00  0.00     0.047 A 
ATOM     15  C   UNL     1      -9.993 -30.553  -6.626  1.00  0.00     0.115 A 
ATOM     16  C   UNL     1     -11.714 -29.101  -7.526  1.00  0.00     0.016 A 
ATOM     17  C   UNL     1     -10.767 -29.392  -6.539  1.00  0.00     0.047 A 
BRANCH  15  18
ATOM     18  O   UNL     1      -9.056 -30.831  -5.635  1.00  0.00    -0.508 OA
ATOM     19  H   UNL     1      -9.170 -30.489  -4.688  1.00  0.00     0.293 HD
ENDBRANCH  15  18
ENDBRANCH   1  12
BRANCH   2  20
ATOM     20  O   UNL     1     -12.826 -27.297  -9.207  1.00  0.00    -0.502 OA
ATOM     21  H   UNL     1     -12.895 -27.279  -8.197  1.00  0.00     0.293 HD
ENDBRANCH   2  20
BRANCH   6  22
ATOM     22  O   UNL     1     -15.976 -27.947 -13.453  1.00  0.00    -0.507 OA
ATOM     23  H   UNL     1     -15.955 -27.749 -14.442  1.00  0.00     0.293 HD
ENDBRANCH   6  22
BRANCH   8  24
ATOM     24  O   UNL     1     -16.201 -32.724 -13.638  1.00  0.00    -0.508 OA
ATOM     25  H   UNL     1     -15.645 -33.279 -14.277  1.00  0.00     0.293 HD
ENDBRANCH   8  24
TORSDOF 5
ENDMDL
MODEL 3
REMARK VINA RESULT:    -6.846      1.660      7.253
REMARK INTER + INTRA:          -8.058
REMARK INTER:                  -8.335
REMARK INTRA:                   0.277
REMARK UNBOUND:                -0.011
REMARK SMILES O=c1c(O)c(-c2ccc(O)cc2)oc2cc(O)cc(O)c12
REMARK SMILES IDX 5 1 3 2 2 3 1 4 21 5 19 6 18 7 16 8 15 9 14 10 13 11 6 12
REMARK SMILES IDX 7 13 8 14 9 15 12 16 11 17 10 18 4 20 20 22 17 24
REMARK H PARENT 10 19 4 21 20 23 17 25
REMARK Flexibility Score: inf
ROOT
ATOM      1  C   UNL     1     -13.164 -29.762  -9.980  1.00  0.00     0.180 A 
ATOM      2  C   UNL     1     -12.837 -28.699  -9.120  1.00  0.00     0.208 A 
ATOM      3  C   UNL     1     -11.863 -28.901  -8.128  1.00  0.00     0.238 A 
ATOM      4  O   UNL     1     -11.536 -27.931  -7.396  1.00  0.00    -0.285 OA
ATOM      5  C   UNL     1     -11.240 -30.166  -7.999  1.00  0.00     0.111 A 
ATOM      6  C   UNL     1     -10.269 -30.493  -7.006  1.00  0.00     0.134 A 
ATOM      7  C   UNL     1      -9.624 -31.736  -7.054  1.00  0.00     0.093 A 
ATOM      8  C   UNL     1      -9.959 -32.685  -8.019  1.00  0.00     0.123 A 
ATOM      9  C   UNL     1     -10.950 -32.397  -8.959  1.00  0.00     0.094 A 
ATOM     10  C   UNL     1     -11.586 -31.153  -8.959  1.00  0.00     0.146 A 
ATOM     11  O   UNL     1     -12.516 -30.915  -9.877  1.00  0.00    -0.452 OA
ENDROOT
BRANCH   1  12
ATOM     12  C   UNL     1     -14.198 -29.633 -11.032  1.00  0.00     0.021 A 
ATOM     13  C   UNL     1     -14.325 -28.422 -11.733  1.00  0.00     0.016 A 
ATOM     14  C   UNL     1     -15.279 -28.286 -12.746  1.00  0.00     0.047 A 
ATOM     15  C   UNL     1     -16.108 -29.365 -13.082  1.00  0.00     0.115 A 
ATOM     16  C   UNL     1     -15.019 -30.718 -11.390  1.00  0.00     0.016 A 
ATOM     17  C   UNL     1     -15.971 -30.580 -12.404  1.00  0.00     0.047 A 
BRANCH  15  18
ATOM     18  O   UNL     1     -17.061 -29.242 -14.089  1.00  0.00    -0.508 OA
ATOM     19  H   UNL     1     -16.890 -29.589 -15.025  1.00  0.00     0.293 HD
ENDBRANCH  15  18
ENDBRANCH   1  12
BRANCH   2  20
ATOM     20  O   UNL     1     -13.449 -27.453  -9.277  1.00  0.00    -0.502 OA
ATOM     21  H   UNL     1     -13.149 -26.783  -9.974  1.00  0.00     0.293 HD
ENDBRANCH   2  20
BRANCH   6  22
ATOM     22  O   UNL     1      -9.926 -29.653  -5.943  1.00  0.00    -0.507 OA
ATOM     23  H   UNL     1     -10.190 -28.683  -5.870  1.00  0.00     0.293 HD
ENDBRANCH   6  22
BRANCH   8  24
ATOM     24  O   UNL     1      -9.308 -33.916  -8.028  1.00  0.00    -0.508 OA
ATOM     25  H   UNL     1      -9.792 -34.770  -8.279  1.00  0.00     0.293 HD
ENDBRANCH   8  24
TORSDOF 5
ENDMDL
MODEL 4
REMARK VINA RESULT:    -6.508      3.369      5.592
REMARK INTER + INTRA:          -7.660
REMARK INTER:                  -7.480
REMARK INTRA:                  -0.180
REMARK UNBOUND:                -0.011
REMARK SMILES O=c1c(O)c(-c2ccc(O)cc2)oc2cc(O)cc(O)c12
REMARK SMILES IDX 5 1 3 2 2 3 1 4 21 5 19 6 18 7 16 8 15 9 14 10 13 11 6 12
REMARK SMILES IDX 7 13 8 14 9 15 12 16 11 17 10 18 4 20 20 22 17 24
REMARK H PARENT 10 19 4 21 20 23 17 25
REMARK Flexibility Score: inf
ROOT
ATOM      1  C   UNL     1     -14.851 -31.274 -13.296  1.00  0.00     0.180 A 
ATOM      2  C   UNL     1     -15.045 -30.901 -11.955  1.00  0.00     0.208 A 
ATOM      3  C   UNL     1     -14.936 -29.545 -11.603  1.00  0.00     0.238 A 
ATOM      4  O   UNL     1     -15.164 -29.211 -10.412  1.00  0.00    -0.285 OA
ATOM      5  C   UNL     1     -14.619 -28.584 -12.593  1.00  0.00     0.111 A 
ATOM      6  C   UNL     1     -14.445 -27.190 -12.342  1.00  0.00     0.134 A 
ATOM      7  C   UNL     1     -14.262 -26.312 -13.417  1.00  0.00     0.093 A 
ATOM      8  C   UNL     1     -14.182 -26.783 -14.727  1.00  0.00     0.123 A 
ATOM      9  C   UNL     1     -14.292 -28.152 -14.978  1.00  0.00     0.094 A 
ATOM     10  C   UNL     1     -14.512 -29.049 -13.929  1.00  0.00     0.146 A 
ATOM     11  O   UNL     1     -14.620 -30.342 -14.212  1.00  0.00    -0.452 OA
ENDROOT
BRANCH   1  12
ATOM     12  C   UNL     1     -14.925 -32.685 -13.740  1.00  0.00     0.021 A 
ATOM     13  C   UNL     1     -13.744 -33.363 -14.091  1.00  0.00     0.016 A 
ATOM     14  C   UNL     1     -13.788 -34.702 -14.490  1.00  0.00     0.047 A 
ATOM     15  C   UNL     1     -15.011 -35.386 -14.528  1.00  0.00     0.115 A 
ATOM     16  C   UNL     1     -16.145 -33.385 -13.760  1.00  0.00     0.016 A 
ATOM     17  C   UNL     1     -16.186 -34.724 -14.159  1.00  0.00     0.047 A 
BRANCH  15  18
ATOM     18  O   UNL     1     -15.067 -36.719 -14.924  1.00  0.00    -0.508 OA
ATOM     19  H   UNL     1     -15.669 -37.385 -14.455  1.00  0.00     0.293 HD
ENDBRANCH  15  18
ENDBRANCH   1  12
BRANCH   2  20
ATOM     20  O   UNL     1     -15.378 -31.863 -10.998  1.00  0.00    -0.502 OA
ATOM     21  H   UNL     1     -14.852 -32.721 -10.883  1.00  0.00     0.293 HD
ENDBRANCH   2  20
BRANCH   6  22
ATOM     22  O   UNL     1     -14.416 -26.624 -11.063  1.00  0.00    -0.507 OA
ATOM     23  H   UNL     1     -14.399 -27.151 -10.203  1.00  0.00     0.293 HD
ENDBRANCH   6  22
BRANCH   8  24
ATOM     24  O   UNL     1     -13.984 -25.883 -15.771  1.00  0.00    -0.508 OA
ATOM     25  H   UNL     1     -14.442 -26.002 -16.667  1.00  0.00     0.293 HD
ENDBRANCH   8  24
TORSDOF 5
ENDMDL
MODEL 5
REMARK VINA RESULT:    -6.483      2.794      6.030
REMARK INTER + INTRA:          -7.632
REMARK INTER:                  -7.592
REMARK INTRA:                  -0.040
REMARK UNBOUND:                -0.011
REMARK SMILES O=c1c(O)c(-c2ccc(O)cc2)oc2cc(O)cc(O)c12
REMARK SMILES IDX 5 1 3 2 2 3 1 4 21 5 19 6 18 7 16 8 15 9 14 10 13 11 6 12
REMARK SMILES IDX 7 13 8 14 9 15 12 16 11 17 10 18 4 20 20 22 17 24
REMARK H PARENT 10 19 4 21 20 23 17 25
REMARK Flexibility Score: inf
ROOT
ATOM      1  C   UNL     1     -14.715 -31.008 -12.089  1.00  0.00     0.180 A 
ATOM      2  C   UNL     1     -15.312 -29.838 -12.591  1.00  0.00     0.208 A 
ATOM      3  C   UNL     1     -15.158 -28.636 -11.879  1.00  0.00     0.238 A 
ATOM      4  O   UNL     1     -15.649 -27.583 -12.360  1.00  0.00    -0.285 OA
ATOM      5  C   UNL     1     -14.424 -28.623 -10.668  1.00  0.00     0.111 A 
ATOM      6  C   UNL     1     -14.239 -27.473  -9.846  1.00  0.00     0.134 A 
ATOM      7  C   UNL     1     -13.386 -27.545  -8.737  1.00  0.00     0.093 A 
ATOM      8  C   UNL     1     -12.763 -28.742  -8.385  1.00  0.00     0.123 A 
ATOM      9  C   UNL     1     -12.984 -29.889  -9.150  1.00  0.00     0.094 A 
ATOM     10  C   UNL     1     -13.801 -29.839 -10.281  1.00  0.00     0.146 A 
ATOM     11  O   UNL     1     -13.978 -30.950 -10.986  1.00  0.00    -0.452 OA
ENDROOT
BRANCH   1  12
ATOM     12  C   UNL     1     -14.853 -32.316 -12.769  1.00  0.00     0.021 A 
ATOM     13  C   UNL     1     -14.395 -32.461 -14.090  1.00  0.00     0.016 A 
ATOM     14  C   UNL     1     -14.495 -33.693 -14.743  1.00  0.00     0.047 A 
ATOM     15  C   UNL     1     -15.039 -34.800 -14.079  1.00  0.00     0.115 A 
ATOM     16  C   UNL     1     -15.379 -33.437 -12.102  1.00  0.00     0.016 A 
ATOM     17  C   UNL     1     -15.476 -34.668 -12.757  1.00  0.00     0.047 A 
BRANCH  15  18
ATOM     18  O   UNL     1     -15.144 -36.032 -14.719  1.00  0.00    -0.508 OA
ATOM     19  H   UNL     1     -15.839 -36.198 -15.436  1.00  0.00     0.293 HD
ENDBRANCH  15  18
ENDBRANCH   1  12
BRANCH   2  20
ATOM     20  O   UNL     1     -16.014 -29.868 -13.798  1.00  0.00    -0.502 OA
ATOM     21  H   UNL     1     -16.252 -29.028 -14.310  1.00  0.00     0.293 HD
ENDBRANCH   2  20
BRANCH   6  22
ATOM     22  O   UNL     1     -14.887 -26.251 -10.054  1.00  0.00    -0.507 OA
ATOM     23  H   UNL     1     -14.888 -25.744 -10.926  1.00  0.00     0.293 HD
ENDBRANCH   6  22
BRANCH   8  24
ATOM     24  O   UNL     1     -11.932 -28.782  -7.268  1.00  0.00    -0.508 OA
ATOM     25  H   UNL     1     -12.309 -28.834  -6.329  1.00  0.00     0.293 HD
ENDBRANCH   8  24
TORSDOF 5
ENDMDL
MODEL 6
REMARK VINA RESULT:    -6.401      1.758      3.827
REMARK INTER + INTRA:          -7.534
REMARK INTER:                  -7.928
REMARK INTRA:                   0.393
REMARK UNBOUND:                -0.011
REMARK SMILES O=c1c(O)c(-c2ccc(O)cc2)oc2cc(O)cc(O)c12
REMARK SMILES IDX 5 1 3 2 2 3 1 4 21 5 19 6 18 7 16 8 15 9 14 10 13 11 6 12
REMARK SMILES IDX 7 13 8 14 9 15 12 16 11 17 10 18 4 20 20 22 17 24
REMARK H PARENT 10 19 4 21 20 23 17 25
REMARK Flexibility Score: inf
ROOT
ATOM      1  C   UNL     1     -11.968 -30.434  -8.810  1.00  0.00     0.180 A 
ATOM      2  C   UNL     1     -11.889 -29.034  -8.715  1.00  0.00     0.208 A 
ATOM      3  C   UNL     1     -12.684 -28.249  -9.568  1.00  0.00     0.238 A 
ATOM      4  O   UNL     1     -12.649 -26.997  -9.443  1.00  0.00    -0.285 OA
ATOM      5  C   UNL     1     -13.533 -28.873 -10.513  1.00  0.00     0.111 A 
ATOM      6  C   UNL     1     -14.350 -28.176 -11.452  1.00  0.00     0.134 A 
ATOM      7  C   UNL     1     -15.249 -28.894 -12.252  1.00  0.00     0.093 A 
ATOM      8  C   UNL     1     -15.313 -30.285 -12.193  1.00  0.00     0.123 A 
ATOM      9  C   UNL     1     -14.476 -30.981 -11.320  1.00  0.00     0.094 A 
ATOM     10  C   UNL     1     -13.595 -30.291 -10.483  1.00  0.00     0.146 A 
ATOM     11  O   UNL     1     -12.822 -30.990  -9.660  1.00  0.00    -0.452 OA
ENDROOT
BRANCH   1  12
ATOM     12  C   UNL     1     -11.144 -31.328  -7.963  1.00  0.00     0.021 A 
ATOM     13  C   UNL     1     -10.734 -30.892  -6.692  1.00  0.00     0.016 A 
ATOM     14  C   UNL     1      -9.975 -31.728  -5.867  1.00  0.00     0.047 A 
ATOM     15  C   UNL     1      -9.630 -33.016  -6.297  1.00  0.00     0.115 A 
ATOM     16  C   UNL     1     -10.812 -32.630  -8.378  1.00  0.00     0.016 A 
ATOM     17  C   UNL     1     -10.055 -33.465  -7.551  1.00  0.00     0.047 A 
BRANCH  15  18
ATOM     18  O   UNL     1      -8.875 -33.858  -5.484  1.00  0.00    -0.508 OA
ATOM     19  H   UNL     1      -9.290 -34.655  -5.017  1.00  0.00     0.293 HD
ENDBRANCH  15  18
ENDBRANCH   1  12
BRANCH   2  20
ATOM     20  O   UNL     1     -11.061 -28.438  -7.762  1.00  0.00    -0.502 OA
ATOM     21  H   UNL     1     -10.244 -28.903  -7.384  1.00  0.00     0.293 HD
ENDBRANCH   2  20
BRANCH   6  22
ATOM     22  O   UNL     1     -14.299 -26.794 -11.658  1.00  0.00    -0.507 OA
ATOM     23  H   UNL     1     -14.745 -26.311 -12.422  1.00  0.00     0.293 HD
ENDBRANCH   6  22
BRANCH   8  24
ATOM     24  O   UNL     1     -16.208 -30.968 -13.014  1.00  0.00    -0.508 OA
ATOM     25  H   UNL     1     -17.200 -30.764 -13.001  1.00  0.00     0.293 HD
ENDBRANCH   8  24
TORSDOF 5
ENDMDL
MODEL 7
REMARK VINA RESULT:    -6.341      2.337      6.384
REMARK INTER + INTRA:          -7.464
REMARK INTER:                  -7.369
REMARK INTRA:                  -0.096
REMARK UNBOUND:                -0.011
REMARK SMILES O=c1c(O)c(-c2ccc(O)cc2)oc2cc(O)cc(O)c12
REMARK SMILES IDX 5 1 3 2 2 3 1 4 21 5 19 6 18 7 16 8 15 9 14 10 13 11 6 12
REMARK SMILES IDX 7 13 8 14 9 15 12 16 11 17 10 18 4 20 20 22 17 24
REMARK H PARENT 10 19 4 21 20 23 17 25
REMARK Flexibility Score: inf
ROOT
ATOM      1  C   UNL     1     -14.189 -30.769 -11.387  1.00  0.00     0.180 A 
ATOM      2  C   UNL     1     -14.744 -29.479 -11.442  1.00  0.00     0.208 A 
ATOM      3  C   UNL     1     -14.300 -28.507 -10.530  1.00  0.00     0.238 A 
ATOM      4  O   UNL     1     -14.762 -27.340 -10.618  1.00  0.00    -0.285 OA
ATOM      5  C   UNL     1     -13.319 -28.841  -9.566  1.00  0.00     0.111 A 
ATOM      6  C   UNL     1     -12.825 -27.948  -8.569  1.00  0.00     0.134 A 
ATOM      7  C   UNL     1     -11.761 -28.347  -7.750  1.00  0.00     0.093 A 
ATOM      8  C   UNL     1     -11.216 -29.626  -7.849  1.00  0.00     0.123 A 
ATOM      9  C   UNL     1     -11.731 -30.529  -8.781  1.00  0.00     0.094 A 
ATOM     10  C   UNL     1     -12.769 -30.148  -9.636  1.00  0.00     0.146 A 
ATOM     11  O   UNL     1     -13.224 -31.033 -10.515  1.00  0.00    -0.452 OA
ENDROOT
BRANCH   1  12
ATOM     12  C   UNL     1     -14.623 -31.853 -12.298  1.00  0.00     0.021 A 
ATOM     13  C   UNL     1     -14.406 -31.724 -13.680  1.00  0.00     0.016 A 
ATOM     14  C   UNL     1     -14.788 -32.745 -14.555  1.00  0.00     0.047 A 
ATOM     15  C   UNL     1     -15.377 -33.915 -14.058  1.00  0.00     0.115 A 
ATOM     16  C   UNL     1     -15.197 -33.039 -11.804  1.00  0.00     0.016 A 
ATOM     17  C   UNL     1     -15.576 -34.059 -12.682  1.00  0.00     0.047 A 
BRANCH  15  18
ATOM     18  O   UNL     1     -15.762 -34.939 -14.920  1.00  0.00    -0.508 OA
ATOM     19  H   UNL     1     -16.200 -34.743 -15.812  1.00  0.00     0.293 HD
ENDBRANCH  15  18
ENDBRANCH   1  12
BRANCH   2  20
ATOM     20  O   UNL     1     -15.696 -29.164 -12.414  1.00  0.00    -0.502 OA
ATOM     21  H   UNL     1     -15.927 -28.209 -12.661  1.00  0.00     0.293 HD
ENDBRANCH   2  20
BRANCH   6  22
ATOM     22  O   UNL     1     -13.359 -26.679  -8.324  1.00  0.00    -0.507 OA
ATOM     23  H   UNL     1     -13.387 -26.234  -7.420  1.00  0.00     0.293 HD
ENDBRANCH   6  22
BRANCH   8  24
ATOM     24  O   UNL     1     -10.168 -29.994  -7.008  1.00  0.00    -0.508 OA
ATOM     25  H   UNL     1      -9.208 -30.005  -7.332  1.00  0.00     0.293 HD
ENDBRANCH   8  24
TORSDOF 5
ENDMDL
MODEL 8
REMARK VINA RESULT:    -6.264      1.751      3.422
REMARK INTER + INTRA:          -7.374
REMARK INTER:                  -7.729
REMARK INTRA:                   0.355
REMARK UNBOUND:                -0.011
REMARK SMILES O=c1c(O)c(-c2ccc(O)cc2)oc2cc(O)cc(O)c12
REMARK SMILES IDX 5 1 3 2 2 3 1 4 21 5 19 6 18 7 16 8 15 9 14 10 13 11 6 12
REMARK SMILES IDX 7 13 8 14 9 15 12 16 11 17 10 18 4 20 20 22 17 24
REMARK H PARENT 10 19 4 21 20 23 17 25
REMARK Flexibility Score: inf
ROOT
ATOM      1  C   UNL     1     -13.109 -29.227  -9.945  1.00  0.00     0.180 A 
ATOM      2  C   UNL     1     -13.894 -28.187 -10.471  1.00  0.00     0.208 A 
ATOM      3  C   UNL     1     -14.832 -28.482 -11.475  1.00  0.00     0.238 A 
ATOM      4  O   UNL     1     -15.569 -27.557 -11.904  1.00  0.00    -0.285 OA
ATOM      5  C   UNL     1     -14.961 -29.809 -11.950  1.00  0.00     0.111 A 
ATOM      6  C   UNL     1     -15.850 -30.214 -12.990  1.00  0.00     0.134 A 
ATOM      7  C   UNL     1     -15.988 -31.576 -13.290  1.00  0.00     0.093 A 
ATOM      8  C   UNL     1     -15.225 -32.539 -12.632  1.00  0.00     0.123 A 
ATOM      9  C   UNL     1     -14.310 -32.148 -11.653  1.00  0.00     0.094 A 
ATOM     10  C   UNL     1     -14.175 -30.801 -11.308  1.00  0.00     0.146 A 
ATOM     11  O   UNL     1     -13.300 -30.472 -10.365  1.00  0.00    -0.452 OA
ENDROOT
BRANCH   1  12
ATOM     12  C   UNL     1     -12.083 -28.991  -8.904  1.00  0.00     0.021 A 
ATOM     13  C   UNL     1     -11.636 -30.065  -8.116  1.00  0.00     0.016 A 
ATOM     14  C   UNL     1     -10.651 -29.868  -7.143  1.00  0.00     0.047 A 
ATOM     15  C   UNL     1     -10.090 -28.598  -6.957  1.00  0.00     0.115 A 
ATOM     16  C   UNL     1     -11.499 -27.723  -8.725  1.00  0.00     0.016 A 
ATOM     17  C   UNL     1     -10.514 -27.529  -7.752  1.00  0.00     0.047 A 
BRANCH  15  18
ATOM     18  O   UNL     1      -9.109 -28.390  -5.991  1.00  0.00    -0.508 OA
ATOM     19  H   UNL     1      -9.151 -28.845  -5.087  1.00  0.00     0.293 HD
ENDBRANCH  15  18
ENDBRANCH   1  12
BRANCH   2  20
ATOM     20  O   UNL     1     -13.766 -26.888  -9.974  1.00  0.00    -0.502 OA
ATOM     21  H   UNL     1     -12.886 -26.520  -9.632  1.00  0.00     0.293 HD
ENDBRANCH   2  20
BRANCH   6  22
ATOM     22  O   UNL     1     -16.592 -29.325 -13.774  1.00  0.00    -0.507 OA
ATOM     23  H   UNL     1     -16.200 -28.709 -14.470  1.00  0.00     0.293 HD
ENDBRANCH   6  22
BRANCH   8  24
ATOM     24  O   UNL     1     -15.377 -33.883 -12.965  1.00  0.00    -0.508 OA
ATOM     25  H   UNL     1     -14.651 -34.562 -12.773  1.00  0.00     0.293 HD
ENDBRANCH   8  24
TORSDOF 5
ENDMDL
MODEL 9
REMARK VINA RESULT:    -6.022      3.347      6.167
REMARK INTER + INTRA:          -7.090
REMARK INTER:                  -6.912
REMARK INTRA:                  -0.177
REMARK UNBOUND:                -0.011
REMARK SMILES O=c1c(O)c(-c2ccc(O)cc2)oc2cc(O)cc(O)c12
REMARK SMILES IDX 5 1 3 2 2 3 1 4 21 5 19 6 18 7 16 8 15 9 14 10 13 11 6 12
REMARK SMILES IDX 7 13 8 14 9 15 12 16 11 17 10 18 4 20 20 22 17 24
REMARK H PARENT 10 19 4 21 20 23 17 25
REMARK Flexibility Score: inf
ROOT
ATOM      1  C   UNL     1     -14.659 -31.406 -13.230  1.00  0.00     0.180 A 
ATOM      2  C   UNL     1     -14.385 -30.364 -14.132  1.00  0.00     0.208 A 
ATOM      3  C   UNL     1     -14.331 -29.044 -13.653  1.00  0.00     0.238 A 
ATOM      4  O   UNL     1     -14.033 -28.122 -14.455  1.00  0.00    -0.285 OA
ATOM      5  C   UNL     1     -14.568 -28.782 -12.282  1.00  0.00     0.111 A 
ATOM      6  C   UNL     1     -14.577 -27.482 -11.696  1.00  0.00     0.134 A 
ATOM      7  C   UNL     1     -14.693 -27.351 -10.306  1.00  0.00     0.093 A 
ATOM      8  C   UNL     1     -14.863 -28.468  -9.489  1.00  0.00     0.123 A 
ATOM      9  C   UNL     1     -14.915 -29.742 -10.059  1.00  0.00     0.094 A 
ATOM     10  C   UNL     1     -14.766 -29.906 -11.438  1.00  0.00     0.146 A 
ATOM     11  O   UNL     1     -14.811 -31.135 -11.939  1.00  0.00    -0.452 OA
ENDROOT
BRANCH   1  12
ATOM     12  C   UNL     1     -14.757 -32.818 -13.664  1.00  0.00     0.021 A 
ATOM     13  C   UNL     1     -16.015 -33.444 -13.705  1.00  0.00     0.016 A 
ATOM     14  C   UNL     1     -16.132 -34.770 -14.133  1.00  0.00     0.047 A 
ATOM     15  C   UNL     1     -14.997 -35.482 -14.541  1.00  0.00     0.115 A 
ATOM     16  C   UNL     1     -13.624 -33.533 -14.094  1.00  0.00     0.016 A 
ATOM     17  C   UNL     1     -13.745 -34.858 -14.523  1.00  0.00     0.047 A 
BRANCH  15  18
ATOM     18  O   UNL     1     -15.102 -36.802 -14.969  1.00  0.00    -0.508 OA
ATOM     19  H   UNL     1     -14.889 -37.577 -14.352  1.00  0.00     0.293 HD
ENDBRANCH  15  18
ENDBRANCH   1  12
BRANCH   2  20
ATOM     20  O   UNL     1     -14.135 -30.646 -15.477  1.00  0.00    -0.502 OA
ATOM     21  H   UNL     1     -14.216 -29.946 -16.205  1.00  0.00     0.293 HD
ENDBRANCH   2  20
BRANCH   6  22
ATOM     22  O   UNL     1     -14.506 -26.293 -12.430  1.00  0.00    -0.507 OA
ATOM     23  H   UNL     1     -14.205 -26.230 -13.390  1.00  0.00     0.293 HD
ENDBRANCH   6  22
BRANCH   8  24
ATOM     24  O   UNL     1     -14.990 -28.301  -8.112  1.00  0.00    -0.508 OA
ATOM     25  H   UNL     1     -15.896 -28.298  -7.660  1.00  0.00     0.293 HD
ENDBRANCH   8  24
TORSDOF 5
ENDMDL
