MODEL 1
REMARK VINA RESULT:    -8.556      0.000      0.000
REMARK INTER + INTRA:         -10.199
REMARK INTER:                 -10.057
REMARK INTRA:                  -0.142
REMARK UNBOUND:                -0.142
REMARK SMILES O=c1c(O)c(-c2ccc(O)c(O)c2)oc2cc(O)ccc12
REMARK SMILES IDX 5 1 3 2 2 3 1 4 21 5 15 6 14 7 16 8 17 9 19 10 20 11 6 12
REMARK SMILES IDX 7 13 8 14 9 15 13 16 11 17 10 18 12 20 4 22 18 24
REMARK H PARENT 10 19 12 21 4 23 18 25
REMARK Flexibility Score: inf
ROOT
ATOM      1  C   UNL     1      -2.058   3.046 -11.247  1.00  0.00     0.180 A 
ATOM      2  C   UNL     1      -3.375   2.620 -11.518  1.00  0.00     0.208 A 
ATOM      3  C   UNL     1      -3.782   2.494 -12.856  1.00  0.00     0.235 A 
ATOM      4  O   UNL     1      -4.952   2.104 -13.124  1.00  0.00    -0.285 OA
ATOM      5  C   UNL     1      -2.882   2.811 -13.885  1.00  0.00     0.069 A 
ATOM      6  C   UNL     1      -1.589   3.252 -13.530  1.00  0.00     0.142 A 
ATOM      7  O   UNL     1      -1.240   3.350 -12.253  1.00  0.00    -0.452 OA
ATOM      8  C   UNL     1      -0.667   3.588 -14.527  1.00  0.00     0.094 A 
ATOM      9  C   UNL     1      -1.021   3.485 -15.879  1.00  0.00     0.119 A 
ATOM     10  C   UNL     1      -2.300   3.045 -16.233  1.00  0.00     0.047 A 
ATOM     11  C   UNL     1      -3.230   2.710 -15.244  1.00  0.00     0.020 A 
ENDROOT
BRANCH   1  12
ATOM     12  C   UNL     1      -1.547   3.187  -9.865  1.00  0.00     0.025 A 
ATOM     13  C   UNL     1      -2.111   4.110  -8.967  1.00  0.00     0.016 A 
ATOM     14  C   UNL     1      -1.628   4.209  -7.659  1.00  0.00     0.051 A 
ATOM     15  C   UNL     1      -0.587   3.383  -7.224  1.00  0.00     0.157 A 
ATOM     16  C   UNL     1      -0.516   2.344  -9.418  1.00  0.00     0.062 A 
ATOM     17  C   UNL     1      -0.031   2.442  -8.107  1.00  0.00     0.158 A 
BRANCH  15  18
ATOM     18  O   UNL     1      -0.126   3.505  -5.915  1.00  0.00    -0.504 OA
ATOM     19  H   UNL     1      -0.747   3.446  -5.118  1.00  0.00     0.293 HD
ENDBRANCH  15  18
BRANCH  17  20
ATOM     20  O   UNL     1       1.001   1.609  -7.678  1.00  0.00    -0.504 OA
ATOM     21  H   UNL     1       0.815   0.741  -7.188  1.00  0.00     0.293 HD
ENDBRANCH  17  20
ENDBRANCH   1  12
BRANCH   2  22
ATOM     22  O   UNL     1      -4.264   2.359 -10.473  1.00  0.00    -0.502 OA
ATOM     23  H   UNL     1      -4.777   1.489 -10.403  1.00  0.00     0.293 HD
ENDBRANCH   2  22
BRANCH   9  24
ATOM     24  O   UNL     1      -0.107   3.816 -16.879  1.00  0.00    -0.508 OA
ATOM     25  H   UNL     1      -0.408   4.012 -17.827  1.00  0.00     0.293 HD
ENDBRANCH   9  24
TORSDOF 5
ENDMDL
MODEL 2
REMARK VINA RESULT:    -8.462      1.520      6.600
REMARK INTER + INTRA:         -10.089
REMARK INTER:                  -9.933
REMARK INTRA:                  -0.156
REMARK UNBOUND:                -0.142
REMARK SMILES O=c1c(O)c(-c2ccc(O)c(O)c2)oc2cc(O)ccc12
REMARK SMILES IDX 5 1 3 2 2 3 1 4 21 5 15 6 14 7 16 8 17 9 19 10 20 11 6 12
REMARK SMILES IDX 7 13 8 14 9 15 13 16 11 17 10 18 12 20 4 22 18 24
REMARK H PARENT 10 19 12 21 4 23 18 25
REMARK Flexibility Score: inf
ROOT
ATOM      1  C   UNL     1      -1.103   2.789 -12.269  1.00  0.00     0.180 A 
ATOM      2  C   UNL     1      -2.490   2.967 -12.093  1.00  0.00     0.208 A 
ATOM      3  C   UNL     1      -2.969   3.333 -10.824  1.00  0.00     0.235 A 
ATOM      4  O   UNL     1      -4.205   3.509 -10.644  1.00  0.00    -0.285 OA
ATOM      5  C   UNL     1      -2.063   3.493  -9.765  1.00  0.00     0.069 A 
ATOM      6  C   UNL     1      -0.691   3.274 -10.018  1.00  0.00     0.142 A 
ATOM      7  O   UNL     1      -0.279   2.936 -11.234  1.00  0.00    -0.452 OA
ATOM      8  C   UNL     1       0.242   3.414  -8.985  1.00  0.00     0.094 A 
ATOM      9  C   UNL     1      -0.179   3.774  -7.698  1.00  0.00     0.119 A 
ATOM     10  C   UNL     1      -1.537   3.994  -7.445  1.00  0.00     0.047 A 
ATOM     11  C   UNL     1      -2.478   3.854  -8.470  1.00  0.00     0.020 A 
ENDROOT
BRANCH   1  12
ATOM     12  C   UNL     1      -0.519   2.420 -13.579  1.00  0.00     0.025 A 
ATOM     13  C   UNL     1       0.094   1.171 -13.781  1.00  0.00     0.016 A 
ATOM     14  C   UNL     1       0.617   0.835 -15.033  1.00  0.00     0.051 A 
ATOM     15  C   UNL     1       0.526   1.731 -16.102  1.00  0.00     0.157 A 
ATOM     16  C   UNL     1      -0.628   3.309 -14.660  1.00  0.00     0.062 A 
ATOM     17  C   UNL     1      -0.104   2.974 -15.917  1.00  0.00     0.158 A 
BRANCH  15  18
ATOM     18  O   UNL     1       1.057   1.369 -17.338  1.00  0.00    -0.504 OA
ATOM     19  H   UNL     1       1.001   1.975 -18.147  1.00  0.00     0.293 HD
ENDBRANCH  15  18
BRANCH  17  20
ATOM     20  O   UNL     1      -0.206   3.869 -16.980  1.00  0.00    -0.504 OA
ATOM     21  H   UNL     1       0.612   4.317 -17.378  1.00  0.00     0.293 HD
ENDBRANCH  17  20
ENDBRANCH   1  12
BRANCH   2  22
ATOM     22  O   UNL     1      -3.373   2.752 -13.154  1.00  0.00    -0.502 OA
ATOM     23  H   UNL     1      -3.949   3.491 -13.537  1.00  0.00     0.293 HD
ENDBRANCH   2  22
BRANCH   9  24
ATOM     24  O   UNL     1       0.744   3.916  -6.663  1.00  0.00    -0.508 OA
ATOM     25  H   UNL     1       0.751   4.738  -6.070  1.00  0.00     0.293 HD
ENDBRANCH   9  24
TORSDOF 5
ENDMDL
MODEL 3
REMARK VINA RESULT:    -8.209      2.074      6.870
REMARK INTER + INTRA:          -9.791
REMARK INTER:                  -9.502
REMARK INTRA:                  -0.289
REMARK UNBOUND:                -0.142
REMARK SMILES O=c1c(O)c(-c2ccc(O)c(O)c2)oc2cc(O)ccc12
REMARK SMILES IDX 5 1 3 2 2 3 1 4 21 5 15 6 14 7 16 8 17 9 19 10 20 11 6 12
REMARK SMILES IDX 7 13 8 14 9 15 13 16 11 17 10 18 12 20 4 22 18 24
REMARK H PARENT 10 19 12 21 4 23 18 25
REMARK Flexibility Score: inf
ROOT
ATOM      1  C   UNL     1      -1.142   2.275 -12.539  1.00  0.00     0.180 A 
ATOM      2  C   UNL     1      -0.255   1.191 -12.702  1.00  0.00     0.208 A 
ATOM      3  C   UNL     1       0.608   0.858 -11.646  1.00  0.00     0.235 A 
ATOM      4  O   UNL     1       1.403  -0.115 -11.764  1.00  0.00    -0.285 OA
ATOM      5  C   UNL     1       0.581   1.620 -10.467  1.00  0.00     0.069 A 
ATOM      6  C   UNL     1      -0.319   2.704 -10.392  1.00  0.00     0.142 A 
ATOM      7  O   UNL     1      -1.124   2.980 -11.411  1.00  0.00    -0.452 OA
ATOM      8  C   UNL     1      -0.368   3.494  -9.238  1.00  0.00     0.094 A 
ATOM      9  C   UNL     1       0.474   3.211  -8.153  1.00  0.00     0.119 A 
ATOM     10  C   UNL     1       1.365   2.135  -8.225  1.00  0.00     0.047 A 
ATOM     11  C   UNL     1       1.423   1.342  -9.375  1.00  0.00     0.020 A 
ENDROOT
BRANCH   1  12
ATOM     12  C   UNL     1      -2.094   2.677 -13.599  1.00  0.00     0.025 A 
ATOM     13  C   UNL     1      -3.451   2.315 -13.539  1.00  0.00     0.016 A 
ATOM     14  C   UNL     1      -4.337   2.727 -14.539  1.00  0.00     0.051 A 
ATOM     15  C   UNL     1      -3.887   3.514 -15.602  1.00  0.00     0.157 A 
ATOM     16  C   UNL     1      -1.650   3.486 -14.657  1.00  0.00     0.062 A 
ATOM     17  C   UNL     1      -2.538   3.901 -15.661  1.00  0.00     0.158 A 
BRANCH  15  18
ATOM     18  O   UNL     1      -4.794   3.909 -16.585  1.00  0.00    -0.504 OA
ATOM     19  H   UNL     1      -4.501   4.142 -17.526  1.00  0.00     0.293 HD
ENDBRANCH  15  18
BRANCH  17  20
ATOM     20  O   UNL     1      -2.084   4.692 -16.714  1.00  0.00    -0.504 OA
ATOM     21  H   UNL     1      -2.516   4.657 -17.630  1.00  0.00     0.293 HD
ENDBRANCH  17  20
ENDBRANCH   1  12
BRANCH   2  22
ATOM     22  O   UNL     1      -0.217   0.481 -13.905  1.00  0.00    -0.502 OA
ATOM     23  H   UNL     1       0.522   0.609 -14.586  1.00  0.00     0.293 HD
ENDBRANCH   2  22
BRANCH   9  24
ATOM     24  O   UNL     1       0.431   3.991  -6.999  1.00  0.00    -0.508 OA
ATOM     25  H   UNL     1       1.043   4.790  -6.877  1.00  0.00     0.293 HD
ENDBRANCH   9  24
TORSDOF 5
ENDMDL
MODEL 4
REMARK VINA RESULT:    -8.127      2.364      3.862
REMARK INTER + INTRA:          -9.694
REMARK INTER:                  -9.370
REMARK INTRA:                  -0.324
REMARK UNBOUND:                -0.142
REMARK SMILES O=c1c(O)c(-c2ccc(O)c(O)c2)oc2cc(O)ccc12
REMARK SMILES IDX 5 1 3 2 2 3 1 4 21 5 15 6 14 7 16 8 17 9 19 10 20 11 6 12
REMARK SMILES IDX 7 13 8 14 9 15 13 16 11 17 10 18 12 20 4 22 18 24
REMARK H PARENT 10 19 12 21 4 23 18 25
REMARK Flexibility Score: inf
ROOT
ATOM      1  C   UNL     1      -1.283   2.325 -12.051  1.00  0.00     0.180 A 
ATOM      2  C   UNL     1      -0.351   1.359 -11.616  1.00  0.00     0.208 A 
ATOM      3  C   UNL     1       0.543   0.814 -12.551  1.00  0.00     0.235 A 
ATOM      4  O   UNL     1       1.394  -0.043 -12.183  1.00  0.00    -0.285 OA
ATOM      5  C   UNL     1       0.477   1.225 -13.891  1.00  0.00     0.069 A 
ATOM      6  C   UNL     1      -0.499   2.178 -14.251  1.00  0.00     0.142 A 
ATOM      7  O   UNL     1      -1.322   2.676 -13.334  1.00  0.00    -0.452 OA
ATOM      8  C   UNL     1      -0.604   2.606 -15.579  1.00  0.00     0.094 A 
ATOM      9  C   UNL     1       0.260   2.092 -16.555  1.00  0.00     0.119 A 
ATOM     10  C   UNL     1       1.230   1.150 -16.201  1.00  0.00     0.047 A 
ATOM     11  C   UNL     1       1.341   0.714 -14.876  1.00  0.00     0.020 A 
ENDROOT
BRANCH   1  12
ATOM     12  C   UNL     1      -2.247   2.959 -11.124  1.00  0.00     0.025 A 
ATOM     13  C   UNL     1      -1.926   4.139 -10.429  1.00  0.00     0.016 A 
ATOM     14  C   UNL     1      -2.862   4.734  -9.578  1.00  0.00     0.051 A 
ATOM     15  C   UNL     1      -4.131   4.171  -9.418  1.00  0.00     0.157 A 
ATOM     16  C   UNL     1      -3.530   2.409 -10.977  1.00  0.00     0.062 A 
ATOM     17  C   UNL     1      -4.470   3.004 -10.124  1.00  0.00     0.158 A 
BRANCH  15  18
ATOM     18  O   UNL     1      -5.043   4.786  -8.561  1.00  0.00    -0.504 OA
ATOM     19  H   UNL     1      -5.040   5.786  -8.401  1.00  0.00     0.293 HD
ENDBRANCH  15  18
BRANCH  17  20
ATOM     20  O   UNL     1      -5.737   2.442  -9.975  1.00  0.00    -0.504 OA
ATOM     21  H   UNL     1      -6.012   1.971  -9.120  1.00  0.00     0.293 HD
ENDBRANCH  17  20
ENDBRANCH   1  12
BRANCH   2  22
ATOM     22  O   UNL     1      -0.341   0.933 -10.286  1.00  0.00    -0.502 OA
ATOM     23  H   UNL     1      -0.923   1.361  -9.576  1.00  0.00     0.293 HD
ENDBRANCH   2  22
BRANCH   9  24
ATOM     24  O   UNL     1       0.164   2.513 -17.880  1.00  0.00    -0.508 OA
ATOM     25  H   UNL     1      -0.128   3.455 -18.117  1.00  0.00     0.293 HD
ENDBRANCH   9  24
TORSDOF 5
ENDMDL
MODEL 5
REMARK VINA RESULT:    -7.766      2.923      4.610
REMARK INTER + INTRA:          -9.271
REMARK INTER:                  -9.318
REMARK INTRA:                   0.047
REMARK UNBOUND:                -0.142
REMARK SMILES O=c1c(O)c(-c2ccc(O)c(O)c2)oc2cc(O)ccc12
REMARK SMILES IDX 5 1 3 2 2 3 1 4 21 5 15 6 14 7 16 8 17 9 19 10 20 11 6 12
REMARK SMILES IDX 7 13 8 14 9 15 13 16 11 17 10 18 12 20 4 22 18 24
REMARK H PARENT 10 19 12 21 4 23 18 25
REMARK Flexibility Score: inf
ROOT
ATOM      1  C   UNL     1      -2.358   1.925 -12.836  1.00  0.00     0.180 A 
ATOM      2  C   UNL     1      -1.366   1.300 -12.052  1.00  0.00     0.208 A 
ATOM      3  C   UNL     1      -0.121   1.017 -12.636  1.00  0.00     0.235 A 
ATOM      4  O   UNL     1       0.786   0.468 -11.951  1.00  0.00    -0.285 OA
ATOM      5  C   UNL     1       0.099   1.343 -13.983  1.00  0.00     0.069 A 
ATOM      6  C   UNL     1      -0.953   1.945 -14.707  1.00  0.00     0.142 A 
ATOM      7  O   UNL     1      -2.113   2.203 -14.114  1.00  0.00    -0.452 OA
ATOM      8  C   UNL     1      -0.775   2.275 -16.054  1.00  0.00     0.094 A 
ATOM      9  C   UNL     1       0.446   2.012 -16.691  1.00  0.00     0.119 A 
ATOM     10  C   UNL     1       1.489   1.417 -15.975  1.00  0.00     0.047 A 
ATOM     11  C   UNL     1       1.322   1.081 -14.628  1.00  0.00     0.020 A 
ENDROOT
BRANCH   1  12
ATOM     12  C   UNL     1      -3.689   2.271 -12.289  1.00  0.00     0.025 A 
ATOM     13  C   UNL     1      -4.872   1.891 -12.947  1.00  0.00     0.016 A 
ATOM     14  C   UNL     1      -6.119   2.209 -12.399  1.00  0.00     0.051 A 
ATOM     15  C   UNL     1      -6.203   2.896 -11.185  1.00  0.00     0.157 A 
ATOM     16  C   UNL     1      -3.778   2.943 -11.059  1.00  0.00     0.062 A 
ATOM     17  C   UNL     1      -5.028   3.262 -10.508  1.00  0.00     0.158 A 
BRANCH  15  18
ATOM     18  O   UNL     1      -7.460   3.199 -10.664  1.00  0.00    -0.504 OA
ATOM     19  H   UNL     1      -7.880   4.114 -10.771  1.00  0.00     0.293 HD
ENDBRANCH  15  18
BRANCH  17  20
ATOM     20  O   UNL     1      -5.105   3.941  -9.293  1.00  0.00    -0.504 OA
ATOM     21  H   UNL     1      -4.515   4.740  -9.093  1.00  0.00     0.293 HD
ENDBRANCH  17  20
ENDBRANCH   1  12
BRANCH   2  22
ATOM     22  O   UNL     1      -1.631   0.942 -10.728  1.00  0.00    -0.502 OA
ATOM     23  H   UNL     1      -2.178   1.527 -10.108  1.00  0.00     0.293 HD
ENDBRANCH   2  22
BRANCH   9  24
ATOM     24  O   UNL     1       0.631   2.338 -18.033  1.00  0.00    -0.508 OA
ATOM     25  H   UNL     1      -0.082   2.149 -18.728  1.00  0.00     0.293 HD
ENDBRANCH   9  24
TORSDOF 5
ENDMDL
MODEL 6
REMARK VINA RESULT:    -7.689      1.795      3.182
REMARK INTER + INTRA:          -9.180
REMARK INTER:                  -8.918
REMARK INTRA:                  -0.262
REMARK UNBOUND:                -0.142
REMARK SMILES O=c1c(O)c(-c2ccc(O)c(O)c2)oc2cc(O)ccc12
REMARK SMILES IDX 5 1 3 2 2 3 1 4 21 5 15 6 14 7 16 8 17 9 19 10 20 11 6 12
REMARK SMILES IDX 7 13 8 14 9 15 13 16 11 17 10 18 12 20 4 22 18 24
REMARK H PARENT 10 19 12 21 4 23 18 25
REMARK Flexibility Score: inf
ROOT
ATOM      1  C   UNL     1      -1.471   2.337 -12.499  1.00  0.00     0.180 A 
ATOM      2  C   UNL     1      -0.372   2.023 -13.326  1.00  0.00     0.208 A 
ATOM      3  C   UNL     1      -0.523   2.124 -14.718  1.00  0.00     0.235 A 
ATOM      4  O   UNL     1       0.449   1.859 -15.479  1.00  0.00    -0.285 OA
ATOM      5  C   UNL     1      -1.761   2.514 -15.252  1.00  0.00     0.069 A 
ATOM      6  C   UNL     1      -2.818   2.788 -14.358  1.00  0.00     0.142 A 
ATOM      7  O   UNL     1      -2.632   2.688 -13.047  1.00  0.00    -0.452 OA
ATOM      8  C   UNL     1      -4.071   3.170 -14.851  1.00  0.00     0.094 A 
ATOM      9  C   UNL     1      -4.280   3.283 -16.232  1.00  0.00     0.119 A 
ATOM     10  C   UNL     1      -3.234   3.015 -17.119  1.00  0.00     0.047 A 
ATOM     11  C   UNL     1      -1.979   2.630 -16.637  1.00  0.00     0.020 A 
ENDROOT
BRANCH   1  12
ATOM     12  C   UNL     1      -1.387   2.271 -11.023  1.00  0.00     0.025 A 
ATOM     13  C   UNL     1      -1.401   1.041 -10.342  1.00  0.00     0.016 A 
ATOM     14  C   UNL     1      -1.296   1.003  -8.949  1.00  0.00     0.051 A 
ATOM     15  C   UNL     1      -1.162   2.186  -8.217  1.00  0.00     0.157 A 
ATOM     16  C   UNL     1      -1.231   3.456 -10.285  1.00  0.00     0.062 A 
ATOM     17  C   UNL     1      -1.125   3.420  -8.888  1.00  0.00     0.158 A 
BRANCH  15  18
ATOM     18  O   UNL     1      -1.060   2.116  -6.828  1.00  0.00    -0.504 OA
ATOM     19  H   UNL     1      -0.808   1.260  -6.350  1.00  0.00     0.293 HD
ENDBRANCH  15  18
BRANCH  17  20
ATOM     20  O   UNL     1      -0.984   4.603  -8.165  1.00  0.00    -0.504 OA
ATOM     21  H   UNL     1      -0.488   5.401  -8.544  1.00  0.00     0.293 HD
ENDBRANCH  17  20
ENDBRANCH   1  12
BRANCH   2  22
ATOM     22  O   UNL     1       0.833   1.590 -12.768  1.00  0.00    -0.502 OA
ATOM     23  H   UNL     1       1.467   2.220 -12.292  1.00  0.00     0.293 HD
ENDBRANCH   2  22
BRANCH   9  24
ATOM     24  O   UNL     1      -5.524   3.664 -16.732  1.00  0.00    -0.508 OA
ATOM     25  H   UNL     1      -6.379   3.483 -16.219  1.00  0.00     0.293 HD
ENDBRANCH   9  24
TORSDOF 5
ENDMDL
MODEL 7
REMARK VINA RESULT:    -7.668      2.356      6.422
REMARK INTER + INTRA:          -9.155
REMARK INTER:                  -8.838
REMARK INTRA:                  -0.317
REMARK UNBOUND:                -0.142
REMARK SMILES O=c1c(O)c(-c2ccc(O)c(O)c2)oc2cc(O)ccc12
REMARK SMILES IDX 5 1 3 2 2 3 1 4 21 5 15 6 14 7 16 8 17 9 19 10 20 11 6 12
REMARK SMILES IDX 7 13 8 14 9 15 13 16 11 17 10 18 12 20 4 22 18 24
REMARK H PARENT 10 19 12 21 4 23 18 25
REMARK Flexibility Score: inf
ROOT
ATOM      1  C   UNL     1      -1.901   2.714 -13.216  1.00  0.00     0.180 A 
ATOM      2  C   UNL     1      -1.356   3.000 -11.948  1.00  0.00     0.208 A 
ATOM      3  C   UNL     1      -2.225   3.128 -10.852  1.00  0.00     0.235 A 
ATOM      4  O   UNL     1      -1.760   3.373  -9.705  1.00  0.00    -0.285 OA
ATOM      5  C   UNL     1      -3.607   2.989 -11.048  1.00  0.00     0.069 A 
ATOM      6  C   UNL     1      -4.075   2.726 -12.353  1.00  0.00     0.142 A 
ATOM      7  O   UNL     1      -3.219   2.604 -13.361  1.00  0.00    -0.452 OA
ATOM      8  C   UNL     1      -5.447   2.591 -12.591  1.00  0.00     0.094 A 
ATOM      9  C   UNL     1      -6.361   2.713 -11.535  1.00  0.00     0.119 A 
ATOM     10  C   UNL     1      -5.900   2.971 -10.241  1.00  0.00     0.047 A 
ATOM     11  C   UNL     1      -4.530   3.110  -9.993  1.00  0.00     0.020 A 
ENDROOT
BRANCH   1  12
ATOM     12  C   UNL     1      -1.051   2.546 -14.417  1.00  0.00     0.025 A 
ATOM     13  C   UNL     1      -0.706   3.642 -15.228  1.00  0.00     0.016 A 
ATOM     14  C   UNL     1       0.118   3.464 -16.343  1.00  0.00     0.051 A 
ATOM     15  C   UNL     1       0.620   2.197 -16.657  1.00  0.00     0.157 A 
ATOM     16  C   UNL     1      -0.527   1.280 -14.723  1.00  0.00     0.062 A 
ATOM     17  C   UNL     1       0.300   1.099 -15.841  1.00  0.00     0.158 A 
BRANCH  15  18
ATOM     18  O   UNL     1       1.438   2.050 -17.776  1.00  0.00    -0.504 OA
ATOM     19  H   UNL     1       1.301   1.307 -18.449  1.00  0.00     0.293 HD
ENDBRANCH  15  18
BRANCH  17  20
ATOM     20  O   UNL     1       0.803  -0.165 -16.143  1.00  0.00    -0.504 OA
ATOM     21  H   UNL     1       0.322  -1.010 -15.859  1.00  0.00     0.293 HD
ENDBRANCH  17  20
ENDBRANCH   1  12
BRANCH   2  22
ATOM     22  O   UNL     1       0.020   3.182 -11.792  1.00  0.00    -0.502 OA
ATOM     23  H   UNL     1       0.458   4.092 -11.867  1.00  0.00     0.293 HD
ENDBRANCH   2  22
BRANCH   9  24
ATOM     24  O   UNL     1      -7.730   2.579 -11.762  1.00  0.00    -0.508 OA
ATOM     25  H   UNL     1      -8.305   3.374 -12.015  1.00  0.00     0.293 HD
ENDBRANCH   9  24
TORSDOF 5
ENDMDL
MODEL 8
REMARK VINA RESULT:    -7.620      2.114      3.054
REMARK INTER + INTRA:          -9.099
REMARK INTER:                  -9.042
REMARK INTRA:                  -0.056
REMARK UNBOUND:                -0.142
REMARK SMILES O=c1c(O)c(-c2ccc(O)c(O)c2)oc2cc(O)ccc12
REMARK SMILES IDX 5 1 3 2 2 3 1 4 21 5 15 6 14 7 16 8 17 9 19 10 20 11 6 12
REMARK SMILES IDX 7 13 8 14 9 15 13 16 11 17 10 18 12 20 4 22 18 24
REMARK H PARENT 10 19 12 21 4 23 18 25
REMARK Flexibility Score: inf
ROOT
ATOM      1  C   UNL     1      -0.019   2.410 -11.918  1.00  0.00     0.180 A 
ATOM      2  C   UNL     1       0.530   1.222 -12.444  1.00  0.00     0.208 A 
ATOM      3  C   UNL     1       0.428   0.983 -13.824  1.00  0.00     0.235 A 
ATOM      4  O   UNL     1       0.922  -0.067 -14.320  1.00  0.00    -0.285 OA
ATOM      5  C   UNL     1      -0.231   1.916 -14.639  1.00  0.00     0.069 A 
ATOM      6  C   UNL     1      -0.775   3.069 -14.032  1.00  0.00     0.142 A 
ATOM      7  O   UNL     1      -0.650   3.261 -12.724  1.00  0.00    -0.452 OA
ATOM      8  C   UNL     1      -1.449   4.017 -14.809  1.00  0.00     0.094 A 
ATOM      9  C   UNL     1      -1.585   3.828 -16.191  1.00  0.00     0.119 A 
ATOM     10  C   UNL     1      -1.045   2.689 -16.795  1.00  0.00     0.047 A 
ATOM     11  C   UNL     1      -0.371   1.734 -16.027  1.00  0.00     0.020 A 
ENDROOT
BRANCH   1  12
ATOM     12  C   UNL     1       0.062   2.743 -10.478  1.00  0.00     0.025 A 
ATOM     13  C   UNL     1       1.292   2.748  -9.796  1.00  0.00     0.016 A 
ATOM     14  C   UNL     1       1.348   3.090  -8.442  1.00  0.00     0.051 A 
ATOM     15  C   UNL     1       0.184   3.442  -7.753  1.00  0.00     0.157 A 
ATOM     16  C   UNL     1      -1.101   3.118  -9.787  1.00  0.00     0.062 A 
ATOM     17  C   UNL     1      -1.047   3.460  -8.428  1.00  0.00     0.158 A 
BRANCH  15  18
ATOM     18  O   UNL     1       0.271   3.776  -6.402  1.00  0.00    -0.504 OA
ATOM     19  H   UNL     1      -0.415   4.367  -5.949  1.00  0.00     0.293 HD
ENDBRANCH  15  18
BRANCH  17  20
ATOM     20  O   UNL     1      -2.210   3.818  -7.749  1.00  0.00    -0.504 OA
ATOM     21  H   UNL     1      -2.358   3.565  -6.779  1.00  0.00     0.293 HD
ENDBRANCH  17  20
ENDBRANCH   1  12
BRANCH   2  22
ATOM     22  O   UNL     1       1.138   0.289 -11.601  1.00  0.00    -0.502 OA
ATOM     23  H   UNL     1       1.065   0.342 -10.592  1.00  0.00     0.293 HD
ENDBRANCH   2  22
BRANCH   9  24
ATOM     24  O   UNL     1      -2.253   4.768 -16.973  1.00  0.00    -0.508 OA
ATOM     25  H   UNL     1      -2.286   4.690 -17.984  1.00  0.00     0.293 HD
ENDBRANCH   9  24
TORSDOF 5
ENDMDL
