MODEL 1
REMARK VINA RESULT:     0.720      0.000      0.000
REMARK INTER + INTRA:           0.783
REMARK INTER:                   0.783
REMARK INTRA:                   0.000
REMARK UNBOUND:                 0.000
REMARK SMILES Cc1cc(O)c2c(c1)C(=O)c1cc(O)cc(O)c1C2=O
REMARK SMILES IDX 1 1 2 2 8 3 7 4 6 5 4 6 3 7 19 8 20 9 18 10 11 11 9 12 10 13
REMARK SMILES IDX 12 14 13 15 15 16 16 17 5 18 17 20 14 22
REMARK H PARENT 5 19 17 21 14 23
REMARK Flexibility Score: inf
ROOT
ATOM      1  C   UNL     1      81.569  34.212  50.649  1.00  0.00     0.044 C 
ATOM      2  C   UNL     1      80.244  33.736  51.165  1.00  0.00    -0.047 A 
ATOM      3  C   UNL     1      79.117  34.561  51.075  1.00  0.00     0.016 A 
ATOM      4  C   UNL     1      77.876  34.136  51.580  1.00  0.00     0.038 A 
ATOM      5  C   UNL     1      77.762  32.865  52.188  1.00  0.00     0.076 A 
ATOM      6  C   UNL     1      78.926  32.070  52.352  1.00  0.00     0.127 A 
ATOM      7  C   UNL     1      80.145  32.505  51.822  1.00  0.00     0.050 A 
ATOM      8  C   UNL     1      76.408  32.391  52.575  1.00  0.00     0.201 C 
ATOM      9  O   UNL     1      76.151  31.158  52.568  1.00  0.00    -0.288 OA
ATOM     10  C   UNL     1      75.314  33.374  52.786  1.00  0.00     0.076 A 
ATOM     11  C   UNL     1      75.433  34.645  52.181  1.00  0.00     0.041 A 
ATOM     12  C   UNL     1      76.689  35.018  51.488  1.00  0.00     0.194 C 
ATOM     13  O   UNL     1      76.755  36.099  50.839  1.00  0.00    -0.289 OA
ATOM     14  C   UNL     1      74.361  35.552  52.242  1.00  0.00     0.059 A 
ATOM     15  C   UNL     1      73.185  35.214  52.910  1.00  0.00     0.120 A 
ATOM     16  C   UNL     1      73.077  33.975  53.546  1.00  0.00     0.093 A 
ATOM     17  C   UNL     1      74.138  33.063  53.516  1.00  0.00     0.131 A 
ENDROOT
BRANCH   6  18
ATOM     18  O   UNL     1      78.924  30.867  53.061  1.00  0.00    -0.507 OA
ATOM     19  H   UNL     1      79.730  30.263  53.138  1.00  0.00     0.293 HD
ENDBRANCH   6  18
BRANCH  17  20
ATOM     20  O   UNL     1      73.993  31.883  54.250  1.00  0.00    -0.507 OA
ATOM     21  H   UNL     1      74.426  31.008  53.991  1.00  0.00     0.293 HD
ENDBRANCH  17  20
BRANCH  15  22
ATOM     22  O   UNL     1      72.130  36.125  52.947  1.00  0.00    -0.508 OA
ATOM     23  H   UNL     1      71.532  36.210  53.761  1.00  0.00     0.293 HD
ENDBRANCH  15  22
TORSDOF 3
ENDMDL
MODEL 2
REMARK VINA RESULT:     1.612      1.307      6.267
REMARK INTER + INTRA:           1.754
REMARK INTER:                   1.754
REMARK INTRA:                   0.000
REMARK UNBOUND:                 0.000
REMARK SMILES Cc1cc(O)c2c(c1)C(=O)c1cc(O)cc(O)c1C2=O
REMARK SMILES IDX 1 1 2 2 8 3 7 4 6 5 4 6 3 7 19 8 20 9 18 10 11 11 9 12 10 13
REMARK SMILES IDX 12 14 13 15 15 16 16 17 5 18 17 20 14 22
REMARK H PARENT 5 19 17 21 14 23
REMARK Flexibility Score: inf
ROOT
ATOM      1  C   UNL     1      72.363  32.207  54.628  1.00  0.00     0.044 C 
ATOM      2  C   UNL     1      73.461  32.854  53.837  1.00  0.00    -0.047 A 
ATOM      3  C   UNL     1      74.678  32.189  53.650  1.00  0.00     0.016 A 
ATOM      4  C   UNL     1      75.724  32.797  52.934  1.00  0.00     0.038 A 
ATOM      5  C   UNL     1      75.549  34.093  52.399  1.00  0.00     0.076 A 
ATOM      6  C   UNL     1      74.345  34.794  52.665  1.00  0.00     0.127 A 
ATOM      7  C   UNL     1      73.311  34.160  53.361  1.00  0.00     0.050 A 
ATOM      8  C   UNL     1      76.618  34.642  51.525  1.00  0.00     0.201 C 
ATOM      9  O   UNL     1      76.322  35.450  50.605  1.00  0.00    -0.288 OA
ATOM     10  C   UNL     1      77.997  34.096  51.614  1.00  0.00     0.076 A 
ATOM     11  C   UNL     1      78.169  32.802  52.154  1.00  0.00     0.041 A 
ATOM     12  C   UNL     1      77.012  32.089  52.747  1.00  0.00     0.194 C 
ATOM     13  O   UNL     1      77.132  30.887  53.115  1.00  0.00    -0.289 OA
ATOM     14  C   UNL     1      79.437  32.196  52.130  1.00  0.00     0.059 A 
ATOM     15  C   UNL     1      80.533  32.870  51.591  1.00  0.00     0.120 A 
ATOM     16  C   UNL     1      80.378  34.166  51.094  1.00  0.00     0.093 A 
ATOM     17  C   UNL     1      79.130  34.797  51.125  1.00  0.00     0.131 A 
ENDROOT
BRANCH   6  18
ATOM     18  O   UNL     1      74.149  36.125  52.290  1.00  0.00    -0.507 OA
ATOM     19  H   UNL     1      73.237  36.535  52.143  1.00  0.00     0.293 HD
ENDBRANCH   6  18
BRANCH  17  20
ATOM     20  O   UNL     1      79.069  36.125  50.695  1.00  0.00    -0.507 OA
ATOM     21  H   UNL     1      78.576  36.852  51.194  1.00  0.00     0.293 HD
ENDBRANCH  17  20
BRANCH  15  22
ATOM     22  O   UNL     1      81.779  32.244  51.567  1.00  0.00    -0.508 OA
ATOM     23  H   UNL     1      81.911  31.312  51.942  1.00  0.00     0.293 HD
ENDBRANCH  15  22
TORSDOF 3
ENDMDL
MODEL 3
REMARK VINA RESULT:     3.436      2.086      3.427
REMARK INTER + INTRA:           3.737
REMARK INTER:                   3.737
REMARK INTRA:                   0.000
REMARK UNBOUND:                 0.000
REMARK SMILES Cc1cc(O)c2c(c1)C(=O)c1cc(O)cc(O)c1C2=O
REMARK SMILES IDX 1 1 2 2 8 3 7 4 6 5 4 6 3 7 19 8 20 9 18 10 11 11 9 12 10 13
REMARK SMILES IDX 12 14 13 15 15 16 16 17 5 18 17 20 14 22
REMARK H PARENT 5 19 17 21 14 23
REMARK Flexibility Score: inf
ROOT
ATOM      1  C   UNL     1      77.073  36.124  49.920  1.00  0.00     0.044 C 
ATOM      2  C   UNL     1      76.467  35.237  50.966  1.00  0.00    -0.047 A 
ATOM      3  C   UNL     1      75.247  35.581  51.560  1.00  0.00     0.016 A 
ATOM      4  C   UNL     1      74.684  34.772  52.561  1.00  0.00     0.038 A 
ATOM      5  C   UNL     1      75.353  33.598  52.976  1.00  0.00     0.076 A 
ATOM      6  C   UNL     1      76.629  33.301  52.431  1.00  0.00     0.127 A 
ATOM      7  C   UNL     1      77.159  34.110  51.421  1.00  0.00     0.050 A 
ATOM      8  C   UNL     1      74.659  32.692  53.927  1.00  0.00     0.201 C 
ATOM      9  O   UNL     1      74.888  31.454  53.893  1.00  0.00    -0.288 OA
ATOM     10  C   UNL     1      73.564  33.219  54.782  1.00  0.00     0.076 A 
ATOM     11  C   UNL     1      72.899  34.394  54.367  1.00  0.00     0.041 A 
ATOM     12  C   UNL     1      73.396  35.147  53.190  1.00  0.00     0.194 C 
ATOM     13  O   UNL     1      72.734  36.124  52.740  1.00  0.00    -0.289 OA
ATOM     14  C   UNL     1      71.771  34.847  55.073  1.00  0.00     0.059 A 
ATOM     15  C   UNL     1      71.311  34.154  56.192  1.00  0.00     0.120 A 
ATOM     16  C   UNL     1      71.989  33.015  56.632  1.00  0.00     0.093 A 
ATOM     17  C   UNL     1      73.125  32.555  55.957  1.00  0.00     0.131 A 
ENDROOT
BRANCH   6  18
ATOM     18  O   UNL     1      77.415  32.239  52.885  1.00  0.00    -0.507 OA
ATOM     19  H   UNL     1      77.180  31.268  52.737  1.00  0.00     0.293 HD
ENDBRANCH   6  18
BRANCH  17  20
ATOM     20  O   UNL     1      73.804  31.465  56.508  1.00  0.00    -0.507 OA
ATOM     21  H   UNL     1      73.454  30.517  56.478  1.00  0.00     0.293 HD
ENDBRANCH  17  20
BRANCH  15  22
ATOM     22  O   UNL     1      70.183  34.615  56.869  1.00  0.00    -0.508 OA
ATOM     23  H   UNL     1      69.249  34.469  56.501  1.00  0.00     0.293 HD
ENDBRANCH  15  22
TORSDOF 3
ENDMDL
