MODEL 1
REMARK VINA RESULT:     9.905      0.000      0.000
REMARK INTER + INTRA:          11.263
REMARK INTER:                  10.774
REMARK INTRA:                   0.489
REMARK UNBOUND:                 0.489
REMARK SMILES C[C@@H]1[C@H]2C3=CC[C@H]4[C@@]5(C)CC[C@H](O)C(C)(C)[C@@H]5CC[C@@]4(C)[C@@]3(C)CC[C@]2(C(=O)[O-])CC[C@@H]1C
REMARK SMILES IDX 26 1 30 2 25 3 3 4 31 5 24 6 4 7 2 8 32 9 22 10 5 11 1 12
REMARK SMILES IDX 33 13 23 14 20 15 6 16 7 17 19 18 21 19 8 20 18 21 17 22
REMARK SMILES IDX 10 23 9 24 14 25 11 26 12 27 15 28 16 29 27 30 28 31 29 32
REMARK SMILES IDX 13 33
REMARK H PARENT 13 34
REMARK Flexibility Score: inf
ROOT
ATOM      1  C   UNL     1       8.239  -9.287  13.290  1.00  0.00     0.017 C 
ATOM      2  C   UNL     1       8.082 -10.424  14.334  1.00  0.00     0.014 C 
ATOM      3  C   UNL     1       8.062  -9.903  11.897  1.00  0.00     0.014 C 
ATOM      4  C   UNL     1       7.115  -8.219  13.553  1.00  0.00     0.030 C 
ATOM      5  C   UNL     1       8.277  -9.912  15.764  1.00  0.00     0.004 C 
ATOM      6  C   UNL     1       8.240  -8.847  10.807  1.00  0.00     0.013 C 
ATOM      7  C   UNL     1       6.931  -7.240  12.353  1.00  0.00    -0.063 C 
ATOM      8  C   UNL     1       7.346  -7.625  15.021  1.00  0.00    -0.003 C 
ATOM      9  C   UNL     1       7.315  -8.760  16.103  1.00  0.00    -0.011 C 
ATOM     10  C   UNL     1       7.221  -7.660  10.891  1.00  0.00    -0.006 C 
ATOM     11  C   UNL     1       6.044  -6.235  12.456  1.00  0.00    -0.027 C 
ATOM     12  C   UNL     1       6.439  -6.473  15.493  1.00  0.00     0.008 C 
ATOM     13  C   UNL     1       5.893  -9.286  16.412  1.00  0.00     0.008 C 
ATOM     14  C   UNL     1       5.876  -8.228  10.317  1.00  0.00     0.017 C 
ATOM     15  C   UNL     1       7.711  -6.373  10.043  1.00  0.00    -0.020 C 
ATOM     16  C   UNL     1       5.973  -5.073  11.508  1.00  0.00     0.032 C 
ATOM     17  C   UNL     1       6.583  -5.248  10.071  1.00  0.00     0.006 C 
ATOM     18  C   UNL     1       9.020  -5.755  10.641  1.00  0.00     0.008 C 
ATOM     19  C   UNL     1       8.024  -6.843   8.583  1.00  0.00     0.012 C 
ATOM     20  C   UNL     1       6.994  -3.835   9.432  1.00  0.00    -0.025 C 
ATOM     21  C   UNL     1       9.449  -4.412  10.009  1.00  0.00     0.005 C 
ATOM     22  C   UNL     1       8.333  -3.342  10.108  1.00  0.00     0.003 C 
ATOM     23  C   UNL     1       5.875  -2.765   9.690  1.00  0.00     0.010 C 
ATOM     24  C   UNL     1       7.112  -3.982   7.875  1.00  0.00     0.012 C 
ATOM     25  C   UNL     1       8.781  -1.860   9.768  1.00  0.00    -0.006 C 
ATOM     26  C   UNL     1       6.281  -1.333   9.307  1.00  0.00     0.033 C 
ATOM     27  C   UNL     1       7.568  -0.902  10.034  1.00  0.00     0.120 C 
ATOM     28  C   UNL     1       9.917  -1.424  10.733  1.00  0.00     0.014 C 
ATOM     29  C   UNL     1       9.325  -1.693   8.326  1.00  0.00     0.014 C 
ENDROOT
BRANCH   1  30
ATOM     30  C   UNL     1       9.662  -8.728  13.373  1.00  0.00     0.048 C 
ATOM     31  O   UNL     1       9.909  -7.526  13.090  1.00  0.00    -0.550 OA
ATOM     32  O   UNL     1      10.728  -9.574  13.664  1.00  0.00    -0.550 OA
ENDBRANCH   1  30
BRANCH  27  33
ATOM     33  O   UNL     1       7.881   0.439   9.747  1.00  0.00    -0.393 OA
ATOM     34  H   UNL     1       8.865   0.510   9.624  1.00  0.00     0.210 HD
ENDBRANCH  27  33
TORSDOF 2
ENDMDL
MODEL 2
REMARK VINA RESULT:    10.635      1.460      7.791
REMARK INTER + INTRA:          12.057
REMARK INTER:                  10.942
REMARK INTRA:                   1.114
REMARK UNBOUND:                 0.489
REMARK SMILES C[C@@H]1[C@H]2C3=CC[C@H]4[C@@]5(C)CC[C@H](O)C(C)(C)[C@@H]5CC[C@@]4(C)[C@@]3(C)CC[C@]2(C(=O)[O-])CC[C@@H]1C
REMARK SMILES IDX 26 1 30 2 25 3 3 4 31 5 24 6 4 7 2 8 32 9 22 10 5 11 1 12
REMARK SMILES IDX 33 13 23 14 20 15 6 16 7 17 19 18 21 19 8 20 18 21 17 22
REMARK SMILES IDX 10 23 9 24 14 25 11 26 12 27 15 28 16 29 27 30 28 31 29 32
REMARK SMILES IDX 13 33
REMARK H PARENT 13 34
REMARK Flexibility Score: inf
ROOT
ATOM      1  C   UNL     1       7.494  -1.367   8.958  1.00  0.00     0.017 C 
ATOM      2  C   UNL     1       7.883  -0.033   8.267  1.00  0.00     0.014 C 
ATOM      3  C   UNL     1       6.795  -2.247   7.915  1.00  0.00     0.014 C 
ATOM      4  C   UNL     1       8.812  -2.064   9.457  1.00  0.00     0.030 C 
ATOM      5  C   UNL     1       8.561   0.934   9.242  1.00  0.00     0.004 C 
ATOM      6  C   UNL     1       6.346  -3.571   8.533  1.00  0.00     0.013 C 
ATOM      7  C   UNL     1       8.591  -3.566   9.817  1.00  0.00    -0.063 C 
ATOM      8  C   UNL     1       9.498  -1.095  10.529  1.00  0.00    -0.003 C 
ATOM      9  C   UNL     1       9.802   0.312   9.906  1.00  0.00    -0.011 C 
ATOM     10  C   UNL     1       7.515  -4.434   9.120  1.00  0.00    -0.006 C 
ATOM     11  C   UNL     1       9.616  -4.280  10.314  1.00  0.00    -0.027 C 
ATOM     12  C   UNL     1      10.761  -1.590  11.259  1.00  0.00     0.008 C 
ATOM     13  C   UNL     1      11.017   0.319   8.947  1.00  0.00     0.008 C 
ATOM     14  C   UNL     1       8.211  -5.089   7.875  1.00  0.00     0.017 C 
ATOM     15  C   UNL     1       6.983  -5.567  10.144  1.00  0.00    -0.020 C 
ATOM     16  C   UNL     1       9.470  -5.628  10.958  1.00  0.00     0.032 C 
ATOM     17  C   UNL     1       8.199  -6.483  10.613  1.00  0.00     0.006 C 
ATOM     18  C   UNL     1       6.341  -4.930  11.422  1.00  0.00     0.008 C 
ATOM     19  C   UNL     1       5.877  -6.401   9.414  1.00  0.00     0.012 C 
ATOM     20  C   UNL     1       7.867  -7.537  11.777  1.00  0.00    -0.025 C 
ATOM     21  C   UNL     1       5.981  -5.938  12.536  1.00  0.00     0.005 C 
ATOM     22  C   UNL     1       7.210  -6.766  12.988  1.00  0.00     0.003 C 
ATOM     23  C   UNL     1       9.179  -8.239  12.278  1.00  0.00     0.010 C 
ATOM     24  C   UNL     1       6.951  -8.674  11.203  1.00  0.00     0.012 C 
ATOM     25  C   UNL     1       7.014  -7.601  14.321  1.00  0.00    -0.006 C 
ATOM     26  C   UNL     1       8.984  -9.098  13.537  1.00  0.00     0.033 C 
ATOM     27  C   UNL     1       8.382  -8.275  14.689  1.00  0.00     0.120 C 
ATOM     28  C   UNL     1       6.658  -6.641  15.490  1.00  0.00     0.014 C 
ATOM     29  C   UNL     1       5.875  -8.649  14.234  1.00  0.00     0.014 C 
ENDROOT
BRANCH   1  30
ATOM     30  C   UNL     1       6.484  -1.074  10.071  1.00  0.00     0.048 C 
ATOM     31  O   UNL     1       6.088  -1.982  10.849  1.00  0.00    -0.550 OA
ATOM     32  O   UNL     1       5.905   0.187  10.174  1.00  0.00    -0.550 OA
ENDBRANCH   1  30
BRANCH  27  33
ATOM     33  O   UNL     1       8.292  -9.045  15.863  1.00  0.00    -0.393 OA
ATOM     34  H   UNL     1       9.036  -9.703  15.863  1.00  0.00     0.210 HD
ENDBRANCH  27  33
TORSDOF 2
ENDMDL
