MODEL 1
REMARK VINA RESULT:    -4.163      0.000      0.000
REMARK INTER + INTRA:          -5.976
REMARK INTER:                  -5.623
REMARK INTRA:                  -0.353
REMARK UNBOUND:                -0.353
REMARK SMILES CCCCCCC=CC(=O)[O-]
REMARK SMILES IDX 5 1 6 2 7 3 8 4 9 5 10 6 11 7 4 8 3 9 2 10 1 11
REMARK H PARENT
REMARK Flexibility Score: inf
ROOT
ATOM      1  C   UNL     1      -8.293  15.129 -12.133  1.00  0.00     0.004 C 
ENDROOT
BRANCH   1   2
ATOM      2  C   UNL     1      -9.477  16.010 -12.567  1.00  0.00     0.027 C 
BRANCH   2   3
ATOM      3  C   UNL     1      -9.127  17.471 -12.610  1.00  0.00    -0.025 C 
ATOM      4  C   UNL     1      -8.488  18.006 -13.656  1.00  0.00     0.020 C 
BRANCH   4   5
ATOM      5  C   UNL     1      -8.141  19.435 -13.719  1.00  0.00     0.064 C 
ATOM      6  O   UNL     1      -8.475  20.144 -14.705  1.00  0.00    -0.545 OA
ATOM      7  O   UNL     1      -7.434  20.012 -12.672  1.00  0.00    -0.545 OA
ENDBRANCH   4   5
ENDBRANCH   2   3
ENDBRANCH   1   2
BRANCH   1   8
ATOM      8  C   UNL     1      -7.882  14.057 -13.163  1.00  0.00     0.000 C 
BRANCH   8   9
ATOM      9  C   UNL     1      -8.761  13.999 -14.425  1.00  0.00    -0.000 C 
BRANCH   9  10
ATOM     10  C   UNL     1      -8.811  12.600 -15.055  1.00  0.00    -0.003 C 
ATOM     11  C   UNL     1     -10.130  12.373 -15.788  1.00  0.00     0.004 C 
ENDBRANCH   9  10
ENDBRANCH   8   9
ENDBRANCH   1   8
TORSDOF 6
ENDMDL
MODEL 2
REMARK VINA RESULT:    -4.086      0.272      1.013
REMARK INTER + INTRA:          -5.872
REMARK INTER:                  -5.519
REMARK INTRA:                  -0.353
REMARK UNBOUND:                -0.353
REMARK SMILES CCCCCCC=CC(=O)[O-]
REMARK SMILES IDX 5 1 6 2 7 3 8 4 9 5 10 6 11 7 4 8 3 9 2 10 1 11
REMARK H PARENT
REMARK Flexibility Score: inf
ROOT
ATOM      1  C   UNL     1      -8.326  15.374 -12.298  1.00  0.00     0.004 C 
ENDROOT
BRANCH   1   2
ATOM      2  C   UNL     1      -9.556  16.222 -12.667  1.00  0.00     0.027 C 
BRANCH   2   3
ATOM      3  C   UNL     1      -9.247  17.691 -12.734  1.00  0.00    -0.025 C 
ATOM      4  C   UNL     1      -8.314  18.172 -13.562  1.00  0.00     0.020 C 
BRANCH   4   5
ATOM      5  C   UNL     1      -8.001  19.608 -13.647  1.00  0.00     0.064 C 
ATOM      6  O   UNL     1      -7.380  20.195 -12.721  1.00  0.00    -0.545 OA
ATOM      7  O   UNL     1      -8.395  20.328 -14.767  1.00  0.00    -0.545 OA
ENDBRANCH   4   5
ENDBRANCH   2   3
ENDBRANCH   1   2
BRANCH   1   8
ATOM      8  C   UNL     1      -7.787  14.498 -13.448  1.00  0.00     0.000 C 
BRANCH   8   9
ATOM      9  C   UNL     1      -8.796  14.212 -14.574  1.00  0.00    -0.000 C 
BRANCH   9  10
ATOM     10  C   UNL     1      -8.839  12.730 -14.974  1.00  0.00    -0.003 C 
ATOM     11  C   UNL     1     -10.127  12.402 -15.726  1.00  0.00     0.004 C 
ENDBRANCH   9  10
ENDBRANCH   8   9
ENDBRANCH   1   8
TORSDOF 6
ENDMDL
MODEL 3
REMARK VINA RESULT:    -3.693      2.518      3.043
REMARK INTER + INTRA:          -5.342
REMARK INTER:                  -4.644
REMARK INTRA:                  -0.698
REMARK UNBOUND:                -0.353
REMARK SMILES CCCCCCC=CC(=O)[O-]
REMARK SMILES IDX 5 1 6 2 7 3 8 4 9 5 10 6 11 7 4 8 3 9 2 10 1 11
REMARK H PARENT
REMARK Flexibility Score: inf
ROOT
ATOM      1  C   UNL     1      -6.035  15.215 -15.319  1.00  0.00     0.004 C 
ENDROOT
BRANCH   1   2
ATOM      2  C   UNL     1      -7.060  16.090 -16.062  1.00  0.00     0.027 C 
BRANCH   2   3
ATOM      3  C   UNL     1      -8.162  16.579 -15.164  1.00  0.00    -0.025 C 
ATOM      4  C   UNL     1      -8.125  16.385 -13.842  1.00  0.00     0.020 C 
BRANCH   4   5
ATOM      5  C   UNL     1      -9.192  16.861 -12.946  1.00  0.00     0.064 C 
ATOM      6  O   UNL     1     -10.360  16.394 -13.017  1.00  0.00    -0.545 OA
ATOM      7  O   UNL     1      -8.905  17.841 -12.005  1.00  0.00    -0.545 OA
ENDBRANCH   4   5
ENDBRANCH   2   3
ENDBRANCH   1   2
BRANCH   1   8
ATOM      8  C   UNL     1      -6.206  13.699 -15.545  1.00  0.00     0.000 C 
BRANCH   8   9
ATOM      9  C   UNL     1      -6.339  12.861 -14.261  1.00  0.00    -0.000 C 
BRANCH   9  10
ATOM     10  C   UNL     1      -7.783  12.786 -13.745  1.00  0.00    -0.003 C 
ATOM     11  C   UNL     1      -8.780  12.779 -14.901  1.00  0.00     0.004 C 
ENDBRANCH   9  10
ENDBRANCH   8   9
ENDBRANCH   1   8
TORSDOF 6
ENDMDL
MODEL 4
REMARK VINA RESULT:    -3.547      3.322      5.886
REMARK INTER + INTRA:          -5.145
REMARK INTER:                  -4.837
REMARK INTRA:                  -0.308
REMARK UNBOUND:                -0.353
REMARK SMILES CCCCCCC=CC(=O)[O-]
REMARK SMILES IDX 5 1 6 2 7 3 8 4 9 5 10 6 11 7 4 8 3 9 2 10 1 11
REMARK H PARENT
REMARK Flexibility Score: inf
ROOT
ATOM      1  C   UNL     1      -8.886  18.052 -12.794  1.00  0.00     0.004 C 
ENDROOT
BRANCH   1   2
ATOM      2  C   UNL     1      -9.458  16.634 -12.615  1.00  0.00     0.027 C 
BRANCH   2   3
ATOM      3  C   UNL     1      -8.410  15.566 -12.748  1.00  0.00    -0.025 C 
ATOM      4  C   UNL     1      -8.545  14.558 -13.616  1.00  0.00     0.020 C 
BRANCH   4   5
ATOM      5  C   UNL     1      -7.527  13.505 -13.765  1.00  0.00     0.064 C 
ATOM      6  O   UNL     1      -7.435  12.833 -14.826  1.00  0.00    -0.545 OA
ATOM      7  O   UNL     1      -6.652  13.249 -12.717  1.00  0.00    -0.545 OA
ENDBRANCH   4   5
ENDBRANCH   2   3
ENDBRANCH   1   2
BRANCH   1   8
ATOM      8  C   UNL     1      -8.313  18.337 -14.197  1.00  0.00     0.000 C 
BRANCH   8   9
ATOM      9  C   UNL     1      -7.879  19.795 -14.437  1.00  0.00    -0.000 C 
BRANCH   9  10
ATOM     10  C   UNL     1      -7.685  20.582 -13.133  1.00  0.00    -0.003 C 
ATOM     11  C   UNL     1      -6.209  20.883 -12.888  1.00  0.00     0.004 C 
ENDBRANCH   9  10
ENDBRANCH   8   9
ENDBRANCH   1   8
TORSDOF 6
ENDMDL
MODEL 5
REMARK VINA RESULT:    -3.475      1.374      2.158
REMARK INTER + INTRA:          -5.048
REMARK INTER:                  -4.480
REMARK INTRA:                  -0.568
REMARK UNBOUND:                -0.353
REMARK SMILES CCCCCCC=CC(=O)[O-]
REMARK SMILES IDX 5 1 6 2 7 3 8 4 9 5 10 6 11 7 4 8 3 9 2 10 1 11
REMARK H PARENT
REMARK Flexibility Score: inf
ROOT
ATOM      1  C   UNL     1      -8.651  15.482 -12.686  1.00  0.00     0.004 C 
ENDROOT
BRANCH   1   2
ATOM      2  C   UNL     1      -9.610  16.682 -12.779  1.00  0.00     0.027 C 
BRANCH   2   3
ATOM      3  C   UNL     1      -8.902  18.001 -12.655  1.00  0.00    -0.025 C 
ATOM      4  C   UNL     1      -8.420  18.641 -13.726  1.00  0.00     0.020 C 
BRANCH   4   5
ATOM      5  C   UNL     1      -7.728  19.935 -13.625  1.00  0.00     0.064 C 
ATOM      6  O   UNL     1      -7.222  20.321 -12.538  1.00  0.00    -0.545 OA
ATOM      7  O   UNL     1      -7.629  20.746 -14.748  1.00  0.00    -0.545 OA
ENDBRANCH   4   5
ENDBRANCH   2   3
ENDBRANCH   1   2
BRANCH   1   8
ATOM      8  C   UNL     1      -8.711  14.521 -13.891  1.00  0.00     0.000 C 
BRANCH   8   9
ATOM      9  C   UNL     1      -8.451  15.177 -15.259  1.00  0.00    -0.000 C 
BRANCH   9  10
ATOM     10  C   UNL     1      -6.989  15.608 -15.445  1.00  0.00    -0.003 C 
ATOM     11  C   UNL     1      -6.032  14.472 -15.092  1.00  0.00     0.004 C 
ENDBRANCH   9  10
ENDBRANCH   8   9
ENDBRANCH   1   8
TORSDOF 6
ENDMDL
MODEL 6
REMARK VINA RESULT:    -3.390      1.256      1.911
REMARK INTER + INTRA:          -4.932
REMARK INTER:                  -4.640
REMARK INTRA:                  -0.292
REMARK UNBOUND:                -0.353
REMARK SMILES CCCCCCC=CC(=O)[O-]
REMARK SMILES IDX 5 1 6 2 7 3 8 4 9 5 10 6 11 7 4 8 3 9 2 10 1 11
REMARK H PARENT
REMARK Flexibility Score: inf
ROOT
ATOM      1  C   UNL     1      -7.854  15.119 -14.087  1.00  0.00     0.004 C 
ENDROOT
BRANCH   1   2
ATOM      2  C   UNL     1      -6.627  15.876 -14.626  1.00  0.00     0.027 C 
BRANCH   2   3
ATOM      3  C   UNL     1      -6.791  17.368 -14.558  1.00  0.00    -0.025 C 
ATOM      4  C   UNL     1      -7.803  17.931 -13.889  1.00  0.00     0.020 C 
BRANCH   4   5
ATOM      5  C   UNL     1      -7.979  19.390 -13.807  1.00  0.00     0.064 C 
ATOM      6  O   UNL     1      -7.634  20.032 -12.779  1.00  0.00    -0.545 OA
ATOM      7  O   UNL     1      -8.533  20.072 -14.883  1.00  0.00    -0.545 OA
ENDBRANCH   4   5
ENDBRANCH   2   3
ENDBRANCH   1   2
BRANCH   1   8
ATOM      8  C   UNL     1      -7.564  13.674 -13.633  1.00  0.00     0.000 C 
BRANCH   8   9
ATOM      9  C   UNL     1      -8.356  12.587 -14.382  1.00  0.00    -0.000 C 
BRANCH   9  10
ATOM     10  C   UNL     1      -9.212  13.152 -15.524  1.00  0.00    -0.003 C 
ATOM     11  C   UNL     1     -10.332  12.187 -15.902  1.00  0.00     0.004 C 
ENDBRANCH   9  10
ENDBRANCH   8   9
ENDBRANCH   1   8
TORSDOF 6
ENDMDL
MODEL 7
REMARK VINA RESULT:    -3.339      3.407      5.654
REMARK INTER + INTRA:          -4.864
REMARK INTER:                  -4.446
REMARK INTRA:                  -0.418
REMARK UNBOUND:                -0.353
REMARK SMILES CCCCCCC=CC(=O)[O-]
REMARK SMILES IDX 5 1 6 2 7 3 8 4 9 5 10 6 11 7 4 8 3 9 2 10 1 11
REMARK H PARENT
REMARK Flexibility Score: inf
ROOT
ATOM      1  C   UNL     1      -9.176  17.274 -12.384  1.00  0.00     0.004 C 
ENDROOT
BRANCH   1   2
ATOM      2  C   UNL     1      -8.506  15.889 -12.412  1.00  0.00     0.027 C 
BRANCH   2   3
ATOM      3  C   UNL     1      -8.863  15.098 -13.638  1.00  0.00    -0.025 C 
ATOM      4  C   UNL     1      -8.502  13.817 -13.774  1.00  0.00     0.020 C 
BRANCH   4   5
ATOM      5  C   UNL     1      -8.847  13.024 -14.965  1.00  0.00     0.064 C 
ATOM      6  O   UNL     1     -10.046  12.865 -15.318  1.00  0.00    -0.545 OA
ATOM      7  O   UNL     1      -7.833  12.442 -15.714  1.00  0.00    -0.545 OA
ENDBRANCH   4   5
ENDBRANCH   2   3
ENDBRANCH   1   2
BRANCH   1   8
ATOM      8  C   UNL     1      -8.849  18.167 -13.598  1.00  0.00     0.000 C 
BRANCH   8   9
ATOM      9  C   UNL     1      -8.115  19.478 -13.262  1.00  0.00    -0.000 C 
BRANCH   9  10
ATOM     10  C   UNL     1      -6.776  19.618 -14.000  1.00  0.00    -0.003 C 
ATOM     11  C   UNL     1      -6.309  18.273 -14.551  1.00  0.00     0.004 C 
ENDBRANCH   9  10
ENDBRANCH   8   9
ENDBRANCH   1   8
TORSDOF 6
ENDMDL
MODEL 8
REMARK VINA RESULT:    -3.280      1.389      2.294
REMARK INTER + INTRA:          -4.784
REMARK INTER:                  -4.684
REMARK INTRA:                  -0.099
REMARK UNBOUND:                -0.353
REMARK SMILES CCCCCCC=CC(=O)[O-]
REMARK SMILES IDX 5 1 6 2 7 3 8 4 9 5 10 6 11 7 4 8 3 9 2 10 1 11
REMARK H PARENT
REMARK Flexibility Score: inf
ROOT
ATOM      1  C   UNL     1      -7.500  13.027 -13.780  1.00  0.00     0.004 C 
ENDROOT
BRANCH   1   2
ATOM      2  C   UNL     1      -8.013  13.934 -12.647  1.00  0.00     0.027 C 
BRANCH   2   3
ATOM      3  C   UNL     1      -8.537  15.249 -13.151  1.00  0.00    -0.025 C 
ATOM      4  C   UNL     1      -7.713  16.246 -13.491  1.00  0.00     0.020 C 
BRANCH   4   5
ATOM      5  C   UNL     1      -8.206  17.539 -13.991  1.00  0.00     0.064 C 
ATOM      6  O   UNL     1      -8.068  18.594 -13.317  1.00  0.00    -0.545 OA
ATOM      7  O   UNL     1      -8.834  17.598 -15.228  1.00  0.00    -0.545 OA
ENDBRANCH   4   5
ENDBRANCH   2   3
ENDBRANCH   1   2
BRANCH   1   8
ATOM      8  C   UNL     1      -7.675  13.613 -15.196  1.00  0.00     0.000 C 
BRANCH   8   9
ATOM      9  C   UNL     1      -8.596  12.801 -16.125  1.00  0.00    -0.000 C 
BRANCH   9  10
ATOM     10  C   UNL     1     -10.025  12.667 -15.580  1.00  0.00    -0.003 C 
ATOM     11  C   UNL     1     -10.705  11.413 -16.124  1.00  0.00     0.004 C 
ENDBRANCH   9  10
ENDBRANCH   8   9
ENDBRANCH   1   8
TORSDOF 6
ENDMDL
MODEL 9
REMARK VINA RESULT:    -3.253      3.165      5.890
REMARK INTER + INTRA:          -4.748
REMARK INTER:                  -4.134
REMARK INTRA:                  -0.614
REMARK UNBOUND:                -0.353
REMARK SMILES CCCCCCC=CC(=O)[O-]
REMARK SMILES IDX 5 1 6 2 7 3 8 4 9 5 10 6 11 7 4 8 3 9 2 10 1 11
REMARK H PARENT
REMARK Flexibility Score: inf
ROOT
ATOM      1  C   UNL     1      -8.140  19.324 -16.115  1.00  0.00     0.004 C 
ENDROOT
BRANCH   1   2
ATOM      2  C   UNL     1      -7.225  18.088 -16.051  1.00  0.00     0.027 C 
BRANCH   2   3
ATOM      3  C   UNL     1      -7.647  17.109 -14.992  1.00  0.00    -0.025 C 
ATOM      4  C   UNL     1      -8.381  17.489 -13.941  1.00  0.00     0.020 C 
BRANCH   4   5
ATOM      5  C   UNL     1      -8.809  16.544 -12.896  1.00  0.00     0.064 C 
ATOM      6  O   UNL     1     -10.018  16.214 -12.771  1.00  0.00    -0.545 OA
ATOM      7  O   UNL     1      -7.862  16.005 -12.035  1.00  0.00    -0.545 OA
ENDBRANCH   4   5
ENDBRANCH   2   3
ENDBRANCH   1   2
BRANCH   1   8
ATOM      8  C   UNL     1      -7.435  20.659 -15.797  1.00  0.00     0.000 C 
BRANCH   8   9
ATOM      9  C   UNL     1      -6.039  20.520 -15.163  1.00  0.00    -0.000 C 
BRANCH   9  10
ATOM     10  C   UNL     1      -5.969  21.096 -13.742  1.00  0.00    -0.003 C 
ATOM     11  C   UNL     1      -7.252  20.806 -12.968  1.00  0.00     0.004 C 
ENDBRANCH   9  10
ENDBRANCH   8   9
ENDBRANCH   1   8
TORSDOF 6
ENDMDL
