MODEL 1
REMARK VINA RESULT:    -3.561      0.000      0.000
REMARK INTER + INTRA:          -6.910
REMARK INTER:                  -5.122
REMARK INTRA:                  -1.788
REMARK UNBOUND:                -1.788
REMARK SMILES CC(C)=CCCC(C)=CCCC(C)=CCO
REMARK SMILES IDX 10 1 9 2 7 3 8 4 6 5 5 6 4 7 1 8 2 9 3 10 11 11 12 12 14 13
REMARK SMILES IDX 13 14 15 15 16 16
REMARK H PARENT 16 17
REMARK Flexibility Score: inf
ROOT
ATOM      1  C   UNL     1     141.825 -48.942  69.325  1.00  0.00     0.032 C 
ENDROOT
BRANCH   1   2
ATOM      2  C   UNL     1     140.686 -48.323  70.095  1.00  0.00    -0.028 C 
ATOM      3  C   UNL     1     139.842 -48.996  70.911  1.00  0.00    -0.077 C 
ATOM      4  C   UNL     1     138.754 -48.217  71.604  1.00  0.00     0.039 C 
BRANCH   3   5
ATOM      5  C   UNL     1     139.967 -50.481  71.205  1.00  0.00     0.034 C 
BRANCH   5   6
ATOM      6  C   UNL     1     138.761 -51.275  70.681  1.00  0.00     0.032 C 
BRANCH   6   7
ATOM      7  C   UNL     1     139.035 -51.878  69.325  1.00  0.00    -0.028 C 
ATOM      8  C   UNL     1     137.724 -50.128  68.103  1.00  0.00     0.039 C 
ATOM      9  C   UNL     1     138.594 -51.360  68.156  1.00  0.00    -0.080 C 
ATOM     10  C   UNL     1     139.015 -51.987  66.853  1.00  0.00     0.039 C 
ENDBRANCH   6   7
ENDBRANCH   5   6
ENDBRANCH   3   5
ENDBRANCH   1   2
BRANCH   1  11
ATOM     11  C   UNL     1     141.450 -49.150  67.853  1.00  0.00     0.034 C 
BRANCH  11  12
ATOM     12  C   UNL     1     141.173 -47.821  67.182  1.00  0.00    -0.075 C 
ATOM     13  C   UNL     1     142.075 -46.821  67.310  1.00  0.00    -0.000 C 
ATOM     14  C   UNL     1     139.908 -47.647  66.375  1.00  0.00     0.039 C 
BRANCH  13  15
ATOM     15  C   UNL     1     141.909 -45.457  66.699  1.00  0.00     0.183 C 
BRANCH  15  16
ATOM     16  O   UNL     1     142.712 -45.349  65.557  1.00  0.00    -0.392 OA
ATOM     17  H   UNL     1     142.862 -44.377  65.418  1.00  0.00     0.210 HD
ENDBRANCH  15  16
ENDBRANCH  13  15
ENDBRANCH  11  12
ENDBRANCH   1  11
TORSDOF 8
ENDMDL
MODEL 2
REMARK VINA RESULT:    -3.530      1.263      3.439
REMARK INTER + INTRA:          -6.866
REMARK INTER:                  -4.918
REMARK INTRA:                  -1.948
REMARK UNBOUND:                -1.788
REMARK SMILES CC(C)=CCCC(C)=CCCC(C)=CCO
REMARK SMILES IDX 10 1 9 2 7 3 8 4 6 5 5 6 4 7 1 8 2 9 3 10 11 11 12 12 14 13
REMARK SMILES IDX 13 14 15 15 16 16
REMARK H PARENT 16 17
REMARK Flexibility Score: inf
ROOT
ATOM      1  C   UNL     1     140.238 -50.079  67.651  1.00  0.00     0.032 C 
ENDROOT
BRANCH   1   2
ATOM      2  C   UNL     1     140.032 -50.925  68.882  1.00  0.00    -0.028 C 
ATOM      3  C   UNL     1     139.372 -50.530  69.996  1.00  0.00    -0.077 C 
ATOM      4  C   UNL     1     139.262 -51.507  71.139  1.00  0.00     0.039 C 
BRANCH   3   5
ATOM      5  C   UNL     1     138.692 -49.179  70.132  1.00  0.00     0.034 C 
BRANCH   5   6
ATOM      6  C   UNL     1     139.190 -48.406  71.363  1.00  0.00     0.032 C 
BRANCH   6   7
ATOM      7  C   UNL     1     140.341 -47.492  71.021  1.00  0.00    -0.028 C 
ATOM      8  C   UNL     1     142.067 -49.057  71.945  1.00  0.00     0.039 C 
ATOM      9  C   UNL     1     141.641 -47.783  71.257  1.00  0.00    -0.080 C 
ATOM     10  C   UNL     1     142.717 -46.842  70.780  1.00  0.00     0.039 C 
ENDBRANCH   6   7
ENDBRANCH   5   6
ENDBRANCH   3   5
ENDBRANCH   1   2
BRANCH   1  11
ATOM     11  C   UNL     1     141.452 -49.157  67.809  1.00  0.00     0.034 C 
BRANCH  11  12
ATOM     12  C   UNL     1     141.177 -47.804  67.189  1.00  0.00    -0.075 C 
ATOM     13  C   UNL     1     142.092 -46.818  67.331  1.00  0.00    -0.000 C 
ATOM     14  C   UNL     1     139.899 -47.591  66.413  1.00  0.00     0.039 C 
BRANCH  13  15
ATOM     15  C   UNL     1     141.929 -45.433  66.769  1.00  0.00     0.183 C 
BRANCH  15  16
ATOM     16  O   UNL     1     142.681 -45.307  65.594  1.00  0.00    -0.392 OA
ATOM     17  H   UNL     1     142.037 -45.050  64.883  1.00  0.00     0.210 HD
ENDBRANCH  15  16
ENDBRANCH  13  15
ENDBRANCH  11  12
ENDBRANCH   1  11
TORSDOF 8
ENDMDL
MODEL 3
REMARK VINA RESULT:    -3.456      1.582      4.036
REMARK INTER + INTRA:          -6.759
REMARK INTER:                  -4.507
REMARK INTRA:                  -2.253
REMARK UNBOUND:                -1.788
REMARK SMILES CC(C)=CCCC(C)=CCCC(C)=CCO
REMARK SMILES IDX 10 1 9 2 7 3 8 4 6 5 5 6 4 7 1 8 2 9 3 10 11 11 12 12 14 13
REMARK SMILES IDX 13 14 15 15 16 16
REMARK H PARENT 16 17
REMARK Flexibility Score: inf
ROOT
ATOM      1  C   UNL     1     139.117 -48.162  66.259  1.00  0.00     0.032 C 
ENDROOT
BRANCH   1   2
ATOM      2  C   UNL     1     138.938 -49.372  67.140  1.00  0.00    -0.028 C 
ATOM      3  C   UNL     1     139.921 -49.966  67.857  1.00  0.00    -0.077 C 
ATOM      4  C   UNL     1     139.565 -51.173  68.686  1.00  0.00     0.039 C 
BRANCH   3   5
ATOM      5  C   UNL     1     141.348 -49.447  67.912  1.00  0.00     0.034 C 
BRANCH   5   6
ATOM      6  C   UNL     1     141.805 -49.174  69.352  1.00  0.00     0.032 C 
BRANCH   6   7
ATOM      7  C   UNL     1     142.069 -47.707  69.587  1.00  0.00    -0.028 C 
ATOM      8  C   UNL     1     139.778 -47.279  70.506  1.00  0.00     0.039 C 
ATOM      9  C   UNL     1     141.173 -46.849  70.127  1.00  0.00    -0.080 C 
ATOM     10  C   UNL     1     141.579 -45.426  70.414  1.00  0.00     0.039 C 
ENDBRANCH   6   7
ENDBRANCH   5   6
ENDBRANCH   3   5
ENDBRANCH   1   2
BRANCH   1  11
ATOM     11  C   UNL     1     138.595 -46.895  66.945  1.00  0.00     0.034 C 
BRANCH  11  12
ATOM     12  C   UNL     1     139.669 -45.828  66.979  1.00  0.00    -0.075 C 
ATOM     13  C   UNL     1     140.886 -46.105  66.459  1.00  0.00    -0.000 C 
ATOM     14  C   UNL     1     139.353 -44.478  67.578  1.00  0.00     0.039 C 
BRANCH  13  15
ATOM     15  C   UNL     1     142.033 -45.134  66.442  1.00  0.00     0.183 C 
BRANCH  15  16
ATOM     16  O   UNL     1     142.856 -45.391  65.339  1.00  0.00    -0.392 OA
ATOM     17  H   UNL     1     142.417 -44.958  64.562  1.00  0.00     0.210 HD
ENDBRANCH  15  16
ENDBRANCH  13  15
ENDBRANCH  11  12
ENDBRANCH   1  11
TORSDOF 8
ENDMDL
MODEL 4
REMARK VINA RESULT:    -3.412      1.477      2.847
REMARK INTER + INTRA:          -6.696
REMARK INTER:                  -4.868
REMARK INTRA:                  -1.828
REMARK UNBOUND:                -1.788
REMARK SMILES CC(C)=CCCC(C)=CCCC(C)=CCO
REMARK SMILES IDX 10 1 9 2 7 3 8 4 6 5 5 6 4 7 1 8 2 9 3 10 11 11 12 12 14 13
REMARK SMILES IDX 13 14 15 15 16 16
REMARK H PARENT 16 17
REMARK Flexibility Score: inf
ROOT
ATOM      1  C   UNL     1     141.707 -48.891  68.962  1.00  0.00     0.032 C 
ENDROOT
BRANCH   1   2
ATOM      2  C   UNL     1     140.772 -49.712  69.815  1.00  0.00    -0.028 C 
ATOM      3  C   UNL     1     139.899 -50.634  69.347  1.00  0.00    -0.077 C 
ATOM      4  C   UNL     1     139.035 -51.364  70.343  1.00  0.00     0.039 C 
BRANCH   3   5
ATOM      5  C   UNL     1     139.784 -51.010  67.879  1.00  0.00     0.034 C 
BRANCH   5   6
ATOM      6  C   UNL     1     138.479 -50.494  67.255  1.00  0.00     0.032 C 
BRANCH   6   7
ATOM      7  C   UNL     1     138.642 -49.108  66.681  1.00  0.00    -0.028 C 
ATOM      8  C   UNL     1     137.585 -47.990  68.657  1.00  0.00     0.039 C 
ATOM      9  C   UNL     1     138.265 -47.972  67.311  1.00  0.00    -0.080 C 
ATOM     10  C   UNL     1     138.571 -46.634  66.689  1.00  0.00     0.039 C 
ENDBRANCH   6   7
ENDBRANCH   5   6
ENDBRANCH   3   5
ENDBRANCH   1   2
BRANCH   1  11
ATOM     11  C   UNL     1     142.042 -47.555  69.636  1.00  0.00     0.034 C 
BRANCH  11  12
ATOM     12  C   UNL     1     141.741 -46.401  68.705  1.00  0.00    -0.075 C 
ATOM     13  C   UNL     1     142.168 -46.463  67.423  1.00  0.00    -0.000 C 
ATOM     14  C   UNL     1     140.959 -45.216  69.221  1.00  0.00     0.039 C 
BRANCH  13  15
ATOM     15  C   UNL     1     141.939 -45.378  66.407  1.00  0.00     0.183 C 
BRANCH  15  16
ATOM     16  O   UNL     1     142.996 -45.356  65.490  1.00  0.00    -0.392 OA
ATOM     17  H   UNL     1     143.550 -44.567  65.728  1.00  0.00     0.210 HD
ENDBRANCH  15  16
ENDBRANCH  13  15
ENDBRANCH  11  12
ENDBRANCH   1  11
TORSDOF 8
ENDMDL
MODEL 5
REMARK VINA RESULT:    -3.410      2.254      3.709
REMARK INTER + INTRA:          -6.694
REMARK INTER:                  -4.428
REMARK INTRA:                  -2.266
REMARK UNBOUND:                -1.788
REMARK SMILES CC(C)=CCCC(C)=CCCC(C)=CCO
REMARK SMILES IDX 10 1 9 2 7 3 8 4 6 5 5 6 4 7 1 8 2 9 3 10 11 11 12 12 14 13
REMARK SMILES IDX 13 14 15 15 16 16
REMARK H PARENT 16 17
REMARK Flexibility Score: inf
ROOT
ATOM      1  C   UNL     1     141.650 -48.864  67.675  1.00  0.00     0.032 C 
ENDROOT
BRANCH   1   2
ATOM      2  C   UNL     1     141.536 -49.388  69.085  1.00  0.00    -0.028 C 
ATOM      3  C   UNL     1     141.860 -48.694  70.201  1.00  0.00    -0.077 C 
ATOM      4  C   UNL     1     141.685 -49.374  71.535  1.00  0.00     0.039 C 
BRANCH   3   5
ATOM      5  C   UNL     1     142.337 -47.252  70.183  1.00  0.00     0.034 C 
BRANCH   5   6
ATOM      6  C   UNL     1     141.371 -46.317  70.926  1.00  0.00     0.032 C 
BRANCH   6   7
ATOM      7  C   UNL     1     140.492 -45.547  69.972  1.00  0.00    -0.028 C 
ATOM      8  C   UNL     1     138.552 -47.109  70.245  1.00  0.00     0.039 C 
ATOM      9  C   UNL     1     139.215 -45.880  69.674  1.00  0.00    -0.080 C 
ATOM     10  C   UNL     1     138.394 -44.979  68.788  1.00  0.00     0.039 C 
ENDBRANCH   6   7
ENDBRANCH   5   6
ENDBRANCH   3   5
ENDBRANCH   1   2
BRANCH   1  11
ATOM     11  C   UNL     1     140.301 -48.343  67.167  1.00  0.00     0.034 C 
BRANCH  11  12
ATOM     12  C   UNL     1     140.482 -47.040  66.419  1.00  0.00    -0.075 C 
ATOM     13  C   UNL     1     141.606 -46.316  66.626  1.00  0.00    -0.000 C 
ATOM     14  C   UNL     1     139.416 -46.586  65.451  1.00  0.00     0.039 C 
BRANCH  13  15
ATOM     15  C   UNL     1     141.896 -45.004  65.950  1.00  0.00     0.183 C 
BRANCH  15  16
ATOM     16  O   UNL     1     143.000 -45.143  65.099  1.00  0.00    -0.392 OA
ATOM     17  H   UNL     1     143.587 -45.824  65.520  1.00  0.00     0.210 HD
ENDBRANCH  15  16
ENDBRANCH  13  15
ENDBRANCH  11  12
ENDBRANCH   1  11
TORSDOF 8
ENDMDL
MODEL 6
REMARK VINA RESULT:    -3.329     21.567     23.781
REMARK INTER + INTRA:          -6.576
REMARK INTER:                  -4.226
REMARK INTRA:                  -2.350
REMARK UNBOUND:                -1.788
REMARK SMILES CC(C)=CCCC(C)=CCCC(C)=CCO
REMARK SMILES IDX 10 1 9 2 7 3 8 4 6 5 5 6 4 7 1 8 2 9 3 10 11 11 12 12 14 13
REMARK SMILES IDX 13 14 15 15 16 16
REMARK H PARENT 16 17
REMARK Flexibility Score: inf
ROOT
ATOM      1  C   UNL     1     126.462 -35.602  84.204  1.00  0.00     0.032 C 
ENDROOT
BRANCH   1   2
ATOM      2  C   UNL     1     126.182 -37.050  83.891  1.00  0.00    -0.028 C 
ATOM      3  C   UNL     1     125.289 -37.489  82.973  1.00  0.00    -0.077 C 
ATOM      4  C   UNL     1     125.133 -38.977  82.789  1.00  0.00     0.039 C 
BRANCH   3   5
ATOM      5  C   UNL     1     124.478 -36.563  82.083  1.00  0.00     0.034 C 
BRANCH   5   6
ATOM      6  C   UNL     1     124.738 -36.826  80.592  1.00  0.00     0.032 C 
BRANCH   6   7
ATOM      7  C   UNL     1     125.458 -35.673  79.937  1.00  0.00    -0.028 C 
ATOM      8  C   UNL     1     127.720 -36.709  80.233  1.00  0.00     0.039 C 
ATOM      9  C   UNL     1     126.796 -35.618  79.749  1.00  0.00    -0.080 C 
ATOM     10  C   UNL     1     127.399 -34.465  78.989  1.00  0.00     0.039 C 
ENDBRANCH   6   7
ENDBRANCH   5   6
ENDBRANCH   3   5
ENDBRANCH   1   2
BRANCH   1  11
ATOM     11  C   UNL     1     127.846 -35.183  83.694  1.00  0.00     0.034 C 
BRANCH  11  12
ATOM     12  C   UNL     1     127.740 -33.948  82.826  1.00  0.00    -0.075 C 
ATOM     13  C   UNL     1     126.535 -33.352  82.675  1.00  0.00    -0.000 C 
ATOM     14  C   UNL     1     128.982 -33.400  82.162  1.00  0.00     0.039 C 
BRANCH  13  15
ATOM     15  C   UNL     1     126.302 -32.128  81.834  1.00  0.00     0.183 C 
BRANCH  15  16
ATOM     16  O   UNL     1     125.169 -32.312  81.032  1.00  0.00    -0.392 OA
ATOM     17  H   UNL     1     125.225 -31.626  80.317  1.00  0.00     0.210 HD
ENDBRANCH  15  16
ENDBRANCH  13  15
ENDBRANCH  11  12
ENDBRANCH   1  11
TORSDOF 8
ENDMDL
MODEL 7
REMARK VINA RESULT:    -3.303     22.574     24.372
REMARK INTER + INTRA:          -6.539
REMARK INTER:                  -4.949
REMARK INTRA:                  -1.590
REMARK UNBOUND:                -1.788
REMARK SMILES CC(C)=CCCC(C)=CCCC(C)=CCO
REMARK SMILES IDX 10 1 9 2 7 3 8 4 6 5 5 6 4 7 1 8 2 9 3 10 11 11 12 12 14 13
REMARK SMILES IDX 13 14 15 15 16 16
REMARK H PARENT 16 17
REMARK Flexibility Score: inf
ROOT
ATOM      1  C   UNL     1     126.932 -34.538  83.462  1.00  0.00     0.032 C 
ENDROOT
BRANCH   1   2
ATOM      2  C   UNL     1     127.862 -33.657  82.666  1.00  0.00    -0.028 C 
ATOM      3  C   UNL     1     127.472 -32.753  81.737  1.00  0.00    -0.077 C 
ATOM      4  C   UNL     1     128.540 -31.956  81.032  1.00  0.00     0.039 C 
BRANCH   3   5
ATOM      5  C   UNL     1     126.018 -32.463  81.408  1.00  0.00     0.034 C 
BRANCH   5   6
ATOM      6  C   UNL     1     125.571 -33.161  80.115  1.00  0.00     0.032 C 
BRANCH   6   7
ATOM      7  C   UNL     1     124.672 -34.339  80.396  1.00  0.00    -0.028 C 
ATOM      8  C   UNL     1     126.510 -36.016  80.103  1.00  0.00     0.039 C 
ATOM      9  C   UNL     1     125.087 -35.627  80.416  1.00  0.00    -0.080 C 
ATOM     10  C   UNL     1     124.124 -36.717  80.812  1.00  0.00     0.039 C 
ENDBRANCH   6   7
ENDBRANCH   5   6
ENDBRANCH   3   5
ENDBRANCH   1   2
BRANCH   1  11
ATOM     11  C   UNL     1     127.714 -35.474  84.390  1.00  0.00     0.034 C 
BRANCH  11  12
ATOM     12  C   UNL     1     127.253 -36.905  84.213  1.00  0.00    -0.075 C 
ATOM     13  C   UNL     1     125.936 -37.152  84.030  1.00  0.00    -0.000 C 
ATOM     14  C   UNL     1     128.272 -38.019  84.229  1.00  0.00     0.039 C 
BRANCH  13  15
ATOM     15  C   UNL     1     125.356 -38.527  83.852  1.00  0.00     0.183 C 
BRANCH  15  16
ATOM     16  O   UNL     1     124.611 -38.878  84.985  1.00  0.00    -0.392 OA
ATOM     17  H   UNL     1     123.955 -38.146  85.119  1.00  0.00     0.210 HD
ENDBRANCH  15  16
ENDBRANCH  13  15
ENDBRANCH  11  12
ENDBRANCH   1  11
TORSDOF 8
ENDMDL
MODEL 8
REMARK VINA RESULT:    -3.267      1.675      4.129
REMARK INTER + INTRA:          -6.487
REMARK INTER:                  -4.871
REMARK INTRA:                  -1.616
REMARK UNBOUND:                -1.788
REMARK SMILES CC(C)=CCCC(C)=CCCC(C)=CCO
REMARK SMILES IDX 10 1 9 2 7 3 8 4 6 5 5 6 4 7 1 8 2 9 3 10 11 11 12 12 14 13
REMARK SMILES IDX 13 14 15 15 16 16
REMARK H PARENT 16 17
REMARK Flexibility Score: inf
ROOT
ATOM      1  C   UNL     1     137.546 -48.530  66.568  1.00  0.00     0.032 C 
ENDROOT
BRANCH   1   2
ATOM      2  C   UNL     1     137.894 -49.992  66.441  1.00  0.00    -0.028 C 
ATOM      3  C   UNL     1     138.757 -50.659  67.242  1.00  0.00    -0.077 C 
ATOM      4  C   UNL     1     138.990 -52.123  66.970  1.00  0.00     0.039 C 
BRANCH   3   5
ATOM      5  C   UNL     1     139.459 -50.024  68.430  1.00  0.00     0.034 C 
BRANCH   5   6
ATOM      6  C   UNL     1     140.985 -50.012  68.257  1.00  0.00     0.032 C 
BRANCH   6   7
ATOM      7  C   UNL     1     141.563 -48.636  68.476  1.00  0.00    -0.028 C 
ATOM      8  C   UNL     1     141.764 -48.939  70.954  1.00  0.00     0.039 C 
ATOM      9  C   UNL     1     141.938 -48.149  69.681  1.00  0.00    -0.080 C 
ATOM     10  C   UNL     1     142.602 -46.799  69.769  1.00  0.00     0.039 C 
ENDBRANCH   6   7
ENDBRANCH   5   6
ENDBRANCH   3   5
ENDBRANCH   1   2
BRANCH   1  11
ATOM     11  C   UNL     1     138.395 -47.674  65.621  1.00  0.00     0.034 C 
BRANCH  11  12
ATOM     12  C   UNL     1     139.279 -46.730  66.406  1.00  0.00    -0.075 C 
ATOM     13  C   UNL     1     140.434 -46.297  65.849  1.00  0.00    -0.000 C 
ATOM     14  C   UNL     1     138.848 -46.281  67.782  1.00  0.00     0.039 C 
BRANCH  13  15
ATOM     15  C   UNL     1     141.398 -45.366  66.531  1.00  0.00     0.183 C 
BRANCH  15  16
ATOM     16  O   UNL     1     142.641 -45.418  65.889  1.00  0.00    -0.392 OA
ATOM     17  H   UNL     1     143.323 -45.292  66.601  1.00  0.00     0.210 HD
ENDBRANCH  15  16
ENDBRANCH  13  15
ENDBRANCH  11  12
ENDBRANCH   1  11
TORSDOF 8
ENDMDL
MODEL 9
REMARK VINA RESULT:    -3.211      2.042      3.420
REMARK INTER + INTRA:          -6.406
REMARK INTER:                  -4.244
REMARK INTRA:                  -2.162
REMARK UNBOUND:                -1.788
REMARK SMILES CC(C)=CCCC(C)=CCCC(C)=CCO
REMARK SMILES IDX 10 1 9 2 7 3 8 4 6 5 5 6 4 7 1 8 2 9 3 10 11 11 12 12 14 13
REMARK SMILES IDX 13 14 15 15 16 16
REMARK H PARENT 16 17
REMARK Flexibility Score: inf
ROOT
ATOM      1  C   UNL     1     141.539 -49.560  68.288  1.00  0.00     0.032 C 
ENDROOT
BRANCH   1   2
ATOM      2  C   UNL     1     140.456 -50.533  67.893  1.00  0.00    -0.028 C 
ATOM      3  C   UNL     1     139.598 -51.132  68.751  1.00  0.00    -0.077 C 
ATOM      4  C   UNL     1     138.575 -52.082  68.184  1.00  0.00     0.039 C 
BRANCH   3   5
ATOM      5  C   UNL     1     139.576 -50.855  70.245  1.00  0.00     0.034 C 
BRANCH   5   6
ATOM      6  C   UNL     1     138.381 -49.980  70.650  1.00  0.00     0.032 C 
BRANCH   6   7
ATOM      7  C   UNL     1     138.729 -48.511  70.624  1.00  0.00    -0.028 C 
ATOM      8  C   UNL     1     137.578 -48.114  68.434  1.00  0.00     0.039 C 
ATOM      9  C   UNL     1     138.354 -47.657  69.644  1.00  0.00    -0.080 C 
ATOM     10  C   UNL     1     138.667 -46.188  69.773  1.00  0.00     0.039 C 
ENDBRANCH   6   7
ENDBRANCH   5   6
ENDBRANCH   3   5
ENDBRANCH   1   2
BRANCH   1  11
ATOM     11  C   UNL     1     141.457 -48.274  67.458  1.00  0.00     0.034 C 
BRANCH  11  12
ATOM     12  C   UNL     1     141.849 -47.075  68.295  1.00  0.00    -0.075 C 
ATOM     13  C   UNL     1     142.196 -47.264  69.589  1.00  0.00    -0.000 C 
ATOM     14  C   UNL     1     141.859 -45.702  67.665  1.00  0.00     0.039 C 
BRANCH  13  15
ATOM     15  C   UNL     1     142.595 -46.154  70.522  1.00  0.00     0.183 C 
BRANCH  15  16
ATOM     16  O   UNL     1     143.990 -46.099  70.624  1.00  0.00    -0.392 OA
ATOM     17  H   UNL     1     144.342 -46.425  69.754  1.00  0.00     0.210 HD
ENDBRANCH  15  16
ENDBRANCH  13  15
ENDBRANCH  11  12
ENDBRANCH   1  11
TORSDOF 8
ENDMDL
