MODEL 1
REMARK VINA RESULT:    -3.355      0.000      0.000
REMARK INTER + INTRA:          -6.913
REMARK INTER:                  -5.317
REMARK INTRA:                  -1.596
REMARK UNBOUND:                -1.596
REMARK SMILES CCCCCCCCCCCC(=O)[O-]
REMARK SMILES IDX 7 1 8 2 9 3 10 4 11 5 12 6 13 7 14 8 6 9 5 10 4 11 3 12 2 13
REMARK SMILES IDX 1 14
REMARK H PARENT
REMARK Flexibility Score: inf
ROOT
ATOM      1  C   UNL     1      21.786  -0.878  55.329  1.00  0.00     0.000 C 
ENDROOT
BRANCH   1   2
ATOM      2  C   UNL     1      22.818  -1.773  54.620  1.00  0.00     0.000 C 
BRANCH   2   3
ATOM      3  C   UNL     1      23.949  -2.226  55.558  1.00  0.00     0.000 C 
BRANCH   3   4
ATOM      4  C   UNL     1      24.369  -3.686  55.318  1.00  0.00     0.006 C 
BRANCH   4   5
ATOM      5  C   UNL     1      23.593  -4.329  54.161  1.00  0.00     0.053 C 
BRANCH   5   6
ATOM      6  C   UNL     1      24.426  -5.328  53.416  1.00  0.00     0.041 C 
ATOM      7  O   UNL     1      23.991  -5.848  52.355  1.00  0.00    -0.550 OA
ATOM      8  O   UNL     1      25.692  -5.660  53.877  1.00  0.00    -0.550 OA
ENDBRANCH   5   6
ENDBRANCH   4   5
ENDBRANCH   3   4
ENDBRANCH   2   3
ENDBRANCH   1   2
BRANCH   1   9
ATOM      9  C   UNL     1      22.162  -0.589  56.792  1.00  0.00     0.000 C 
BRANCH   9  10
ATOM     10  C   UNL     1      20.984  -0.780  57.759  1.00  0.00    -0.000 C 
BRANCH  10  11
ATOM     11  C   UNL     1      20.412  -2.201  57.652  1.00  0.00    -0.000 C 
BRANCH  11  12
ATOM     12  C   UNL     1      21.438  -3.283  58.019  1.00  0.00    -0.000 C 
BRANCH  12  13
ATOM     13  C   UNL     1      21.233  -4.585  57.229  1.00  0.00    -0.003 C 
ATOM     14  C   UNL     1      20.361  -4.350  55.999  1.00  0.00     0.004 C 
ENDBRANCH  12  13
ENDBRANCH  11  12
ENDBRANCH  10  11
ENDBRANCH   9  10
ENDBRANCH   1   9
TORSDOF 10
ENDMDL
MODEL 2
REMARK VINA RESULT:    -3.314     14.341     16.216
REMARK INTER + INTRA:          -6.848
REMARK INTER:                  -5.675
REMARK INTRA:                  -1.173
REMARK UNBOUND:                -1.596
REMARK SMILES CCCCCCCCCCCC(=O)[O-]
REMARK SMILES IDX 7 1 8 2 9 3 10 4 11 5 12 6 13 7 14 8 6 9 5 10 4 11 3 12 2 13
REMARK SMILES IDX 1 14
REMARK H PARENT
REMARK Flexibility Score: inf
ROOT
ATOM      1  C   UNL     1      25.817   4.130  41.237  1.00  0.00     0.000 C 
ENDROOT
BRANCH   1   2
ATOM      2  C   UNL     1      24.999   3.407  42.322  1.00  0.00     0.000 C 
BRANCH   2   3
ATOM      3  C   UNL     1      23.535   3.875  42.365  1.00  0.00     0.000 C 
BRANCH   3   4
ATOM      4  C   UNL     1      22.572   2.766  42.823  1.00  0.00     0.006 C 
BRANCH   4   5
ATOM      5  C   UNL     1      21.228   2.824  42.083  1.00  0.00     0.053 C 
BRANCH   5   6
ATOM      6  C   UNL     1      20.066   2.766  43.028  1.00  0.00     0.041 C 
ATOM      7  O   UNL     1      20.057   3.481  44.064  1.00  0.00    -0.550 OA
ATOM      8  O   UNL     1      18.982   1.945  42.748  1.00  0.00    -0.550 OA
ENDBRANCH   5   6
ENDBRANCH   4   5
ENDBRANCH   3   4
ENDBRANCH   2   3
ENDBRANCH   1   2
BRANCH   1   9
ATOM      9  C   UNL     1      25.221   3.951  39.831  1.00  0.00     0.000 C 
BRANCH   9  10
ATOM     10  C   UNL     1      24.906   2.485  39.500  1.00  0.00    -0.000 C 
BRANCH  10  11
ATOM     11  C   UNL     1      23.520   2.354  38.852  1.00  0.00    -0.000 C 
BRANCH  11  12
ATOM     12  C   UNL     1      22.887   0.972  39.076  1.00  0.00    -0.000 C 
BRANCH  12  13
ATOM     13  C   UNL     1      23.666   0.123  40.091  1.00  0.00    -0.003 C 
ATOM     14  C   UNL     1      23.881  -1.296  39.572  1.00  0.00     0.004 C 
ENDBRANCH  12  13
ENDBRANCH  11  12
ENDBRANCH  10  11
ENDBRANCH   9  10
ENDBRANCH   1   9
TORSDOF 10
ENDMDL
MODEL 3
REMARK VINA RESULT:    -3.295     14.706     16.590
REMARK INTER + INTRA:          -6.817
REMARK INTER:                  -5.824
REMARK INTRA:                  -0.994
REMARK UNBOUND:                -1.596
REMARK SMILES CCCCCCCCCCCC(=O)[O-]
REMARK SMILES IDX 7 1 8 2 9 3 10 4 11 5 12 6 13 7 14 8 6 9 5 10 4 11 3 12 2 13
REMARK SMILES IDX 1 14
REMARK H PARENT
REMARK Flexibility Score: inf
ROOT
ATOM      1  C   UNL     1      30.739   5.562  45.323  1.00  0.00     0.000 C 
ENDROOT
BRANCH   1   2
ATOM      2  C   UNL     1      29.656   6.102  46.274  1.00  0.00     0.000 C 
BRANCH   2   3
ATOM      3  C   UNL     1      30.144   6.200  47.728  1.00  0.00     0.000 C 
BRANCH   3   4
ATOM      4  C   UNL     1      31.372   5.314  48.003  1.00  0.00     0.006 C 
BRANCH   4   5
ATOM      5  C   UNL     1      31.804   5.364  49.474  1.00  0.00     0.053 C 
BRANCH   5   6
ATOM      6  C   UNL     1      32.246   4.021  49.973  1.00  0.00     0.041 C 
ATOM      7  O   UNL     1      32.264   3.032  49.194  1.00  0.00    -0.550 OA
ATOM      8  O   UNL     1      32.668   3.870  51.287  1.00  0.00    -0.550 OA
ENDBRANCH   5   6
ENDBRANCH   4   5
ENDBRANCH   3   4
ENDBRANCH   2   3
ENDBRANCH   1   2
BRANCH   1   9
ATOM      9  C   UNL     1      31.097   6.561  44.210  1.00  0.00     0.000 C 
BRANCH   9  10
ATOM     10  C   UNL     1      32.555   6.433  43.742  1.00  0.00    -0.000 C 
BRANCH  10  11
ATOM     11  C   UNL     1      33.340   7.719  44.035  1.00  0.00    -0.000 C 
BRANCH  11  12
ATOM     12  C   UNL     1      34.148   7.637  45.340  1.00  0.00    -0.000 C 
BRANCH  12  13
ATOM     13  C   UNL     1      33.432   8.310  46.521  1.00  0.00    -0.003 C 
ATOM     14  C   UNL     1      33.105   9.767  46.208  1.00  0.00     0.004 C 
ENDBRANCH  12  13
ENDBRANCH  11  12
ENDBRANCH  10  11
ENDBRANCH   9  10
ENDBRANCH   1   9
TORSDOF 10
ENDMDL
MODEL 4
REMARK VINA RESULT:    -3.291     14.998     16.847
REMARK INTER + INTRA:          -6.812
REMARK INTER:                  -5.494
REMARK INTRA:                  -1.318
REMARK UNBOUND:                -1.596
REMARK SMILES CCCCCCCCCCCC(=O)[O-]
REMARK SMILES IDX 7 1 8 2 9 3 10 4 11 5 12 6 13 7 14 8 6 9 5 10 4 11 3 12 2 13
REMARK SMILES IDX 1 14
REMARK H PARENT
REMARK Flexibility Score: inf
ROOT
ATOM      1  C   UNL     1      24.753   3.421  42.431  1.00  0.00     0.000 C 
ENDROOT
BRANCH   1   2
ATOM      2  C   UNL     1      23.293   3.075  42.773  1.00  0.00     0.000 C 
BRANCH   2   3
ATOM      3  C   UNL     1      22.287   3.795  41.860  1.00  0.00     0.000 C 
BRANCH   3   4
ATOM      4  C   UNL     1      20.844   3.298  42.059  1.00  0.00     0.006 C 
BRANCH   4   5
ATOM      5  C   UNL     1      19.973   3.539  40.819  1.00  0.00     0.053 C 
BRANCH   5   6
ATOM      6  C   UNL     1      18.514   3.571  41.159  1.00  0.00     0.041 C 
ATOM      7  O   UNL     1      17.667   3.093  40.359  1.00  0.00    -0.550 OA
ATOM      8  O   UNL     1      18.093   4.101  42.372  1.00  0.00    -0.550 OA
ENDBRANCH   5   6
ENDBRANCH   4   5
ENDBRANCH   3   4
ENDBRANCH   2   3
ENDBRANCH   1   2
BRANCH   1   9
ATOM      9  C   UNL     1      24.863   4.465  41.307  1.00  0.00     0.000 C 
BRANCH   9  10
ATOM     10  C   UNL     1      25.716   3.979  40.125  1.00  0.00    -0.000 C 
BRANCH  10  11
ATOM     11  C   UNL     1      25.208   2.628  39.602  1.00  0.00    -0.000 C 
BRANCH  11  12
ATOM     12  C   UNL     1      23.920   2.757  38.775  1.00  0.00    -0.000 C 
BRANCH  12  13
ATOM     13  C   UNL     1      22.937   1.603  39.026  1.00  0.00    -0.003 C 
ATOM     14  C   UNL     1      23.635   0.421  39.692  1.00  0.00     0.004 C 
ENDBRANCH  12  13
ENDBRANCH  11  12
ENDBRANCH  10  11
ENDBRANCH   9  10
ENDBRANCH   1   9
TORSDOF 10
ENDMDL
MODEL 5
REMARK VINA RESULT:    -3.283     16.733     17.659
REMARK INTER + INTRA:          -6.799
REMARK INTER:                  -6.342
REMARK INTRA:                  -0.457
REMARK UNBOUND:                -1.596
REMARK SMILES CCCCCCCCCCCC(=O)[O-]
REMARK SMILES IDX 7 1 8 2 9 3 10 4 11 5 12 6 13 7 14 8 6 9 5 10 4 11 3 12 2 13
REMARK SMILES IDX 1 14
REMARK H PARENT
REMARK Flexibility Score: inf
ROOT
ATOM      1  C   UNL     1      26.249   3.858  41.289  1.00  0.00     0.000 C 
ENDROOT
BRANCH   1   2
ATOM      2  C   UNL     1      26.320   5.378  41.517  1.00  0.00     0.000 C 
BRANCH   2   3
ATOM      3  C   UNL     1      27.765   5.889  41.645  1.00  0.00     0.000 C 
BRANCH   3   4
ATOM      4  C   UNL     1      28.799   4.879  41.119  1.00  0.00     0.006 C 
BRANCH   4   5
ATOM      5  C   UNL     1      30.193   5.112  41.719  1.00  0.00     0.053 C 
BRANCH   5   6
ATOM      6  C   UNL     1      31.235   5.293  40.657  1.00  0.00     0.041 C 
ATOM      7  O   UNL     1      32.212   6.063  40.855  1.00  0.00    -0.550 OA
ATOM      8  O   UNL     1      31.144   4.588  39.465  1.00  0.00    -0.550 OA
ENDBRANCH   5   6
ENDBRANCH   4   5
ENDBRANCH   3   4
ENDBRANCH   2   3
ENDBRANCH   1   2
BRANCH   1   9
ATOM      9  C   UNL     1      25.545   3.492  39.972  1.00  0.00     0.000 C 
BRANCH   9  10
ATOM     10  C   UNL     1      24.175   2.832  40.193  1.00  0.00    -0.000 C 
BRANCH  10  11
ATOM     11  C   UNL     1      23.551   2.403  38.857  1.00  0.00    -0.000 C 
BRANCH  11  12
ATOM     12  C   UNL     1      23.000   0.969  38.892  1.00  0.00    -0.000 C 
BRANCH  12  13
ATOM     13  C   UNL     1      23.605   0.131  40.028  1.00  0.00    -0.003 C 
ATOM     14  C   UNL     1      23.892  -1.295  39.567  1.00  0.00     0.004 C 
ENDBRANCH  12  13
ENDBRANCH  11  12
ENDBRANCH  10  11
ENDBRANCH   9  10
ENDBRANCH   1   9
TORSDOF 10
ENDMDL
MODEL 6
REMARK VINA RESULT:    -3.264      1.303      2.174
REMARK INTER + INTRA:          -6.768
REMARK INTER:                  -5.512
REMARK INTRA:                  -1.256
REMARK UNBOUND:                -1.596
REMARK SMILES CCCCCCCCCCCC(=O)[O-]
REMARK SMILES IDX 7 1 8 2 9 3 10 4 11 5 12 6 13 7 14 8 6 9 5 10 4 11 3 12 2 13
REMARK SMILES IDX 1 14
REMARK H PARENT
REMARK Flexibility Score: inf
ROOT
ATOM      1  C   UNL     1      24.414  -2.869  56.735  1.00  0.00     0.000 C 
ENDROOT
BRANCH   1   2
ATOM      2  C   UNL     1      23.599  -1.906  55.854  1.00  0.00     0.000 C 
BRANCH   2   3
ATOM      3  C   UNL     1      23.456  -2.407  54.408  1.00  0.00     0.000 C 
BRANCH   3   4
ATOM      4  C   UNL     1      22.972  -3.866  54.331  1.00  0.00     0.006 C 
BRANCH   4   5
ATOM      5  C   UNL     1      23.412  -4.553  53.031  1.00  0.00     0.053 C 
BRANCH   5   6
ATOM      6  C   UNL     1      24.189  -5.807  53.296  1.00  0.00     0.041 C 
ATOM      7  O   UNL     1      23.624  -6.930  53.218  1.00  0.00    -0.550 OA
ATOM      8  O   UNL     1      25.542  -5.736  53.599  1.00  0.00    -0.550 OA
ENDBRANCH   5   6
ENDBRANCH   4   5
ENDBRANCH   3   4
ENDBRANCH   2   3
ENDBRANCH   1   2
BRANCH   1   9
ATOM      9  C   UNL     1      23.612  -3.387  57.941  1.00  0.00     0.000 C 
BRANCH   9  10
ATOM     10  C   UNL     1      22.248  -2.697  58.089  1.00  0.00    -0.000 C 
BRANCH  10  11
ATOM     11  C   UNL     1      21.103  -3.678  57.792  1.00  0.00    -0.000 C 
BRANCH  11  12
ATOM     12  C   UNL     1      19.848  -2.978  57.250  1.00  0.00    -0.000 C 
BRANCH  12  13
ATOM     13  C   UNL     1      20.120  -1.532  56.809  1.00  0.00    -0.003 C 
ATOM     14  C   UNL     1      19.937  -1.372  55.303  1.00  0.00     0.004 C 
ENDBRANCH  12  13
ENDBRANCH  11  12
ENDBRANCH  10  11
ENDBRANCH   9  10
ENDBRANCH   1   9
TORSDOF 10
ENDMDL
MODEL 7
REMARK VINA RESULT:    -3.222      1.793      3.132
REMARK INTER + INTRA:          -6.702
REMARK INTER:                  -5.130
REMARK INTRA:                  -1.572
REMARK UNBOUND:                -1.596
REMARK SMILES CCCCCCCCCCCC(=O)[O-]
REMARK SMILES IDX 7 1 8 2 9 3 10 4 11 5 12 6 13 7 14 8 6 9 5 10 4 11 3 12 2 13
REMARK SMILES IDX 1 14
REMARK H PARENT
REMARK Flexibility Score: inf
ROOT
ATOM      1  C   UNL     1      23.341  -3.558  57.883  1.00  0.00     0.000 C 
ENDROOT
BRANCH   1   2
ATOM      2  C   UNL     1      24.335  -3.003  56.847  1.00  0.00     0.000 C 
BRANCH   2   3
ATOM      3  C   UNL     1      23.976  -3.408  55.408  1.00  0.00     0.000 C 
BRANCH   3   4
ATOM      4  C   UNL     1      23.640  -2.199  54.518  1.00  0.00     0.006 C 
BRANCH   4   5
ATOM      5  C   UNL     1      22.404  -2.449  53.644  1.00  0.00     0.053 C 
BRANCH   5   6
ATOM      6  C   UNL     1      22.752  -3.173  52.378  1.00  0.00     0.041 C 
ATOM      7  O   UNL     1      21.976  -4.050  51.917  1.00  0.00    -0.550 OA
ATOM      8  O   UNL     1      23.917  -2.855  51.692  1.00  0.00    -0.550 OA
ENDBRANCH   5   6
ENDBRANCH   4   5
ENDBRANCH   3   4
ENDBRANCH   2   3
ENDBRANCH   1   2
BRANCH   1   9
ATOM      9  C   UNL     1      22.205  -4.367  57.234  1.00  0.00     0.000 C 
BRANCH   9  10
ATOM     10  C   UNL     1      20.811  -3.863  57.637  1.00  0.00    -0.000 C 
BRANCH  10  11
ATOM     11  C   UNL     1      20.173  -3.050  56.501  1.00  0.00    -0.000 C 
BRANCH  11  12
ATOM     12  C   UNL     1      19.965  -1.574  56.871  1.00  0.00    -0.000 C 
BRANCH  12  13
ATOM     13  C   UNL     1      21.256  -0.748  56.756  1.00  0.00    -0.003 C 
ATOM     14  C   UNL     1      21.719  -0.258  58.124  1.00  0.00     0.004 C 
ENDBRANCH  12  13
ENDBRANCH  11  12
ENDBRANCH  10  11
ENDBRANCH   9  10
ENDBRANCH   1   9
TORSDOF 10
ENDMDL
MODEL 8
REMARK VINA RESULT:    -3.215      2.892      3.827
REMARK INTER + INTRA:          -6.690
REMARK INTER:                  -5.044
REMARK INTRA:                  -1.646
REMARK UNBOUND:                -1.596
REMARK SMILES CCCCCCCCCCCC(=O)[O-]
REMARK SMILES IDX 7 1 8 2 9 3 10 4 11 5 12 6 13 7 14 8 6 9 5 10 4 11 3 12 2 13
REMARK SMILES IDX 1 14
REMARK H PARENT
REMARK Flexibility Score: inf
ROOT
ATOM      1  C   UNL     1      23.829  -3.326  57.588  1.00  0.00     0.000 C 
ENDROOT
BRANCH   1   2
ATOM      2  C   UNL     1      24.490  -2.691  56.351  1.00  0.00     0.000 C 
BRANCH   2   3
ATOM      3  C   UNL     1      23.915  -3.234  55.032  1.00  0.00     0.000 C 
BRANCH   3   4
ATOM      4  C   UNL     1      23.397  -2.118  54.108  1.00  0.00     0.006 C 
BRANCH   4   5
ATOM      5  C   UNL     1      21.873  -2.168  53.939  1.00  0.00     0.053 C 
BRANCH   5   6
ATOM      6  C   UNL     1      21.175  -1.247  54.893  1.00  0.00     0.041 C 
ATOM      7  O   UNL     1      21.802  -0.293  55.425  1.00  0.00    -0.550 OA
ATOM      8  O   UNL     1      19.826  -1.424  55.171  1.00  0.00    -0.550 OA
ENDBRANCH   5   6
ENDBRANCH   4   5
ENDBRANCH   3   4
ENDBRANCH   2   3
ENDBRANCH   1   2
BRANCH   1   9
ATOM      9  C   UNL     1      22.625  -2.515  58.095  1.00  0.00     0.000 C 
BRANCH   9  10
ATOM     10  C   UNL     1      21.295  -3.270  57.951  1.00  0.00    -0.000 C 
BRANCH  10  11
ATOM     11  C   UNL     1      21.526  -4.688  57.410  1.00  0.00    -0.000 C 
BRANCH  11  12
ATOM     12  C   UNL     1      20.763  -4.957  56.104  1.00  0.00    -0.000 C 
BRANCH  12  13
ATOM     13  C   UNL     1      21.224  -6.244  55.404  1.00  0.00    -0.003 C 
ATOM     14  C   UNL     1      21.637  -5.968  53.961  1.00  0.00     0.004 C 
ENDBRANCH  12  13
ENDBRANCH  11  12
ENDBRANCH  10  11
ENDBRANCH   9  10
ENDBRANCH   1   9
TORSDOF 10
ENDMDL
MODEL 9
REMARK VINA RESULT:    -3.211      1.132      2.579
REMARK INTER + INTRA:          -6.685
REMARK INTER:                  -5.299
REMARK INTRA:                  -1.386
REMARK UNBOUND:                -1.596
REMARK SMILES CCCCCCCCCCCC(=O)[O-]
REMARK SMILES IDX 7 1 8 2 9 3 10 4 11 5 12 6 13 7 14 8 6 9 5 10 4 11 3 12 2 13
REMARK SMILES IDX 1 14
REMARK H PARENT
REMARK Flexibility Score: inf
ROOT
ATOM      1  C   UNL     1      22.997  -2.910  58.125  1.00  0.00     0.000 C 
ENDROOT
BRANCH   1   2
ATOM      2  C   UNL     1      23.938  -3.533  57.079  1.00  0.00     0.000 C 
BRANCH   2   3
ATOM      3  C   UNL     1      24.393  -2.519  56.016  1.00  0.00     0.000 C 
BRANCH   3   4
ATOM      4  C   UNL     1      23.890  -2.872  54.606  1.00  0.00     0.006 C 
BRANCH   4   5
ATOM      5  C   UNL     1      23.334  -4.301  54.531  1.00  0.00     0.053 C 
BRANCH   5   6
ATOM      6  C   UNL     1      23.997  -5.103  53.452  1.00  0.00     0.041 C 
ATOM      7  O   UNL     1      25.152  -5.571  53.632  1.00  0.00    -0.550 OA
ATOM      8  O   UNL     1      23.326  -5.360  52.264  1.00  0.00    -0.550 OA
ENDBRANCH   5   6
ENDBRANCH   4   5
ENDBRANCH   3   4
ENDBRANCH   2   3
ENDBRANCH   1   2
BRANCH   1   9
ATOM      9  C   UNL     1      21.513  -3.123  57.784  1.00  0.00     0.000 C 
BRANCH   9  10
ATOM     10  C   UNL     1      20.720  -1.808  57.729  1.00  0.00    -0.000 C 
BRANCH  10  11
ATOM     11  C   UNL     1      21.605  -0.655  57.234  1.00  0.00    -0.000 C 
BRANCH  11  12
ATOM     12  C   UNL     1      21.494  -0.430  55.718  1.00  0.00    -0.000 C 
BRANCH  12  13
ATOM     13  C   UNL     1      20.168  -0.948  55.139  1.00  0.00    -0.003 C 
ATOM     14  C   UNL     1      20.411  -1.852  53.934  1.00  0.00     0.004 C 
ENDBRANCH  12  13
ENDBRANCH  11  12
ENDBRANCH  10  11
ENDBRANCH   9  10
ENDBRANCH   1   9
TORSDOF 10
ENDMDL
