MODEL 1
REMARK VINA RESULT:    -5.598      0.000      0.000
REMARK INTER + INTRA:          -6.251
REMARK INTER:                  -6.089
REMARK INTRA:                  -0.162
REMARK UNBOUND:                -0.162
REMARK SMILES CC(=O)[C@H]1CC[C@@H]2[C@H]3CC=C4C[C@H](O)CC[C@@]4(C)[C@@H]3CC[C@]12C
REMARK SMILES IDX 4 1 5 2 6 3 7 4 22 5 21 6 20 7 19 8 8 9 9 10 10 11 11 12
REMARK SMILES IDX 17 13 16 14 15 15 13 16 12 17 18 18 23 19 2 20 1 21 3 22
REMARK SMILES IDX 14 23
REMARK H PARENT 14 24
REMARK Flexibility Score: inf
ROOT
ATOM      1  C   UNL     1      12.321  25.917  15.805  1.00  0.00     0.062 C 
ATOM      2  C   UNL     1      13.376  27.020  15.905  1.00  0.00     0.012 C 
ATOM      3  C   UNL     1      12.825  28.204  15.100  1.00  0.00     0.005 C 
ATOM      4  C   UNL     1      11.498  27.745  14.446  1.00  0.00    -0.001 C 
ATOM      5  C   UNL     1      11.580  26.191  14.470  1.00  0.00    -0.020 C 
ATOM      6  C   UNL     1      10.197  25.485  14.391  1.00  0.00     0.008 C 
ATOM      7  C   UNL     1       9.110  26.133  15.252  1.00  0.00     0.005 C 
ATOM      8  C   UNL     1       8.945  27.632  14.904  1.00  0.00     0.003 C 
ATOM      9  C   UNL     1      10.273  28.366  15.212  1.00  0.00     0.000 C 
ATOM     10  C   UNL     1      10.161  29.869  14.854  1.00  0.00     0.031 C 
ATOM     11  C   UNL     1       8.857  30.513  15.222  1.00  0.00    -0.027 C 
ATOM     12  C   UNL     1       7.710  29.827  15.391  1.00  0.00    -0.065 C 
ATOM     13  C   UNL     1       7.705  28.303  15.628  1.00  0.00    -0.008 C 
ATOM     14  C   UNL     1       6.385  27.696  15.043  1.00  0.00     0.014 C 
ATOM     15  C   UNL     1       5.119  28.485  15.416  1.00  0.00     0.033 C 
ATOM     16  C   UNL     1       5.231  29.943  14.952  1.00  0.00     0.118 C 
ATOM     17  C   UNL     1       6.435  30.626  15.609  1.00  0.00     0.063 C 
ATOM     18  C   UNL     1       7.731  28.063  17.166  1.00  0.00     0.016 C 
ATOM     19  C   UNL     1      12.415  25.714  13.244  1.00  0.00     0.012 C 
ENDROOT
BRANCH   1  20
ATOM     20  C   UNL     1      12.914  24.524  15.968  1.00  0.00     0.133 C 
ATOM     21  C   UNL     1      12.062  23.366  16.392  1.00  0.00     0.088 C 
ATOM     22  O   UNL     1      14.100  24.326  15.758  1.00  0.00    -0.300 OA
ENDBRANCH   1  20
BRANCH  16  23
ATOM     23  O   UNL     1       4.064  30.647  15.294  1.00  0.00    -0.393 OA
ATOM     24  H   UNL     1       3.311  30.004  15.213  1.00  0.00     0.210 HD
ENDBRANCH  16  23
TORSDOF 2
ENDMDL
MODEL 2
REMARK VINA RESULT:    -5.498      2.067      7.438
REMARK INTER + INTRA:          -6.142
REMARK INTER:                  -5.955
REMARK INTRA:                  -0.187
REMARK UNBOUND:                -0.162
REMARK SMILES CC(=O)[C@H]1CC[C@@H]2[C@H]3CC=C4C[C@H](O)CC[C@@]4(C)[C@@H]3CC[C@]12C
REMARK SMILES IDX 4 1 5 2 6 3 7 4 22 5 21 6 20 7 19 8 8 9 9 10 10 11 11 12
REMARK SMILES IDX 17 13 16 14 15 15 13 16 12 17 18 18 23 19 2 20 1 21 3 22
REMARK SMILES IDX 14 23
REMARK H PARENT 14 24
REMARK Flexibility Score: inf
ROOT
ATOM      1  C   UNL     1       9.308  28.609  15.584  1.00  0.00     0.062 C 
ATOM      2  C   UNL     1       8.191  27.602  15.859  1.00  0.00     0.012 C 
ATOM      3  C   UNL     1       8.587  26.320  15.114  1.00  0.00     0.005 C 
ATOM      4  C   UNL     1       9.882  26.624  14.320  1.00  0.00    -0.001 C 
ATOM      5  C   UNL     1       9.911  28.177  14.221  1.00  0.00    -0.020 C 
ATOM      6  C   UNL     1      11.329  28.766  13.974  1.00  0.00     0.008 C 
ATOM      7  C   UNL     1      12.437  28.105  14.796  1.00  0.00     0.005 C 
ATOM      8  C   UNL     1      12.466  26.575  14.563  1.00  0.00     0.003 C 
ATOM      9  C   UNL     1      11.121  25.972  15.036  1.00  0.00     0.000 C 
ATOM     10  C   UNL     1      11.097  24.441  14.797  1.00  0.00     0.031 C 
ATOM     11  C   UNL     1      12.379  23.730  15.113  1.00  0.00    -0.027 C 
ATOM     12  C   UNL     1      13.581  24.336  15.132  1.00  0.00    -0.065 C 
ATOM     13  C   UNL     1      13.713  25.869  15.240  1.00  0.00    -0.008 C 
ATOM     14  C   UNL     1      15.018  26.326  14.502  1.00  0.00     0.014 C 
ATOM     15  C   UNL     1      16.253  25.474  14.838  1.00  0.00     0.033 C 
ATOM     16  C   UNL     1      16.000  23.997  14.508  1.00  0.00     0.118 C 
ATOM     17  C   UNL     1      14.811  23.461  15.313  1.00  0.00     0.063 C 
ATOM     18  C   UNL     1      13.836  26.229  16.749  1.00  0.00     0.016 C 
ATOM     19  C   UNL     1       9.010  28.620  13.029  1.00  0.00     0.012 C 
ENDROOT
BRANCH   1  20
ATOM     20  C   UNL     1       8.830  30.052  15.676  1.00  0.00     0.133 C 
ATOM     21  C   UNL     1       7.368  30.385  15.669  1.00  0.00     0.088 C 
ATOM     22  O   UNL     1       9.634  30.968  15.756  1.00  0.00    -0.300 OA
ENDBRANCH   1  20
BRANCH  16  23
ATOM     23  O   UNL     1      17.139  23.234  14.813  1.00  0.00    -0.393 OA
ATOM     24  H   UNL     1      17.914  23.706  14.407  1.00  0.00     0.210 HD
ENDBRANCH  16  23
TORSDOF 2
ENDMDL
MODEL 3
REMARK VINA RESULT:    -5.402      1.887      7.053
REMARK INTER + INTRA:          -6.037
REMARK INTER:                  -5.847
REMARK INTRA:                  -0.191
REMARK UNBOUND:                -0.162
REMARK SMILES CC(=O)[C@H]1CC[C@@H]2[C@H]3CC=C4C[C@H](O)CC[C@@]4(C)[C@@H]3CC[C@]12C
REMARK SMILES IDX 4 1 5 2 6 3 7 4 22 5 21 6 20 7 19 8 8 9 9 10 10 11 11 12
REMARK SMILES IDX 17 13 16 14 15 15 13 16 12 17 18 18 23 19 2 20 1 21 3 22
REMARK SMILES IDX 14 23
REMARK H PARENT 14 24
REMARK Flexibility Score: inf
ROOT
ATOM      1  C   UNL     1       8.214  28.167  16.619  1.00  0.00     0.062 C 
ATOM      2  C   UNL     1       7.420  26.883  16.862  1.00  0.00     0.012 C 
ATOM      3  C   UNL     1       7.842  25.911  15.753  1.00  0.00     0.005 C 
ATOM      4  C   UNL     1       8.801  26.674  14.805  1.00  0.00    -0.001 C 
ATOM      5  C   UNL     1       8.508  28.175  15.096  1.00  0.00    -0.020 C 
ATOM      6  C   UNL     1       9.673  29.130  14.711  1.00  0.00     0.008 C 
ATOM      7  C   UNL     1      11.063  28.612  15.086  1.00  0.00     0.005 C 
ATOM      8  C   UNL     1      11.319  27.213  14.475  1.00  0.00     0.003 C 
ATOM      9  C   UNL     1      10.286  26.217  15.055  1.00  0.00     0.000 C 
ATOM     10  C   UNL     1      10.490  24.806  14.450  1.00  0.00     0.031 C 
ATOM     11  C   UNL     1      11.920  24.382  14.298  1.00  0.00    -0.027 C 
ATOM     12  C   UNL     1      12.948  25.249  14.214  1.00  0.00    -0.065 C 
ATOM     13  C   UNL     1      12.811  26.714  14.673  1.00  0.00    -0.008 C 
ATOM     14  C   UNL     1      13.765  27.614  13.816  1.00  0.00     0.014 C 
ATOM     15  C   UNL     1      15.183  27.041  13.657  1.00  0.00     0.033 C 
ATOM     16  C   UNL     1      15.137  25.643  13.028  1.00  0.00     0.118 C 
ATOM     17  C   UNL     1      14.325  24.683  13.905  1.00  0.00     0.063 C 
ATOM     18  C   UNL     1      13.254  26.787  16.164  1.00  0.00     0.016 C 
ATOM     19  C   UNL     1       7.259  28.611  14.273  1.00  0.00     0.012 C 
ENDROOT
BRANCH   1  20
ATOM     20  C   UNL     1       7.512  29.402  17.170  1.00  0.00     0.133 C 
ATOM     21  C   UNL     1       6.086  29.341  17.628  1.00  0.00     0.088 C 
ATOM     22  O   UNL     1       8.102  30.468  17.247  1.00  0.00    -0.300 OA
ENDBRANCH   1  20
BRANCH  16  23
ATOM     23  O   UNL     1      16.440  25.137  12.883  1.00  0.00    -0.393 OA
ATOM     24  H   UNL     1      17.050  25.922  12.879  1.00  0.00     0.210 HD
ENDBRANCH  16  23
TORSDOF 2
ENDMDL
MODEL 4
REMARK VINA RESULT:    -5.397      1.813      7.264
REMARK INTER + INTRA:          -6.032
REMARK INTER:                  -5.846
REMARK INTRA:                  -0.185
REMARK UNBOUND:                -0.162
REMARK SMILES CC(=O)[C@H]1CC[C@@H]2[C@H]3CC=C4C[C@H](O)CC[C@@]4(C)[C@@H]3CC[C@]12C
REMARK SMILES IDX 4 1 5 2 6 3 7 4 22 5 21 6 20 7 19 8 8 9 9 10 10 11 11 12
REMARK SMILES IDX 17 13 16 14 15 15 13 16 12 17 18 18 23 19 2 20 1 21 3 22
REMARK SMILES IDX 14 23
REMARK H PARENT 14 24
REMARK Flexibility Score: inf
ROOT
ATOM      1  C   UNL     1       4.005  29.737  15.161  1.00  0.00     0.062 C 
ATOM      2  C   UNL     1       4.042  31.125  15.802  1.00  0.00     0.012 C 
ATOM      3  C   UNL     1       5.260  31.125  16.736  1.00  0.00     0.005 C 
ATOM      4  C   UNL     1       5.863  29.697  16.715  1.00  0.00    -0.001 C 
ATOM      5  C   UNL     1       4.704  28.803  16.184  1.00  0.00    -0.020 C 
ATOM      6  C   UNL     1       5.180  27.465  15.553  1.00  0.00     0.008 C 
ATOM      7  C   UNL     1       6.417  27.593  14.662  1.00  0.00     0.005 C 
ATOM      8  C   UNL     1       7.591  28.247  15.430  1.00  0.00     0.003 C 
ATOM      9  C   UNL     1       7.177  29.678  15.851  1.00  0.00     0.000 C 
ATOM     10  C   UNL     1       8.316  30.363  16.647  1.00  0.00     0.031 C 
ATOM     11  C   UNL     1       9.697  30.118  16.116  1.00  0.00    -0.027 C 
ATOM     12  C   UNL     1      10.023  29.057  15.352  1.00  0.00    -0.065 C 
ATOM     13  C   UNL     1       8.950  28.229  14.616  1.00  0.00    -0.008 C 
ATOM     14  C   UNL     1       9.445  26.748  14.485  1.00  0.00     0.014 C 
ATOM     15  C   UNL     1      10.902  26.618  14.011  1.00  0.00     0.033 C 
ATOM     16  C   UNL     1      11.850  27.365  14.959  1.00  0.00     0.118 C 
ATOM     17  C   UNL     1      11.492  28.854  15.016  1.00  0.00     0.063 C 
ATOM     18  C   UNL     1       8.782  28.832  13.191  1.00  0.00     0.016 C 
ATOM     19  C   UNL     1       3.761  28.447  17.372  1.00  0.00     0.012 C 
ENDROOT
BRANCH   1  20
ATOM     20  C   UNL     1       2.602  29.328  14.733  1.00  0.00     0.133 C 
ATOM     21  C   UNL     1       1.393  30.043  15.259  1.00  0.00     0.088 C 
ATOM     22  O   UNL     1       2.435  28.405  13.952  1.00  0.00    -0.300 OA
ENDBRANCH   1  20
BRANCH  16  23
ATOM     23  O   UNL     1      13.176  27.231  14.516  1.00  0.00    -0.393 OA
ATOM     24  H   UNL     1      13.153  27.299  13.525  1.00  0.00     0.210 HD
ENDBRANCH  16  23
TORSDOF 2
ENDMDL
MODEL 5
REMARK VINA RESULT:    -5.387      2.076      3.889
REMARK INTER + INTRA:          -6.021
REMARK INTER:                  -5.832
REMARK INTRA:                  -0.189
REMARK UNBOUND:                -0.162
REMARK SMILES CC(=O)[C@H]1CC[C@@H]2[C@H]3CC=C4C[C@H](O)CC[C@@]4(C)[C@@H]3CC[C@]12C
REMARK SMILES IDX 4 1 5 2 6 3 7 4 22 5 21 6 20 7 19 8 8 9 9 10 10 11 11 12
REMARK SMILES IDX 17 13 16 14 15 15 13 16 12 17 18 18 23 19 2 20 1 21 3 22
REMARK SMILES IDX 14 23
REMARK H PARENT 14 24
REMARK Flexibility Score: inf
ROOT
ATOM      1  C   UNL     1      14.818  26.092  13.737  1.00  0.00     0.062 C 
ATOM      2  C   UNL     1      14.494  24.618  13.493  1.00  0.00     0.012 C 
ATOM      3  C   UNL     1      13.317  24.285  14.420  1.00  0.00     0.005 C 
ATOM      4  C   UNL     1      13.031  25.543  15.278  1.00  0.00    -0.001 C 
ATOM      5  C   UNL     1      14.347  26.371  15.189  1.00  0.00    -0.020 C 
ATOM      6  C   UNL     1      14.158  27.886  15.482  1.00  0.00     0.008 C 
ATOM      7  C   UNL     1      12.911  28.501  14.845  1.00  0.00     0.005 C 
ATOM      8  C   UNL     1      11.635  27.732  15.265  1.00  0.00     0.003 C 
ATOM      9  C   UNL     1      11.740  26.274  14.756  1.00  0.00     0.000 C 
ATOM     10  C   UNL     1      10.492  25.458  15.177  1.00  0.00     0.031 C 
ATOM     11  C   UNL     1       9.188  26.190  15.061  1.00  0.00    -0.027 C 
ATOM     12  C   UNL     1       9.085  27.533  15.071  1.00  0.00    -0.065 C 
ATOM     13  C   UNL     1      10.300  28.440  14.788  1.00  0.00    -0.008 C 
ATOM     14  C   UNL     1      10.130  29.786  15.572  1.00  0.00     0.014 C 
ATOM     15  C   UNL     1       8.728  30.405  15.450  1.00  0.00     0.033 C 
ATOM     16  C   UNL     1       7.655  29.421  15.935  1.00  0.00     0.118 C 
ATOM     17  C   UNL     1       7.689  28.134  15.103  1.00  0.00     0.063 C 
ATOM     18  C   UNL     1      10.317  28.746  13.261  1.00  0.00     0.016 C 
ATOM     19  C   UNL     1      15.359  25.818  16.236  1.00  0.00     0.012 C 
ENDROOT
BRANCH   1  20
ATOM     20  C   UNL     1      16.270  26.431  13.429  1.00  0.00     0.133 C 
ATOM     21  C   UNL     1      17.292  25.351  13.234  1.00  0.00     0.088 C 
ATOM     22  O   UNL     1      16.630  27.594  13.337  1.00  0.00    -0.300 OA
ENDBRANCH   1  20
BRANCH  16  23
ATOM     23  O   UNL     1       6.382  30.003  15.823  1.00  0.00    -0.393 OA
ATOM     24  H   UNL     1       5.823  29.365  15.305  1.00  0.00     0.210 HD
ENDBRANCH  16  23
TORSDOF 2
ENDMDL
MODEL 6
REMARK VINA RESULT:    -5.228      1.659      2.349
REMARK INTER + INTRA:          -5.848
REMARK INTER:                  -5.660
REMARK INTRA:                  -0.188
REMARK UNBOUND:                -0.162
REMARK SMILES CC(=O)[C@H]1CC[C@@H]2[C@H]3CC=C4C[C@H](O)CC[C@@]4(C)[C@@H]3CC[C@]12C
REMARK SMILES IDX 4 1 5 2 6 3 7 4 22 5 21 6 20 7 19 8 8 9 9 10 10 11 11 12
REMARK SMILES IDX 17 13 16 14 15 15 13 16 12 17 18 18 23 19 2 20 1 21 3 22
REMARK SMILES IDX 14 23
REMARK H PARENT 14 24
REMARK Flexibility Score: inf
ROOT
ATOM      1  C   UNL     1      11.848  27.030  15.366  1.00  0.00     0.062 C 
ATOM      2  C   UNL     1      12.188  28.505  15.150  1.00  0.00     0.012 C 
ATOM      3  C   UNL     1      10.961  29.125  14.468  1.00  0.00     0.005 C 
ATOM      4  C   UNL     1       9.954  27.980  14.193  1.00  0.00    -0.001 C 
ATOM      5  C   UNL     1      10.821  26.688  14.255  1.00  0.00    -0.020 C 
ATOM      6  C   UNL     1      10.008  25.398  14.560  1.00  0.00     0.008 C 
ATOM      7  C   UNL     1       8.942  25.567  15.645  1.00  0.00     0.005 C 
ATOM      8  C   UNL     1       7.969  26.719  15.294  1.00  0.00     0.003 C 
ATOM      9  C   UNL     1       8.767  28.043  15.224  1.00  0.00     0.000 C 
ATOM     10  C   UNL     1       7.834  29.222  14.849  1.00  0.00     0.031 C 
ATOM     11  C   UNL     1       6.490  29.203  15.514  1.00  0.00    -0.027 C 
ATOM     12  C   UNL     1       5.914  28.085  15.997  1.00  0.00    -0.065 C 
ATOM     13  C   UNL     1       6.736  26.812  16.285  1.00  0.00    -0.008 C 
ATOM     14  C   UNL     1       5.824  25.554  16.081  1.00  0.00     0.014 C 
ATOM     15  C   UNL     1       4.438  25.678  16.735  1.00  0.00     0.033 C 
ATOM     16  C   UNL     1       3.694  26.909  16.203  1.00  0.00     0.118 C 
ATOM     17  C   UNL     1       4.484  28.188  16.503  1.00  0.00     0.063 C 
ATOM     18  C   UNL     1       7.190  26.868  17.773  1.00  0.00     0.016 C 
ATOM     19  C   UNL     1      11.515  26.484  12.875  1.00  0.00     0.012 C 
ENDROOT
BRANCH   1  20
ATOM     20  C   UNL     1      13.088  26.147  15.424  1.00  0.00     0.133 C 
ATOM     21  C   UNL     1      14.436  26.679  15.040  1.00  0.00     0.088 C 
ATOM     22  O   UNL     1      13.005  24.984  15.785  1.00  0.00    -0.300 OA
ENDBRANCH   1  20
BRANCH  16  23
ATOM     23  O   UNL     1       2.428  27.004  16.805  1.00  0.00    -0.393 OA
ATOM     24  H   UNL     1       1.785  27.218  16.078  1.00  0.00     0.210 HD
ENDBRANCH  16  23
TORSDOF 2
ENDMDL
MODEL 7
REMARK VINA RESULT:    -5.185      9.569     11.469
REMARK INTER + INTRA:          -5.801
REMARK INTER:                  -5.616
REMARK INTRA:                  -0.185
REMARK UNBOUND:                -0.162
REMARK SMILES CC(=O)[C@H]1CC[C@@H]2[C@H]3CC=C4C[C@H](O)CC[C@@]4(C)[C@@H]3CC[C@]12C
REMARK SMILES IDX 4 1 5 2 6 3 7 4 22 5 21 6 20 7 19 8 8 9 9 10 10 11 11 12
REMARK SMILES IDX 17 13 16 14 15 15 13 16 12 17 18 18 23 19 2 20 1 21 3 22
REMARK SMILES IDX 14 23
REMARK H PARENT 14 24
REMARK Flexibility Score: inf
ROOT
ATOM      1  C   UNL     1      12.500  14.941  15.486  1.00  0.00     0.062 C 
ATOM      2  C   UNL     1      13.361  16.179  15.736  1.00  0.00     0.012 C 
ATOM      3  C   UNL     1      12.858  17.247  14.755  1.00  0.00     0.005 C 
ATOM      4  C   UNL     1      11.776  16.588  13.864  1.00  0.00    -0.001 C 
ATOM      5  C   UNL     1      12.043  15.061  14.008  1.00  0.00    -0.020 C 
ATOM      6  C   UNL     1      10.810  14.172  13.683  1.00  0.00     0.008 C 
ATOM      7  C   UNL     1       9.488  14.698  14.246  1.00  0.00     0.005 C 
ATOM      8  C   UNL     1       9.219  16.147  13.773  1.00  0.00     0.003 C 
ATOM      9  C   UNL     1      10.344  17.065  14.309  1.00  0.00     0.000 C 
ATOM     10  C   UNL     1      10.128  18.525  13.837  1.00  0.00     0.031 C 
ATOM     11  C   UNL     1       8.706  18.999  13.875  1.00  0.00    -0.027 C 
ATOM     12  C   UNL     1       7.644  18.171  13.840  1.00  0.00    -0.065 C 
ATOM     13  C   UNL     1       7.777  16.670  14.171  1.00  0.00    -0.008 C 
ATOM     14  C   UNL     1       6.703  15.868  13.358  1.00  0.00     0.014 C 
ATOM     15  C   UNL     1       5.298  16.491  13.399  1.00  0.00     0.033 C 
ATOM     16  C   UNL     1       5.327  17.932  12.875  1.00  0.00     0.118 C 
ATOM     17  C   UNL     1       6.263  18.797  13.727  1.00  0.00     0.063 C 
ATOM     18  C   UNL     1       7.493  16.493  15.691  1.00  0.00     0.016 C 
ATOM     19  C   UNL     1      13.180  14.656  13.022  1.00  0.00     0.012 C 
ENDROOT
BRANCH   1  20
ATOM     20  C   UNL     1      13.211  13.648  15.863  1.00  0.00     0.133 C 
ATOM     21  C   UNL     1      14.666  13.642  16.224  1.00  0.00     0.088 C 
ATOM     22  O   UNL     1      12.606  12.588  15.875  1.00  0.00    -0.300 OA
ENDBRANCH   1  20
BRANCH  16  23
ATOM     23  O   UNL     1       4.036  18.484  12.913  1.00  0.00    -0.393 OA
ATOM     24  H   UNL     1       3.526  18.062  12.171  1.00  0.00     0.210 HD
ENDBRANCH  16  23
TORSDOF 2
ENDMDL
MODEL 8
REMARK VINA RESULT:    -5.126      4.872      8.423
REMARK INTER + INTRA:          -5.737
REMARK INTER:                  -5.553
REMARK INTRA:                  -0.184
REMARK UNBOUND:                -0.162
REMARK SMILES CC(=O)[C@H]1CC[C@@H]2[C@H]3CC=C4C[C@H](O)CC[C@@]4(C)[C@@H]3CC[C@]12C
REMARK SMILES IDX 4 1 5 2 6 3 7 4 22 5 21 6 20 7 19 8 8 9 9 10 10 11 11 12
REMARK SMILES IDX 17 13 16 14 15 15 13 16 12 17 18 18 23 19 2 20 1 21 3 22
REMARK SMILES IDX 14 23
REMARK H PARENT 14 24
REMARK Flexibility Score: inf
ROOT
ATOM      1  C   UNL     1       1.569  23.636  14.898  1.00  0.00     0.062 C 
ATOM      2  C   UNL     1       0.260  24.382  14.635  1.00  0.00     0.012 C 
ATOM      3  C   UNL     1       0.224  25.538  15.644  1.00  0.00     0.005 C 
ATOM      4  C   UNL     1       1.464  25.393  16.562  1.00  0.00    -0.001 C 
ATOM      5  C   UNL     1       1.892  23.906  16.391  1.00  0.00    -0.020 C 
ATOM      6  C   UNL     1       3.381  23.636  16.746  1.00  0.00     0.008 C 
ATOM      7  C   UNL     1       4.355  24.699  16.232  1.00  0.00     0.005 C 
ATOM      8  C   UNL     1       3.954  26.108  16.731  1.00  0.00     0.003 C 
ATOM      9  C   UNL     1       2.554  26.457  16.170  1.00  0.00     0.000 C 
ATOM     10  C   UNL     1       2.101  27.853  16.666  1.00  0.00     0.031 C 
ATOM     11  C   UNL     1       3.175  28.900  16.680  1.00  0.00    -0.027 C 
ATOM     12  C   UNL     1       4.490  28.616  16.740  1.00  0.00    -0.065 C 
ATOM     13  C   UNL     1       5.033  27.216  16.387  1.00  0.00    -0.008 C 
ATOM     14  C   UNL     1       6.329  26.942  17.224  1.00  0.00     0.014 C 
ATOM     15  C   UNL     1       7.322  28.115  17.236  1.00  0.00     0.033 C 
ATOM     16  C   UNL     1       6.655  29.386  17.776  1.00  0.00     0.118 C 
ATOM     17  C   UNL     1       5.457  29.778  16.905  1.00  0.00     0.063 C 
ATOM     18  C   UNL     1       5.402  27.219  14.874  1.00  0.00     0.016 C 
ATOM     19  C   UNL     1       1.022  23.023  17.335  1.00  0.00     0.012 C 
ENDROOT
BRANCH   1  20
ATOM     20  C   UNL     1       1.502  22.173  14.482  1.00  0.00     0.133 C 
ATOM     21  C   UNL     1       0.186  21.495  14.248  1.00  0.00     0.088 C 
ATOM     22  O   UNL     1       2.525  21.522  14.336  1.00  0.00    -0.300 OA
ENDBRANCH   1  20
BRANCH  16  23
ATOM     23  O   UNL     1       7.577  30.446  17.787  1.00  0.00    -0.393 OA
ATOM     24  H   UNL     1       7.753  30.658  18.742  1.00  0.00     0.210 HD
ENDBRANCH  16  23
TORSDOF 2
ENDMDL
MODEL 9
REMARK VINA RESULT:    -5.123      1.669      6.921
REMARK INTER + INTRA:          -5.734
REMARK INTER:                  -5.544
REMARK INTRA:                  -0.190
REMARK UNBOUND:                -0.162
REMARK SMILES CC(=O)[C@H]1CC[C@@H]2[C@H]3CC=C4C[C@H](O)CC[C@@]4(C)[C@@H]3CC[C@]12C
REMARK SMILES IDX 4 1 5 2 6 3 7 4 22 5 21 6 20 7 19 8 8 9 9 10 10 11 11 12
REMARK SMILES IDX 17 13 16 14 15 15 13 16 12 17 18 18 23 19 2 20 1 21 3 22
REMARK SMILES IDX 14 23
REMARK H PARENT 14 24
REMARK Flexibility Score: inf
ROOT
ATOM      1  C   UNL     1       4.855  28.892  15.805  1.00  0.00     0.062 C 
ATOM      2  C   UNL     1       4.870  30.264  15.130  1.00  0.00     0.012 C 
ATOM      3  C   UNL     1       6.330  30.738  15.174  1.00  0.00     0.005 C 
ATOM      4  C   UNL     1       7.138  29.684  15.971  1.00  0.00    -0.001 C 
ATOM      5  C   UNL     1       6.058  28.913  16.785  1.00  0.00    -0.020 C 
ATOM      6  C   UNL     1       6.501  27.490  17.228  1.00  0.00     0.008 C 
ATOM      7  C   UNL     1       7.251  26.701  16.154  1.00  0.00     0.005 C 
ATOM      8  C   UNL     1       8.482  27.488  15.643  1.00  0.00     0.003 C 
ATOM      9  C   UNL     1       7.997  28.805  14.990  1.00  0.00     0.000 C 
ATOM     10  C   UNL     1       9.201  29.639  14.485  1.00  0.00     0.031 C 
ATOM     11  C   UNL     1      10.291  28.845  13.828  1.00  0.00    -0.027 C 
ATOM     12  C   UNL     1      10.495  27.533  14.053  1.00  0.00    -0.065 C 
ATOM     13  C   UNL     1       9.401  26.638  14.670  1.00  0.00    -0.008 C 
ATOM     14  C   UNL     1      10.080  25.487  15.489  1.00  0.00     0.014 C 
ATOM     15  C   UNL     1      11.238  24.798  14.750  1.00  0.00     0.033 C 
ATOM     16  C   UNL     1      12.316  25.817  14.359  1.00  0.00     0.118 C 
ATOM     17  C   UNL     1      11.731  26.894  13.439  1.00  0.00     0.063 C 
ATOM     18  C   UNL     1       8.585  26.011  13.501  1.00  0.00     0.016 C 
ATOM     19  C   UNL     1       5.731  29.721  18.076  1.00  0.00     0.012 C 
ENDROOT
BRANCH   1  20
ATOM     20  C   UNL     1       3.501  28.556  16.416  1.00  0.00     0.133 C 
ATOM     21  C   UNL     1       2.454  29.612  16.604  1.00  0.00     0.088 C 
ATOM     22  O   UNL     1       3.245  27.415  16.767  1.00  0.00    -0.300 OA
ENDBRANCH   1  20
BRANCH  16  23
ATOM     23  O   UNL     1      13.370  25.171  13.691  1.00  0.00    -0.393 OA
ATOM     24  H   UNL     1      14.119  25.107  14.341  1.00  0.00     0.210 HD
ENDBRANCH  16  23
TORSDOF 2
ENDMDL
