MODEL 1
REMARK VINA RESULT:    -3.699      0.000      0.000
REMARK INTER + INTRA:          -4.773
REMARK INTER:                  -4.564
REMARK INTRA:                  -0.209
REMARK UNBOUND:                -0.209
REMARK SMILES CCCCCC(=O)[O-]
REMARK SMILES IDX 4 1 5 2 6 3 7 4 8 5 3 6 2 7 1 8
REMARK H PARENT
REMARK Flexibility Score: inf
ROOT
ATOM      1  C   UNL     1      50.575  31.804  42.051  1.00  0.00     0.006 C 
ENDROOT
BRANCH   1   2
ATOM      2  C   UNL     1      50.759  30.379  42.588  1.00  0.00     0.053 C 
BRANCH   2   3
ATOM      3  C   UNL     1      52.081  29.826  42.157  1.00  0.00     0.041 C 
ATOM      4  O   UNL     1      53.111  30.033  42.851  1.00  0.00    -0.550 OA
ATOM      5  O   UNL     1      52.167  29.041  41.015  1.00  0.00    -0.550 OA
ENDBRANCH   2   3
ENDBRANCH   1   2
BRANCH   1   6
ATOM      6  C   UNL     1      50.953  32.879  43.084  1.00  0.00     0.000 C 
BRANCH   6   7
ATOM      7  C   UNL     1      51.992  33.874  42.547  1.00  0.00    -0.003 C 
ATOM      8  C   UNL     1      53.387  33.548  43.074  1.00  0.00     0.004 C 
ENDBRANCH   6   7
ENDBRANCH   1   6
TORSDOF 4
ENDMDL
MODEL 2
REMARK VINA RESULT:    -3.673     12.005     12.879
REMARK INTER + INTRA:          -4.741
REMARK INTER:                  -4.567
REMARK INTRA:                  -0.175
REMARK UNBOUND:                -0.209
REMARK SMILES CCCCCC(=O)[O-]
REMARK SMILES IDX 4 1 5 2 6 3 7 4 8 5 3 6 2 7 1 8
REMARK H PARENT
REMARK Flexibility Score: inf
ROOT
ATOM      1  C   UNL     1      59.353  38.121  37.506  1.00  0.00     0.006 C 
ENDROOT
BRANCH   1   2
ATOM      2  C   UNL     1      60.598  38.162  38.401  1.00  0.00     0.053 C 
BRANCH   2   3
ATOM      3  C   UNL     1      61.403  39.391  38.118  1.00  0.00     0.041 C 
ATOM      4  O   UNL     1      61.066  40.168  37.186  1.00  0.00    -0.550 OA
ATOM      5  O   UNL     1      62.495  39.705  38.916  1.00  0.00    -0.550 OA
ENDBRANCH   2   3
ENDBRANCH   1   2
BRANCH   1   6
ATOM      6  C   UNL     1      59.371  36.939  36.522  1.00  0.00     0.000 C 
BRANCH   6   7
ATOM      7  C   UNL     1      60.795  36.458  36.205  1.00  0.00    -0.003 C 
ATOM      8  C   UNL     1      61.325  37.113  34.932  1.00  0.00     0.004 C 
ENDBRANCH   6   7
ENDBRANCH   1   6
TORSDOF 4
ENDMDL
MODEL 3
REMARK VINA RESULT:    -3.635     10.239     11.200
REMARK INTER + INTRA:          -4.694
REMARK INTER:                  -4.620
REMARK INTRA:                  -0.074
REMARK UNBOUND:                -0.209
REMARK SMILES CCCCCC(=O)[O-]
REMARK SMILES IDX 4 1 5 2 6 3 7 4 8 5 3 6 2 7 1 8
REMARK H PARENT
REMARK Flexibility Score: inf
ROOT
ATOM      1  C   UNL     1      46.971  36.307  51.042  1.00  0.00     0.006 C 
ENDROOT
BRANCH   1   2
ATOM      2  C   UNL     1      45.878  36.096  49.987  1.00  0.00     0.053 C 
BRANCH   2   3
ATOM      3  C   UNL     1      44.674  36.924  50.310  1.00  0.00     0.041 C 
ATOM      4  O   UNL     1      43.608  36.775  49.657  1.00  0.00    -0.550 OA
ATOM      5  O   UNL     1      44.715  37.827  51.365  1.00  0.00    -0.550 OA
ENDBRANCH   2   3
ENDBRANCH   1   2
BRANCH   1   6
ATOM      6  C   UNL     1      48.254  35.518  50.731  1.00  0.00     0.000 C 
BRANCH   6   7
ATOM      7  C   UNL     1      49.002  36.066  49.507  1.00  0.00    -0.003 C 
ATOM      8  C   UNL     1      50.162  35.153  49.119  1.00  0.00     0.004 C 
ENDBRANCH   6   7
ENDBRANCH   1   6
TORSDOF 4
ENDMDL
MODEL 4
REMARK VINA RESULT:    -3.608     10.466     11.272
REMARK INTER + INTRA:          -4.661
REMARK INTER:                  -4.524
REMARK INTRA:                  -0.138
REMARK UNBOUND:                -0.209
REMARK SMILES CCCCCC(=O)[O-]
REMARK SMILES IDX 4 1 5 2 6 3 7 4 8 5 3 6 2 7 1 8
REMARK H PARENT
REMARK Flexibility Score: inf
ROOT
ATOM      1  C   UNL     1      45.108  36.839  50.826  1.00  0.00     0.006 C 
ENDROOT
BRANCH   1   2
ATOM      2  C   UNL     1      46.074  35.652  50.934  1.00  0.00     0.053 C 
BRANCH   2   3
ATOM      3  C   UNL     1      47.492  36.127  50.879  1.00  0.00     0.041 C 
ATOM      4  O   UNL     1      48.129  36.343  51.944  1.00  0.00    -0.550 OA
ATOM      5  O   UNL     1      48.125  36.283  49.654  1.00  0.00    -0.550 OA
ENDBRANCH   2   3
ENDBRANCH   1   2
BRANCH   1   6
ATOM      6  C   UNL     1      44.030  36.628  49.751  1.00  0.00     0.000 C 
BRANCH   6   7
ATOM      7  C   UNL     1      44.295  35.388  48.884  1.00  0.00    -0.003 C 
ATOM      8  C   UNL     1      43.202  35.209  47.833  1.00  0.00     0.004 C 
ENDBRANCH   6   7
ENDBRANCH   1   6
TORSDOF 4
ENDMDL
MODEL 5
REMARK VINA RESULT:    -3.581      2.723      4.379
REMARK INTER + INTRA:          -4.628
REMARK INTER:                  -4.458
REMARK INTRA:                  -0.170
REMARK UNBOUND:                -0.209
REMARK SMILES CCCCCC(=O)[O-]
REMARK SMILES IDX 4 1 5 2 6 3 7 4 8 5 3 6 2 7 1 8
REMARK H PARENT
REMARK Flexibility Score: inf
ROOT
ATOM      1  C   UNL     1      54.717  30.298  42.747  1.00  0.00     0.006 C 
ENDROOT
BRANCH   1   2
ATOM      2  C   UNL     1      55.289  31.370  43.684  1.00  0.00     0.053 C 
BRANCH   2   3
ATOM      3  C   UNL     1      54.965  32.737  43.170  1.00  0.00     0.041 C 
ATOM      4  O   UNL     1      55.813  33.378  42.496  1.00  0.00    -0.550 OA
ATOM      5  O   UNL     1      53.708  33.284  43.395  1.00  0.00    -0.550 OA
ENDBRANCH   2   3
ENDBRANCH   1   2
BRANCH   1   6
ATOM      6  C   UNL     1      53.390  29.712  43.257  1.00  0.00     0.000 C 
BRANCH   6   7
ATOM      7  C   UNL     1      52.350  29.548  42.140  1.00  0.00    -0.003 C 
ATOM      8  C   UNL     1      51.320  30.674  42.179  1.00  0.00     0.004 C 
ENDBRANCH   6   7
ENDBRANCH   1   6
TORSDOF 4
ENDMDL
MODEL 6
REMARK VINA RESULT:    -3.562     10.096     10.791
REMARK INTER + INTRA:          -4.604
REMARK INTER:                  -4.464
REMARK INTRA:                  -0.140
REMARK UNBOUND:                -0.209
REMARK SMILES CCCCCC(=O)[O-]
REMARK SMILES IDX 4 1 5 2 6 3 7 4 8 5 3 6 2 7 1 8
REMARK H PARENT
REMARK Flexibility Score: inf
ROOT
ATOM      1  C   UNL     1      48.893  34.832  50.753  1.00  0.00     0.006 C 
ENDROOT
BRANCH   1   2
ATOM      2  C   UNL     1      48.092  34.027  51.785  1.00  0.00     0.053 C 
BRANCH   2   3
ATOM      3  C   UNL     1      48.996  33.518  52.864  1.00  0.00     0.041 C 
ATOM      4  O   UNL     1      50.123  34.047  53.048  1.00  0.00    -0.550 OA
ATOM      5  O   UNL     1      48.572  32.493  53.699  1.00  0.00    -0.550 OA
ENDBRANCH   2   3
ENDBRANCH   1   2
BRANCH   1   6
ATOM      6  C   UNL     1      48.103  36.026  50.192  1.00  0.00     0.000 C 
BRANCH   6   7
ATOM      7  C   UNL     1      46.765  36.240  50.915  1.00  0.00    -0.003 C 
ATOM      8  C   UNL     1      45.602  36.239  49.926  1.00  0.00     0.004 C 
ENDBRANCH   6   7
ENDBRANCH   1   6
TORSDOF 4
ENDMDL
MODEL 7
REMARK VINA RESULT:    -3.546     10.789     11.664
REMARK INTER + INTRA:          -4.584
REMARK INTER:                  -4.516
REMARK INTRA:                  -0.067
REMARK UNBOUND:                -0.209
REMARK SMILES CCCCCC(=O)[O-]
REMARK SMILES IDX 4 1 5 2 6 3 7 4 8 5 3 6 2 7 1 8
REMARK H PARENT
REMARK Flexibility Score: inf
ROOT
ATOM      1  C   UNL     1      46.329  36.026  51.332  1.00  0.00     0.006 C 
ENDROOT
BRANCH   1   2
ATOM      2  C   UNL     1      45.720  36.232  49.939  1.00  0.00     0.053 C 
BRANCH   2   3
ATOM      3  C   UNL     1      44.336  36.789  50.052  1.00  0.00     0.041 C 
ATOM      4  O   UNL     1      44.100  37.745  50.837  1.00  0.00    -0.550 OA
ATOM      5  O   UNL     1      43.317  36.286  49.254  1.00  0.00    -0.550 OA
ENDBRANCH   2   3
ENDBRANCH   1   2
BRANCH   1   6
ATOM      6  C   UNL     1      47.860  36.170  51.336  1.00  0.00     0.000 C 
BRANCH   6   7
ATOM      7  C   UNL     1      48.578  34.837  51.083  1.00  0.00    -0.003 C 
ATOM      8  C   UNL     1      49.184  34.288  52.373  1.00  0.00     0.004 C 
ENDBRANCH   6   7
ENDBRANCH   1   6
TORSDOF 4
ENDMDL
MODEL 8
REMARK VINA RESULT:    -3.531     12.152     13.127
REMARK INTER + INTRA:          -4.566
REMARK INTER:                  -4.318
REMARK INTRA:                  -0.247
REMARK UNBOUND:                -0.209
REMARK SMILES CCCCCC(=O)[O-]
REMARK SMILES IDX 4 1 5 2 6 3 7 4 8 5 3 6 2 7 1 8
REMARK H PARENT
REMARK Flexibility Score: inf
ROOT
ATOM      1  C   UNL     1      60.862  36.706  36.145  1.00  0.00     0.006 C 
ENDROOT
BRANCH   1   2
ATOM      2  C   UNL     1      61.287  37.275  34.785  1.00  0.00     0.053 C 
BRANCH   2   3
ATOM      3  C   UNL     1      61.545  38.745  34.892  1.00  0.00     0.041 C 
ATOM      4  O   UNL     1      62.447  39.175  35.658  1.00  0.00    -0.550 OA
ATOM      5  O   UNL     1      60.823  39.636  34.109  1.00  0.00    -0.550 OA
ENDBRANCH   2   3
ENDBRANCH   1   2
BRANCH   1   6
ATOM      6  C   UNL     1      59.375  36.955  36.451  1.00  0.00     0.000 C 
BRANCH   6   7
ATOM      7  C   UNL     1      59.168  37.995  37.562  1.00  0.00    -0.003 C 
ATOM      8  C   UNL     1      60.386  38.067  38.479  1.00  0.00     0.004 C 
ENDBRANCH   6   7
ENDBRANCH   1   6
TORSDOF 4
ENDMDL
MODEL 9
REMARK VINA RESULT:    -3.516     11.378     12.081
REMARK INTER + INTRA:          -4.548
REMARK INTER:                  -4.379
REMARK INTRA:                  -0.168
REMARK UNBOUND:                -0.209
REMARK SMILES CCCCCC(=O)[O-]
REMARK SMILES IDX 4 1 5 2 6 3 7 4 8 5 3 6 2 7 1 8
REMARK H PARENT
REMARK Flexibility Score: inf
ROOT
ATOM      1  C   UNL     1      58.618  37.583  36.682  1.00  0.00     0.006 C 
ENDROOT
BRANCH   1   2
ATOM      2  C   UNL     1      59.727  36.605  36.274  1.00  0.00     0.053 C 
BRANCH   2   3
ATOM      3  C   UNL     1      60.293  36.984  34.941  1.00  0.00     0.041 C 
ATOM      4  O   UNL     1      59.560  36.980  33.918  1.00  0.00    -0.550 OA
ATOM      5  O   UNL     1      61.617  37.389  34.839  1.00  0.00    -0.550 OA
ENDBRANCH   2   3
ENDBRANCH   1   2
BRANCH   1   6
ATOM      6  C   UNL     1      58.952  38.352  37.971  1.00  0.00     0.000 C 
BRANCH   6   7
ATOM      7  C   UNL     1      60.381  38.081  38.466  1.00  0.00    -0.003 C 
ATOM      8  C   UNL     1      61.298  39.265  38.168  1.00  0.00     0.004 C 
ENDBRANCH   6   7
ENDBRANCH   1   6
TORSDOF 4
ENDMDL
