MODEL 1
REMARK VINA RESULT:    -3.916      0.000      0.000
REMARK INTER + INTRA:          -4.067
REMARK INTER:                  -4.832
REMARK INTRA:                   0.766
REMARK UNBOUND:                 0.766
REMARK SMILES CC1=CC=CC(C)(C)CC1=O
REMARK SMILES IDX 1 1 2 2 3 3 10 4 11 5 9 6 4 8 5 9 6 10 7 11 8 12
REMARK H PARENT
REMARK Flexibility Score: 80.00
ROOT
ATOM      1  C   UNL     1      19.501 -25.998 -24.079  1.00  0.00     0.048 C 
ATOM      2  C   UNL     1      18.444 -24.949 -23.825  1.00  0.00    -0.008 C 
ATOM      3  C   UNL     1      17.624 -25.130 -22.769  1.00  0.00     0.007 C 
ENDROOT
BRANCH   2   4
ATOM      4  C   UNL     1      18.443 -23.761 -24.717  1.00  0.00     0.159 C 
ATOM      5  O   UNL     1      19.440 -23.561 -25.465  1.00  0.00    -0.295 OA
BRANCH   4   6
ATOM      6  C   UNL     1      17.309 -22.786 -24.791  1.00  0.00     0.091 CG0
ATOM      7  G   UNL     1      17.040 -22.061 -23.454  1.00  0.00     0.000 G0
ENDBRANCH   4   6
ENDBRANCH   2   4
BRANCH   3   8
ATOM      8  C   UNL     1      16.526 -24.274 -22.259  1.00  0.00    -0.003 C 
ATOM      9  C   UNL     1      16.272 -22.985 -22.515  1.00  0.00    -0.020 C 
BRANCH   9  10
ATOM     10  C   UNL     1      17.056 -22.082 -23.438  1.00  0.00    -0.010 CG0
ATOM     11  C   UNL     1      18.368 -21.637 -22.751  1.00  0.00     0.016 C 
ATOM     12  C   UNL     1      16.209 -20.818 -23.713  1.00  0.00     0.016 C 
ATOM     13  G   UNL     1      17.302 -22.800 -24.784  1.00  0.00     0.000 G0
ENDBRANCH   9  10
ENDBRANCH   3   8
TORSDOF 0
ENDMDL
MODEL 2
REMARK VINA RESULT:    -3.627      6.938      7.917
REMARK INTER + INTRA:          -3.709
REMARK INTER:                  -4.463
REMARK INTRA:                   0.754
REMARK UNBOUND:                 0.766
REMARK SMILES CC1=CC=CC(C)(C)CC1=O
REMARK SMILES IDX 1 1 2 2 3 3 10 4 11 5 9 6 4 8 5 9 6 10 7 11 8 12
REMARK H PARENT
REMARK Flexibility Score: 80.00
ROOT
ATOM      1  C   UNL     1      17.576 -17.531 -18.898  1.00  0.00     0.048 C 
ATOM      2  C   UNL     1      16.215 -17.538 -19.553  1.00  0.00    -0.008 C 
ATOM      3  C   UNL     1      16.168 -17.449 -20.899  1.00  0.00     0.007 C 
ENDROOT
BRANCH   2   4
ATOM      4  C   UNL     1      15.039 -17.720 -18.665  1.00  0.00     0.159 C 
ATOM      5  O   UNL     1      15.230 -18.039 -17.459  1.00  0.00    -0.295 OA
BRANCH   4   6
ATOM      6  C   UNL     1      13.624 -17.530 -19.119  1.00  0.00     0.091 CG0
ATOM      7  G   UNL     1      13.228 -18.465 -20.283  1.00  0.00     0.000 G0
ENDBRANCH   4   6
ENDBRANCH   2   4
BRANCH   3   8
ATOM      8  C   UNL     1      15.001 -17.456 -21.813  1.00  0.00    -0.003 C 
ATOM      9  C   UNL     1      13.753 -17.887 -21.586  1.00  0.00    -0.020 C 
BRANCH   9  10
ATOM     10  C   UNL     1      13.223 -18.459 -20.292  1.00  0.00    -0.010 CG0
ATOM     11  C   UNL     1      13.720 -19.912 -20.114  1.00  0.00     0.016 C 
ATOM     12  C   UNL     1      11.680 -18.489 -20.373  1.00  0.00     0.016 C 
ATOM     13  G   UNL     1      13.626 -17.543 -19.115  1.00  0.00     0.000 G0
ENDBRANCH   9  10
ENDBRANCH   3   8
TORSDOF 0
ENDMDL
MODEL 3
REMARK VINA RESULT:    -3.578      5.583      7.463
REMARK INTER + INTRA:          -3.650
REMARK INTER:                  -4.407
REMARK INTRA:                   0.757
REMARK UNBOUND:                 0.766
REMARK SMILES CC1=CC=CC(C)(C)CC1=O
REMARK SMILES IDX 1 1 2 2 3 3 10 4 11 5 9 6 4 8 5 9 6 10 7 11 8 12
REMARK H PARENT
REMARK Flexibility Score: 80.00
ROOT
ATOM      1  C   UNL     1      12.405 -17.633 -19.069  1.00  0.00     0.048 C 
ATOM      2  C   UNL     1      13.869 -17.596 -19.442  1.00  0.00    -0.008 C 
ATOM      3  C   UNL     1      14.769 -17.526 -18.438  1.00  0.00     0.007 C 
ENDROOT
BRANCH   2   4
ATOM      4  C   UNL     1      14.202 -17.714 -20.884  1.00  0.00     0.159 C 
ATOM      5  O   UNL     1      13.293 -18.050 -21.692  1.00  0.00    -0.295 OA
BRANCH   4   6
ATOM      6  C   UNL     1      15.565 -17.442 -21.441  1.00  0.00     0.091 CG0
ATOM      7  G   UNL     1      16.656 -18.370 -20.864  1.00  0.00     0.000 G0
ENDBRANCH   4   6
ENDBRANCH   2   4
BRANCH   3   8
ATOM      8  C   UNL     1      16.250 -17.502 -18.488  1.00  0.00    -0.003 C 
ATOM      9  C   UNL     1      17.067 -17.860 -19.486  1.00  0.00    -0.020 C 
BRANCH   9  10
ATOM     10  C   UNL     1      16.652 -18.363 -20.849  1.00  0.00    -0.010 CG0
ATOM     11  C   UNL     1      16.196 -19.837 -20.751  1.00  0.00     0.016 C 
ATOM     12  C   UNL     1      17.884 -18.306 -21.781  1.00  0.00     0.016 C 
ATOM     13  G   UNL     1      15.562 -17.439 -21.435  1.00  0.00     0.000 G0
ENDBRANCH   9  10
ENDBRANCH   3   8
TORSDOF 0
ENDMDL
MODEL 4
REMARK VINA RESULT:    -3.495      6.094      7.213
REMARK INTER + INTRA:          -3.547
REMARK INTER:                  -4.296
REMARK INTRA:                   0.749
REMARK UNBOUND:                 0.766
REMARK SMILES CC1=CC=CC(C)(C)CC1=O
REMARK SMILES IDX 1 1 2 2 3 3 10 4 11 5 9 6 4 8 5 9 6 10 7 11 8 12
REMARK H PARENT
REMARK Flexibility Score: 80.00
ROOT
ATOM      1  C   UNL     1      14.822 -19.382 -17.341  1.00  0.00     0.048 C 
ATOM      2  C   UNL     1      14.559 -19.379 -18.829  1.00  0.00    -0.008 C 
ATOM      3  C   UNL     1      14.401 -20.573 -19.439  1.00  0.00     0.007 C 
ENDROOT
BRANCH   2   4
ATOM      4  C   UNL     1      14.419 -18.055 -19.488  1.00  0.00     0.159 C 
ATOM      5  O   UNL     1      14.332 -17.023 -18.767  1.00  0.00    -0.295 OA
BRANCH   4   6
ATOM      6  C   UNL     1      14.389 -17.872 -20.973  1.00  0.00     0.091 CG0
ATOM      7  G   UNL     1      13.235 -18.637 -21.659  1.00  0.00     0.000 G0
ENDBRANCH   4   6
ENDBRANCH   2   4
BRANCH   3   8
ATOM      8  C   UNL     1      14.111 -20.885 -20.858  1.00  0.00    -0.003 C 
ATOM      9  C   UNL     1      13.610 -20.090 -21.812  1.00  0.00    -0.020 C 
BRANCH   9  10
ATOM     10  C   UNL     1      13.238 -18.634 -21.663  1.00  0.00    -0.010 CG0
ATOM     11  C   UNL     1      11.890 -18.507 -20.915  1.00  0.00     0.016 C 
ATOM     12  C   UNL     1      13.058 -18.033 -23.075  1.00  0.00     0.016 C 
ATOM     13  G   UNL     1      14.383 -17.874 -20.958  1.00  0.00     0.000 G0
ENDBRANCH   9  10
ENDBRANCH   3   8
TORSDOF 0
ENDMDL
MODEL 5
REMARK VINA RESULT:    -3.473      1.285      1.855
REMARK INTER + INTRA:          -3.520
REMARK INTER:                  -4.264
REMARK INTRA:                   0.744
REMARK UNBOUND:                 0.766
REMARK SMILES CC1=CC=CC(C)(C)CC1=O
REMARK SMILES IDX 1 1 2 2 3 3 10 4 11 5 9 6 4 8 5 9 6 10 7 11 8 12
REMARK H PARENT
REMARK Flexibility Score: 80.00
ROOT
ATOM      1  C   UNL     1      17.645 -25.246 -22.825  1.00  0.00     0.048 C 
ATOM      2  C   UNL     1      17.215 -23.954 -23.477  1.00  0.00    -0.008 C 
ATOM      3  C   UNL     1      16.182 -23.285 -22.921  1.00  0.00     0.007 C 
ENDROOT
BRANCH   2   4
ATOM      4  C   UNL     1      18.014 -23.483 -24.637  1.00  0.00     0.159 C 
ATOM      5  O   UNL     1      19.112 -24.051 -24.889  1.00  0.00    -0.295 OA
BRANCH   4   6
ATOM      6  C   UNL     1      17.580 -22.371 -25.542  1.00  0.00     0.091 CG0
ATOM      7  G   UNL     1      17.381 -21.028 -24.805  1.00  0.00     0.000 G0
ENDBRANCH   4   6
ENDBRANCH   2   4
BRANCH   3   8
ATOM      8  C   UNL     1      15.560 -21.998 -23.312  1.00  0.00    -0.003 C 
ATOM      9  C   UNL     1      16.049 -21.027 -24.094  1.00  0.00    -0.020 C 
BRANCH   9  10
ATOM     10  C   UNL     1      17.382 -21.033 -24.804  1.00  0.00    -0.010 CG0
ATOM     11  C   UNL     1      18.516 -20.721 -23.800  1.00  0.00     0.016 C 
ATOM     12  C   UNL     1      17.368 -19.914 -25.870  1.00  0.00     0.016 C 
ATOM     13  G   UNL     1      17.581 -22.384 -25.527  1.00  0.00     0.000 G0
ENDBRANCH   9  10
ENDBRANCH   3   8
TORSDOF 0
ENDMDL
MODEL 6
REMARK VINA RESULT:    -3.470      6.965      8.777
REMARK INTER + INTRA:          -3.516
REMARK INTER:                  -4.264
REMARK INTRA:                   0.747
REMARK UNBOUND:                 0.766
REMARK SMILES CC1=CC=CC(C)(C)CC1=O
REMARK SMILES IDX 1 1 2 2 3 3 10 4 11 5 9 6 4 8 5 9 6 10 7 11 8 12
REMARK H PARENT
REMARK Flexibility Score: 80.00
ROOT
ATOM      1  C   UNL     1       8.541 -18.497 -22.063  1.00  0.00     0.048 C 
ATOM      2  C   UNL     1       9.911 -18.104 -21.560  1.00  0.00    -0.008 C 
ATOM      3  C   UNL     1      10.133 -18.178 -20.230  1.00  0.00     0.007 C 
ENDROOT
BRANCH   2   4
ATOM      4  C   UNL     1      10.927 -17.740 -22.580  1.00  0.00     0.159 C 
ATOM      5  O   UNL     1      10.667 -17.945 -23.797  1.00  0.00    -0.295 OA
BRANCH   4   6
ATOM      6  C   UNL     1      12.250 -17.125 -22.243  1.00  0.00     0.091 CG0
ATOM      7  G   UNL     1      13.105 -17.997 -21.298  1.00  0.00     0.000 G0
ENDBRANCH   4   6
ENDBRANCH   2   4
BRANCH   3   8
ATOM      8  C   UNL     1      11.362 -17.888 -19.454  1.00  0.00    -0.003 C 
ATOM      9  C   UNL     1      12.630 -17.813 -19.877  1.00  0.00    -0.020 C 
BRANCH   9  10
ATOM     10  C   UNL     1      13.114 -17.985 -21.298  1.00  0.00    -0.010 CG0
ATOM     11  C   UNL     1      13.133 -19.486 -21.671  1.00  0.00     0.016 C 
ATOM     12  C   UNL     1      14.563 -17.454 -21.384  1.00  0.00     0.016 C 
ATOM     13  G   UNL     1      12.235 -17.146 -22.252  1.00  0.00     0.000 G0
ENDBRANCH   9  10
ENDBRANCH   3   8
TORSDOF 0
ENDMDL
MODEL 7
REMARK VINA RESULT:    -3.288      6.000      7.239
REMARK INTER + INTRA:          -3.291
REMARK INTER:                  -4.042
REMARK INTRA:                   0.750
REMARK UNBOUND:                 0.766
REMARK SMILES CC1=CC=CC(C)(C)CC1=O
REMARK SMILES IDX 1 1 2 2 3 3 10 4 11 5 9 6 4 8 5 9 6 10 7 11 8 12
REMARK H PARENT
REMARK Flexibility Score: 80.00
ROOT
ATOM      1  C   UNL     1      15.137 -18.408 -17.778  1.00  0.00     0.048 C 
ATOM      2  C   UNL     1      14.263 -18.520 -19.005  1.00  0.00    -0.008 C 
ATOM      3  C   UNL     1      13.042 -17.945 -18.958  1.00  0.00     0.007 C 
ENDROOT
BRANCH   2   4
ATOM      4  C   UNL     1      14.850 -19.189 -20.194  1.00  0.00     0.159 C 
ATOM      5  O   UNL     1      16.082 -19.461 -20.192  1.00  0.00    -0.295 OA
BRANCH   4   6
ATOM      6  C   UNL     1      14.052 -19.575 -21.401  1.00  0.00     0.091 CG0
ATOM      7  G   UNL     1      13.345 -18.378 -22.073  1.00  0.00     0.000 G0
ENDBRANCH   4   6
ENDBRANCH   2   4
BRANCH   3   8
ATOM      8  C   UNL     1      11.987 -17.866 -19.996  1.00  0.00    -0.003 C 
ATOM      9  C   UNL     1      12.092 -18.035 -21.321  1.00  0.00    -0.020 C 
BRANCH   9  10
ATOM     10  C   UNL     1      13.347 -18.385 -22.084  1.00  0.00    -0.010 CG0
ATOM     11  C   UNL     1      14.250 -17.136 -22.217  1.00  0.00     0.016 C 
ATOM     12  C   UNL     1      12.939 -18.832 -23.507  1.00  0.00     0.016 C 
ATOM     13  G   UNL     1      14.063 -19.567 -21.394  1.00  0.00     0.000 G0
ENDBRANCH   9  10
ENDBRANCH   3   8
TORSDOF 0
ENDMDL
MODEL 8
REMARK VINA RESULT:    -3.244      1.544      2.494
REMARK INTER + INTRA:          -3.237
REMARK INTER:                  -3.995
REMARK INTRA:                   0.758
REMARK UNBOUND:                 0.766
REMARK SMILES CC1=CC=CC(C)(C)CC1=O
REMARK SMILES IDX 1 1 2 2 3 3 10 4 11 5 9 6 4 8 5 9 6 10 7 11 8 12
REMARK H PARENT
REMARK Flexibility Score: 80.00
ROOT
ATOM      1  C   UNL     1      19.270 -25.681 -24.435  1.00  0.00     0.048 C 
ATOM      2  C   UNL     1      18.794 -24.250 -24.355  1.00  0.00    -0.008 C 
ATOM      3  C   UNL     1      18.849 -23.508 -25.481  1.00  0.00     0.007 C 
ENDROOT
BRANCH   2   4
ATOM      4  C   UNL     1      18.231 -23.796 -23.057  1.00  0.00     0.159 C 
ATOM      5  O   UNL     1      18.001 -24.654 -22.161  1.00  0.00    -0.295 OA
BRANCH   4   6
ATOM      6  C   UNL     1      17.930 -22.363 -22.744  1.00  0.00     0.091 CG0
ATOM      7  G   UNL     1      16.923 -21.723 -23.725  1.00  0.00     0.000 G0
ENDBRANCH   4   6
ENDBRANCH   2   4
BRANCH   3   8
ATOM      8  C   UNL     1      18.436 -22.105 -25.718  1.00  0.00    -0.003 C 
ATOM      9  C   UNL     1      17.614 -21.333 -24.995  1.00  0.00    -0.020 C 
BRANCH   9  10
ATOM     10  C   UNL     1      16.916 -21.721 -23.713  1.00  0.00    -0.010 CG0
ATOM     11  C   UNL     1      15.714 -22.643 -24.024  1.00  0.00     0.016 C 
ATOM     12  C   UNL     1      16.371 -20.435 -23.050  1.00  0.00     0.016 C 
ATOM     13  G   UNL     1      17.930 -22.369 -22.744  1.00  0.00     0.000 G0
ENDBRANCH   9  10
ENDBRANCH   3   8
TORSDOF 0
ENDMDL
MODEL 9
REMARK VINA RESULT:    -3.201      4.560      6.220
REMARK INTER + INTRA:          -3.184
REMARK INTER:                  -3.940
REMARK INTRA:                   0.756
REMARK UNBOUND:                 0.766
REMARK SMILES CC1=CC=CC(C)(C)CC1=O
REMARK SMILES IDX 1 1 2 2 3 3 10 4 11 5 9 6 4 8 5 9 6 10 7 11 8 12
REMARK H PARENT
REMARK Flexibility Score: 80.00
ROOT
ATOM      1  C   UNL     1      15.111 -17.987 -17.743  1.00  0.00     0.048 C 
ATOM      2  C   UNL     1      15.234 -18.859 -18.970  1.00  0.00    -0.008 C 
ATOM      3  C   UNL     1      14.341 -19.861 -19.119  1.00  0.00     0.007 C 
ENDROOT
BRANCH   2   4
ATOM      4  C   UNL     1      16.284 -18.495 -19.955  1.00  0.00     0.159 C 
ATOM      5  O   UNL     1      16.875 -17.386 -19.832  1.00  0.00    -0.295 OA
BRANCH   4   6
ATOM      6  C   UNL     1      16.696 -19.382 -21.089  1.00  0.00     0.091 CG0
ATOM      7  G   UNL     1      15.535 -19.726 -22.047  1.00  0.00     0.000 G0
ENDBRANCH   4   6
ENDBRANCH   2   4
BRANCH   3   8
ATOM      8  C   UNL     1      14.194 -20.850 -20.213  1.00  0.00    -0.003 C 
ATOM      9  C   UNL     1      14.678 -20.807 -21.461  1.00  0.00    -0.020 C 
BRANCH   9  10
ATOM     10  C   UNL     1      15.539 -19.715 -22.052  1.00  0.00    -0.010 CG0
ATOM     11  C   UNL     1      14.667 -18.485 -22.398  1.00  0.00     0.016 C 
ATOM     12  C   UNL     1      16.157 -20.245 -23.366  1.00  0.00     0.016 C 
ATOM     13  G   UNL     1      16.690 -19.376 -21.080  1.00  0.00     0.000 G0
ENDBRANCH   9  10
ENDBRANCH   3   8
TORSDOF 0
ENDMDL
