MODEL 1
REMARK VINA RESULT:    -4.299      0.000      0.000
REMARK INTER + INTRA:          -4.466
REMARK INTER:                  -5.304
REMARK INTRA:                   0.838
REMARK UNBOUND:                 0.838
REMARK SMILES CC1=CC=CC(C)(C)CC1=O
REMARK SMILES IDX 1 1 2 2 3 3 10 4 11 5 9 6 4 8 5 9 6 10 7 11 8 12
REMARK H PARENT
REMARK Flexibility Score: 80.00
ROOT
ATOM      1  C   UNL     1      33.339  22.075   6.600  1.00  0.00     0.048 C 
ATOM      2  C   UNL     1      31.963  21.688   7.089  1.00  0.00    -0.008 C 
ATOM      3  C   UNL     1      31.493  22.297   8.198  1.00  0.00     0.007 C 
ENDROOT
BRANCH   2   4
ATOM      4  C   UNL     1      31.260  20.620   6.329  1.00  0.00     0.159 C 
ATOM      5  O   UNL     1      31.793  20.180   5.273  1.00  0.00    -0.295 OA
BRANCH   4   6
ATOM      6  C   UNL     1      29.966  19.995   6.758  1.00  0.00     0.091 CG0
ATOM      7  G   UNL     1      28.841  21.016   7.042  1.00  0.00     0.000 G0
ENDBRANCH   4   6
ENDBRANCH   2   4
BRANCH   3   8
ATOM      8  C   UNL     1      30.195  22.131   8.892  1.00  0.00    -0.003 C 
ATOM      9  C   UNL     1      29.054  21.620   8.416  1.00  0.00    -0.020 C 
BRANCH   9  10
ATOM     10  C   UNL     1      28.851  21.019   7.047  1.00  0.00    -0.010 CG0
ATOM     11  C   UNL     1      27.510  20.248   7.050  1.00  0.00     0.016 C 
ATOM     12  C   UNL     1      28.753  22.134   5.979  1.00  0.00     0.016 C 
ATOM     13  G   UNL     1      29.984  20.009   6.754  1.00  0.00     0.000 G0
ENDBRANCH   9  10
ENDBRANCH   3   8
TORSDOF 0
ENDMDL
MODEL 2
REMARK VINA RESULT:    -4.272      1.700      2.583
REMARK INTER + INTRA:          -4.433
REMARK INTER:                  -5.274
REMARK INTRA:                   0.841
REMARK UNBOUND:                 0.838
REMARK SMILES CC1=CC=CC(C)(C)CC1=O
REMARK SMILES IDX 1 1 2 2 3 3 10 4 11 5 9 6 4 8 5 9 6 10 7 11 8 12
REMARK H PARENT
REMARK Flexibility Score: 80.00
ROOT
ATOM      1  C   UNL     1      33.660  21.673   7.508  1.00  0.00     0.048 C 
ATOM      2  C   UNL     1      32.275  21.606   6.909  1.00  0.00    -0.008 C 
ATOM      3  C   UNL     1      31.995  20.579   6.079  1.00  0.00     0.007 C 
ENDROOT
BRANCH   2   4
ATOM      4  C   UNL     1      31.346  22.718   7.246  1.00  0.00     0.159 C 
ATOM      5  O   UNL     1      31.720  23.582   8.087  1.00  0.00    -0.295 OA
BRANCH   4   6
ATOM      6  C   UNL     1      29.997  22.908   6.619  1.00  0.00     0.091 CG0
ATOM      7  G   UNL     1      29.086  21.662   6.703  1.00  0.00     0.000 G0
ENDBRANCH   4   6
ENDBRANCH   2   4
BRANCH   3   8
ATOM      8  C   UNL     1      30.739  20.253   5.365  1.00  0.00    -0.003 C 
ATOM      9  C   UNL     1      29.497  20.676   5.625  1.00  0.00    -0.020 C 
BRANCH   9  10
ATOM     10  C   UNL     1      29.099  21.664   6.695  1.00  0.00    -0.010 CG0
ATOM     11  C   UNL     1      27.650  22.125   6.415  1.00  0.00     0.016 C 
ATOM     12  C   UNL     1      29.120  20.987   8.086  1.00  0.00     0.016 C 
ATOM     13  G   UNL     1      30.020  22.903   6.620  1.00  0.00     0.000 G0
ENDBRANCH   9  10
ENDBRANCH   3   8
TORSDOF 0
ENDMDL
MODEL 3
REMARK VINA RESULT:    -4.106      1.872      2.790
REMARK INTER + INTRA:          -4.228
REMARK INTER:                  -5.073
REMARK INTRA:                   0.844
REMARK UNBOUND:                 0.838
REMARK SMILES CC1=CC=CC(C)(C)CC1=O
REMARK SMILES IDX 1 1 2 2 3 3 10 4 11 5 9 6 4 8 5 9 6 10 7 11 8 12
REMARK H PARENT
REMARK Flexibility Score: 80.00
ROOT
ATOM      1  C   UNL     1      31.719  22.604   8.560  1.00  0.00     0.048 C 
ATOM      2  C   UNL     1      30.943  21.977   7.425  1.00  0.00    -0.008 C 
ATOM      3  C   UNL     1      31.564  21.036   6.681  1.00  0.00     0.007 C 
ENDROOT
BRANCH   2   4
ATOM      4  C   UNL     1      29.568  22.492   7.189  1.00  0.00     0.159 C 
ATOM      5  O   UNL     1      29.084  23.317   8.012  1.00  0.00    -0.295 OA
BRANCH   4   6
ATOM      6  C   UNL     1      28.723  22.125   6.005  1.00  0.00     0.091 CG0
ATOM      7  G   UNL     1      28.561  20.601   5.800  1.00  0.00     0.000 G0
ENDBRANCH   4   6
ENDBRANCH   2   4
BRANCH   3   8
ATOM      8  C   UNL     1      31.059  20.252   5.530  1.00  0.00    -0.003 C 
ATOM      9  C   UNL     1      29.791  20.033   5.162  1.00  0.00    -0.020 C 
BRANCH   9  10
ATOM     10  C   UNL     1      28.561  20.610   5.820  1.00  0.00    -0.010 CG0
ATOM     11  C   UNL     1      27.357  20.385   4.876  1.00  0.00     0.016 C 
ATOM     12  C   UNL     1      28.266  19.875   7.148  1.00  0.00     0.016 C 
ATOM     13  G   UNL     1      28.745  22.134   6.008  1.00  0.00     0.000 G0
ENDBRANCH   9  10
ENDBRANCH   3   8
TORSDOF 0
ENDMDL
MODEL 4
REMARK VINA RESULT:    -3.979      2.060      2.931
REMARK INTER + INTRA:          -4.071
REMARK INTER:                  -5.187
REMARK INTRA:                   1.115
REMARK UNBOUND:                 0.838
REMARK SMILES CC1=CC=CC(C)(C)CC1=O
REMARK SMILES IDX 1 1 2 2 3 3 10 4 11 5 9 6 4 8 5 9 6 10 7 11 8 12
REMARK H PARENT
REMARK Flexibility Score: 80.00
ROOT
ATOM      1  C   UNL     1      31.305  25.140   7.801  1.00  0.00     0.048 C 
ATOM      2  C   UNL     1      30.922  23.684   7.685  1.00  0.00    -0.008 C 
ATOM      3  C   UNL     1      31.767  22.859   7.030  1.00  0.00     0.007 C 
ENDROOT
BRANCH   2   4
ATOM      4  C   UNL     1      29.609  23.289   8.262  1.00  0.00     0.159 C 
ATOM      5  O   UNL     1      28.817  24.199   8.634  1.00  0.00    -0.295 OA
BRANCH   4   6
ATOM      6  C   UNL     1      29.140  21.871   8.396  1.00  0.00     0.091 CG0
ATOM      7  G   UNL     1      29.156  21.078   7.069  1.00  0.00     0.000 G0
ENDBRANCH   4   6
ENDBRANCH   2   4
BRANCH   3   8
ATOM      8  C   UNL     1      31.663  21.404   6.774  1.00  0.00    -0.003 C 
ATOM      9  C   UNL     1      30.576  20.625   6.820  1.00  0.00    -0.020 C 
BRANCH   9  10
ATOM     10  C   UNL     1      29.162  21.083   7.084  1.00  0.00    -0.010 CG0
ATOM     11  C   UNL     1      28.737  22.027   5.935  1.00  0.00     0.016 C 
ATOM     12  C   UNL     1      28.197  19.875   7.086  1.00  0.00     0.016 C 
ATOM     13  G   UNL     1      29.119  21.885   8.404  1.00  0.00     0.000 G0
ENDBRANCH   9  10
ENDBRANCH   3   8
TORSDOF 0
ENDMDL
MODEL 5
REMARK VINA RESULT:    -3.972      1.939      3.612
REMARK INTER + INTRA:          -4.063
REMARK INTER:                  -4.908
REMARK INTRA:                   0.845
REMARK UNBOUND:                 0.838
REMARK SMILES CC1=CC=CC(C)(C)CC1=O
REMARK SMILES IDX 1 1 2 2 3 3 10 4 11 5 9 6 4 8 5 9 6 10 7 11 8 12
REMARK H PARENT
REMARK Flexibility Score: 80.00
ROOT
ATOM      1  C   UNL     1      27.812  20.585   4.418  1.00  0.00     0.048 C 
ATOM      2  C   UNL     1      28.881  20.706   5.478  1.00  0.00    -0.008 C 
ATOM      3  C   UNL     1      30.093  20.171   5.216  1.00  0.00     0.007 C 
ENDROOT
BRANCH   2   4
ATOM      4  C   UNL     1      28.488  21.363   6.754  1.00  0.00     0.159 C 
ATOM      5  O   UNL     1      27.327  21.850   6.848  1.00  0.00    -0.295 OA
BRANCH   4   6
ATOM      6  C   UNL     1      29.371  21.452   7.962  1.00  0.00     0.091 CG0
ATOM      7  G   UNL     1      30.782  22.011   7.667  1.00  0.00     0.000 G0
ENDBRANCH   4   6
ENDBRANCH   2   4
BRANCH   3   8
ATOM      8  C   UNL     1      31.318  20.146   6.048  1.00  0.00    -0.003 C 
ATOM      9  C   UNL     1      31.642  20.936   7.079  1.00  0.00    -0.020 C 
BRANCH   9  10
ATOM     10  C   UNL     1      30.774  22.013   7.683  1.00  0.00    -0.010 CG0
ATOM     11  C   UNL     1      31.392  22.429   9.038  1.00  0.00     0.016 C 
ATOM     12  C   UNL     1      30.753  23.260   6.769  1.00  0.00     0.016 C 
ATOM     13  G   UNL     1      29.362  21.445   7.953  1.00  0.00     0.000 G0
ENDBRANCH   9  10
ENDBRANCH   3   8
TORSDOF 0
ENDMDL
MODEL 6
REMARK VINA RESULT:    -3.893      4.554      6.176
REMARK INTER + INTRA:          -3.966
REMARK INTER:                  -4.825
REMARK INTRA:                   0.859
REMARK UNBOUND:                 0.838
REMARK SMILES CC1=CC=CC(C)(C)CC1=O
REMARK SMILES IDX 1 1 2 2 3 3 10 4 11 5 9 6 4 8 5 9 6 10 7 11 8 12
REMARK H PARENT
REMARK Flexibility Score: 80.00
ROOT
ATOM      1  C   UNL     1      25.024  25.098   3.221  1.00  0.00     0.048 C 
ATOM      2  C   UNL     1      25.299  23.717   3.770  1.00  0.00    -0.008 C 
ATOM      3  C   UNL     1      26.127  22.913   3.070  1.00  0.00     0.007 C 
ENDROOT
BRANCH   2   4
ATOM      4  C   UNL     1      24.584  23.340   5.019  1.00  0.00     0.159 C 
ATOM      5  O   UNL     1      23.881  24.214   5.598  1.00  0.00    -0.295 OA
BRANCH   4   6
ATOM      6  C   UNL     1      24.609  21.967   5.621  1.00  0.00     0.091 CG0
ATOM      7  G   UNL     1      26.032  21.407   5.844  1.00  0.00     0.000 G0
ENDBRANCH   4   6
ENDBRANCH   2   4
BRANCH   3   8
ATOM      8  C   UNL     1      26.582  21.535   3.365  1.00  0.00    -0.003 C 
ATOM      9  C   UNL     1      26.582  20.889   4.537  1.00  0.00    -0.020 C 
BRANCH   9  10
ATOM     10  C   UNL     1      26.038  21.414   5.843  1.00  0.00    -0.010 CG0
ATOM     11  C   UNL     1      25.945  20.235   6.839  1.00  0.00     0.016 C 
ATOM     12  C   UNL     1      27.001  22.465   6.442  1.00  0.00     0.016 C 
ATOM     13  G   UNL     1      24.612  21.969   5.621  1.00  0.00     0.000 G0
ENDBRANCH   9  10
ENDBRANCH   3   8
TORSDOF 0
ENDMDL
MODEL 7
REMARK VINA RESULT:    -3.478      1.319      1.596
REMARK INTER + INTRA:          -3.453
REMARK INTER:                  -4.559
REMARK INTRA:                   1.106
REMARK UNBOUND:                 0.838
REMARK SMILES CC1=CC=CC(C)(C)CC1=O
REMARK SMILES IDX 1 1 2 2 3 3 10 4 11 5 9 6 4 8 5 9 6 10 7 11 8 12
REMARK H PARENT
REMARK Flexibility Score: 80.00
ROOT
ATOM      1  C   UNL     1      33.828  21.507   7.408  1.00  0.00     0.048 C 
ATOM      2  C   UNL     1      32.428  22.023   7.170  1.00  0.00    -0.008 C 
ATOM      3  C   UNL     1      32.126  23.261   7.618  1.00  0.00     0.007 C 
ENDROOT
BRANCH   2   4
ATOM      4  C   UNL     1      31.477  21.094   6.501  1.00  0.00     0.159 C 
ATOM      5  O   UNL     1      31.806  19.882   6.378  1.00  0.00    -0.295 OA
BRANCH   4   6
ATOM      6  C   UNL     1      30.123  21.495   5.995  1.00  0.00     0.091 CG0
ATOM      7  G   UNL     1      29.212  22.123   7.075  1.00  0.00     0.000 G0
ENDBRANCH   4   6
ENDBRANCH   2   4
BRANCH   3   8
ATOM      8  C   UNL     1      30.860  24.022   7.520  1.00  0.00    -0.003 C 
ATOM      9  C   UNL     1      29.629  23.564   7.259  1.00  0.00    -0.020 C 
BRANCH   9  10
ATOM     10  C   UNL     1      29.239  22.118   7.070  1.00  0.00    -0.010 CG0
ATOM     11  C   UNL     1      29.477  21.374   8.405  1.00  0.00     0.016 C 
ATOM     12  C   UNL     1      27.735  22.008   6.728  1.00  0.00     0.016 C 
ATOM     13  G   UNL     1      30.145  21.476   5.995  1.00  0.00     0.000 G0
ENDBRANCH   9  10
ENDBRANCH   3   8
TORSDOF 0
ENDMDL
MODEL 8
REMARK VINA RESULT:    -3.458      2.499      4.102
REMARK INTER + INTRA:          -3.429
REMARK INTER:                  -4.526
REMARK INTRA:                   1.097
REMARK UNBOUND:                 0.838
REMARK SMILES CC1=CC=CC(C)(C)CC1=O
REMARK SMILES IDX 1 1 2 2 3 3 10 4 11 5 9 6 4 8 5 9 6 10 7 11 8 12
REMARK H PARENT
REMARK Flexibility Score: 80.00
ROOT
ATOM      1  C   UNL     1      28.272  24.375   8.621  1.00  0.00     0.048 C 
ATOM      2  C   UNL     1      29.316  23.471   8.009  1.00  0.00    -0.008 C 
ATOM      3  C   UNL     1      28.999  22.169   7.836  1.00  0.00     0.007 C 
ENDROOT
BRANCH   2   4
ATOM      4  C   UNL     1      30.634  24.085   7.696  1.00  0.00     0.159 C 
ATOM      5  O   UNL     1      30.871  25.250   8.120  1.00  0.00    -0.295 OA
BRANCH   4   6
ATOM      6  C   UNL     1      31.727  23.393   6.937  1.00  0.00     0.091 CG0
ATOM      7  G   UNL     1      32.140  22.030   7.538  1.00  0.00     0.000 G0
ENDBRANCH   4   6
ENDBRANCH   2   4
BRANCH   3   8
ATOM      8  C   UNL     1      29.803  21.067   7.260  1.00  0.00    -0.003 C 
ATOM      9  C   UNL     1      31.130  21.000   7.094  1.00  0.00    -0.020 C 
BRANCH   9  10
ATOM     10  C   UNL     1      32.135  22.037   7.534  1.00  0.00    -0.010 CG0
ATOM     11  C   UNL     1      32.090  22.131   9.077  1.00  0.00     0.016 C 
ATOM     12  C   UNL     1      33.564  21.606   7.128  1.00  0.00     0.016 C 
ATOM     13  G   UNL     1      31.740  23.415   6.958  1.00  0.00     0.000 G0
ENDBRANCH   9  10
ENDBRANCH   3   8
TORSDOF 0
ENDMDL
MODEL 9
REMARK VINA RESULT:    -2.882      3.508      5.731
REMARK INTER + INTRA:          -2.719
REMARK INTER:                  -3.564
REMARK INTRA:                   0.845
REMARK UNBOUND:                 0.838
REMARK SMILES CC1=CC=CC(C)(C)CC1=O
REMARK SMILES IDX 1 1 2 2 3 3 10 4 11 5 9 6 4 8 5 9 6 10 7 11 8 12
REMARK H PARENT
REMARK Flexibility Score: 80.00
ROOT
ATOM      1  C   UNL     1      22.934  21.826   6.452  1.00  0.00     0.048 C 
ATOM      2  C   UNL     1      24.289  21.655   5.805  1.00  0.00    -0.008 C 
ATOM      3  C   UNL     1      24.612  22.483   4.788  1.00  0.00     0.007 C 
ENDROOT
BRANCH   2   4
ATOM      4  C   UNL     1      25.138  20.544   6.314  1.00  0.00     0.159 C 
ATOM      5  O   UNL     1      24.726  19.875   7.301  1.00  0.00    -0.295 OA
BRANCH   4   6
ATOM      6  C   UNL     1      26.444  20.134   5.701  1.00  0.00     0.091 CG0
ATOM      7  G   UNL     1      27.448  21.297   5.531  1.00  0.00     0.000 G0
ENDBRANCH   4   6
ENDBRANCH   2   4
BRANCH   3   8
ATOM      8  C   UNL     1      25.854  22.557   3.985  1.00  0.00    -0.003 C 
ATOM      9  C   UNL     1      27.072  22.091   4.285  1.00  0.00    -0.020 C 
BRANCH   9  10
ATOM     10  C   UNL     1      27.443  21.302   5.518  1.00  0.00    -0.010 CG0
ATOM     11  C   UNL     1      28.844  20.685   5.294  1.00  0.00     0.016 C 
ATOM     12  C   UNL     1      27.528  22.236   6.747  1.00  0.00     0.016 C 
ATOM     13  G   UNL     1      26.435  20.147   5.713  1.00  0.00     0.000 G0
ENDBRANCH   9  10
ENDBRANCH   3   8
TORSDOF 0
ENDMDL
