MODEL 1
REMARK VINA RESULT:    -4.886      0.000      0.000
REMARK INTER + INTRA:         -15.194
REMARK INTER:                 -12.312
REMARK INTRA:                  -2.882
REMARK UNBOUND:                -2.882
REMARK SMILES CCCCCCCCCCCCCCCCCCCCCCCCCCCC(=O)[O-]
REMARK SMILES IDX 15 1 16 2 17 3 18 4 19 5 20 6 21 7 22 8 23 9 24 10 25 11
REMARK SMILES IDX 26 12 27 13 28 14 29 15 30 16 14 17 13 18 12 19 11 20 10 21
REMARK SMILES IDX 9 22 8 23 7 24 6 25 5 26 4 27 3 28 2 29 1 30
REMARK H PARENT
REMARK Flexibility Score: inf
ROOT
ATOM      1  C   UNL     1       8.461  -6.260  29.531  1.00  0.00     0.000 C 
ENDROOT
BRANCH   1   2
ATOM      2  C   UNL     1       8.350  -5.643  28.128  1.00  0.00     0.000 C 
BRANCH   2   3
ATOM      3  C   UNL     1       7.230  -4.595  28.083  1.00  0.00     0.000 C 
BRANCH   3   4
ATOM      4  C   UNL     1       6.832  -4.213  26.646  1.00  0.00     0.000 C 
BRANCH   4   5
ATOM      5  C   UNL     1       7.690  -3.101  26.009  1.00  0.00     0.000 C 
BRANCH   5   6
ATOM      6  C   UNL     1       7.889  -3.214  24.484  1.00  0.00     0.000 C 
BRANCH   6   7
ATOM      7  C   UNL     1       9.077  -2.411  23.924  1.00  0.00     0.000 C 
BRANCH   7   8
ATOM      8  C   UNL     1       8.843  -0.892  23.971  1.00  0.00     0.000 C 
BRANCH   8   9
ATOM      9  C   UNL     1       9.569  -0.138  22.841  1.00  0.00     0.000 C 
BRANCH   9  10
ATOM     10  C   UNL     1      10.994   0.332  23.186  1.00  0.00     0.000 C 
BRANCH  10  11
ATOM     11  C   UNL     1      12.007   0.053  22.066  1.00  0.00     0.000 C 
BRANCH  11  12
ATOM     12  C   UNL     1      13.210  -0.742  22.595  1.00  0.00     0.006 C 
BRANCH  12  13
ATOM     13  C   UNL     1      13.757  -1.728  21.553  1.00  0.00     0.053 C 
BRANCH  13  14
ATOM     14  C   UNL     1      13.127  -3.080  21.683  1.00  0.00     0.041 C 
ATOM     15  O   UNL     1      13.610  -4.067  21.067  1.00  0.00    -0.550 OA
ATOM     16  O   UNL     1      11.984  -3.243  22.454  1.00  0.00    -0.550 OA
ENDBRANCH  13  14
ENDBRANCH  12  13
ENDBRANCH  11  12
ENDBRANCH  10  11
ENDBRANCH   9  10
ENDBRANCH   8   9
ENDBRANCH   7   8
ENDBRANCH   6   7
ENDBRANCH   5   6
ENDBRANCH   4   5
ENDBRANCH   3   4
ENDBRANCH   2   3
ENDBRANCH   1   2
BRANCH   1  17
ATOM     17  C   UNL     1       7.505  -5.611  30.545  1.00  0.00     0.000 C 
BRANCH  17  18
ATOM     18  C   UNL     1       7.854  -5.980  31.998  1.00  0.00     0.000 C 
BRANCH  18  19
ATOM     19  C   UNL     1       6.788  -5.520  33.010  1.00  0.00     0.000 C 
BRANCH  19  20
ATOM     20  C   UNL     1       5.328  -5.682  32.543  1.00  0.00     0.000 C 
BRANCH  20  21
ATOM     21  C   UNL     1       4.865  -7.146  32.514  1.00  0.00     0.000 C 
BRANCH  21  22
ATOM     22  C   UNL     1       4.499  -7.583  31.087  1.00  0.00    -0.000 C 
BRANCH  22  23
ATOM     23  C   UNL     1       5.545  -8.539  30.475  1.00  0.00    -0.000 C 
BRANCH  23  24
ATOM     24  C   UNL     1       5.481  -8.638  28.941  1.00  0.00    -0.000 C 
BRANCH  24  25
ATOM     25  C   UNL     1       6.765  -9.208  28.324  1.00  0.00    -0.000 C 
BRANCH  25  26
ATOM     26  C   UNL     1       6.527  -9.670  26.880  1.00  0.00    -0.000 C 
BRANCH  26  27
ATOM     27  C   UNL     1       5.794  -8.587  26.073  1.00  0.00    -0.000 C 
BRANCH  27  28
ATOM     28  C   UNL     1       6.760  -7.650  25.330  1.00  0.00    -0.000 C 
BRANCH  28  29
ATOM     29  C   UNL     1       6.041  -6.752  24.313  1.00  0.00    -0.003 C 
ATOM     30  C   UNL     1       4.562  -6.601  24.659  1.00  0.00     0.004 C 
ENDBRANCH  28  29
ENDBRANCH  27  28
ENDBRANCH  26  27
ENDBRANCH  25  26
ENDBRANCH  24  25
ENDBRANCH  23  24
ENDBRANCH  22  23
ENDBRANCH  21  22
ENDBRANCH  20  21
ENDBRANCH  19  20
ENDBRANCH  18  19
ENDBRANCH  17  18
ENDBRANCH   1  17
TORSDOF 26
ENDMDL
MODEL 2
REMARK VINA RESULT:    -4.760      2.536      5.835
REMARK INTER + INTRA:         -14.876
REMARK INTER:                 -12.423
REMARK INTRA:                  -2.453
REMARK UNBOUND:                -2.882
REMARK SMILES CCCCCCCCCCCCCCCCCCCCCCCCCCCC(=O)[O-]
REMARK SMILES IDX 15 1 16 2 17 3 18 4 19 5 20 6 21 7 22 8 23 9 24 10 25 11
REMARK SMILES IDX 26 12 27 13 28 14 29 15 30 16 14 17 13 18 12 19 11 20 10 21
REMARK SMILES IDX 9 22 8 23 7 24 6 25 5 26 4 27 3 28 2 29 1 30
REMARK H PARENT
REMARK Flexibility Score: inf
ROOT
ATOM      1  C   UNL     1       8.425  -2.808  24.876  1.00  0.00     0.000 C 
ENDROOT
BRANCH   1   2
ATOM      2  C   UNL     1       9.042  -2.273  23.574  1.00  0.00     0.000 C 
BRANCH   2   3
ATOM      3  C   UNL     1       8.852  -0.754  23.466  1.00  0.00     0.000 C 
BRANCH   3   4
ATOM      4  C   UNL     1      10.156   0.026  23.710  1.00  0.00     0.000 C 
BRANCH   4   5
ATOM      5  C   UNL     1      11.141   0.031  22.524  1.00  0.00     0.000 C 
BRANCH   5   6
ATOM      6  C   UNL     1      12.607  -0.287  22.882  1.00  0.00     0.000 C 
BRANCH   6   7
ATOM      7  C   UNL     1      13.274  -1.355  21.996  1.00  0.00     0.000 C 
BRANCH   7   8
ATOM      8  C   UNL     1      12.917  -2.789  22.423  1.00  0.00     0.000 C 
BRANCH   8   9
ATOM      9  C   UNL     1      12.719  -3.738  21.227  1.00  0.00     0.000 C 
BRANCH   9  10
ATOM     10  C   UNL     1      13.888  -4.705  20.967  1.00  0.00     0.000 C 
BRANCH  10  11
ATOM     11  C   UNL     1      14.239  -4.839  19.478  1.00  0.00     0.000 C 
BRANCH  11  12
ATOM     12  C   UNL     1      13.587  -6.087  18.866  1.00  0.00     0.006 C 
BRANCH  12  13
ATOM     13  C   UNL     1      14.249  -6.499  17.544  1.00  0.00     0.053 C 
BRANCH  13  14
ATOM     14  C   UNL     1      13.235  -6.761  16.473  1.00  0.00     0.041 C 
ATOM     15  O   UNL     1      12.118  -7.262  16.768  1.00  0.00    -0.550 OA
ATOM     16  O   UNL     1      13.538  -6.487  15.147  1.00  0.00    -0.550 OA
ENDBRANCH  13  14
ENDBRANCH  12  13
ENDBRANCH  11  12
ENDBRANCH  10  11
ENDBRANCH   9  10
ENDBRANCH   8   9
ENDBRANCH   7   8
ENDBRANCH   6   7
ENDBRANCH   5   6
ENDBRANCH   4   5
ENDBRANCH   3   4
ENDBRANCH   2   3
ENDBRANCH   1   2
BRANCH   1  17
ATOM     17  C   UNL     1       7.389  -3.917  24.633  1.00  0.00     0.000 C 
BRANCH  17  18
ATOM     18  C   UNL     1       6.831  -4.493  25.947  1.00  0.00     0.000 C 
BRANCH  18  19
ATOM     19  C   UNL     1       7.062  -3.570  27.157  1.00  0.00     0.000 C 
BRANCH  19  20
ATOM     20  C   UNL     1       7.782  -4.223  28.353  1.00  0.00     0.000 C 
BRANCH  20  21
ATOM     21  C   UNL     1       8.890  -5.200  27.927  1.00  0.00     0.000 C 
BRANCH  21  22
ATOM     22  C   UNL     1       8.672  -6.588  28.548  1.00  0.00    -0.000 C 
BRANCH  22  23
ATOM     23  C   UNL     1       8.142  -7.616  27.526  1.00  0.00    -0.000 C 
BRANCH  23  24
ATOM     24  C   UNL     1       7.083  -8.575  28.095  1.00  0.00    -0.000 C 
BRANCH  24  25
ATOM     25  C   UNL     1       6.027  -7.864  28.952  1.00  0.00    -0.000 C 
BRANCH  25  26
ATOM     26  C   UNL     1       5.863  -8.553  30.313  1.00  0.00    -0.000 C 
BRANCH  26  27
ATOM     27  C   UNL     1       5.491  -7.535  31.402  1.00  0.00    -0.000 C 
BRANCH  27  28
ATOM     28  C   UNL     1       6.125  -6.156  31.162  1.00  0.00    -0.000 C 
BRANCH  28  29
ATOM     29  C   UNL     1       7.492  -6.011  31.847  1.00  0.00    -0.003 C 
ATOM     30  C   UNL     1       7.495  -4.843  32.829  1.00  0.00     0.004 C 
ENDBRANCH  28  29
ENDBRANCH  27  28
ENDBRANCH  26  27
ENDBRANCH  25  26
ENDBRANCH  24  25
ENDBRANCH  23  24
ENDBRANCH  22  23
ENDBRANCH  21  22
ENDBRANCH  20  21
ENDBRANCH  19  20
ENDBRANCH  18  19
ENDBRANCH  17  18
ENDBRANCH   1  17
TORSDOF 26
ENDMDL
MODEL 3
REMARK VINA RESULT:    -4.746      7.088     10.980
REMARK INTER + INTRA:         -14.841
REMARK INTER:                 -11.232
REMARK INTRA:                  -3.609
REMARK UNBOUND:                -2.882
REMARK SMILES CCCCCCCCCCCCCCCCCCCCCCCCCCCC(=O)[O-]
REMARK SMILES IDX 15 1 16 2 17 3 18 4 19 5 20 6 21 7 22 8 23 9 24 10 25 11
REMARK SMILES IDX 26 12 27 13 28 14 29 15 30 16 14 17 13 18 12 19 11 20 10 21
REMARK SMILES IDX 9 22 8 23 7 24 6 25 5 26 4 27 3 28 2 29 1 30
REMARK H PARENT
REMARK Flexibility Score: inf
ROOT
ATOM      1  C   UNL     1      15.223  -7.662  23.736  1.00  0.00     0.000 C 
ENDROOT
BRANCH   1   2
ATOM      2  C   UNL     1      14.694  -9.024  24.213  1.00  0.00     0.000 C 
BRANCH   2   3
ATOM      3  C   UNL     1      14.518  -9.984  23.029  1.00  0.00     0.000 C 
BRANCH   3   4
ATOM      4  C   UNL     1      13.138  -9.855  22.360  1.00  0.00     0.000 C 
BRANCH   4   5
ATOM      5  C   UNL     1      13.142 -10.013  20.826  1.00  0.00     0.000 C 
BRANCH   5   6
ATOM      6  C   UNL     1      14.513  -9.820  20.147  1.00  0.00     0.000 C 
BRANCH   6   7
ATOM      7  C   UNL     1      14.457  -9.594  18.625  1.00  0.00     0.000 C 
BRANCH   7   8
ATOM      8  C   UNL     1      15.742  -8.959  18.070  1.00  0.00     0.000 C 
BRANCH   8   9
ATOM      9  C   UNL     1      15.531  -7.515  17.576  1.00  0.00     0.000 C 
BRANCH   9  10
ATOM     10  C   UNL     1      14.088  -6.994  17.695  1.00  0.00     0.000 C 
BRANCH  10  11
ATOM     11  C   UNL     1      13.598  -6.284  16.424  1.00  0.00     0.000 C 
BRANCH  11  12
ATOM     12  C   UNL     1      12.996  -7.287  15.429  1.00  0.00     0.006 C 
BRANCH  12  13
ATOM     13  C   UNL     1      13.578  -7.123  14.017  1.00  0.00     0.053 C 
BRANCH  13  14
ATOM     14  C   UNL     1      14.835  -7.917  13.840  1.00  0.00     0.041 C 
ATOM     15  O   UNL     1      14.940  -9.062  14.354  1.00  0.00    -0.550 OA
ATOM     16  O   UNL     1      15.905  -7.378  13.140  1.00  0.00    -0.550 OA
ENDBRANCH  13  14
ENDBRANCH  12  13
ENDBRANCH  11  12
ENDBRANCH  10  11
ENDBRANCH   9  10
ENDBRANCH   8   9
ENDBRANCH   7   8
ENDBRANCH   6   7
ENDBRANCH   5   6
ENDBRANCH   4   5
ENDBRANCH   3   4
ENDBRANCH   2   3
ENDBRANCH   1   2
BRANCH   1  17
ATOM     17  C   UNL     1      16.370  -7.791  22.722  1.00  0.00     0.000 C 
BRANCH  17  18
ATOM     18  C   UNL     1      16.178  -6.873  21.501  1.00  0.00     0.000 C 
BRANCH  18  19
ATOM     19  C   UNL     1      14.715  -6.436  21.301  1.00  0.00     0.000 C 
BRANCH  19  20
ATOM     20  C   UNL     1      14.526  -5.088  20.578  1.00  0.00     0.000 C 
BRANCH  20  21
ATOM     21  C   UNL     1      13.140  -4.468  20.813  1.00  0.00     0.000 C 
BRANCH  21  22
ATOM     22  C   UNL     1      13.151  -3.536  22.034  1.00  0.00    -0.000 C 
BRANCH  22  23
ATOM     23  C   UNL     1      13.615  -2.107  21.682  1.00  0.00    -0.000 C 
BRANCH  23  24
ATOM     24  C   UNL     1      12.900  -1.002  22.479  1.00  0.00    -0.000 C 
BRANCH  24  25
ATOM     25  C   UNL     1      12.292   0.086  21.582  1.00  0.00    -0.000 C 
BRANCH  25  26
ATOM     26  C   UNL     1      11.267   0.928  22.352  1.00  0.00    -0.000 C 
BRANCH  26  27
ATOM     27  C   UNL     1      10.877   0.246  23.672  1.00  0.00    -0.000 C 
BRANCH  27  28
ATOM     28  C   UNL     1       9.368  -0.027  23.772  1.00  0.00    -0.000 C 
BRANCH  28  29
ATOM     29  C   UNL     1       8.905  -1.127  22.806  1.00  0.00    -0.003 C 
ATOM     30  C   UNL     1       9.568  -2.462  23.132  1.00  0.00     0.004 C 
ENDBRANCH  28  29
ENDBRANCH  27  28
ENDBRANCH  26  27
ENDBRANCH  25  26
ENDBRANCH  24  25
ENDBRANCH  23  24
ENDBRANCH  22  23
ENDBRANCH  21  22
ENDBRANCH  20  21
ENDBRANCH  19  20
ENDBRANCH  18  19
ENDBRANCH  17  18
ENDBRANCH   1  17
TORSDOF 26
ENDMDL
MODEL 4
REMARK VINA RESULT:    -4.705      1.829      3.891
REMARK INTER + INTRA:         -14.738
REMARK INTER:                 -10.435
REMARK INTRA:                  -4.303
REMARK UNBOUND:                -2.882
REMARK SMILES CCCCCCCCCCCCCCCCCCCCCCCCCCCC(=O)[O-]
REMARK SMILES IDX 15 1 16 2 17 3 18 4 19 5 20 6 21 7 22 8 23 9 24 10 25 11
REMARK SMILES IDX 26 12 27 13 28 14 29 15 30 16 14 17 13 18 12 19 11 20 10 21
REMARK SMILES IDX 9 22 8 23 7 24 6 25 5 26 4 27 3 28 2 29 1 30
REMARK H PARENT
REMARK Flexibility Score: inf
ROOT
ATOM      1  C   UNL     1       7.382  -5.549  30.244  1.00  0.00     0.000 C 
ENDROOT
BRANCH   1   2
ATOM      2  C   UNL     1       8.637  -6.361  29.886  1.00  0.00     0.000 C 
BRANCH   2   3
ATOM      3  C   UNL     1       8.804  -6.458  28.363  1.00  0.00     0.000 C 
BRANCH   3   4
ATOM      4  C   UNL     1       8.210  -7.753  27.782  1.00  0.00     0.000 C 
BRANCH   4   5
ATOM      5  C   UNL     1       7.185  -7.545  26.648  1.00  0.00     0.000 C 
BRANCH   5   6
ATOM      6  C   UNL     1       6.096  -6.490  26.930  1.00  0.00     0.000 C 
BRANCH   6   7
ATOM      7  C   UNL     1       6.147  -5.248  26.021  1.00  0.00     0.000 C 
BRANCH   7   8
ATOM      8  C   UNL     1       6.547  -3.972  26.781  1.00  0.00     0.000 C 
BRANCH   8   9
ATOM      9  C   UNL     1       7.914  -3.416  26.340  1.00  0.00     0.000 C 
BRANCH   9  10
ATOM     10  C   UNL     1       8.058  -3.178  24.826  1.00  0.00     0.000 C 
BRANCH  10  11
ATOM     11  C   UNL     1       8.605  -1.783  24.485  1.00  0.00     0.000 C 
BRANCH  11  12
ATOM     12  C   UNL     1       9.280  -1.776  23.106  1.00  0.00     0.006 C 
BRANCH  12  13
ATOM     13  C   UNL     1       9.709  -0.366  22.678  1.00  0.00     0.053 C 
BRANCH  13  14
ATOM     14  C   UNL     1      11.177  -0.148  22.876  1.00  0.00     0.041 C 
ATOM     15  O   UNL     1      12.005  -1.017  22.493  1.00  0.00    -0.550 OA
ATOM     16  O   UNL     1      11.630   0.997  23.518  1.00  0.00    -0.550 OA
ENDBRANCH  13  14
ENDBRANCH  12  13
ENDBRANCH  11  12
ENDBRANCH  10  11
ENDBRANCH   9  10
ENDBRANCH   8   9
ENDBRANCH   7   8
ENDBRANCH   6   7
ENDBRANCH   5   6
ENDBRANCH   4   5
ENDBRANCH   3   4
ENDBRANCH   2   3
ENDBRANCH   1   2
BRANCH   1  17
ATOM     17  C   UNL     1       6.469  -6.275  31.245  1.00  0.00     0.000 C 
BRANCH  17  18
ATOM     18  C   UNL     1       5.437  -7.179  30.546  1.00  0.00     0.000 C 
BRANCH  18  19
ATOM     19  C   UNL     1       5.913  -8.637  30.402  1.00  0.00     0.000 C 
BRANCH  19  20
ATOM     20  C   UNL     1       5.180  -9.463  29.328  1.00  0.00     0.000 C 
BRANCH  20  21
ATOM     21  C   UNL     1       3.692  -9.102  29.203  1.00  0.00     0.000 C 
BRANCH  21  22
ATOM     22  C   UNL     1       3.066  -9.756  27.961  1.00  0.00    -0.000 C 
BRANCH  22  23
ATOM     23  C   UNL     1       3.797  -9.368  26.658  1.00  0.00    -0.000 C 
BRANCH  23  24
ATOM     24  C   UNL     1       3.166  -8.177  25.918  1.00  0.00    -0.000 C 
BRANCH  24  25
ATOM     25  C   UNL     1       3.603  -8.084  24.449  1.00  0.00    -0.000 C 
BRANCH  25  26
ATOM     26  C   UNL     1       4.821  -8.976  24.177  1.00  0.00    -0.000 C 
BRANCH  26  27
ATOM     27  C   UNL     1       5.512  -8.574  22.865  1.00  0.00    -0.000 C 
BRANCH  27  28
ATOM     28  C   UNL     1       6.368  -7.307  23.014  1.00  0.00    -0.000 C 
BRANCH  28  29
ATOM     29  C   UNL     1       5.954  -6.199  22.034  1.00  0.00    -0.003 C 
ATOM     30  C   UNL     1       4.695  -6.587  21.264  1.00  0.00     0.004 C 
ENDBRANCH  28  29
ENDBRANCH  27  28
ENDBRANCH  26  27
ENDBRANCH  25  26
ENDBRANCH  24  25
ENDBRANCH  23  24
ENDBRANCH  22  23
ENDBRANCH  21  22
ENDBRANCH  20  21
ENDBRANCH  19  20
ENDBRANCH  18  19
ENDBRANCH  17  18
ENDBRANCH   1  17
TORSDOF 26
ENDMDL
MODEL 5
REMARK VINA RESULT:    -4.662      1.383      3.162
REMARK INTER + INTRA:         -14.631
REMARK INTER:                 -11.106
REMARK INTRA:                  -3.524
REMARK UNBOUND:                -2.882
REMARK SMILES CCCCCCCCCCCCCCCCCCCCCCCCCCCC(=O)[O-]
REMARK SMILES IDX 15 1 16 2 17 3 18 4 19 5 20 6 21 7 22 8 23 9 24 10 25 11
REMARK SMILES IDX 26 12 27 13 28 14 29 15 30 16 14 17 13 18 12 19 11 20 10 21
REMARK SMILES IDX 9 22 8 23 7 24 6 25 5 26 4 27 3 28 2 29 1 30
REMARK H PARENT
REMARK Flexibility Score: inf
ROOT
ATOM      1  C   UNL     1       6.618  -5.626  31.143  1.00  0.00     0.000 C 
ENDROOT
BRANCH   1   2
ATOM      2  C   UNL     1       7.810  -6.170  30.341  1.00  0.00     0.000 C 
BRANCH   2   3
ATOM      3  C   UNL     1       7.681  -5.801  28.857  1.00  0.00     0.000 C 
BRANCH   3   4
ATOM      4  C   UNL     1       6.216  -5.690  28.398  1.00  0.00     0.000 C 
BRANCH   4   5
ATOM      5  C   UNL     1       5.996  -4.840  27.130  1.00  0.00     0.000 C 
BRANCH   5   6
ATOM      6  C   UNL     1       7.140  -3.867  26.781  1.00  0.00     0.000 C 
BRANCH   6   7
ATOM      7  C   UNL     1       7.234  -3.485  25.292  1.00  0.00     0.000 C 
BRANCH   7   8
ATOM      8  C   UNL     1       8.553  -2.775  24.943  1.00  0.00     0.000 C 
BRANCH   8   9
ATOM      9  C   UNL     1       8.773  -2.634  23.425  1.00  0.00     0.000 C 
BRANCH   9  10
ATOM     10  C   UNL     1      10.151  -2.079  23.020  1.00  0.00     0.000 C 
BRANCH  10  11
ATOM     11  C   UNL     1      10.190  -0.545  22.968  1.00  0.00     0.000 C 
BRANCH  11  12
ATOM     12  C   UNL     1      11.635  -0.027  23.012  1.00  0.00     0.006 C 
BRANCH  12  13
ATOM     13  C   UNL     1      12.393  -0.313  21.707  1.00  0.00     0.053 C 
BRANCH  13  14
ATOM     14  C   UNL     1      13.488  -1.314  21.910  1.00  0.00     0.041 C 
ATOM     15  O   UNL     1      13.490  -2.393  21.260  1.00  0.00    -0.550 OA
ATOM     16  O   UNL     1      14.486  -1.074  22.845  1.00  0.00    -0.550 OA
ENDBRANCH  13  14
ENDBRANCH  12  13
ENDBRANCH  11  12
ENDBRANCH  10  11
ENDBRANCH   9  10
ENDBRANCH   8   9
ENDBRANCH   7   8
ENDBRANCH   6   7
ENDBRANCH   5   6
ENDBRANCH   4   5
ENDBRANCH   3   4
ENDBRANCH   2   3
ENDBRANCH   1   2
BRANCH   1  17
ATOM     17  C   UNL     1       5.894  -6.718  31.948  1.00  0.00     0.000 C 
BRANCH  17  18
ATOM     18  C   UNL     1       5.920  -8.083  31.237  1.00  0.00     0.000 C 
BRANCH  18  19
ATOM     19  C   UNL     1       4.660  -8.346  30.391  1.00  0.00     0.000 C 
BRANCH  19  20
ATOM     20  C   UNL     1       4.820  -9.413  29.291  1.00  0.00     0.000 C 
BRANCH  20  21
ATOM     21  C   UNL     1       6.233  -9.447  28.686  1.00  0.00     0.000 C 
BRANCH  21  22
ATOM     22  C   UNL     1       6.197  -9.146  27.180  1.00  0.00    -0.000 C 
BRANCH  22  23
ATOM     23  C   UNL     1       4.772  -8.838  26.673  1.00  0.00    -0.000 C 
BRANCH  23  24
ATOM     24  C   UNL     1       4.721  -8.321  25.225  1.00  0.00    -0.000 C 
BRANCH  24  25
ATOM     25  C   UNL     1       6.110  -8.195  24.584  1.00  0.00    -0.000 C 
BRANCH  25  26
ATOM     26  C   UNL     1       6.328  -6.791  24.007  1.00  0.00    -0.000 C 
BRANCH  26  27
ATOM     27  C   UNL     1       5.131  -6.360  23.145  1.00  0.00    -0.000 C 
BRANCH  27  28
ATOM     28  C   UNL     1       4.336  -5.205  23.774  1.00  0.00    -0.000 C 
BRANCH  28  29
ATOM     29  C   UNL     1       2.877  -5.169  23.299  1.00  0.00    -0.003 C 
ATOM     30  C   UNL     1       2.505  -6.451  22.560  1.00  0.00     0.004 C 
ENDBRANCH  28  29
ENDBRANCH  27  28
ENDBRANCH  26  27
ENDBRANCH  25  26
ENDBRANCH  24  25
ENDBRANCH  23  24
ENDBRANCH  22  23
ENDBRANCH  21  22
ENDBRANCH  20  21
ENDBRANCH  19  20
ENDBRANCH  18  19
ENDBRANCH  17  18
ENDBRANCH   1  17
TORSDOF 26
ENDMDL
MODEL 6
REMARK VINA RESULT:    -4.646      4.441     10.992
REMARK INTER + INTRA:         -14.590
REMARK INTER:                 -12.503
REMARK INTRA:                  -2.087
REMARK UNBOUND:                -2.882
REMARK SMILES CCCCCCCCCCCCCCCCCCCCCCCCCCCC(=O)[O-]
REMARK SMILES IDX 15 1 16 2 17 3 18 4 19 5 20 6 21 7 22 8 23 9 24 10 25 11
REMARK SMILES IDX 26 12 27 13 28 14 29 15 30 16 14 17 13 18 12 19 11 20 10 21
REMARK SMILES IDX 9 22 8 23 7 24 6 25 5 26 4 27 3 28 2 29 1 30
REMARK H PARENT
REMARK Flexibility Score: inf
ROOT
ATOM      1  C   UNL     1       7.889  -3.436  24.825  1.00  0.00     0.000 C 
ENDROOT
BRANCH   1   2
ATOM      2  C   UNL     1       7.542  -3.389  26.321  1.00  0.00     0.000 C 
BRANCH   2   3
ATOM      3  C   UNL     1       6.618  -4.553  26.703  1.00  0.00     0.000 C 
BRANCH   3   4
ATOM      4  C   UNL     1       6.802  -5.003  28.162  1.00  0.00     0.000 C 
BRANCH   4   5
ATOM      5  C   UNL     1       8.266  -5.235  28.591  1.00  0.00     0.000 C 
BRANCH   5   6
ATOM      6  C   UNL     1       8.734  -6.704  28.571  1.00  0.00     0.000 C 
BRANCH   6   7
ATOM      7  C   UNL     1       8.349  -7.490  27.304  1.00  0.00     0.000 C 
BRANCH   7   8
ATOM      8  C   UNL     1       7.875  -8.920  27.613  1.00  0.00     0.000 C 
BRANCH   8   9
ATOM      9  C   UNL     1       6.366  -9.001  27.908  1.00  0.00     0.000 C 
BRANCH   9  10
ATOM     10  C   UNL     1       6.009  -9.413  29.348  1.00  0.00     0.000 C 
BRANCH  10  11
ATOM     11  C   UNL     1       4.741  -8.724  29.874  1.00  0.00     0.000 C 
BRANCH  11  12
ATOM     12  C   UNL     1       5.083  -7.410  30.592  1.00  0.00     0.006 C 
BRANCH  12  13
ATOM     13  C   UNL     1       6.462  -7.459  31.265  1.00  0.00     0.053 C 
BRANCH  13  14
ATOM     14  C   UNL     1       6.766  -6.191  32.001  1.00  0.00     0.041 C 
ATOM     15  O   UNL     1       5.834  -5.404  32.319  1.00  0.00    -0.550 OA
ATOM     16  O   UNL     1       8.079  -5.859  32.303  1.00  0.00    -0.550 OA
ENDBRANCH  13  14
ENDBRANCH  12  13
ENDBRANCH  11  12
ENDBRANCH  10  11
ENDBRANCH   9  10
ENDBRANCH   8   9
ENDBRANCH   7   8
ENDBRANCH   6   7
ENDBRANCH   5   6
ENDBRANCH   4   5
ENDBRANCH   3   4
ENDBRANCH   2   3
ENDBRANCH   1   2
BRANCH   1  17
ATOM     17  C   UNL     1       8.629  -2.177  24.345  1.00  0.00     0.000 C 
BRANCH  17  18
ATOM     18  C   UNL     1       9.746  -2.504  23.338  1.00  0.00     0.000 C 
BRANCH  18  19
ATOM     19  C   UNL     1      10.611  -1.281  22.979  1.00  0.00     0.000 C 
BRANCH  19  20
ATOM     20  C   UNL     1      12.064  -1.600  22.580  1.00  0.00     0.000 C 
BRANCH  20  21
ATOM     21  C   UNL     1      12.279  -3.079  22.222  1.00  0.00     0.000 C 
BRANCH  21  22
ATOM     22  C   UNL     1      13.469  -3.250  21.265  1.00  0.00    -0.000 C 
BRANCH  22  23
ATOM     23  C   UNL     1      13.379  -4.548  20.436  1.00  0.00    -0.000 C 
BRANCH  23  24
ATOM     24  C   UNL     1      14.478  -4.687  19.369  1.00  0.00    -0.000 C 
BRANCH  24  25
ATOM     25  C   UNL     1      14.273  -5.900  18.451  1.00  0.00    -0.000 C 
BRANCH  25  26
ATOM     26  C   UNL     1      13.290  -5.578  17.319  1.00  0.00    -0.000 C 
BRANCH  26  27
ATOM     27  C   UNL     1      12.725  -6.866  16.701  1.00  0.00    -0.000 C 
BRANCH  27  28
ATOM     28  C   UNL     1      13.648  -7.460  15.625  1.00  0.00    -0.000 C 
BRANCH  28  29
ATOM     29  C   UNL     1      13.026  -7.409  14.223  1.00  0.00    -0.003 C 
ATOM     30  C   UNL     1      13.795  -6.455  13.313  1.00  0.00     0.004 C 
ENDBRANCH  28  29
ENDBRANCH  27  28
ENDBRANCH  26  27
ENDBRANCH  25  26
ENDBRANCH  24  25
ENDBRANCH  23  24
ENDBRANCH  22  23
ENDBRANCH  21  22
ENDBRANCH  20  21
ENDBRANCH  19  20
ENDBRANCH  18  19
ENDBRANCH  17  18
ENDBRANCH   1  17
TORSDOF 26
ENDMDL
MODEL 7
REMARK VINA RESULT:    -4.625      3.447      6.037
REMARK INTER + INTRA:         -14.538
REMARK INTER:                 -11.860
REMARK INTRA:                  -2.678
REMARK UNBOUND:                -2.882
REMARK SMILES CCCCCCCCCCCCCCCCCCCCCCCCCCCC(=O)[O-]
REMARK SMILES IDX 15 1 16 2 17 3 18 4 19 5 20 6 21 7 22 8 23 9 24 10 25 11
REMARK SMILES IDX 26 12 27 13 28 14 29 15 30 16 14 17 13 18 12 19 11 20 10 21
REMARK SMILES IDX 9 22 8 23 7 24 6 25 5 26 4 27 3 28 2 29 1 30
REMARK H PARENT
REMARK Flexibility Score: inf
ROOT
ATOM      1  C   UNL     1       7.923  -2.854  25.737  1.00  0.00     0.000 C 
ENDROOT
BRANCH   1   2
ATOM      2  C   UNL     1       8.617  -2.863  24.366  1.00  0.00     0.000 C 
BRANCH   2   3
ATOM      3  C   UNL     1       8.895  -1.431  23.888  1.00  0.00     0.000 C 
BRANCH   3   4
ATOM      4  C   UNL     1      10.143  -1.336  22.993  1.00  0.00     0.000 C 
BRANCH   4   5
ATOM      5  C   UNL     1      10.908  -2.662  22.802  1.00  0.00     0.000 C 
BRANCH   5   6
ATOM      6  C   UNL     1      12.340  -2.523  22.248  1.00  0.00     0.000 C 
BRANCH   6   7
ATOM      7  C   UNL     1      13.051  -3.855  21.947  1.00  0.00     0.000 C 
BRANCH   7   8
ATOM      8  C   UNL     1      13.464  -3.989  20.472  1.00  0.00     0.000 C 
BRANCH   8   9
ATOM      9  C   UNL     1      14.069  -5.366  20.142  1.00  0.00     0.000 C 
BRANCH   9  10
ATOM     10  C   UNL     1      14.447  -5.571  18.664  1.00  0.00     0.000 C 
BRANCH  10  11
ATOM     11  C   UNL     1      13.233  -5.560  17.725  1.00  0.00     0.000 C 
BRANCH  11  12
ATOM     12  C   UNL     1      13.231  -6.792  16.809  1.00  0.00     0.006 C 
BRANCH  12  13
ATOM     13  C   UNL     1      14.607  -7.047  16.177  1.00  0.00     0.053 C 
BRANCH  13  14
ATOM     14  C   UNL     1      14.502  -7.305  14.705  1.00  0.00     0.041 C 
ATOM     15  O   UNL     1      15.226  -8.181  14.162  1.00  0.00    -0.550 OA
ATOM     16  O   UNL     1      13.634  -6.552  13.928  1.00  0.00    -0.550 OA
ENDBRANCH  13  14
ENDBRANCH  12  13
ENDBRANCH  11  12
ENDBRANCH  10  11
ENDBRANCH   9  10
ENDBRANCH   8   9
ENDBRANCH   7   8
ENDBRANCH   6   7
ENDBRANCH   5   6
ENDBRANCH   4   5
ENDBRANCH   3   4
ENDBRANCH   2   3
ENDBRANCH   1   2
BRANCH   1  17
ATOM     17  C   UNL     1       7.150  -4.151  26.022  1.00  0.00     0.000 C 
BRANCH  17  18
ATOM     18  C   UNL     1       6.467  -4.135  27.401  1.00  0.00     0.000 C 
BRANCH  18  19
ATOM     19  C   UNL     1       5.650  -5.409  27.685  1.00  0.00     0.000 C 
BRANCH  19  20
ATOM     20  C   UNL     1       5.808  -6.534  26.643  1.00  0.00     0.000 C 
BRANCH  20  21
ATOM     21  C   UNL     1       5.339  -7.903  27.161  1.00  0.00     0.000 C 
BRANCH  21  22
ATOM     22  C   UNL     1       6.507  -8.692  27.773  1.00  0.00    -0.000 C 
BRANCH  22  23
ATOM     23  C   UNL     1       6.141  -9.329  29.131  1.00  0.00    -0.000 C 
BRANCH  23  24
ATOM     24  C   UNL     1       4.752  -8.929  29.656  1.00  0.00    -0.000 C 
BRANCH  24  25
ATOM     25  C   UNL     1       4.811  -7.863  30.759  1.00  0.00    -0.000 C 
BRANCH  25  26
ATOM     26  C   UNL     1       6.237  -7.708  31.303  1.00  0.00    -0.000 C 
BRANCH  26  27
ATOM     27  C   UNL     1       6.533  -6.243  31.658  1.00  0.00    -0.000 C 
BRANCH  27  28
ATOM     28  C   UNL     1       7.566  -5.605  30.716  1.00  0.00    -0.000 C 
BRANCH  28  29
ATOM     29  C   UNL     1       8.498  -6.644  30.076  1.00  0.00    -0.003 C 
ATOM     30  C   UNL     1       9.094  -6.121  28.772  1.00  0.00     0.004 C 
ENDBRANCH  28  29
ENDBRANCH  27  28
ENDBRANCH  26  27
ENDBRANCH  25  26
ENDBRANCH  24  25
ENDBRANCH  23  24
ENDBRANCH  22  23
ENDBRANCH  21  22
ENDBRANCH  20  21
ENDBRANCH  19  20
ENDBRANCH  18  19
ENDBRANCH  17  18
ENDBRANCH   1  17
TORSDOF 26
ENDMDL
MODEL 8
REMARK VINA RESULT:    -4.586      5.033     11.610
REMARK INTER + INTRA:         -14.438
REMARK INTER:                 -12.891
REMARK INTRA:                  -1.547
REMARK UNBOUND:                -2.882
REMARK SMILES CCCCCCCCCCCCCCCCCCCCCCCCCCCC(=O)[O-]
REMARK SMILES IDX 15 1 16 2 17 3 18 4 19 5 20 6 21 7 22 8 23 9 24 10 25 11
REMARK SMILES IDX 26 12 27 13 28 14 29 15 30 16 14 17 13 18 12 19 11 20 10 21
REMARK SMILES IDX 9 22 8 23 7 24 6 25 5 26 4 27 3 28 2 29 1 30
REMARK H PARENT
REMARK Flexibility Score: inf
ROOT
ATOM      1  C   UNL     1      10.368  -0.174  23.328  1.00  0.00     0.000 C 
ENDROOT
BRANCH   1   2
ATOM      2  C   UNL     1       9.002  -0.676  23.824  1.00  0.00     0.000 C 
BRANCH   2   3
ATOM      3  C   UNL     1       8.934  -2.208  23.773  1.00  0.00     0.000 C 
BRANCH   3   4
ATOM      4  C   UNL     1       8.351  -2.819  25.060  1.00  0.00     0.000 C 
BRANCH   4   5
ATOM      5  C   UNL     1       7.245  -3.870  24.835  1.00  0.00     0.000 C 
BRANCH   5   6
ATOM      6  C   UNL     1       6.777  -4.614  26.102  1.00  0.00     0.000 C 
BRANCH   6   7
ATOM      7  C   UNL     1       7.110  -3.908  27.429  1.00  0.00     0.000 C 
BRANCH   7   8
ATOM      8  C   UNL     1       6.835  -4.792  28.658  1.00  0.00     0.000 C 
BRANCH   8   9
ATOM      9  C   UNL     1       8.061  -5.617  29.088  1.00  0.00     0.000 C 
BRANCH   9  10
ATOM     10  C   UNL     1       7.926  -6.316  30.453  1.00  0.00     0.000 C 
BRANCH  10  11
ATOM     11  C   UNL     1       6.614  -5.975  31.176  1.00  0.00     0.000 C 
BRANCH  11  12
ATOM     12  C   UNL     1       5.923  -7.245  31.694  1.00  0.00     0.006 C 
BRANCH  12  13
ATOM     13  C   UNL     1       6.066  -8.423  30.719  1.00  0.00     0.053 C 
BRANCH  13  14
ATOM     14  C   UNL     1       4.878  -8.541  29.815  1.00  0.00     0.041 C 
ATOM     15  O   UNL     1       3.731  -8.232  30.232  1.00  0.00    -0.550 OA
ATOM     16  O   UNL     1       5.032  -9.029  28.525  1.00  0.00    -0.550 OA
ENDBRANCH  13  14
ENDBRANCH  12  13
ENDBRANCH  11  12
ENDBRANCH  10  11
ENDBRANCH   9  10
ENDBRANCH   8   9
ENDBRANCH   7   8
ENDBRANCH   6   7
ENDBRANCH   5   6
ENDBRANCH   4   5
ENDBRANCH   3   4
ENDBRANCH   2   3
ENDBRANCH   1   2
BRANCH   1  17
ATOM     17  C   UNL     1      11.178  -1.266  22.611  1.00  0.00     0.000 C 
BRANCH  17  18
ATOM     18  C   UNL     1      12.682  -0.940  22.561  1.00  0.00     0.000 C 
BRANCH  18  19
ATOM     19  C   UNL     1      13.524  -2.077  21.952  1.00  0.00     0.000 C 
BRANCH  19  20
ATOM     20  C   UNL     1      12.750  -3.372  21.639  1.00  0.00     0.000 C 
BRANCH  20  21
ATOM     21  C   UNL     1      13.661  -4.521  21.180  1.00  0.00     0.000 C 
BRANCH  21  22
ATOM     22  C   UNL     1      14.015  -4.385  19.691  1.00  0.00    -0.000 C 
BRANCH  22  23
ATOM     23  C   UNL     1      13.745  -5.681  18.899  1.00  0.00    -0.000 C 
BRANCH  23  24
ATOM     24  C   UNL     1      14.979  -6.237  18.168  1.00  0.00    -0.000 C 
BRANCH  24  25
ATOM     25  C   UNL     1      14.618  -7.194  17.023  1.00  0.00    -0.000 C 
BRANCH  25  26
ATOM     26  C   UNL     1      13.481  -6.625  16.165  1.00  0.00    -0.000 C 
BRANCH  26  27
ATOM     27  C   UNL     1      13.316  -7.433  14.868  1.00  0.00    -0.000 C 
BRANCH  27  28
ATOM     28  C   UNL     1      13.878  -6.700  13.640  1.00  0.00    -0.000 C 
BRANCH  28  29
ATOM     29  C   UNL     1      15.185  -7.323  13.130  1.00  0.00    -0.003 C 
ATOM     30  C   UNL     1      15.374  -8.734  13.680  1.00  0.00     0.004 C 
ENDBRANCH  28  29
ENDBRANCH  27  28
ENDBRANCH  26  27
ENDBRANCH  25  26
ENDBRANCH  24  25
ENDBRANCH  23  24
ENDBRANCH  22  23
ENDBRANCH  21  22
ENDBRANCH  20  21
ENDBRANCH  19  20
ENDBRANCH  18  19
ENDBRANCH  17  18
ENDBRANCH   1  17
TORSDOF 26
ENDMDL
MODEL 9
REMARK VINA RESULT:    -4.535      4.547      6.142
REMARK INTER + INTRA:         -14.310
REMARK INTER:                 -10.576
REMARK INTRA:                  -3.735
REMARK UNBOUND:                -2.882
REMARK SMILES CCCCCCCCCCCCCCCCCCCCCCCCCCCC(=O)[O-]
REMARK SMILES IDX 15 1 16 2 17 3 18 4 19 5 20 6 21 7 22 8 23 9 24 10 25 11
REMARK SMILES IDX 26 12 27 13 28 14 29 15 30 16 14 17 13 18 12 19 11 20 10 21
REMARK SMILES IDX 9 22 8 23 7 24 6 25 5 26 4 27 3 28 2 29 1 30
REMARK H PARENT
REMARK Flexibility Score: inf
ROOT
ATOM      1  C   UNL     1       8.383  -7.900  27.073  1.00  0.00     0.000 C 
ENDROOT
BRANCH   1   2
ATOM      2  C   UNL     1       8.578  -9.410  26.871  1.00  0.00     0.000 C 
BRANCH   2   3
ATOM      3  C   UNL     1       9.121  -9.705  25.466  1.00  0.00     0.000 C 
BRANCH   3   4
ATOM      4  C   UNL     1       8.004  -9.965  24.440  1.00  0.00     0.000 C 
BRANCH   4   5
ATOM      5  C   UNL     1       8.212  -9.291  23.068  1.00  0.00     0.000 C 
BRANCH   5   6
ATOM      6  C   UNL     1       7.649 -10.067  21.860  1.00  0.00     0.000 C 
BRANCH   6   7
ATOM      7  C   UNL     1       6.306  -9.542  21.321  1.00  0.00     0.000 C 
BRANCH   7   8
ATOM      8  C   UNL     1       5.820  -8.284  22.061  1.00  0.00     0.000 C 
BRANCH   8   9
ATOM      9  C   UNL     1       5.306  -7.189  21.107  1.00  0.00     0.000 C 
BRANCH   9  10
ATOM     10  C   UNL     1       4.404  -6.129  21.764  1.00  0.00     0.000 C 
BRANCH  10  11
ATOM     11  C   UNL     1       4.170  -6.381  23.260  1.00  0.00     0.000 C 
BRANCH  11  12
ATOM     12  C   UNL     1       4.844  -5.297  24.115  1.00  0.00     0.006 C 
BRANCH  12  13
ATOM     13  C   UNL     1       5.901  -5.880  25.064  1.00  0.00     0.053 C 
BRANCH  13  14
ATOM     14  C   UNL     1       6.213  -4.943  26.190  1.00  0.00     0.041 C 
ATOM     15  O   UNL     1       7.138  -4.097  26.072  1.00  0.00    -0.550 OA
ATOM     16  O   UNL     1       5.508  -5.030  27.382  1.00  0.00    -0.550 OA
ENDBRANCH  13  14
ENDBRANCH  12  13
ENDBRANCH  11  12
ENDBRANCH  10  11
ENDBRANCH   9  10
ENDBRANCH   8   9
ENDBRANCH   7   8
ENDBRANCH   6   7
ENDBRANCH   5   6
ENDBRANCH   4   5
ENDBRANCH   3   4
ENDBRANCH   2   3
ENDBRANCH   1   2
BRANCH   1  17
ATOM     17  C   UNL     1       8.692  -7.447  28.510  1.00  0.00     0.000 C 
BRANCH  17  18
ATOM     18  C   UNL     1       8.847  -5.919  28.621  1.00  0.00     0.000 C 
BRANCH  18  19
ATOM     19  C   UNL     1       7.856  -5.284  29.614  1.00  0.00     0.000 C 
BRANCH  19  20
ATOM     20  C   UNL     1       7.619  -6.087  30.908  1.00  0.00     0.000 C 
BRANCH  20  21
ATOM     21  C   UNL     1       6.132  -6.363  31.179  1.00  0.00     0.000 C 
BRANCH  21  22
ATOM     22  C   UNL     1       5.876  -7.865  31.381  1.00  0.00    -0.000 C 
BRANCH  22  23
ATOM     23  C   UNL     1       5.598  -8.600  30.053  1.00  0.00    -0.000 C 
BRANCH  23  24
ATOM     24  C   UNL     1       4.106  -8.700  29.693  1.00  0.00    -0.000 C 
BRANCH  24  25
ATOM     25  C   UNL     1       3.732  -7.875  28.453  1.00  0.00    -0.000 C 
BRANCH  25  26
ATOM     26  C   UNL     1       2.361  -8.290  27.905  1.00  0.00    -0.000 C 
BRANCH  26  27
ATOM     27  C   UNL     1       2.448  -9.641  27.178  1.00  0.00    -0.000 C 
BRANCH  27  28
ATOM     28  C   UNL     1       2.548  -9.484  25.652  1.00  0.00    -0.000 C 
BRANCH  28  29
ATOM     29  C   UNL     1       3.998  -9.326  25.172  1.00  0.00    -0.003 C 
ATOM     30  C   UNL     1       4.961 -10.113  26.058  1.00  0.00     0.004 C 
ENDBRANCH  28  29
ENDBRANCH  27  28
ENDBRANCH  26  27
ENDBRANCH  25  26
ENDBRANCH  24  25
ENDBRANCH  23  24
ENDBRANCH  22  23
ENDBRANCH  21  22
ENDBRANCH  20  21
ENDBRANCH  19  20
ENDBRANCH  18  19
ENDBRANCH  17  18
ENDBRANCH   1  17
TORSDOF 26
ENDMDL
