MODEL 1
REMARK VINA RESULT:    -2.666      0.000      0.000
REMARK INTER + INTRA:          -2.666
REMARK INTER:                  -2.666
REMARK INTRA:                   0.000
REMARK UNBOUND:                 0.000
REMARK SMILES CC(=O)[O-]
REMARK SMILES IDX 1 1 2 2 3 3 4 4
REMARK H PARENT
REMARK Flexibility Score: inf
ROOT
ATOM      1  C   UNL     1      -3.399 -33.026 -51.248  1.00  0.00     0.063 C 
ATOM      2  C   UNL     1      -2.042 -32.974 -50.632  1.00  0.00     0.038 C 
ATOM      3  O   UNL     1      -1.662 -33.895 -49.862  1.00  0.00    -0.550 OA
ATOM      4  O   UNL     1      -1.214 -31.884 -50.863  1.00  0.00    -0.550 OA
ENDROOT
TORSDOF 0
ENDMDL
MODEL 2
REMARK VINA RESULT:    -2.659      5.009      5.702
REMARK INTER + INTRA:          -2.659
REMARK INTER:                  -2.659
REMARK INTRA:                   0.000
REMARK UNBOUND:                 0.000
REMARK SMILES CC(=O)[O-]
REMARK SMILES IDX 1 1 2 2 3 3 4 4
REMARK H PARENT
REMARK Flexibility Score: inf
ROOT
ATOM      1  C   UNL     1      -5.178 -29.966 -52.673  1.00  0.00     0.063 C 
ATOM      2  C   UNL     1      -5.111 -30.279 -54.130  1.00  0.00     0.038 C 
ATOM      3  O   UNL     1      -5.478 -29.424 -54.977  1.00  0.00    -0.550 OA
ATOM      4  O   UNL     1      -4.695 -31.534 -54.554  1.00  0.00    -0.550 OA
ENDROOT
TORSDOF 0
ENDMDL
MODEL 3
REMARK VINA RESULT:    -2.651      5.013      5.523
REMARK INTER + INTRA:          -2.651
REMARK INTER:                  -2.651
REMARK INTRA:                   0.000
REMARK UNBOUND:                 0.000
REMARK SMILES CC(=O)[O-]
REMARK SMILES IDX 1 1 2 2 3 3 4 4
REMARK H PARENT
REMARK Flexibility Score: inf
ROOT
ATOM      1  C   UNL     1      -5.112 -30.051 -52.624  1.00  0.00     0.063 C 
ATOM      2  C   UNL     1      -5.125 -30.298 -54.095  1.00  0.00     0.038 C 
ATOM      3  O   UNL     1      -4.749 -31.409 -54.552  1.00  0.00    -0.550 OA
ATOM      4  O   UNL     1      -5.500 -29.286 -54.967  1.00  0.00    -0.550 OA
ENDROOT
TORSDOF 0
ENDMDL
MODEL 4
REMARK VINA RESULT:    -2.515      6.474      6.683
REMARK INTER + INTRA:          -2.515
REMARK INTER:                  -2.515
REMARK INTRA:                   0.000
REMARK UNBOUND:                 0.000
REMARK SMILES CC(=O)[O-]
REMARK SMILES IDX 1 1 2 2 3 3 4 4
REMARK H PARENT
REMARK Flexibility Score: inf
ROOT
ATOM      1  C   UNL     1      -7.158 -31.241 -49.687  1.00  0.00     0.063 C 
ATOM      2  C   UNL     1      -7.750 -30.099 -48.932  1.00  0.00     0.038 C 
ATOM      3  O   UNL     1      -8.879 -30.218 -48.390  1.00  0.00    -0.550 OA
ATOM      4  O   UNL     1      -7.082 -28.883 -48.872  1.00  0.00    -0.550 OA
ENDROOT
TORSDOF 0
ENDMDL
MODEL 5
REMARK VINA RESULT:    -2.514     12.810     13.361
REMARK INTER + INTRA:          -2.514
REMARK INTER:                  -2.514
REMARK INTRA:                   0.000
REMARK UNBOUND:                 0.000
REMARK SMILES CC(=O)[O-]
REMARK SMILES IDX 1 1 2 2 3 3 4 4
REMARK H PARENT
REMARK Flexibility Score: inf
ROOT
ATOM      1  C   UNL     1     -11.777 -34.650 -42.990  1.00  0.00     0.063 C 
ATOM      2  C   UNL     1     -12.561 -35.902 -43.189  1.00  0.00     0.038 C 
ATOM      3  O   UNL     1     -12.274 -36.684 -44.133  1.00  0.00    -0.550 OA
ATOM      4  O   UNL     1     -13.644 -36.184 -42.367  1.00  0.00    -0.550 OA
ENDROOT
TORSDOF 0
ENDMDL
MODEL 6
REMARK VINA RESULT:    -2.505      7.899      8.301
REMARK INTER + INTRA:          -2.505
REMARK INTER:                  -2.505
REMARK INTRA:                   0.000
REMARK UNBOUND:                 0.000
REMARK SMILES CC(=O)[O-]
REMARK SMILES IDX 1 1 2 2 3 3 4 4
REMARK H PARENT
REMARK Flexibility Score: inf
ROOT
ATOM      1  C   UNL     1      -5.802 -40.813 -48.171  1.00  0.00     0.063 C 
ATOM      2  C   UNL     1      -5.402 -40.305 -49.515  1.00  0.00     0.038 C 
ATOM      3  O   UNL     1      -4.486 -40.878 -50.160  1.00  0.00    -0.550 OA
ATOM      4  O   UNL     1      -6.002 -39.166 -50.035  1.00  0.00    -0.550 OA
ENDROOT
TORSDOF 0
ENDMDL
MODEL 7
REMARK VINA RESULT:    -2.504      6.499      6.848
REMARK INTER + INTRA:          -2.504
REMARK INTER:                  -2.504
REMARK INTRA:                   0.000
REMARK UNBOUND:                 0.000
REMARK SMILES CC(=O)[O-]
REMARK SMILES IDX 1 1 2 2 3 3 4 4
REMARK H PARENT
REMARK Flexibility Score: inf
ROOT
ATOM      1  C   UNL     1      -7.134 -31.256 -49.655  1.00  0.00     0.063 C 
ATOM      2  C   UNL     1      -7.746 -30.082 -48.968  1.00  0.00     0.038 C 
ATOM      3  O   UNL     1      -7.126 -28.989 -48.912  1.00  0.00    -0.550 OA
ATOM      4  O   UNL     1      -8.978 -30.207 -48.340  1.00  0.00    -0.550 OA
ENDROOT
TORSDOF 0
ENDMDL
MODEL 8
REMARK VINA RESULT:    -2.446      2.835      3.117
REMARK INTER + INTRA:          -2.446
REMARK INTER:                  -2.446
REMARK INTRA:                   0.000
REMARK UNBOUND:                 0.000
REMARK SMILES CC(=O)[O-]
REMARK SMILES IDX 1 1 2 2 3 3 4 4
REMARK H PARENT
REMARK Flexibility Score: inf
ROOT
ATOM      1  C   UNL     1      -2.272 -33.387 -51.977  1.00  0.00     0.063 C 
ATOM      2  C   UNL     1      -2.258 -32.574 -53.228  1.00  0.00     0.038 C 
ATOM      3  O   UNL     1      -3.338 -32.173 -53.733  1.00  0.00    -0.550 OA
ATOM      4  O   UNL     1      -1.056 -32.303 -53.868  1.00  0.00    -0.550 OA
ENDROOT
TORSDOF 0
ENDMDL
MODEL 9
REMARK VINA RESULT:    -2.443      6.546      6.879
REMARK INTER + INTRA:          -2.443
REMARK INTER:                  -2.443
REMARK INTRA:                   0.000
REMARK UNBOUND:                 0.000
REMARK SMILES CC(=O)[O-]
REMARK SMILES IDX 1 1 2 2 3 3 4 4
REMARK H PARENT
REMARK Flexibility Score: inf
ROOT
ATOM      1  C   UNL     1      -5.537 -28.288 -51.022  1.00  0.00     0.063 C 
ATOM      2  C   UNL     1      -6.348 -27.773 -49.882  1.00  0.00     0.038 C 
ATOM      3  O   UNL     1      -6.706 -28.552 -48.960  1.00  0.00    -0.550 OA
ATOM      4  O   UNL     1      -6.756 -26.447 -49.860  1.00  0.00    -0.550 OA
ENDROOT
TORSDOF 0
ENDMDL
