MODEL 1
REMARK VINA RESULT:     3.076      0.000      0.000
REMARK INTER + INTRA:           5.296
REMARK INTER:                   4.335
REMARK INTRA:                   0.961
REMARK UNBOUND:                 0.961
REMARK SMILES OC[C@@H]1O[C@H](O[C@@H]2OC=C[C@@H]3[C@H](O)[C@H]4O[C@@]4(CO)[C@@H]23)[C@H](O)[C@@H](O)[C@@H]1O
REMARK SMILES IDX 6 1 7 2 10 3 9 4 11 5 8 6 19 7 12 8 16 9 14 10 15 11 13 12
REMARK SMILES IDX 17 14 18 15 5 17 20 18 4 19 22 20 3 21 24 22 21 23 23 25
REMARK SMILES IDX 2 27 1 28 25 30
REMARK H PARENT 13 13 18 16 21 24 23 26 1 29 25 31
REMARK Flexibility Score: inf
ROOT
ATOM      1  O   UNL     1     -16.015 -35.244 -12.006  1.00  0.00    -0.310 OA
ENDROOT
BRANCH   1   2
ATOM      2  C   UNL     1     -16.481 -35.249 -13.342  1.00  0.00     0.315 C 
ATOM      3  C   UNL     1     -16.798 -36.898 -15.725  1.00  0.00     0.018 C 
ATOM      4  C   UNL     1     -17.563 -37.125 -14.651  1.00  0.00     0.186 C 
ATOM      5  C   UNL     1     -15.930 -35.681 -15.701  1.00  0.00     0.059 C 
ATOM      6  O   UNL     1     -17.441 -36.320 -13.496  1.00  0.00    -0.472 OA
ATOM      7  C   UNL     1     -15.315 -35.511 -14.315  1.00  0.00     0.105 C 
ATOM      8  C   UNL     1     -14.751 -35.576 -16.657  1.00  0.00     0.154 C 
ATOM      9  C   UNL     1     -14.205 -34.462 -14.512  1.00  0.00     0.130 C 
ATOM     10  C   UNL     1     -13.780 -34.623 -15.935  1.00  0.00     0.183 C 
ATOM     11  O   UNL     1     -14.409 -33.442 -15.468  1.00  0.00    -0.360 OA
BRANCH   8  12
ATOM     12  O   UNL     1     -14.156 -36.833 -16.896  1.00  0.00    -0.390 OA
ATOM     13  H   UNL     1     -13.864 -36.855 -17.848  1.00  0.00     0.211 HD
ENDBRANCH   8  12
BRANCH   9  14
ATOM     14  C   UNL     1     -12.995 -34.319 -13.569  1.00  0.00     0.195 C 
BRANCH  14  15
ATOM     15  O   UNL     1     -12.859 -33.005 -13.099  1.00  0.00    -0.393 OA
ATOM     16  H   UNL     1     -12.139 -32.581 -13.629  1.00  0.00     0.210 HD
ENDBRANCH  14  15
ENDBRANCH   9  14
ENDBRANCH   1   2
BRANCH   1  17
ATOM     17  C   UNL     1     -16.282 -36.445 -11.279  1.00  0.00     0.286 C 
ATOM     18  C   UNL     1     -17.749 -36.685 -10.809  1.00  0.00     0.202 C 
ATOM     19  O   UNL     1     -15.222 -36.759 -10.377  1.00  0.00    -0.341 OA
ATOM     20  C   UNL     1     -17.955 -36.336  -9.334  1.00  0.00     0.179 C 
ATOM     21  C   UNL     1     -15.480 -36.752  -8.974  1.00  0.00     0.178 C 
ATOM     22  C   UNL     1     -16.918 -37.124  -8.538  1.00  0.00     0.177 C 
BRANCH  18  23
ATOM     23  O   UNL     1     -18.651 -35.982 -11.625  1.00  0.00    -0.385 OA
ATOM     24  H   UNL     1     -19.543 -36.409 -11.518  1.00  0.00     0.211 HD
ENDBRANCH  18  23
BRANCH  20  25
ATOM     25  O   UNL     1     -19.243 -36.725  -8.925  1.00  0.00    -0.387 OA
ATOM     26  H   UNL     1     -19.163 -37.026  -7.978  1.00  0.00     0.211 HD
ENDBRANCH  20  25
BRANCH  21  27
ATOM     27  C   UNL     1     -14.929 -35.461  -8.317  1.00  0.00     0.191 C 
BRANCH  27  28
ATOM     28  O   UNL     1     -13.579 -35.275  -8.666  1.00  0.00    -0.394 OA
ATOM     29  H   UNL     1     -13.419 -35.777  -9.510  1.00  0.00     0.210 HD
ENDBRANCH  27  28
ENDBRANCH  21  27
BRANCH  22  30
ATOM     30  O   UNL     1     -17.073 -36.888  -7.162  1.00  0.00    -0.387 OA
ATOM     31  H   UNL     1     -16.206 -36.534  -6.829  1.00  0.00     0.211 HD
ENDBRANCH  22  30
ENDBRANCH   1  17
TORSDOF 10
ENDMDL
MODEL 2
REMARK VINA RESULT:     3.162      1.400      6.330
REMARK INTER + INTRA:           5.417
REMARK INTER:                   5.341
REMARK INTRA:                   0.077
REMARK UNBOUND:                 0.961
REMARK SMILES OC[C@@H]1O[C@H](O[C@@H]2OC=C[C@@H]3[C@H](O)[C@H]4O[C@@]4(CO)[C@@H]23)[C@H](O)[C@@H](O)[C@@H]1O
REMARK SMILES IDX 6 1 7 2 10 3 9 4 11 5 8 6 19 7 12 8 16 9 14 10 15 11 13 12
REMARK SMILES IDX 17 14 18 15 5 17 20 18 4 19 22 20 3 21 24 22 21 23 23 25
REMARK SMILES IDX 2 27 1 28 25 30
REMARK H PARENT 13 13 18 16 21 24 23 26 1 29 25 31
REMARK Flexibility Score: inf
ROOT
ATOM      1  O   UNL     1     -14.879 -35.917 -12.238  1.00  0.00    -0.310 OA
ENDROOT
BRANCH   1   2
ATOM      2  C   UNL     1     -15.848 -36.801 -11.709  1.00  0.00     0.315 C 
ATOM      3  C   UNL     1     -18.685 -37.112 -11.115  1.00  0.00     0.018 C 
ATOM      4  C   UNL     1     -18.267 -37.113 -12.385  1.00  0.00     0.186 C 
ATOM      5  C   UNL     1     -17.636 -37.124 -10.050  1.00  0.00     0.059 C 
ATOM      6  O   UNL     1     -16.892 -36.988 -12.692  1.00  0.00    -0.472 OA
ATOM      7  C   UNL     1     -16.489 -36.199 -10.442  1.00  0.00     0.105 C 
ATOM      8  C   UNL     1     -17.996 -36.703  -8.632  1.00  0.00     0.154 C 
ATOM      9  C   UNL     1     -15.667 -36.032  -9.150  1.00  0.00     0.130 C 
ATOM     10  C   UNL     1     -16.658 -36.213  -8.046  1.00  0.00     0.183 C 
ATOM     11  O   UNL     1     -15.594 -37.125  -8.257  1.00  0.00    -0.360 OA
BRANCH   8  12
ATOM     12  O   UNL     1     -18.969 -35.682  -8.618  1.00  0.00    -0.390 OA
ATOM     13  H   UNL     1     -19.842 -36.090  -8.871  1.00  0.00     0.211 HD
ENDBRANCH   8  12
BRANCH   9  14
ATOM     14  C   UNL     1     -14.732 -34.836  -8.886  1.00  0.00     0.195 C 
BRANCH  14  15
ATOM     15  O   UNL     1     -13.487 -35.253  -8.396  1.00  0.00    -0.393 OA
ATOM     16  H   UNL     1     -12.818 -35.052  -9.096  1.00  0.00     0.210 HD
ENDBRANCH  14  15
ENDBRANCH   9  14
ENDBRANCH   1   2
BRANCH   1  17
ATOM     17  C   UNL     1     -15.329 -35.134 -13.345  1.00  0.00     0.286 C 
ATOM     18  C   UNL     1     -15.110 -35.723 -14.772  1.00  0.00     0.202 C 
ATOM     19  O   UNL     1     -15.082 -33.744 -13.140  1.00  0.00    -0.341 OA
ATOM     20  C   UNL     1     -13.896 -35.114 -15.475  1.00  0.00     0.179 C 
ATOM     21  C   UNL     1     -14.173 -33.067 -14.007  1.00  0.00     0.178 C 
ATOM     22  C   UNL     1     -14.080 -33.599 -15.457  1.00  0.00     0.177 C 
BRANCH  18  23
ATOM     23  O   UNL     1     -15.014 -37.123 -14.720  1.00  0.00    -0.385 OA
ATOM     24  H   UNL     1     -15.835 -37.461 -14.274  1.00  0.00     0.211 HD
ENDBRANCH  18  23
BRANCH  20  25
ATOM     25  O   UNL     1     -13.843 -35.556 -16.810  1.00  0.00    -0.387 OA
ATOM     26  H   UNL     1     -13.453 -36.473 -16.791  1.00  0.00     0.211 HD
ENDBRANCH  20  25
BRANCH  21  27
ATOM     27  C   UNL     1     -12.803 -32.857 -13.315  1.00  0.00     0.191 C 
BRANCH  27  28
ATOM     28  O   UNL     1     -11.774 -33.419 -14.093  1.00  0.00    -0.394 OA
ATOM     29  H   UNL     1     -10.911 -33.076 -13.737  1.00  0.00     0.210 HD
ENDBRANCH  27  28
ENDBRANCH  21  27
BRANCH  22  30
ATOM     30  O   UNL     1     -13.019 -32.967 -16.127  1.00  0.00    -0.387 OA
ATOM     31  H   UNL     1     -13.314 -32.821 -17.065  1.00  0.00     0.211 HD
ENDBRANCH  22  30
ENDBRANCH   1  17
TORSDOF 10
ENDMDL
MODEL 3
REMARK VINA RESULT:     4.416      1.526      2.051
REMARK INTER + INTRA:           7.183
REMARK INTER:                   7.536
REMARK INTRA:                  -0.353
REMARK UNBOUND:                 0.961
REMARK SMILES OC[C@@H]1O[C@H](O[C@@H]2OC=C[C@@H]3[C@H](O)[C@H]4O[C@@]4(CO)[C@@H]23)[C@H](O)[C@@H](O)[C@@H]1O
REMARK SMILES IDX 6 1 7 2 10 3 9 4 11 5 8 6 19 7 12 8 16 9 14 10 15 11 13 12
REMARK SMILES IDX 17 14 18 15 5 17 20 18 4 19 22 20 3 21 24 22 21 23 23 25
REMARK SMILES IDX 2 27 1 28 25 30
REMARK H PARENT 13 13 18 16 21 24 23 26 1 29 25 31
REMARK Flexibility Score: inf
ROOT
ATOM      1  O   UNL     1     -16.176 -34.910 -13.288  1.00  0.00    -0.310 OA
ENDROOT
BRANCH   1   2
ATOM      2  C   UNL     1     -15.592 -34.971 -14.575  1.00  0.00     0.315 C 
ATOM      3  C   UNL     1     -13.859 -36.550 -16.307  1.00  0.00     0.018 C 
ATOM      4  C   UNL     1     -15.084 -36.995 -16.007  1.00  0.00     0.186 C 
ATOM      5  C   UNL     1     -13.508 -35.164 -15.869  1.00  0.00     0.059 C 
ATOM      6  O   UNL     1     -15.947 -36.231 -15.188  1.00  0.00    -0.472 OA
ATOM      7  C   UNL     1     -14.055 -34.910 -14.468  1.00  0.00     0.105 C 
ATOM      8  C   UNL     1     -12.047 -34.745 -15.790  1.00  0.00     0.154 C 
ATOM      9  C   UNL     1     -13.349 -33.621 -14.006  1.00  0.00     0.130 C 
ATOM     10  C   UNL     1     -12.047 -33.620 -14.738  1.00  0.00     0.183 C 
ATOM     11  O   UNL     1     -13.043 -32.640 -14.977  1.00  0.00    -0.360 OA
BRANCH   8  12
ATOM     12  O   UNL     1     -11.215 -35.815 -15.398  1.00  0.00    -0.390 OA
ATOM     13  H   UNL     1     -10.378 -35.428 -15.021  1.00  0.00     0.211 HD
ENDBRANCH   8  12
BRANCH   9  14
ATOM     14  C   UNL     1     -13.171 -33.234 -12.526  1.00  0.00     0.195 C 
BRANCH  14  15
ATOM     15  O   UNL     1     -12.211 -32.226 -12.368  1.00  0.00    -0.393 OA
ATOM     16  H   UNL     1     -11.753 -32.393 -11.507  1.00  0.00     0.210 HD
ENDBRANCH  14  15
ENDBRANCH   9  14
ENDBRANCH   1   2
BRANCH   1  17
ATOM     17  C   UNL     1     -16.447 -36.182 -12.697  1.00  0.00     0.286 C 
ATOM     18  C   UNL     1     -17.941 -36.609 -12.573  1.00  0.00     0.202 C 
ATOM     19  O   UNL     1     -15.573 -36.448 -11.601  1.00  0.00    -0.341 OA
ATOM     20  C   UNL     1     -18.495 -36.395 -11.164  1.00  0.00     0.179 C 
ATOM     21  C   UNL     1     -16.122 -36.572 -10.291  1.00  0.00     0.178 C 
ATOM     22  C   UNL     1     -17.565 -37.125 -10.199  1.00  0.00     0.177 C 
BRANCH  18  23
ATOM     23  O   UNL     1     -18.726 -35.948 -13.531  1.00  0.00    -0.385 OA
ATOM     24  H   UNL     1     -18.831 -35.006 -13.230  1.00  0.00     0.211 HD
ENDBRANCH  18  23
BRANCH  20  25
ATOM     25  O   UNL     1     -19.785 -36.946 -11.067  1.00  0.00    -0.387 OA
ATOM     26  H   UNL     1     -20.423 -36.229 -11.336  1.00  0.00     0.211 HD
ENDBRANCH  20  25
BRANCH  21  27
ATOM     27  C   UNL     1     -15.881 -35.282  -9.466  1.00  0.00     0.191 C 
BRANCH  27  28
ATOM     28  O   UNL     1     -15.829 -35.584  -8.093  1.00  0.00    -0.394 OA
ATOM     29  H   UNL     1     -16.020 -36.555  -7.995  1.00  0.00     0.210 HD
ENDBRANCH  27  28
ENDBRANCH  21  27
BRANCH  22  30
ATOM     30  O   UNL     1     -18.036 -37.009  -8.881  1.00  0.00    -0.387 OA
ATOM     31  H   UNL     1     -18.884 -37.523  -8.829  1.00  0.00     0.211 HD
ENDBRANCH  22  30
ENDBRANCH   1  17
TORSDOF 10
ENDMDL
MODEL 4
REMARK VINA RESULT:     4.672      1.206      3.691
REMARK INTER + INTRA:           7.544
REMARK INTER:                   8.326
REMARK INTRA:                  -0.782
REMARK UNBOUND:                 0.961
REMARK SMILES OC[C@@H]1O[C@H](O[C@@H]2OC=C[C@@H]3[C@H](O)[C@H]4O[C@@]4(CO)[C@@H]23)[C@H](O)[C@@H](O)[C@@H]1O
REMARK SMILES IDX 6 1 7 2 10 3 9 4 11 5 8 6 19 7 12 8 16 9 14 10 15 11 13 12
REMARK SMILES IDX 17 14 18 15 5 17 20 18 4 19 22 20 3 21 24 22 21 23 23 25
REMARK SMILES IDX 2 27 1 28 25 30
REMARK H PARENT 13 13 18 16 21 24 23 26 1 29 25 31
REMARK Flexibility Score: inf
ROOT
ATOM      1  O   UNL     1     -15.679 -36.878 -12.064  1.00  0.00    -0.310 OA
ENDROOT
BRANCH   1   2
ATOM      2  C   UNL     1     -14.676 -36.325 -12.894  1.00  0.00     0.315 C 
ATOM      3  C   UNL     1     -13.674 -33.844 -14.053  1.00  0.00     0.018 C 
ATOM      4  C   UNL     1     -13.539 -34.069 -12.741  1.00  0.00     0.186 C 
ATOM      5  C   UNL     1     -14.185 -34.972 -14.890  1.00  0.00     0.059 C 
ATOM      6  O   UNL     1     -13.997 -35.276 -12.165  1.00  0.00    -0.472 OA
ATOM      7  C   UNL     1     -15.307 -35.698 -14.153  1.00  0.00     0.105 C 
ATOM      8  C   UNL     1     -14.759 -34.687 -16.271  1.00  0.00     0.154 C 
ATOM      9  C   UNL     1     -15.965 -36.585 -15.227  1.00  0.00     0.130 C 
ATOM     10  C   UNL     1     -15.728 -35.860 -16.512  1.00  0.00     0.183 C 
ATOM     11  O   UNL     1     -15.145 -37.124 -16.244  1.00  0.00    -0.360 OA
BRANCH   8  12
ATOM     12  O   UNL     1     -15.431 -33.448 -16.314  1.00  0.00    -0.390 OA
ATOM     13  H   UNL     1     -14.930 -32.809 -15.736  1.00  0.00     0.211 HD
ENDBRANCH   8  12
BRANCH   9  14
ATOM     14  C   UNL     1     -17.410 -37.110 -15.126  1.00  0.00     0.195 C 
BRANCH  14  15
ATOM     15  O   UNL     1     -18.235 -36.219 -14.427  1.00  0.00    -0.393 OA
ATOM     16  H   UNL     1     -19.010 -36.022 -15.011  1.00  0.00     0.210 HD
ENDBRANCH  14  15
ENDBRANCH   9  14
ENDBRANCH   1   2
BRANCH   1  17
ATOM     17  C   UNL     1     -16.190 -35.985 -11.072  1.00  0.00     0.286 C 
ATOM     18  C   UNL     1     -15.831 -36.289  -9.585  1.00  0.00     0.202 C 
ATOM     19  O   UNL     1     -17.519 -35.565 -11.376  1.00  0.00    -0.341 OA
ATOM     20  C   UNL     1     -16.974 -36.978  -8.838  1.00  0.00     0.179 C 
ATOM     21  C   UNL     1     -18.581 -35.937 -10.499  1.00  0.00     0.178 C 
ATOM     22  C   UNL     1     -18.212 -36.102  -9.005  1.00  0.00     0.177 C 
BRANCH  18  23
ATOM     23  O   UNL     1     -14.649 -37.043  -9.506  1.00  0.00    -0.385 OA
ATOM     24  H   UNL     1     -14.548 -37.340  -8.562  1.00  0.00     0.211 HD
ENDBRANCH  18  23
BRANCH  20  25
ATOM     25  O   UNL     1     -16.661 -37.079  -7.471  1.00  0.00    -0.387 OA
ATOM     26  H   UNL     1     -17.511 -36.932  -6.972  1.00  0.00     0.211 HD
ENDBRANCH  20  25
BRANCH  21  27
ATOM     27  C   UNL     1     -19.398 -37.115 -11.088  1.00  0.00     0.191 C 
BRANCH  27  28
ATOM     28  O   UNL     1     -19.414 -37.042 -12.492  1.00  0.00    -0.394 OA
ATOM     29  H   UNL     1     -19.439 -36.079 -12.740  1.00  0.00     0.210 HD
ENDBRANCH  27  28
ENDBRANCH  21  27
BRANCH  22  30
ATOM     30  O   UNL     1     -19.300 -36.651  -8.305  1.00  0.00    -0.387 OA
ATOM     31  H   UNL     1     -19.040 -36.686  -7.347  1.00  0.00     0.211 HD
ENDBRANCH  22  30
ENDBRANCH   1  17
TORSDOF 10
ENDMDL
MODEL 5
REMARK VINA RESULT:     5.084      1.851      5.661
REMARK INTER + INTRA:           8.125
REMARK INTER:                   5.976
REMARK INTRA:                   2.149
REMARK UNBOUND:                 0.961
REMARK SMILES OC[C@@H]1O[C@H](O[C@@H]2OC=C[C@@H]3[C@H](O)[C@H]4O[C@@]4(CO)[C@@H]23)[C@H](O)[C@@H](O)[C@@H]1O
REMARK SMILES IDX 6 1 7 2 10 3 9 4 11 5 8 6 19 7 12 8 16 9 14 10 15 11 13 12
REMARK SMILES IDX 17 14 18 15 5 17 20 18 4 19 22 20 3 21 24 22 21 23 23 25
REMARK SMILES IDX 2 27 1 28 25 30
REMARK H PARENT 13 13 18 16 21 24 23 26 1 29 25 31
REMARK Flexibility Score: inf
ROOT
ATOM      1  O   UNL     1     -16.515 -34.612 -14.932  1.00  0.00    -0.310 OA
ENDROOT
BRANCH   1   2
ATOM      2  C   UNL     1     -16.953 -35.830 -14.360  1.00  0.00     0.315 C 
ATOM      3  C   UNL     1     -18.946 -37.031 -12.604  1.00  0.00     0.018 C 
ATOM      4  C   UNL     1     -19.306 -36.585 -13.813  1.00  0.00     0.186 C 
ATOM      5  C   UNL     1     -17.485 -37.044 -12.287  1.00  0.00     0.059 C 
ATOM      6  O   UNL     1     -18.349 -36.021 -14.688  1.00  0.00    -0.472 OA
ATOM      7  C   UNL     1     -16.827 -35.777 -12.825  1.00  0.00     0.105 C 
ATOM      8  C   UNL     1     -17.028 -37.125 -10.838  1.00  0.00     0.154 C 
ATOM      9  C   UNL     1     -15.443 -35.744 -12.150  1.00  0.00     0.130 C 
ATOM     10  C   UNL     1     -15.635 -36.468 -10.857  1.00  0.00     0.183 C 
ATOM     11  O   UNL     1     -14.799 -36.974 -11.883  1.00  0.00    -0.360 OA
BRANCH   8  12
ATOM     12  O   UNL     1     -17.907 -36.442  -9.972  1.00  0.00    -0.390 OA
ATOM     13  H   UNL     1     -17.831 -35.468 -10.167  1.00  0.00     0.211 HD
ENDBRANCH   8  12
BRANCH   9  14
ATOM     14  C   UNL     1     -14.618 -34.457 -11.965  1.00  0.00     0.195 C 
BRANCH  14  15
ATOM     15  O   UNL     1     -15.094 -33.418 -12.776  1.00  0.00    -0.393 OA
ATOM     16  H   UNL     1     -15.748 -32.906 -12.238  1.00  0.00     0.210 HD
ENDBRANCH  14  15
ENDBRANCH   9  14
ENDBRANCH   1   2
BRANCH   1  17
ATOM     17  C   UNL     1     -15.387 -34.734 -15.799  1.00  0.00     0.286 C 
ATOM     18  C   UNL     1     -14.584 -36.069 -15.744  1.00  0.00     0.202 C 
ATOM     19  O   UNL     1     -14.660 -33.509 -15.891  1.00  0.00    -0.341 OA
ATOM     20  C   UNL     1     -13.304 -35.947 -14.916  1.00  0.00     0.179 C 
ATOM     21  C   UNL     1     -13.321 -33.460 -15.402  1.00  0.00     0.178 C 
ATOM     22  C   UNL     1     -12.510 -34.775 -15.485  1.00  0.00     0.177 C 
BRANCH  18  23
ATOM     23  O   UNL     1     -15.394 -37.114 -15.273  1.00  0.00    -0.385 OA
ATOM     24  H   UNL     1     -16.340 -36.829 -15.383  1.00  0.00     0.211 HD
ENDBRANCH  18  23
BRANCH  20  25
ATOM     25  O   UNL     1     -12.542 -37.123 -15.036  1.00  0.00    -0.387 OA
ATOM     26  H   UNL     1     -11.704 -36.974 -14.517  1.00  0.00     0.211 HD
ENDBRANCH  20  25
BRANCH  21  27
ATOM     27  C   UNL     1     -13.262 -32.761 -14.020  1.00  0.00     0.191 C 
BRANCH  27  28
ATOM     28  O   UNL     1     -11.975 -32.242 -13.791  1.00  0.00    -0.394 OA
ATOM     29  H   UNL     1     -11.858 -31.460 -14.394  1.00  0.00     0.210 HD
ENDBRANCH  27  28
ENDBRANCH  21  27
BRANCH  22  30
ATOM     30  O   UNL     1     -11.293 -34.627 -14.798  1.00  0.00    -0.387 OA
ATOM     31  H   UNL     1     -10.780 -35.468 -14.932  1.00  0.00     0.211 HD
ENDBRANCH  22  30
ENDBRANCH   1  17
TORSDOF 10
ENDMDL
MODEL 6
REMARK VINA RESULT:     5.276      9.356     11.953
REMARK INTER + INTRA:           8.396
REMARK INTER:                   8.172
REMARK INTRA:                   0.225
REMARK UNBOUND:                 0.961
REMARK SMILES OC[C@@H]1O[C@H](O[C@@H]2OC=C[C@@H]3[C@H](O)[C@H]4O[C@@]4(CO)[C@@H]23)[C@H](O)[C@@H](O)[C@@H]1O
REMARK SMILES IDX 6 1 7 2 10 3 9 4 11 5 8 6 19 7 12 8 16 9 14 10 15 11 13 12
REMARK SMILES IDX 17 14 18 15 5 17 20 18 4 19 22 20 3 21 24 22 21 23 23 25
REMARK SMILES IDX 2 27 1 28 25 30
REMARK H PARENT 13 13 18 16 21 24 23 26 1 29 25 31
REMARK Flexibility Score: inf
ROOT
ATOM      1  O   UNL     1     -10.379 -26.308 -11.130  1.00  0.00    -0.310 OA
ENDROOT
BRANCH   1   2
ATOM      2  C   UNL     1     -10.080 -26.607 -12.480  1.00  0.00     0.315 C 
ATOM      3  C   UNL     1      -9.788 -25.457 -15.143  1.00  0.00     0.018 C 
ATOM      4  C   UNL     1      -8.875 -25.196 -14.201  1.00  0.00     0.186 C 
ATOM      5  C   UNL     1     -10.831 -26.478 -14.820  1.00  0.00     0.059 C 
ATOM      6  O   UNL     1      -8.987 -25.764 -12.912  1.00  0.00    -0.472 OA
ATOM      7  C   UNL     1     -11.297 -26.305 -13.378  1.00  0.00     0.105 C 
ATOM      8  C   UNL     1     -12.118 -26.526 -15.632  1.00  0.00     0.154 C 
ATOM      9  C   UNL     1     -12.577 -27.156 -13.279  1.00  0.00     0.130 C 
ATOM     10  C   UNL     1     -13.137 -27.158 -14.665  1.00  0.00     0.183 C 
ATOM     11  O   UNL     1     -12.654 -28.340 -14.048  1.00  0.00    -0.360 OA
BRANCH   8  12
ATOM     12  O   UNL     1     -12.528 -25.241 -16.043  1.00  0.00    -0.390 OA
ATOM     13  H   UNL     1     -13.451 -25.091 -15.700  1.00  0.00     0.211 HD
ENDBRANCH   8  12
BRANCH   9  14
ATOM     14  C   UNL     1     -13.673 -26.923 -12.223  1.00  0.00     0.195 C 
BRANCH  14  15
ATOM     15  O   UNL     1     -14.494 -25.839 -12.561  1.00  0.00    -0.393 OA
ATOM     16  H   UNL     1     -14.951 -25.551 -11.732  1.00  0.00     0.210 HD
ENDBRANCH  14  15
ENDBRANCH   9  14
ENDBRANCH   1   2
BRANCH   1  17
ATOM     17  C   UNL     1      -9.262 -25.863 -10.358  1.00  0.00     0.286 C 
ATOM     18  C   UNL     1      -8.877 -26.708  -9.106  1.00  0.00     0.202 C 
ATOM     19  O   UNL     1      -9.231 -24.440 -10.252  1.00  0.00    -0.341 OA
ATOM     20  C   UNL     1      -9.388 -26.089  -7.804  1.00  0.00     0.179 C 
ATOM     21  C   UNL     1      -9.390 -23.837  -8.969  1.00  0.00     0.178 C 
ATOM     22  C   UNL     1      -8.875 -24.652  -7.758  1.00  0.00     0.177 C 
BRANCH  18  23
ATOM     23  O   UNL     1      -9.324 -28.031  -9.246  1.00  0.00    -0.385 OA
ATOM     24  H   UNL     1     -10.318 -28.015  -9.206  1.00  0.00     0.211 HD
ENDBRANCH  18  23
BRANCH  20  25
ATOM     25  O   UNL     1      -8.875 -26.797  -6.702  1.00  0.00    -0.387 OA
ATOM     26  H   UNL     1      -8.483 -26.120  -6.085  1.00  0.00     0.211 HD
ENDBRANCH  20  25
BRANCH  21  27
ATOM     27  C   UNL     1     -10.824 -23.276  -8.796  1.00  0.00     0.191 C 
BRANCH  27  28
ATOM     28  O   UNL     1     -10.953 -22.648  -7.544  1.00  0.00    -0.394 OA
ATOM     29  H   UNL     1     -11.007 -21.669  -7.707  1.00  0.00     0.210 HD
ENDBRANCH  27  28
ENDBRANCH  21  27
BRANCH  22  30
ATOM     30  O   UNL     1      -9.270 -24.028  -6.563  1.00  0.00    -0.387 OA
ATOM     31  H   UNL     1     -10.018 -23.415  -6.790  1.00  0.00     0.211 HD
ENDBRANCH  22  30
ENDBRANCH   1  17
TORSDOF 10
ENDMDL
