MODEL 1
REMARK VINA RESULT:    -5.526      0.000      0.000
REMARK INTER + INTRA:          -7.458
REMARK INTER:                  -8.110
REMARK INTRA:                   0.652
REMARK UNBOUND:                 0.652
REMARK SMILES C=C1CC=CC(C)(C)CC=C(C)CCC1
REMARK SMILES IDX 2 1 1 2 15 3 14 4 13 5 11 6 12 7 10 8 3 10 4 11 5 12 6 13
REMARK SMILES IDX 7 14 8 15 9 16
REMARK H PARENT
REMARK Flexibility Score: 60.00
ROOT
ATOM      1  C   UNL     1      -1.996 -14.250  10.074  1.00  0.00    -0.074 C 
ATOM      2  C   UNL     1      -2.014 -13.380  11.098  1.00  0.00     0.008 C 
ENDROOT
BRANCH   1   3
ATOM      3  C   UNL     1      -1.864 -15.737  10.369  1.00  0.00     0.031 C 
BRANCH   3   4
ATOM      4  C   UNL     1      -2.899 -16.243  11.398  1.00  0.00     0.009 C 
BRANCH   4   5
ATOM      5  C   UNL     1      -4.274 -16.507  10.746  1.00  0.00     0.030 C 
BRANCH   5   6
ATOM      6  C   UNL     1      -4.231 -17.446   9.550  1.00  0.00    -0.077 C 
ATOM      7  C   UNL     1      -3.590 -18.801   9.711  1.00  0.00     0.039 C 
ATOM      8  C   UNL     1      -4.831 -17.162   8.367  1.00  0.00    -0.027 CG0
ATOM      9  G   UNL     1      -5.439 -15.826   8.010  1.00  0.00     0.000 G0
ENDBRANCH   5   6
ENDBRANCH   4   5
ENDBRANCH   3   4
ENDBRANCH   1   3
BRANCH   1  10
ATOM     10  C   UNL     1      -2.227 -13.780   8.644  1.00  0.00     0.057 C 
BRANCH  10  11
ATOM     11  C   UNL     1      -2.225 -14.876   7.585  1.00  0.00    -0.026 C 
ATOM     12  C   UNL     1      -3.250 -15.371   6.839  1.00  0.00    -0.024 C 
BRANCH  12  13
ATOM     13  C   UNL     1      -4.746 -15.022   6.871  1.00  0.00    -0.014 C 
ATOM     14  C   UNL     1      -5.372 -15.468   5.526  1.00  0.00     0.016 C 
ATOM     15  C   UNL     1      -4.942 -13.490   6.957  1.00  0.00     0.016 C 
BRANCH  13  16
ATOM     16  C   UNL     1      -5.443 -15.828   8.004  1.00  0.00     0.038 CG0
ATOM     17  G   UNL     1      -4.837 -17.169   8.347  1.00  0.00     0.000 G0
ENDBRANCH  13  16
ENDBRANCH  12  13
ENDBRANCH  10  11
ENDBRANCH   1  10
TORSDOF 0
ENDMDL
MODEL 2
REMARK VINA RESULT:    -5.399      1.527      3.393
REMARK INTER + INTRA:          -7.271
REMARK INTER:                  -7.457
REMARK INTRA:                   0.186
REMARK UNBOUND:                 0.652
REMARK SMILES C=C1CC=CC(C)(C)CC=C(C)CCC1
REMARK SMILES IDX 2 1 1 2 15 3 14 4 13 5 11 6 12 7 10 8 3 10 4 11 5 12 6 13
REMARK SMILES IDX 7 14 8 15 9 16
REMARK H PARENT
REMARK Flexibility Score: 60.00
ROOT
ATOM      1  C   UNL     1      -2.778 -16.472  11.752  1.00  0.00    -0.074 C 
ATOM      2  C   UNL     1      -1.758 -16.959  12.479  1.00  0.00     0.008 C 
ENDROOT
BRANCH   1   3
ATOM      3  C   UNL     1      -3.155 -15.005  11.896  1.00  0.00     0.031 C 
BRANCH   3   4
ATOM      4  C   UNL     1      -1.992 -14.046  11.559  1.00  0.00     0.009 C 
BRANCH   4   5
ATOM      5  C   UNL     1      -2.057 -13.558  10.095  1.00  0.00     0.030 C 
BRANCH   5   6
ATOM      6  C   UNL     1      -1.364 -14.474   9.097  1.00  0.00    -0.077 C 
ATOM      7  C   UNL     1       0.113 -14.734   9.252  1.00  0.00     0.039 C 
ATOM      8  C   UNL     1      -2.030 -15.150   8.129  1.00  0.00    -0.027 CG0
ATOM      9  G   UNL     1      -3.487 -14.943   7.783  1.00  0.00     0.000 G0
ENDBRANCH   5   6
ENDBRANCH   4   5
ENDBRANCH   3   4
ENDBRANCH   1   3
BRANCH   1  10
ATOM     10  C   UNL     1      -3.474 -17.333  10.707  1.00  0.00     0.057 C 
BRANCH  10  11
ATOM     11  C   UNL     1      -4.819 -16.811  10.218  1.00  0.00    -0.026 C 
ATOM     12  C   UNL     1      -5.193 -16.387   8.979  1.00  0.00    -0.024 C 
BRANCH  12  13
ATOM     13  C   UNL     1      -4.360 -16.243   7.697  1.00  0.00    -0.014 C 
ATOM     14  C   UNL     1      -5.336 -16.070   6.507  1.00  0.00     0.016 C 
ATOM     15  C   UNL     1      -3.561 -17.539   7.424  1.00  0.00     0.016 C 
BRANCH  13  16
ATOM     16  C   UNL     1      -3.492 -14.954   7.784  1.00  0.00     0.038 CG0
ATOM     17  G   UNL     1      -2.033 -15.146   8.128  1.00  0.00     0.000 G0
ENDBRANCH  13  16
ENDBRANCH  12  13
ENDBRANCH  10  11
ENDBRANCH   1  10
TORSDOF 0
ENDMDL
MODEL 3
REMARK VINA RESULT:    -5.255      1.575      4.057
REMARK INTER + INTRA:          -7.060
REMARK INTER:                  -8.102
REMARK INTRA:                   1.042
REMARK UNBOUND:                 0.652
REMARK SMILES C=C1CC=CC(C)(C)CC=C(C)CCC1
REMARK SMILES IDX 2 1 1 2 15 3 14 4 13 5 11 6 12 7 10 8 3 10 4 11 5 12 6 13
REMARK SMILES IDX 7 14 8 15 9 16
REMARK H PARENT
REMARK Flexibility Score: 60.00
ROOT
ATOM      1  C   UNL     1      -4.843 -15.821   6.698  1.00  0.00    -0.074 C 
ATOM      2  C   UNL     1      -5.640 -15.760   5.616  1.00  0.00     0.008 C 
ENDROOT
BRANCH   1   3
ATOM      3  C   UNL     1      -5.115 -16.878   7.758  1.00  0.00     0.031 C 
BRANCH   3   4
ATOM      4  C   UNL     1      -3.856 -17.688   8.140  1.00  0.00     0.009 C 
BRANCH   4   5
ATOM      5  C   UNL     1      -3.718 -17.844   9.670  1.00  0.00     0.030 C 
BRANCH   5   6
ATOM      6  C   UNL     1      -4.212 -16.648  10.470  1.00  0.00    -0.077 C 
ATOM      7  C   UNL     1      -5.670 -16.576  10.846  1.00  0.00     0.039 C 
ATOM      8  C   UNL     1      -3.384 -15.687  10.948  1.00  0.00    -0.027 CG0
ATOM      9  G   UNL     1      -1.920 -15.560  10.597  1.00  0.00     0.000 G0
ENDBRANCH   5   6
ENDBRANCH   4   5
ENDBRANCH   3   4
ENDBRANCH   1   3
BRANCH   1  10
ATOM     10  C   UNL     1      -3.612 -14.933   6.813  1.00  0.00     0.057 C 
BRANCH  10  11
ATOM     11  C   UNL     1      -3.630 -13.933   7.963  1.00  0.00    -0.026 C 
ATOM     12  C   UNL     1      -2.774 -13.794   9.012  1.00  0.00    -0.024 C 
BRANCH  12  13
ATOM     13  C   UNL     1      -1.552 -14.639   9.402  1.00  0.00    -0.014 C 
ATOM     14  C   UNL     1      -0.438 -13.678   9.887  1.00  0.00     0.016 C 
ATOM     15  C   UNL     1      -0.987 -15.373   8.164  1.00  0.00     0.016 C 
BRANCH  13  16
ATOM     16  C   UNL     1      -1.922 -15.569  10.593  1.00  0.00     0.038 CG0
ATOM     17  G   UNL     1      -3.389 -15.664  10.942  1.00  0.00     0.000 G0
ENDBRANCH  13  16
ENDBRANCH  12  13
ENDBRANCH  10  11
ENDBRANCH   1  10
TORSDOF 0
ENDMDL
MODEL 4
REMARK VINA RESULT:    -5.184      1.985      5.015
REMARK INTER + INTRA:          -6.956
REMARK INTER:                  -7.699
REMARK INTRA:                   0.743
REMARK UNBOUND:                 0.652
REMARK SMILES C=C1CC=CC(C)(C)CC=C(C)CCC1
REMARK SMILES IDX 2 1 1 2 15 3 14 4 13 5 11 6 12 7 10 8 3 10 4 11 5 12 6 13
REMARK SMILES IDX 7 14 8 15 9 16
REMARK H PARENT
REMARK Flexibility Score: 60.00
ROOT
ATOM      1  C   UNL     1      -3.780 -17.827   8.657  1.00  0.00    -0.074 C 
ATOM      2  C   UNL     1      -3.141 -18.720   7.880  1.00  0.00     0.008 C 
ENDROOT
BRANCH   1   3
ATOM      3  C   UNL     1      -4.609 -16.734   8.000  1.00  0.00     0.031 C 
BRANCH   3   4
ATOM      4  C   UNL     1      -3.747 -15.661   7.297  1.00  0.00     0.009 C 
BRANCH   4   5
ATOM      5  C   UNL     1      -3.189 -14.627   8.299  1.00  0.00     0.030 C 
BRANCH   5   6
ATOM      6  C   UNL     1      -1.834 -14.990   8.887  1.00  0.00    -0.077 C 
ATOM      7  C   UNL     1      -0.757 -15.507   7.967  1.00  0.00     0.039 C 
ATOM      8  C   UNL     1      -1.513 -14.779  10.187  1.00  0.00    -0.027 CG0
ATOM      9  G   UNL     1      -2.491 -14.350  11.256  1.00  0.00     0.000 G0
ENDBRANCH   5   6
ENDBRANCH   4   5
ENDBRANCH   3   4
ENDBRANCH   1   3
BRANCH   1  10
ATOM     10  C   UNL     1      -3.782 -17.971  10.173  1.00  0.00     0.057 C 
BRANCH  10  11
ATOM     11  C   UNL     1      -4.694 -17.006  10.921  1.00  0.00    -0.026 C 
ATOM     12  C   UNL     1      -4.380 -15.966  11.741  1.00  0.00    -0.024 C 
BRANCH  12  13
ATOM     13  C   UNL     1      -3.006 -15.474  12.220  1.00  0.00    -0.014 C 
ATOM     14  C   UNL     1      -2.013 -16.658  12.128  1.00  0.00     0.016 C 
ATOM     15  C   UNL     1      -3.068 -15.070  13.712  1.00  0.00     0.016 C 
BRANCH  13  16
ATOM     16  C   UNL     1      -2.494 -14.355  11.268  1.00  0.00     0.038 CG0
ATOM     17  G   UNL     1      -1.515 -14.778  10.198  1.00  0.00     0.000 G0
ENDBRANCH  13  16
ENDBRANCH  12  13
ENDBRANCH  10  11
ENDBRANCH   1  10
TORSDOF 0
ENDMDL
MODEL 5
REMARK VINA RESULT:    -5.092      1.506      4.106
REMARK INTER + INTRA:          -6.822
REMARK INTER:                  -7.492
REMARK INTRA:                   0.671
REMARK UNBOUND:                 0.652
REMARK SMILES C=C1CC=CC(C)(C)CC=C(C)CCC1
REMARK SMILES IDX 2 1 1 2 15 3 14 4 13 5 11 6 12 7 10 8 3 10 4 11 5 12 6 13
REMARK SMILES IDX 7 14 8 15 9 16
REMARK H PARENT
REMARK Flexibility Score: 60.00
ROOT
ATOM      1  C   UNL     1      -2.524 -14.274   8.391  1.00  0.00    -0.074 C 
ATOM      2  C   UNL     1      -3.362 -13.222   8.374  1.00  0.00     0.008 C 
ENDROOT
BRANCH   1   3
ATOM      3  C   UNL     1      -2.512 -15.228   7.207  1.00  0.00     0.031 C 
BRANCH   3   4
ATOM      4  C   UNL     1      -3.876 -15.914   6.969  1.00  0.00     0.009 C 
BRANCH   4   5
ATOM      5  C   UNL     1      -4.571 -16.286   8.297  1.00  0.00     0.030 C 
BRANCH   5   6
ATOM      6  C   UNL     1      -3.868 -17.379   9.088  1.00  0.00    -0.077 C 
ATOM      7  C   UNL     1      -3.462 -18.645   8.377  1.00  0.00     0.039 C 
ATOM      8  C   UNL     1      -3.500 -17.231  10.384  1.00  0.00    -0.027 CG0
ATOM      9  G   UNL     1      -3.899 -16.071  11.265  1.00  0.00     0.000 G0
ENDBRANCH   5   6
ENDBRANCH   4   5
ENDBRANCH   3   4
ENDBRANCH   1   3
BRANCH   1  10
ATOM     10  C   UNL     1      -1.512 -14.448   9.515  1.00  0.00     0.057 C 
BRANCH  10  11
ATOM     11  C   UNL     1      -1.835 -13.711  10.809  1.00  0.00    -0.026 C 
ATOM     12  C   UNL     1      -2.365 -14.181  11.971  1.00  0.00    -0.024 C 
BRANCH  12  13
ATOM     13  C   UNL     1      -2.861 -15.591  12.325  1.00  0.00    -0.014 C 
ATOM     14  C   UNL     1      -3.587 -15.515  13.692  1.00  0.00     0.016 C 
ATOM     15  C   UNL     1      -1.665 -16.552  12.518  1.00  0.00     0.016 C 
BRANCH  13  16
ATOM     16  C   UNL     1      -3.902 -16.057  11.266  1.00  0.00     0.038 CG0
ATOM     17  G   UNL     1      -3.499 -17.223  10.394  1.00  0.00     0.000 G0
ENDBRANCH  13  16
ENDBRANCH  12  13
ENDBRANCH  10  11
ENDBRANCH   1  10
TORSDOF 0
ENDMDL
MODEL 6
REMARK VINA RESULT:    -5.089      1.632      4.486
REMARK INTER + INTRA:          -6.817
REMARK INTER:                  -7.885
REMARK INTRA:                   1.068
REMARK UNBOUND:                 0.652
REMARK SMILES C=C1CC=CC(C)(C)CC=C(C)CCC1
REMARK SMILES IDX 2 1 1 2 15 3 14 4 13 5 11 6 12 7 10 8 3 10 4 11 5 12 6 13
REMARK SMILES IDX 7 14 8 15 9 16
REMARK H PARENT
REMARK Flexibility Score: 60.00
ROOT
ATOM      1  C   UNL     1      -4.510 -15.287   6.985  1.00  0.00    -0.074 C 
ATOM      2  C   UNL     1      -5.026 -14.688   5.898  1.00  0.00     0.008 C 
ENDROOT
BRANCH   1   3
ATOM      3  C   UNL     1      -3.477 -14.543   7.819  1.00  0.00     0.031 C 
BRANCH   3   4
ATOM      4  C   UNL     1      -2.024 -14.955   7.491  1.00  0.00     0.009 C 
BRANCH   4   5
ATOM      5  C   UNL     1      -1.220 -15.284   8.767  1.00  0.00     0.030 C 
BRANCH   5   6
ATOM      6  C   UNL     1      -1.844 -14.764  10.054  1.00  0.00    -0.077 C 
ATOM      7  C   UNL     1      -1.867 -13.277  10.302  1.00  0.00     0.039 C 
ATOM      8  C   UNL     1      -2.472 -15.568  10.947  1.00  0.00    -0.027 CG0
ATOM      9  G   UNL     1      -2.468 -17.078  10.896  1.00  0.00     0.000 G0
ENDBRANCH   5   6
ENDBRANCH   4   5
ENDBRANCH   3   4
ENDBRANCH   1   3
BRANCH   1  10
ATOM     10  C   UNL     1      -5.032 -16.637   7.456  1.00  0.00     0.057 C 
BRANCH  10  11
ATOM     11  C   UNL     1      -3.972 -17.707   7.683  1.00  0.00    -0.026 C 
ATOM     12  C   UNL     1      -3.454 -18.191   8.845  1.00  0.00    -0.024 C 
BRANCH  12  13
ATOM     13  C   UNL     1      -3.731 -17.767  10.295  1.00  0.00    -0.014 C 
ATOM     14  C   UNL     1      -4.006 -19.046  11.125  1.00  0.00     0.016 C 
ATOM     15  C   UNL     1      -5.017 -16.912  10.371  1.00  0.00     0.016 C 
BRANCH  13  16
ATOM     16  C   UNL     1      -2.464 -17.085  10.888  1.00  0.00     0.038 CG0
ATOM     17  G   UNL     1      -2.476 -15.575  10.942  1.00  0.00     0.000 G0
ENDBRANCH  13  16
ENDBRANCH  12  13
ENDBRANCH  10  11
ENDBRANCH   1  10
TORSDOF 0
ENDMDL
MODEL 7
REMARK VINA RESULT:    -4.967      1.519      4.498
REMARK INTER + INTRA:          -6.638
REMARK INTER:                  -6.941
REMARK INTRA:                   0.303
REMARK UNBOUND:                 0.652
REMARK SMILES C=C1CC=CC(C)(C)CC=C(C)CCC1
REMARK SMILES IDX 2 1 1 2 15 3 14 4 13 5 11 6 12 7 10 8 3 10 4 11 5 12 6 13
REMARK SMILES IDX 7 14 8 15 9 16
REMARK H PARENT
REMARK Flexibility Score: 60.00
ROOT
ATOM      1  C   UNL     1      -5.143 -16.744   9.903  1.00  0.00    -0.074 C 
ATOM      2  C   UNL     1      -6.452 -16.852  10.190  1.00  0.00     0.008 C 
ENDROOT
BRANCH   1   3
ATOM      3  C   UNL     1      -4.641 -17.226   8.550  1.00  0.00     0.031 C 
BRANCH   3   4
ATOM      4  C   UNL     1      -5.376 -16.567   7.362  1.00  0.00     0.009 C 
BRANCH   4   5
ATOM      5  C   UNL     1      -4.454 -15.608   6.578  1.00  0.00     0.030 C 
BRANCH   5   6
ATOM      6  C   UNL     1      -4.308 -14.228   7.201  1.00  0.00    -0.077 C 
ATOM      7  C   UNL     1      -5.405 -13.215   6.993  1.00  0.00     0.039 C 
ATOM      8  C   UNL     1      -3.281 -13.894   8.022  1.00  0.00    -0.027 CG0
ATOM      9  G   UNL     1      -2.063 -14.753   8.268  1.00  0.00     0.000 G0
ENDBRANCH   5   6
ENDBRANCH   4   5
ENDBRANCH   3   4
ENDBRANCH   1   3
BRANCH   1  10
ATOM     10  C   UNL     1      -4.189 -16.038  10.857  1.00  0.00     0.057 C 
BRANCH  10  11
ATOM     11  C   UNL     1      -2.763 -16.573  10.871  1.00  0.00    -0.026 C 
ATOM     12  C   UNL     1      -1.614 -16.008  10.409  1.00  0.00    -0.024 C 
BRANCH  12  13
ATOM     13  C   UNL     1      -1.402 -14.678   9.670  1.00  0.00    -0.014 C 
ATOM     14  C   UNL     1       0.121 -14.483   9.462  1.00  0.00     0.016 C 
ATOM     15  C   UNL     1      -1.879 -13.494  10.542  1.00  0.00     0.016 C 
BRANCH  13  16
ATOM     16  C   UNL     1      -2.063 -14.754   8.263  1.00  0.00     0.038 CG0
ATOM     17  G   UNL     1      -3.275 -13.879   8.041  1.00  0.00     0.000 G0
ENDBRANCH  13  16
ENDBRANCH  12  13
ENDBRANCH  10  11
ENDBRANCH   1  10
TORSDOF 0
ENDMDL
MODEL 8
REMARK VINA RESULT:    -4.523      1.503      2.634
REMARK INTER + INTRA:          -5.986
REMARK INTER:                  -7.359
REMARK INTRA:                   1.374
REMARK UNBOUND:                 0.652
REMARK SMILES C=C1CC=CC(C)(C)CC=C(C)CCC1
REMARK SMILES IDX 2 1 1 2 15 3 14 4 13 5 11 6 12 7 10 8 3 10 4 11 5 12 6 13
REMARK SMILES IDX 7 14 8 15 9 16
REMARK H PARENT
REMARK Flexibility Score: 60.00
ROOT
ATOM      1  C   UNL     1      -1.764 -13.871   9.753  1.00  0.00    -0.074 C 
ATOM      2  C   UNL     1      -0.574 -14.474   9.588  1.00  0.00     0.008 C 
ENDROOT
BRANCH   1   3
ATOM      3  C   UNL     1      -2.022 -13.081  11.028  1.00  0.00     0.031 C 
BRANCH   3   4
ATOM      4  C   UNL     1      -1.925 -13.945  12.305  1.00  0.00     0.009 C 
BRANCH   4   5
ATOM      5  C   UNL     1      -3.022 -15.032  12.346  1.00  0.00     0.030 C 
BRANCH   5   6
ATOM      6  C   UNL     1      -2.575 -16.393  11.834  1.00  0.00    -0.077 C 
ATOM      7  C   UNL     1      -1.579 -17.185  12.643  1.00  0.00     0.039 C 
ATOM      8  C   UNL     1      -3.105 -16.976  10.729  1.00  0.00    -0.027 CG0
ATOM      9  G   UNL     1      -4.043 -16.293   9.762  1.00  0.00     0.000 G0
ENDBRANCH   5   6
ENDBRANCH   4   5
ENDBRANCH   3   4
ENDBRANCH   1   3
BRANCH   1  10
ATOM     10  C   UNL     1      -2.799 -13.866   8.637  1.00  0.00     0.057 C 
BRANCH  10  11
ATOM     11  C   UNL     1      -2.593 -14.912   7.548  1.00  0.00    -0.026 C 
ATOM     12  C   UNL     1      -3.159 -16.140   7.399  1.00  0.00    -0.024 C 
BRANCH  12  13
ATOM     13  C   UNL     1      -4.140 -16.888   8.315  1.00  0.00    -0.014 C 
ATOM     14  C   UNL     1      -3.691 -18.368   8.393  1.00  0.00     0.016 C 
ATOM     15  C   UNL     1      -5.558 -16.892   7.698  1.00  0.00     0.016 C 
BRANCH  13  16
ATOM     16  C   UNL     1      -4.062 -16.296   9.752  1.00  0.00     0.038 CG0
ATOM     17  G   UNL     1      -3.101 -16.969  10.705  1.00  0.00     0.000 G0
ENDBRANCH  13  16
ENDBRANCH  12  13
ENDBRANCH  10  11
ENDBRANCH   1  10
TORSDOF 0
ENDMDL
MODEL 9
REMARK VINA RESULT:    -4.500      1.644      3.749
REMARK INTER + INTRA:          -5.952
REMARK INTER:                  -6.983
REMARK INTRA:                   1.031
REMARK UNBOUND:                 0.652
REMARK SMILES C=C1CC=CC(C)(C)CC=C(C)CCC1
REMARK SMILES IDX 2 1 1 2 15 3 14 4 13 5 11 6 12 7 10 8 3 10 4 11 5 12 6 13
REMARK SMILES IDX 7 14 8 15 9 16
REMARK H PARENT
REMARK Flexibility Score: 60.00
ROOT
ATOM      1  C   UNL     1      -3.324 -14.117   7.996  1.00  0.00    -0.074 C 
ATOM      2  C   UNL     1      -4.554 -13.839   7.530  1.00  0.00     0.008 C 
ENDROOT
BRANCH   1   3
ATOM      3  C   UNL     1      -2.753 -13.273   9.126  1.00  0.00     0.031 C 
BRANCH   3   4
ATOM      4  C   UNL     1      -1.918 -14.096  10.132  1.00  0.00     0.009 C 
BRANCH   4   5
ATOM      5  C   UNL     1      -2.647 -14.260  11.484  1.00  0.00     0.030 C 
BRANCH   5   6
ATOM      6  C   UNL     1      -2.318 -15.549  12.222  1.00  0.00    -0.077 C 
ATOM      7  C   UNL     1      -2.037 -15.489  13.702  1.00  0.00     0.039 C 
ATOM      8  C   UNL     1      -2.362 -16.769  11.632  1.00  0.00    -0.027 CG0
ATOM      9  G   UNL     1      -2.543 -17.002  10.150  1.00  0.00     0.000 G0
ENDBRANCH   5   6
ENDBRANCH   4   5
ENDBRANCH   3   4
ENDBRANCH   1   3
BRANCH   1  10
ATOM     10  C   UNL     1      -2.554 -15.330   7.493  1.00  0.00     0.057 C 
BRANCH  10  11
ATOM     11  C   UNL     1      -3.390 -16.578   7.240  1.00  0.00    -0.026 C 
ATOM     12  C   UNL     1      -3.987 -17.423   8.125  1.00  0.00    -0.024 C 
BRANCH  12  13
ATOM     13  C   UNL     1      -3.954 -17.421   9.660  1.00  0.00    -0.014 C 
ATOM     14  C   UNL     1      -4.206 -18.870  10.148  1.00  0.00     0.016 C 
ATOM     15  C   UNL     1      -5.110 -16.562  10.224  1.00  0.00     0.016 C 
BRANCH  13  16
ATOM     16  C   UNL     1      -2.538 -17.000  10.149  1.00  0.00     0.038 CG0
ATOM     17  G   UNL     1      -2.375 -16.783  11.635  1.00  0.00     0.000 G0
ENDBRANCH  13  16
ENDBRANCH  12  13
ENDBRANCH  10  11
ENDBRANCH   1  10
TORSDOF 0
ENDMDL
