MODEL 1
REMARK VINA RESULT:    -6.330      0.000      0.000
REMARK INTER + INTRA:         -10.369
REMARK INTER:                  -9.660
REMARK INTRA:                  -0.708
REMARK UNBOUND:                -0.708
REMARK SMILES OC[C@@H]1O[C@@](CO)(O[C@H]2O[C@H](CO)[C@H](O)[C@@H](O)[C@@H]2O)[C@@H](O)[C@H]1O
REMARK SMILES IDX 8 1 9 2 11 3 14 4 10 5 16 6 18 7 12 8 13 9 15 11 17 13 19 15
REMARK SMILES IDX 5 17 20 18 4 19 22 20 3 21 6 22 7 23 21 25 23 27 2 29 1 30
REMARK H PARENT 13 10 15 12 17 14 19 16 7 24 21 26 23 28 1 31
REMARK Flexibility Score: inf
ROOT
ATOM      1  O   UNL     1      22.152  23.759  29.808  1.00  0.00    -0.313 OA
ENDROOT
BRANCH   1   2
ATOM      2  C   UNL     1      21.219  24.587  29.124  1.00  0.00     0.285 C 
ATOM      3  C   UNL     1      20.963  23.059  27.354  1.00  0.00     0.178 C 
ATOM      4  C   UNL     1      19.497  22.733  27.715  1.00  0.00     0.177 C 
ATOM      5  O   UNL     1      21.284  24.392  27.717  1.00  0.00    -0.341 OA
ATOM      6  C   UNL     1      19.275  22.946  29.224  1.00  0.00     0.179 C 
ATOM      7  C   UNL     1      19.793  24.332  29.660  1.00  0.00     0.202 C 
BRANCH   3   8
ATOM      8  C   UNL     1      21.234  22.888  25.852  1.00  0.00     0.191 C 
BRANCH   8   9
ATOM      9  O   UNL     1      22.591  22.622  25.616  1.00  0.00    -0.394 OA
ATOM     10  H   UNL     1      22.750  21.679  25.880  1.00  0.00     0.210 HD
ENDBRANCH   8   9
ENDBRANCH   3   8
BRANCH   4  11
ATOM     11  O   UNL     1      18.628  23.555  26.977  1.00  0.00    -0.387 OA
ATOM     12  H   UNL     1      17.734  23.124  27.000  1.00  0.00     0.211 HD
ENDBRANCH   4  11
BRANCH   6  13
ATOM     13  O   UNL     1      19.937  21.933  29.938  1.00  0.00    -0.387 OA
ATOM     14  H   UNL     1      19.261  21.235  30.142  1.00  0.00     0.211 HD
ENDBRANCH   6  13
BRANCH   7  15
ATOM     15  O   UNL     1      18.918  25.323  29.184  1.00  0.00    -0.385 OA
ATOM     16  H   UNL     1      19.471  26.121  28.972  1.00  0.00     0.211 HD
ENDBRANCH   7  15
ENDBRANCH   1   2
BRANCH   1  17
ATOM     17  C   UNL     1      23.339  24.434  30.229  1.00  0.00     0.224 C 
ATOM     18  C   UNL     1      23.648  24.032  31.689  1.00  0.00     0.208 C 
ATOM     19  O   UNL     1      24.468  24.103  29.430  1.00  0.00    -0.337 OA
ATOM     20  C   UNL     1      25.157  23.993  31.707  1.00  0.00     0.180 C 
ATOM     21  C   UNL     1      25.479  23.598  30.273  1.00  0.00     0.179 C 
BRANCH  17  22
ATOM     22  C   UNL     1      23.108  25.961  30.162  1.00  0.00     0.225 C 
BRANCH  22  23
ATOM     23  O   UNL     1      22.611  26.446  31.378  1.00  0.00    -0.391 OA
ATOM     24  H   UNL     1      21.835  25.871  31.609  1.00  0.00     0.210 HD
ENDBRANCH  22  23
ENDBRANCH  17  22
BRANCH  18  25
ATOM     25  O   UNL     1      23.119  22.760  31.972  1.00  0.00    -0.385 OA
ATOM     26  H   UNL     1      23.766  22.302  32.570  1.00  0.00     0.211 HD
ENDBRANCH  18  25
BRANCH  20  27
ATOM     27  O   UNL     1      25.661  23.048  32.614  1.00  0.00    -0.387 OA
ATOM     28  H   UNL     1      25.342  22.162  32.302  1.00  0.00     0.211 HD
ENDBRANCH  20  27
BRANCH  21  29
ATOM     29  C   UNL     1      26.849  24.110  29.817  1.00  0.00     0.191 C 
BRANCH  29  30
ATOM     30  O   UNL     1      26.782  25.474  29.503  1.00  0.00    -0.394 OA
ATOM     31  H   UNL     1      26.291  25.535  28.643  1.00  0.00     0.210 HD
ENDBRANCH  29  30
ENDBRANCH  21  29
ENDBRANCH   1  17
TORSDOF 13
ENDMDL
MODEL 2
REMARK VINA RESULT:    -6.315      1.697      5.832
REMARK INTER + INTRA:         -10.347
REMARK INTER:                  -9.250
REMARK INTRA:                  -1.096
REMARK UNBOUND:                -0.708
REMARK SMILES OC[C@@H]1O[C@@](CO)(O[C@H]2O[C@H](CO)[C@H](O)[C@@H](O)[C@@H]2O)[C@@H](O)[C@H]1O
REMARK SMILES IDX 8 1 9 2 11 3 14 4 10 5 16 6 18 7 12 8 13 9 15 11 17 13 19 15
REMARK SMILES IDX 5 17 20 18 4 19 22 20 3 21 6 22 7 23 21 25 23 27 2 29 1 30
REMARK H PARENT 13 10 15 12 17 14 19 16 7 24 21 26 23 28 1 31
REMARK Flexibility Score: inf
ROOT
ATOM      1  O   UNL     1      23.505  23.962  29.223  1.00  0.00    -0.313 OA
ENDROOT
BRANCH   1   2
ATOM      2  C   UNL     1      23.879  23.159  30.337  1.00  0.00     0.285 C 
ATOM      3  C   UNL     1      25.761  22.278  29.235  1.00  0.00     0.178 C 
ATOM      4  C   UNL     1      26.765  22.986  30.171  1.00  0.00     0.177 C 
ATOM      5  O   UNL     1      24.557  21.981  29.924  1.00  0.00    -0.341 OA
ATOM      6  C   UNL     1      26.134  24.275  30.729  1.00  0.00     0.179 C 
ATOM      7  C   UNL     1      24.739  23.986  31.319  1.00  0.00     0.202 C 
BRANCH   3   8
ATOM      8  C   UNL     1      26.331  20.969  28.669  1.00  0.00     0.191 C 
BRANCH   8   9
ATOM      9  O   UNL     1      26.041  19.889  29.517  1.00  0.00    -0.394 OA
ATOM     10  H   UNL     1      25.528  20.255  30.284  1.00  0.00     0.210 HD
ENDBRANCH   8   9
ENDBRANCH   3   8
BRANCH   4  11
ATOM     11  O   UNL     1      27.125  22.127  31.225  1.00  0.00    -0.387 OA
ATOM     12  H   UNL     1      27.316  21.240  30.820  1.00  0.00     0.211 HD
ENDBRANCH   4  11
BRANCH   6  13
ATOM     13  O   UNL     1      26.040  25.228  29.701  1.00  0.00    -0.387 OA
ATOM     14  H   UNL     1      26.348  26.092  30.079  1.00  0.00     0.211 HD
ENDBRANCH   6  13
BRANCH   7  15
ATOM     15  O   UNL     1      24.884  23.290  32.531  1.00  0.00    -0.385 OA
ATOM     16  H   UNL     1      23.987  22.940  32.774  1.00  0.00     0.211 HD
ENDBRANCH   7  15
ENDBRANCH   1   2
BRANCH   1  17
ATOM     17  C   UNL     1      22.140  24.386  29.236  1.00  0.00     0.224 C 
ATOM     18  C   UNL     1      21.507  24.066  27.863  1.00  0.00     0.208 C 
ATOM     19  O   UNL     1      21.374  23.729  30.240  1.00  0.00    -0.337 OA
ATOM     20  C   UNL     1      20.095  23.684  28.233  1.00  0.00     0.180 C 
ATOM     21  C   UNL     1      20.281  23.091  29.621  1.00  0.00     0.179 C 
BRANCH  17  22
ATOM     22  C   UNL     1      22.082  25.911  29.478  1.00  0.00     0.225 C 
BRANCH  22  23
ATOM     23  O   UNL     1      22.228  26.207  30.839  1.00  0.00    -0.391 OA
ATOM     24  H   UNL     1      22.317  25.335  31.305  1.00  0.00     0.210 HD
ENDBRANCH  22  23
ENDBRANCH  17  22
BRANCH  18  25
ATOM     25  O   UNL     1      22.168  22.981  27.258  1.00  0.00    -0.385 OA
ATOM     26  H   UNL     1      22.648  23.339  26.465  1.00  0.00     0.211 HD
ENDBRANCH  18  25
BRANCH  20  27
ATOM     27  O   UNL     1      19.543  22.741  27.352  1.00  0.00    -0.387 OA
ATOM     28  H   UNL     1      18.581  22.967  27.266  1.00  0.00     0.211 HD
ENDBRANCH  20  27
BRANCH  21  29
ATOM     29  C   UNL     1      19.028  23.230  30.491  1.00  0.00     0.191 C 
BRANCH  29  30
ATOM     30  O   UNL     1      18.541  24.543  30.443  1.00  0.00    -0.394 OA
ATOM     31  H   UNL     1      17.817  24.593  31.119  1.00  0.00     0.210 HD
ENDBRANCH  29  30
ENDBRANCH  21  29
ENDBRANCH   1  17
TORSDOF 13
ENDMDL
MODEL 3
REMARK VINA RESULT:    -5.853      1.614      6.182
REMARK INTER + INTRA:          -9.641
REMARK INTER:                  -8.399
REMARK INTRA:                  -1.242
REMARK UNBOUND:                -0.708
REMARK SMILES OC[C@@H]1O[C@@](CO)(O[C@H]2O[C@H](CO)[C@H](O)[C@@H](O)[C@@H]2O)[C@@H](O)[C@H]1O
REMARK SMILES IDX 8 1 9 2 11 3 14 4 10 5 16 6 18 7 12 8 13 9 15 11 17 13 19 15
REMARK SMILES IDX 5 17 20 18 4 19 22 20 3 21 6 22 7 23 21 25 23 27 2 29 1 30
REMARK H PARENT 13 10 15 12 17 14 19 16 7 24 21 26 23 28 1 31
REMARK Flexibility Score: inf
ROOT
ATOM      1  O   UNL     1      23.950  23.790  29.531  1.00  0.00    -0.313 OA
ENDROOT
BRANCH   1   2
ATOM      2  C   UNL     1      24.471  24.276  30.763  1.00  0.00     0.285 C 
ATOM      3  C   UNL     1      25.086  22.127  31.498  1.00  0.00     0.178 C 
ATOM      4  C   UNL     1      26.599  22.428  31.429  1.00  0.00     0.177 C 
ATOM      5  O   UNL     1      24.354  23.306  31.796  1.00  0.00    -0.341 OA
ATOM      6  C   UNL     1      26.865  23.508  30.364  1.00  0.00     0.179 C 
ATOM      7  C   UNL     1      25.938  24.721  30.576  1.00  0.00     0.202 C 
BRANCH   3   8
ATOM      8  C   UNL     1      24.760  21.073  32.566  1.00  0.00     0.191 C 
BRANCH   8   9
ATOM      9  O   UNL     1      24.584  21.671  33.823  1.00  0.00    -0.394 OA
ATOM     10  H   UNL     1      25.218  22.434  33.870  1.00  0.00     0.210 HD
ENDBRANCH   8   9
ENDBRANCH   3   8
BRANCH   4  11
ATOM     11  O   UNL     1      27.059  22.862  32.685  1.00  0.00    -0.387 OA
ATOM     12  H   UNL     1      26.315  22.723  33.328  1.00  0.00     0.211 HD
ENDBRANCH   4  11
BRANCH   6  13
ATOM     13  O   UNL     1      26.664  22.958  29.087  1.00  0.00    -0.387 OA
ATOM     14  H   UNL     1      27.013  23.616  28.431  1.00  0.00     0.211 HD
ENDBRANCH   6  13
BRANCH   7  15
ATOM     15  O   UNL     1      26.368  25.440  31.706  1.00  0.00    -0.385 OA
ATOM     16  H   UNL     1      25.904  26.317  31.684  1.00  0.00     0.211 HD
ENDBRANCH   7  15
ENDBRANCH   1   2
BRANCH   1  17
ATOM     17  C   UNL     1      22.649  24.286  29.208  1.00  0.00     0.224 C 
ATOM     18  C   UNL     1      22.329  23.924  27.740  1.00  0.00     0.208 C 
ATOM     19  O   UNL     1      21.632  23.729  30.033  1.00  0.00    -0.337 OA
ATOM     20  C   UNL     1      20.848  23.640  27.786  1.00  0.00     0.180 C 
ATOM     21  C   UNL     1      20.671  23.116  29.203  1.00  0.00     0.179 C 
BRANCH  17  22
ATOM     22  C   UNL     1      22.636  25.824  29.366  1.00  0.00     0.225 C 
BRANCH  22  23
ATOM     23  O   UNL     1      21.520  26.242  30.102  1.00  0.00    -0.391 OA
ATOM     24  H   UNL     1      20.857  26.568  29.439  1.00  0.00     0.210 HD
ENDBRANCH  22  23
ENDBRANCH  17  22
BRANCH  18  25
ATOM     25  O   UNL     1      23.040  22.774  27.351  1.00  0.00    -0.385 OA
ATOM     26  H   UNL     1      23.599  22.501  28.126  1.00  0.00     0.211 HD
ENDBRANCH  18  25
BRANCH  20  27
ATOM     27  O   UNL     1      20.453  22.680  26.842  1.00  0.00    -0.387 OA
ATOM     28  H   UNL     1      21.273  22.420  26.346  1.00  0.00     0.211 HD
ENDBRANCH  20  27
BRANCH  21  29
ATOM     29  C   UNL     1      19.263  23.370  29.751  1.00  0.00     0.191 C 
BRANCH  29  30
ATOM     30  O   UNL     1      18.953  24.736  29.691  1.00  0.00    -0.394 OA
ATOM     31  H   UNL     1      19.805  25.219  29.853  1.00  0.00     0.210 HD
ENDBRANCH  29  30
ENDBRANCH  21  29
ENDBRANCH   1  17
TORSDOF 13
ENDMDL
MODEL 4
REMARK VINA RESULT:    -5.603      1.587      6.133
REMARK INTER + INTRA:          -9.259
REMARK INTER:                  -8.850
REMARK INTRA:                  -0.409
REMARK UNBOUND:                -0.708
REMARK SMILES OC[C@@H]1O[C@@](CO)(O[C@H]2O[C@H](CO)[C@H](O)[C@@H](O)[C@@H]2O)[C@@H](O)[C@H]1O
REMARK SMILES IDX 8 1 9 2 11 3 14 4 10 5 16 6 18 7 12 8 13 9 15 11 17 13 19 15
REMARK SMILES IDX 5 17 20 18 4 19 22 20 3 21 6 22 7 23 21 25 23 27 2 29 1 30
REMARK H PARENT 13 10 15 12 17 14 19 16 7 24 21 26 23 28 1 31
REMARK Flexibility Score: inf
ROOT
ATOM      1  O   UNL     1      22.928  23.023  29.133  1.00  0.00    -0.313 OA
ENDROOT
BRANCH   1   2
ATOM      2  C   UNL     1      24.128  23.739  29.402  1.00  0.00     0.285 C 
ATOM      3  C   UNL     1      23.606  24.017  31.679  1.00  0.00     0.178 C 
ATOM      4  C   UNL     1      24.753  23.100  32.157  1.00  0.00     0.177 C 
ATOM      5  O   UNL     1      23.955  24.665  30.466  1.00  0.00    -0.341 OA
ATOM      6  C   UNL     1      25.075  22.061  31.067  1.00  0.00     0.179 C 
ATOM      7  C   UNL     1      25.276  22.749  29.702  1.00  0.00     0.202 C 
BRANCH   3   8
ATOM      8  C   UNL     1      23.260  25.092  32.720  1.00  0.00     0.191 C 
BRANCH   8   9
ATOM      9  O   UNL     1      22.393  26.052  32.178  1.00  0.00    -0.394 OA
ATOM     10  H   UNL     1      21.831  25.586  31.505  1.00  0.00     0.210 HD
ENDBRANCH   8   9
ENDBRANCH   3   8
BRANCH   4  11
ATOM     11  O   UNL     1      25.894  23.870  32.445  1.00  0.00    -0.387 OA
ATOM     12  H   UNL     1      26.367  23.416  33.190  1.00  0.00     0.211 HD
ENDBRANCH   4  11
BRANCH   6  13
ATOM     13  O   UNL     1      24.027  21.128  30.992  1.00  0.00    -0.387 OA
ATOM     14  H   UNL     1      23.209  21.632  30.744  1.00  0.00     0.211 HD
ENDBRANCH   6  13
BRANCH   7  15
ATOM     15  O   UNL     1      26.506  23.429  29.704  1.00  0.00    -0.385 OA
ATOM     16  H   UNL     1      26.720  23.644  28.758  1.00  0.00     0.211 HD
ENDBRANCH   7  15
ENDBRANCH   1   2
BRANCH   1  17
ATOM     17  C   UNL     1      22.011  23.714  28.282  1.00  0.00     0.224 C 
ATOM     18  C   UNL     1      22.510  23.606  26.823  1.00  0.00     0.208 C 
ATOM     19  O   UNL     1      20.696  23.173  28.341  1.00  0.00    -0.337 OA
ATOM     20  C   UNL     1      21.223  23.500  26.042  1.00  0.00     0.180 C 
ATOM     21  C   UNL     1      20.306  22.805  27.037  1.00  0.00     0.179 C 
BRANCH  17  22
ATOM     22  C   UNL     1      21.959  25.204  28.691  1.00  0.00     0.225 C 
BRANCH  22  23
ATOM     23  O   UNL     1      21.060  25.401  29.746  1.00  0.00    -0.391 OA
ATOM     24  H   UNL     1      20.234  25.774  29.340  1.00  0.00     0.210 HD
ENDBRANCH  22  23
ENDBRANCH  17  22
BRANCH  18  25
ATOM     25  O   UNL     1      23.287  22.445  26.654  1.00  0.00    -0.385 OA
ATOM     26  H   UNL     1      22.660  21.706  26.434  1.00  0.00     0.211 HD
ENDBRANCH  18  25
BRANCH  20  27
ATOM     27  O   UNL     1      21.364  22.739  24.871  1.00  0.00    -0.387 OA
ATOM     28  H   UNL     1      20.927  21.867  25.050  1.00  0.00     0.211 HD
ENDBRANCH  20  27
BRANCH  21  29
ATOM     29  C   UNL     1      18.830  23.148  26.813  1.00  0.00     0.191 C 
BRANCH  29  30
ATOM     30  O   UNL     1      18.157  22.061  26.237  1.00  0.00    -0.394 OA
ATOM     31  H   UNL     1      17.860  22.366  25.341  1.00  0.00     0.210 HD
ENDBRANCH  29  30
ENDBRANCH  21  29
ENDBRANCH   1  17
TORSDOF 13
ENDMDL
MODEL 5
REMARK VINA RESULT:    -5.526      3.158      5.696
REMARK INTER + INTRA:          -9.142
REMARK INTER:                  -7.980
REMARK INTRA:                  -1.162
REMARK UNBOUND:                -0.708
REMARK SMILES OC[C@@H]1O[C@@](CO)(O[C@H]2O[C@H](CO)[C@H](O)[C@@H](O)[C@@H]2O)[C@@H](O)[C@H]1O
REMARK SMILES IDX 8 1 9 2 11 3 14 4 10 5 16 6 18 7 12 8 13 9 15 11 17 13 19 15
REMARK SMILES IDX 5 17 20 18 4 19 22 20 3 21 6 22 7 23 21 25 23 27 2 29 1 30
REMARK H PARENT 13 10 15 12 17 14 19 16 7 24 21 26 23 28 1 31
REMARK Flexibility Score: inf
ROOT
ATOM      1  O   UNL     1      25.131  22.442  29.044  1.00  0.00    -0.313 OA
ENDROOT
BRANCH   1   2
ATOM      2  C   UNL     1      25.493  23.638  29.725  1.00  0.00     0.285 C 
ATOM      3  C   UNL     1      23.260  24.176  30.235  1.00  0.00     0.178 C 
ATOM      4  C   UNL     1      23.451  23.965  31.753  1.00  0.00     0.177 C 
ATOM      5  O   UNL     1      24.467  24.618  29.635  1.00  0.00    -0.341 OA
ATOM      6  C   UNL     1      24.577  22.943  31.997  1.00  0.00     0.179 C 
ATOM      7  C   UNL     1      25.839  23.323  31.197  1.00  0.00     0.202 C 
BRANCH   3   8
ATOM      8  C   UNL     1      22.164  25.209  29.934  1.00  0.00     0.191 C 
BRANCH   8   9
ATOM      9  O   UNL     1      22.716  26.486  29.751  1.00  0.00    -0.394 OA
ATOM     10  H   UNL     1      23.670  26.355  29.509  1.00  0.00     0.210 HD
ENDBRANCH   8   9
ENDBRANCH   3   8
BRANCH   4  11
ATOM     11  O   UNL     1      23.765  25.188  32.371  1.00  0.00    -0.387 OA
ATOM     12  H   UNL     1      24.651  25.468  32.022  1.00  0.00     0.211 HD
ENDBRANCH   4  11
BRANCH   6  13
ATOM     13  O   UNL     1      24.131  21.664  31.623  1.00  0.00    -0.387 OA
ATOM     14  H   UNL     1      24.271  21.069  32.405  1.00  0.00     0.211 HD
ENDBRANCH   6  13
BRANCH   7  15
ATOM     15  O   UNL     1      26.446  24.441  31.796  1.00  0.00    -0.385 OA
ATOM     16  H   UNL     1      25.817  25.202  31.694  1.00  0.00     0.211 HD
ENDBRANCH   7  15
ENDBRANCH   1   2
BRANCH   1  17
ATOM     17  C   UNL     1      26.094  21.998  28.086  1.00  0.00     0.224 C 
ATOM     18  C   UNL     1      26.822  20.758  28.651  1.00  0.00     0.208 C 
ATOM     19  O   UNL     1      25.502  21.635  26.844  1.00  0.00    -0.337 OA
ATOM     20  C   UNL     1      27.047  19.917  27.418  1.00  0.00     0.180 C 
ATOM     21  C   UNL     1      25.858  20.303  26.552  1.00  0.00     0.179 C 
BRANCH  17  22
ATOM     22  C   UNL     1      27.125  23.123  27.840  1.00  0.00     0.225 C 
BRANCH  22  23
ATOM     23  O   UNL     1      27.020  23.621  26.535  1.00  0.00    -0.391 OA
ATOM     24  H   UNL     1      27.925  23.540  26.135  1.00  0.00     0.210 HD
ENDBRANCH  22  23
ENDBRANCH  17  22
BRANCH  18  25
ATOM     25  O   UNL     1      25.998  20.078  29.567  1.00  0.00    -0.385 OA
ATOM     26  H   UNL     1      26.534  19.937  30.391  1.00  0.00     0.211 HD
ENDBRANCH  18  25
BRANCH  20  27
ATOM     27  O   UNL     1      27.044  18.541  27.695  1.00  0.00    -0.387 OA
ATOM     28  H   UNL     1      26.187  18.187  27.342  1.00  0.00     0.211 HD
ENDBRANCH  20  27
BRANCH  21  29
ATOM     29  C   UNL     1      26.147  20.151  25.056  1.00  0.00     0.191 C 
BRANCH  29  30
ATOM     30  O   UNL     1      25.379  19.113  24.511  1.00  0.00    -0.394 OA
ATOM     31  H   UNL     1      25.168  18.503  25.264  1.00  0.00     0.210 HD
ENDBRANCH  29  30
ENDBRANCH  21  29
ENDBRANCH   1  17
TORSDOF 13
ENDMDL
MODEL 6
REMARK VINA RESULT:    -5.519      2.166      6.473
REMARK INTER + INTRA:          -9.131
REMARK INTER:                  -8.083
REMARK INTRA:                  -1.048
REMARK UNBOUND:                -0.708
REMARK SMILES OC[C@@H]1O[C@@](CO)(O[C@H]2O[C@H](CO)[C@H](O)[C@@H](O)[C@@H]2O)[C@@H](O)[C@H]1O
REMARK SMILES IDX 8 1 9 2 11 3 14 4 10 5 16 6 18 7 12 8 13 9 15 11 17 13 19 15
REMARK SMILES IDX 5 17 20 18 4 19 22 20 3 21 6 22 7 23 21 25 23 27 2 29 1 30
REMARK H PARENT 13 10 15 12 17 14 19 16 7 24 21 26 23 28 1 31
REMARK Flexibility Score: inf
ROOT
ATOM      1  O   UNL     1      23.637  22.782  31.206  1.00  0.00    -0.313 OA
ENDROOT
BRANCH   1   2
ATOM      2  C   UNL     1      24.612  23.110  32.189  1.00  0.00     0.285 C 
ATOM      3  C   UNL     1      24.627  20.935  33.087  1.00  0.00     0.178 C 
ATOM      4  C   UNL     1      26.069  20.643  32.618  1.00  0.00     0.177 C 
ATOM      5  O   UNL     1      24.459  22.318  33.359  1.00  0.00    -0.341 OA
ATOM      6  C   UNL     1      26.386  21.480  31.364  1.00  0.00     0.179 C 
ATOM      7  C   UNL     1      26.031  22.962  31.595  1.00  0.00     0.202 C 
BRANCH   3   8
ATOM      8  C   UNL     1      24.265  20.145  34.353  1.00  0.00     0.191 C 
BRANCH   8   9
ATOM      9  O   UNL     1      24.404  20.945  35.498  1.00  0.00    -0.394 OA
ATOM     10  H   UNL     1      25.321  21.325  35.475  1.00  0.00     0.210 HD
ENDBRANCH   8   9
ENDBRANCH   3   8
BRANCH   4  11
ATOM     11  O   UNL     1      26.978  20.948  33.646  1.00  0.00    -0.387 OA
ATOM     12  H   UNL     1      27.843  21.166  33.210  1.00  0.00     0.211 HD
ENDBRANCH   4  11
BRANCH   6  13
ATOM     13  O   UNL     1      25.663  20.970  30.272  1.00  0.00    -0.387 OA
ATOM     14  H   UNL     1      26.313  20.823  29.538  1.00  0.00     0.211 HD
ENDBRANCH   6  13
BRANCH   7  15
ATOM     15  O   UNL     1      26.976  23.534  32.464  1.00  0.00    -0.385 OA
ATOM     16  H   UNL     1      27.812  23.006  32.371  1.00  0.00     0.211 HD
ENDBRANCH   7  15
ENDBRANCH   1   2
BRANCH   1  17
ATOM     17  C   UNL     1      22.838  23.888  30.780  1.00  0.00     0.224 C 
ATOM     18  C   UNL     1      23.348  24.367  29.402  1.00  0.00     0.208 C 
ATOM     19  O   UNL     1      21.462  23.549  30.649  1.00  0.00    -0.337 OA
ATOM     20  C   UNL     1      22.075  24.781  28.706  1.00  0.00     0.180 C 
ATOM     21  C   UNL     1      21.053  23.845  29.333  1.00  0.00     0.179 C 
BRANCH  17  22
ATOM     22  C   UNL     1      22.977  25.040  31.801  1.00  0.00     0.225 C 
BRANCH  22  23
ATOM     23  O   UNL     1      21.892  25.056  32.686  1.00  0.00    -0.391 OA
ATOM     24  H   UNL     1      22.280  25.056  33.600  1.00  0.00     0.210 HD
ENDBRANCH  22  23
ENDBRANCH  17  22
BRANCH  18  25
ATOM     25  O   UNL     1      23.966  23.309  28.710  1.00  0.00    -0.385 OA
ATOM     26  H   UNL     1      23.468  22.481  28.942  1.00  0.00     0.211 HD
ENDBRANCH  18  25
BRANCH  20  27
ATOM     27  O   UNL     1      22.137  24.600  27.315  1.00  0.00    -0.387 OA
ATOM     28  H   UNL     1      22.203  25.506  26.917  1.00  0.00     0.211 HD
ENDBRANCH  20  27
BRANCH  21  29
ATOM     29  C   UNL     1      19.641  24.437  29.341  1.00  0.00     0.191 C 
BRANCH  29  30
ATOM     30  O   UNL     1      18.825  23.771  28.417  1.00  0.00    -0.394 OA
ATOM     31  H   UNL     1      18.091  23.360  28.945  1.00  0.00     0.210 HD
ENDBRANCH  29  30
ENDBRANCH  21  29
ENDBRANCH   1  17
TORSDOF 13
ENDMDL
MODEL 7
REMARK VINA RESULT:    -5.454      1.814      3.090
REMARK INTER + INTRA:          -9.033
REMARK INTER:                  -8.151
REMARK INTRA:                  -0.882
REMARK UNBOUND:                -0.708
REMARK SMILES OC[C@@H]1O[C@@](CO)(O[C@H]2O[C@H](CO)[C@H](O)[C@@H](O)[C@@H]2O)[C@@H](O)[C@H]1O
REMARK SMILES IDX 8 1 9 2 11 3 14 4 10 5 16 6 18 7 12 8 13 9 15 11 17 13 19 15
REMARK SMILES IDX 5 17 20 18 4 19 22 20 3 21 6 22 7 23 21 25 23 27 2 29 1 30
REMARK H PARENT 13 10 15 12 17 14 19 16 7 24 21 26 23 28 1 31
REMARK Flexibility Score: inf
ROOT
ATOM      1  O   UNL     1      23.010  23.349  30.297  1.00  0.00    -0.313 OA
ENDROOT
BRANCH   1   2
ATOM      2  C   UNL     1      22.273  23.115  29.103  1.00  0.00     0.285 C 
ATOM      3  C   UNL     1      20.197  23.346  30.185  1.00  0.00     0.178 C 
ATOM      4  C   UNL     1      19.840  24.651  29.439  1.00  0.00     0.177 C 
ATOM      5  O   UNL     1      21.015  22.514  29.376  1.00  0.00    -0.341 OA
ATOM      6  C   UNL     1      21.131  25.390  29.042  1.00  0.00     0.179 C 
ATOM      7  C   UNL     1      22.104  24.437  28.320  1.00  0.00     0.202 C 
BRANCH   3   8
ATOM      8  C   UNL     1      18.944  22.553  30.583  1.00  0.00     0.191 C 
BRANCH   8   9
ATOM      9  O   UNL     1      17.893  23.417  30.926  1.00  0.00    -0.394 OA
ATOM     10  H   UNL     1      17.082  23.084  30.459  1.00  0.00     0.210 HD
ENDBRANCH   8   9
ENDBRANCH   3   8
BRANCH   4  11
ATOM     11  O   UNL     1      19.079  24.355  28.294  1.00  0.00    -0.387 OA
ATOM     12  H   UNL     1      18.816  23.400  28.363  1.00  0.00     0.211 HD
ENDBRANCH   4  11
BRANCH   6  13
ATOM     13  O   UNL     1      21.734  25.921  30.194  1.00  0.00    -0.387 OA
ATOM     14  H   UNL     1      22.651  26.202  29.937  1.00  0.00     0.211 HD
ENDBRANCH   6  13
BRANCH   7  15
ATOM     15  O   UNL     1      21.618  24.169  27.029  1.00  0.00    -0.385 OA
ATOM     16  H   UNL     1      20.632  24.076  27.104  1.00  0.00     0.211 HD
ENDBRANCH   7  15
ENDBRANCH   1   2
BRANCH   1  17
ATOM     17  C   UNL     1      24.427  23.396  30.113  1.00  0.00     0.224 C 
ATOM     18  C   UNL     1      25.078  22.303  30.990  1.00  0.00     0.208 C 
ATOM     19  O   UNL     1      24.810  23.166  28.762  1.00  0.00    -0.337 OA
ATOM     20  C   UNL     1      26.233  21.840  30.135  1.00  0.00     0.180 C 
ATOM     21  C   UNL     1      25.699  22.073  28.730  1.00  0.00     0.179 C 
BRANCH  17  22
ATOM     22  C   UNL     1      24.953  24.780  30.555  1.00  0.00     0.225 C 
BRANCH  22  23
ATOM     23  O   UNL     1      24.351  25.184  31.754  1.00  0.00    -0.391 OA
ATOM     24  H   UNL     1      24.978  25.828  32.175  1.00  0.00     0.210 HD
ENDBRANCH  22  23
ENDBRANCH  17  22
BRANCH  18  25
ATOM     25  O   UNL     1      24.175  21.246  31.211  1.00  0.00    -0.385 OA
ATOM     26  H   UNL     1      24.474  20.486  30.645  1.00  0.00     0.211 HD
ENDBRANCH  18  25
BRANCH  20  27
ATOM     27  O   UNL     1      26.546  20.487  30.337  1.00  0.00    -0.387 OA
ATOM     28  H   UNL     1      27.430  20.468  30.787  1.00  0.00     0.211 HD
ENDBRANCH  20  27
BRANCH  21  29
ATOM     29  C   UNL     1      26.815  22.332  27.713  1.00  0.00     0.191 C 
BRANCH  29  30
ATOM     30  O   UNL     1      27.028  23.708  27.559  1.00  0.00    -0.394 OA
ATOM     31  H   UNL     1      26.995  23.884  26.583  1.00  0.00     0.210 HD
ENDBRANCH  29  30
ENDBRANCH  21  29
ENDBRANCH   1  17
TORSDOF 13
ENDMDL
MODEL 8
REMARK VINA RESULT:    -5.429      1.785      3.513
REMARK INTER + INTRA:          -8.994
REMARK INTER:                  -7.725
REMARK INTRA:                  -1.269
REMARK UNBOUND:                -0.708
REMARK SMILES OC[C@@H]1O[C@@](CO)(O[C@H]2O[C@H](CO)[C@H](O)[C@@H](O)[C@@H]2O)[C@@H](O)[C@H]1O
REMARK SMILES IDX 8 1 9 2 11 3 14 4 10 5 16 6 18 7 12 8 13 9 15 11 17 13 19 15
REMARK SMILES IDX 5 17 20 18 4 19 22 20 3 21 6 22 7 23 21 25 23 27 2 29 1 30
REMARK H PARENT 13 10 15 12 17 14 19 16 7 24 21 26 23 28 1 31
REMARK Flexibility Score: inf
ROOT
ATOM      1  O   UNL     1      22.957  23.300  30.342  1.00  0.00    -0.313 OA
ENDROOT
BRANCH   1   2
ATOM      2  C   UNL     1      22.238  23.061  29.137  1.00  0.00     0.285 C 
ATOM      3  C   UNL     1      20.146  23.333  30.179  1.00  0.00     0.178 C 
ATOM      4  C   UNL     1      19.820  24.633  29.411  1.00  0.00     0.177 C 
ATOM      5  O   UNL     1      20.966  22.481  29.396  1.00  0.00    -0.341 OA
ATOM      6  C   UNL     1      21.128  25.350  29.028  1.00  0.00     0.179 C 
ATOM      7  C   UNL     1      22.101  24.375  28.335  1.00  0.00     0.202 C 
BRANCH   3   8
ATOM      8  C   UNL     1      18.875  22.562  30.565  1.00  0.00     0.191 C 
BRANCH   8   9
ATOM      9  O   UNL     1      17.849  23.443  30.939  1.00  0.00    -0.394 OA
ATOM     10  H   UNL     1      18.055  23.750  31.860  1.00  0.00     0.210 HD
ENDBRANCH   8   9
ENDBRANCH   3   8
BRANCH   4  11
ATOM     11  O   UNL     1      19.075  24.333  28.257  1.00  0.00    -0.387 OA
ATOM     12  H   UNL     1      18.122  24.500  28.479  1.00  0.00     0.211 HD
ENDBRANCH   4  11
BRANCH   6  13
ATOM     13  O   UNL     1      21.718  25.887  30.184  1.00  0.00    -0.387 OA
ATOM     14  H   UNL     1      22.541  25.361  30.360  1.00  0.00     0.211 HD
ENDBRANCH   6  13
BRANCH   7  15
ATOM     15  O   UNL     1      21.633  24.098  27.039  1.00  0.00    -0.385 OA
ATOM     16  H   UNL     1      20.648  24.226  27.053  1.00  0.00     0.211 HD
ENDBRANCH   7  15
ENDBRANCH   1   2
BRANCH   1  17
ATOM     17  C   UNL     1      24.364  23.074  30.239  1.00  0.00     0.224 C 
ATOM     18  C   UNL     1      25.095  24.429  30.367  1.00  0.00     0.208 C 
ATOM     19  O   UNL     1      24.854  22.209  31.257  1.00  0.00    -0.337 OA
ATOM     20  C   UNL     1      26.349  24.057  31.120  1.00  0.00     0.180 C 
ATOM     21  C   UNL     1      25.876  22.880  31.960  1.00  0.00     0.179 C 
BRANCH  17  22
ATOM     22  C   UNL     1      24.682  22.454  28.859  1.00  0.00     0.225 C 
BRANCH  22  23
ATOM     23  O   UNL     1      25.411  21.267  29.000  1.00  0.00    -0.391 OA
ATOM     24  H   UNL     1      26.342  21.480  28.731  1.00  0.00     0.210 HD
ENDBRANCH  22  23
ENDBRANCH  17  22
BRANCH  18  25
ATOM     25  O   UNL     1      24.323  25.337  31.114  1.00  0.00    -0.385 OA
ATOM     26  H   UNL     1      24.932  25.764  31.772  1.00  0.00     0.211 HD
ENDBRANCH  18  25
BRANCH  20  27
ATOM     27  O   UNL     1      26.819  25.099  31.934  1.00  0.00    -0.387 OA
ATOM     28  H   UNL     1      27.277  24.670  32.703  1.00  0.00     0.211 HD
ENDBRANCH  20  27
BRANCH  21  29
ATOM     29  C   UNL     1      27.009  21.907  32.298  1.00  0.00     0.191 C 
BRANCH  29  30
ATOM     30  O   UNL     1      27.030  20.843  31.386  1.00  0.00    -0.394 OA
ATOM     31  H   UNL     1      26.453  20.136  31.775  1.00  0.00     0.210 HD
ENDBRANCH  29  30
ENDBRANCH  21  29
ENDBRANCH   1  17
TORSDOF 13
ENDMDL
MODEL 9
REMARK VINA RESULT:    -5.301      3.219      6.750
REMARK INTER + INTRA:          -8.799
REMARK INTER:                  -7.819
REMARK INTRA:                  -0.980
REMARK UNBOUND:                -0.708
REMARK SMILES OC[C@@H]1O[C@@](CO)(O[C@H]2O[C@H](CO)[C@H](O)[C@@H](O)[C@@H]2O)[C@@H](O)[C@H]1O
REMARK SMILES IDX 8 1 9 2 11 3 14 4 10 5 16 6 18 7 12 8 13 9 15 11 17 13 19 15
REMARK SMILES IDX 5 17 20 18 4 19 22 20 3 21 6 22 7 23 21 25 23 27 2 29 1 30
REMARK H PARENT 13 10 15 12 17 14 19 16 7 24 21 26 23 28 1 31
REMARK Flexibility Score: inf
ROOT
ATOM      1  O   UNL     1      24.454  21.699  31.854  1.00  0.00    -0.313 OA
ENDROOT
BRANCH   1   2
ATOM      2  C   UNL     1      25.438  21.346  32.819  1.00  0.00     0.285 C 
ATOM      3  C   UNL     1      23.838  20.556  34.353  1.00  0.00     0.178 C 
ATOM      4  C   UNL     1      24.298  19.087  34.227  1.00  0.00     0.177 C 
ATOM      5  O   UNL     1      24.928  21.441  34.142  1.00  0.00    -0.341 OA
ATOM      6  C   UNL     1      24.917  18.854  32.837  1.00  0.00     0.179 C 
ATOM      7  C   UNL     1      25.979  19.929  32.528  1.00  0.00     0.202 C 
BRANCH   3   8
ATOM      8  C   UNL     1      23.234  20.852  35.733  1.00  0.00     0.191 C 
BRANCH   8   9
ATOM      9  O   UNL     1      24.205  21.370  36.604  1.00  0.00    -0.394 OA
ATOM     10  H   UNL     1      25.025  21.520  36.064  1.00  0.00     0.210 HD
ENDBRANCH   8   9
ENDBRANCH   3   8
BRANCH   4  11
ATOM     11  O   UNL     1      25.236  18.791  35.232  1.00  0.00    -0.387 OA
ATOM     12  H   UNL     1      24.723  18.636  36.068  1.00  0.00     0.211 HD
ENDBRANCH   4  11
BRANCH   6  13
ATOM     13  O   UNL     1      23.902  18.880  31.867  1.00  0.00    -0.387 OA
ATOM     14  H   UNL     1      23.114  18.423  32.261  1.00  0.00     0.211 HD
ENDBRANCH   6  13
BRANCH   7  15
ATOM     15  O   UNL     1      27.125  19.684  33.305  1.00  0.00    -0.385 OA
ATOM     16  H   UNL     1      26.899  18.947  33.930  1.00  0.00     0.211 HD
ENDBRANCH   7  15
ENDBRANCH   1   2
BRANCH   1  17
ATOM     17  C   UNL     1      24.467  23.078  31.480  1.00  0.00     0.224 C 
ATOM     18  C   UNL     1      23.968  23.202  30.023  1.00  0.00     0.208 C 
ATOM     19  O   UNL     1      23.627  23.877  32.305  1.00  0.00    -0.337 OA
ATOM     20  C   UNL     1      23.200  24.501  30.047  1.00  0.00     0.180 C 
ATOM     21  C   UNL     1      22.696  24.543  31.482  1.00  0.00     0.179 C 
BRANCH  17  22
ATOM     22  C   UNL     1      25.914  23.616  31.567  1.00  0.00     0.225 C 
BRANCH  22  23
ATOM     23  O   UNL     1      25.921  24.994  31.816  1.00  0.00    -0.391 OA
ATOM     24  H   UNL     1      25.385  25.409  31.091  1.00  0.00     0.210 HD
ENDBRANCH  22  23
ENDBRANCH  17  22
BRANCH  18  25
ATOM     25  O   UNL     1      23.114  22.131  29.702  1.00  0.00    -0.385 OA
ATOM     26  H   UNL     1      23.640  21.296  29.817  1.00  0.00     0.211 HD
ENDBRANCH  18  25
BRANCH  20  27
ATOM     27  O   UNL     1      22.130  24.513  29.138  1.00  0.00    -0.387 OA
ATOM     28  H   UNL     1      22.530  24.420  28.234  1.00  0.00     0.211 HD
ENDBRANCH  20  27
BRANCH  21  29
ATOM     29  C   UNL     1      22.477  25.972  31.985  1.00  0.00     0.191 C 
BRANCH  29  30
ATOM     30  O   UNL     1      23.187  26.187  33.174  1.00  0.00    -0.394 OA
ATOM     31  H   UNL     1      23.266  27.172  33.274  1.00  0.00     0.210 HD
ENDBRANCH  29  30
ENDBRANCH  21  29
ENDBRANCH   1  17
TORSDOF 13
ENDMDL
