MODEL 1
REMARK VINA RESULT:    -2.924      0.000      0.000
REMARK INTER + INTRA:          -3.412
REMARK INTER:                  -3.351
REMARK INTRA:                  -0.060
REMARK UNBOUND:                -0.060
REMARK SMILES CC(C)[C@@H]([NH3+])C(=O)[O-]
REMARK SMILES IDX 4 1 5 2 6 6 7 7 8 8 2 9 1 10 3 11
REMARK H PARENT 5 3 5 4 5 5
REMARK Flexibility Score: inf
ROOT
ATOM      1  C   UNL     1     139.805 102.487 107.062  1.00  0.00     0.230 C 
ENDROOT
BRANCH   1   2
ATOM      2  N   UNL     1     138.891 102.825 108.164  1.00  0.00    -0.350 N 
ATOM      3  H   UNL     1     139.245 103.659 108.685  1.00  0.00     0.345 HD
ATOM      4  H   UNL     1     137.929 103.020 107.801  1.00  0.00     0.345 HD
ATOM      5  H   UNL     1     138.843 102.033 108.847  1.00  0.00     0.345 HD
ENDBRANCH   1   2
BRANCH   1   6
ATOM      6  C   UNL     1     140.340 103.758 106.447  1.00  0.00     0.099 C 
ATOM      7  O   UNL     1     141.579 103.979 106.414  1.00  0.00    -0.544 OA
ATOM      8  O   UNL     1     139.463 104.689 105.905  1.00  0.00    -0.544 OA
ENDBRANCH   1   6
BRANCH   1   9
ATOM      9  C   UNL     1     140.971 101.567 107.535  1.00  0.00     0.047 C 
ATOM     10  C   UNL     1     141.206 100.411 106.546  1.00  0.00     0.014 C 
ATOM     11  C   UNL     1     140.710 100.986 108.935  1.00  0.00     0.014 C 
ENDBRANCH   1   9
TORSDOF 3
ENDMDL
MODEL 2
REMARK VINA RESULT:    -2.920      7.875      8.646
REMARK INTER + INTRA:          -3.407
REMARK INTER:                  -3.354
REMARK INTRA:                  -0.052
REMARK UNBOUND:                -0.060
REMARK SMILES CC(C)[C@@H]([NH3+])C(=O)[O-]
REMARK SMILES IDX 4 1 5 2 6 6 7 7 8 8 2 9 1 10 3 11
REMARK H PARENT 5 3 5 4 5 5
REMARK Flexibility Score: inf
ROOT
ATOM      1  C   UNL     1     136.961 106.242 101.084  1.00  0.00     0.230 C 
ENDROOT
BRANCH   1   2
ATOM      2  N   UNL     1     137.864 105.190 101.578  1.00  0.00    -0.350 N 
ATOM      3  H   UNL     1     138.775 105.607 101.875  1.00  0.00     0.345 HD
ATOM      4  H   UNL     1     137.433 104.679 102.383  1.00  0.00     0.345 HD
ATOM      5  H   UNL     1     138.073 104.507 100.813  1.00  0.00     0.345 HD
ENDBRANCH   1   2
BRANCH   1   6
ATOM      6  C   UNL     1     137.248 107.533 101.812  1.00  0.00     0.099 C 
ATOM      7  O   UNL     1     136.648 107.809 102.884  1.00  0.00    -0.544 OA
ATOM      8  O   UNL     1     138.186 108.422 101.302  1.00  0.00    -0.544 OA
ENDBRANCH   1   6
BRANCH   1   9
ATOM      9  C   UNL     1     137.082 106.436  99.542  1.00  0.00     0.047 C 
ATOM     10  C   UNL     1     135.696 106.502  98.877  1.00  0.00     0.014 C 
ATOM     11  C   UNL     1     137.901 105.310  98.886  1.00  0.00     0.014 C 
ENDBRANCH   1   9
TORSDOF 3
ENDMDL
MODEL 3
REMARK VINA RESULT:    -2.896      7.366      8.532
REMARK INTER + INTRA:          -3.380
REMARK INTER:                  -3.380
REMARK INTRA:                  -0.000
REMARK UNBOUND:                -0.060
REMARK SMILES CC(C)[C@@H]([NH3+])C(=O)[O-]
REMARK SMILES IDX 4 1 5 2 6 6 7 7 8 8 2 9 1 10 3 11
REMARK H PARENT 5 3 5 4 5 5
REMARK Flexibility Score: inf
ROOT
ATOM      1  C   UNL     1     143.223 109.522 104.924  1.00  0.00     0.230 C 
ENDROOT
BRANCH   1   2
ATOM      2  N   UNL     1     142.876 110.463 106.001  1.00  0.00    -0.350 N 
ATOM      3  H   UNL     1     142.091 111.083 105.700  1.00  0.00     0.345 HD
ATOM      4  H   UNL     1     142.603 109.947 106.870  1.00  0.00     0.345 HD
ATOM      5  H   UNL     1     143.692 111.082 106.215  1.00  0.00     0.345 HD
ENDBRANCH   1   2
BRANCH   1   6
ATOM      6  C   UNL     1     141.961 108.918 104.359  1.00  0.00     0.099 C 
ATOM      7  O   UNL     1     141.055 108.498 105.126  1.00  0.00    -0.544 OA
ATOM      8  O   UNL     1     141.790 108.827 102.983  1.00  0.00    -0.544 OA
ENDBRANCH   1   6
BRANCH   1   9
ATOM      9  C   UNL     1     144.060 110.208 103.801  1.00  0.00     0.047 C 
ATOM     10  C   UNL     1     145.125 109.251 103.236  1.00  0.00     0.014 C 
ATOM     11  C   UNL     1     144.750 111.489 104.301  1.00  0.00     0.014 C 
ENDBRANCH   1   9
TORSDOF 3
ENDMDL
MODEL 4
REMARK VINA RESULT:    -2.863      7.402      8.501
REMARK INTER + INTRA:          -3.342
REMARK INTER:                  -3.363
REMARK INTRA:                   0.021
REMARK UNBOUND:                -0.060
REMARK SMILES CC(C)[C@@H]([NH3+])C(=O)[O-]
REMARK SMILES IDX 4 1 5 2 6 6 7 7 8 8 2 9 1 10 3 11
REMARK H PARENT 5 3 5 4 5 5
REMARK Flexibility Score: inf
ROOT
ATOM      1  C   UNL     1     137.488 107.099 100.640  1.00  0.00     0.230 C 
ENDROOT
BRANCH   1   2
ATOM      2  N   UNL     1     136.439 108.120 100.792  1.00  0.00    -0.350 N 
ATOM      3  H   UNL     1     135.647 107.743 101.358  1.00  0.00     0.345 HD
ATOM      4  H   UNL     1     136.823 108.978 101.252  1.00  0.00     0.345 HD
ATOM      5  H   UNL     1     136.052 108.381  99.855  1.00  0.00     0.345 HD
ENDBRANCH   1   2
BRANCH   1   6
ATOM      6  C   UNL     1     137.956 106.653 102.003  1.00  0.00     0.099 C 
ATOM      7  O   UNL     1     138.333 105.467 102.193  1.00  0.00    -0.544 OA
ATOM      8  O   UNL     1     137.980 107.557 103.058  1.00  0.00    -0.544 OA
ENDBRANCH   1   6
BRANCH   1   9
ATOM      9  C   UNL     1     136.995 105.882  99.798  1.00  0.00     0.047 C 
ATOM     10  C   UNL     1     138.108 105.355  98.875  1.00  0.00     0.014 C 
ATOM     11  C   UNL     1     135.762 106.235  98.948  1.00  0.00     0.014 C 
ENDBRANCH   1   9
TORSDOF 3
ENDMDL
MODEL 5
REMARK VINA RESULT:    -2.856     17.652     18.627
REMARK INTER + INTRA:          -3.334
REMARK INTER:                  -3.260
REMARK INTRA:                  -0.074
REMARK UNBOUND:                -0.060
REMARK SMILES CC(C)[C@@H]([NH3+])C(=O)[O-]
REMARK SMILES IDX 4 1 5 2 6 6 7 7 8 8 2 9 1 10 3 11
REMARK H PARENT 5 3 5 4 5 5
REMARK Flexibility Score: inf
ROOT
ATOM      1  C   UNL     1     126.921 114.964 110.258  1.00  0.00     0.230 C 
ENDROOT
BRANCH   1   2
ATOM      2  N   UNL     1     125.567 114.521 109.888  1.00  0.00    -0.350 N 
ATOM      3  H   UNL     1     124.911 114.656 110.691  1.00  0.00     0.345 HD
ATOM      4  H   UNL     1     125.218 115.051 109.057  1.00  0.00     0.345 HD
ATOM      5  H   UNL     1     125.573 113.499 109.663  1.00  0.00     0.345 HD
ENDBRANCH   1   2
BRANCH   1   6
ATOM      6  C   UNL     1     126.824 116.137 111.204  1.00  0.00     0.099 C 
ATOM      7  O   UNL     1     125.707 116.505 111.653  1.00  0.00    -0.544 OA
ATOM      8  O   UNL     1     127.974 116.814 111.591  1.00  0.00    -0.544 OA
ENDBRANCH   1   6
BRANCH   1   9
ATOM      9  C   UNL     1     127.758 113.811 110.890  1.00  0.00     0.047 C 
ATOM     10  C   UNL     1     127.892 112.623 109.920  1.00  0.00     0.014 C 
ATOM     11  C   UNL     1     127.144 113.314 112.211  1.00  0.00     0.014 C 
ENDBRANCH   1   9
TORSDOF 3
ENDMDL
MODEL 6
REMARK VINA RESULT:    -2.851      7.465      8.635
REMARK INTER + INTRA:          -3.328
REMARK INTER:                  -3.275
REMARK INTRA:                  -0.053
REMARK UNBOUND:                -0.060
REMARK SMILES CC(C)[C@@H]([NH3+])C(=O)[O-]
REMARK SMILES IDX 4 1 5 2 6 6 7 7 8 8 2 9 1 10 3 11
REMARK H PARENT 5 3 5 4 5 5
REMARK Flexibility Score: inf
ROOT
ATOM      1  C   UNL     1     142.693 109.885 104.065  1.00  0.00     0.230 C 
ENDROOT
BRANCH   1   2
ATOM      2  N   UNL     1     142.190 109.108 102.922  1.00  0.00    -0.350 N 
ATOM      3  H   UNL     1     141.793 108.198 103.249  1.00  0.00     0.345 HD
ATOM      4  H   UNL     1     141.456 109.644 102.403  1.00  0.00     0.345 HD
ATOM      5  H   UNL     1     142.974 108.883 102.267  1.00  0.00     0.345 HD
ENDBRANCH   1   2
BRANCH   1   6
ATOM      6  C   UNL     1     142.114 109.329 105.344  1.00  0.00     0.099 C 
ATOM      7  O   UNL     1     141.019 109.762 105.790  1.00  0.00    -0.544 OA
ATOM      8  O   UNL     1     142.786 108.327 106.032  1.00  0.00    -0.544 OA
ENDBRANCH   1   6
BRANCH   1   9
ATOM      9  C   UNL     1     144.251 109.895 104.121  1.00  0.00     0.047 C 
ATOM     10  C   UNL     1     144.790 111.312 104.384  1.00  0.00     0.014 C 
ATOM     11  C   UNL     1     144.874 109.352 102.824  1.00  0.00     0.014 C 
ENDBRANCH   1   9
TORSDOF 3
ENDMDL
MODEL 7
REMARK VINA RESULT:    -2.817      2.183      3.296
REMARK INTER + INTRA:          -3.289
REMARK INTER:                  -3.234
REMARK INTRA:                  -0.054
REMARK UNBOUND:                -0.060
REMARK SMILES CC(C)[C@@H]([NH3+])C(=O)[O-]
REMARK SMILES IDX 4 1 5 2 6 6 7 7 8 8 2 9 1 10 3 11
REMARK H PARENT 5 3 5 4 5 5
REMARK Flexibility Score: inf
ROOT
ATOM      1  C   UNL     1     140.236 102.747 107.916  1.00  0.00     0.230 C 
ENDROOT
BRANCH   1   2
ATOM      2  N   UNL     1     138.804 102.842 108.243  1.00  0.00    -0.350 N 
ATOM      3  H   UNL     1     138.329 103.511 107.595  1.00  0.00     0.345 HD
ATOM      4  H   UNL     1     138.346 101.904 108.177  1.00  0.00     0.345 HD
ATOM      5  H   UNL     1     138.681 103.214 109.214  1.00  0.00     0.345 HD
ENDBRANCH   1   2
BRANCH   1   6
ATOM      6  C   UNL     1     140.683 101.311 108.033  1.00  0.00     0.099 C 
ATOM      7  O   UNL     1     140.778 100.761 109.162  1.00  0.00    -0.544 OA
ATOM      8  O   UNL     1     140.987 100.583 106.889  1.00  0.00    -0.544 OA
ENDBRANCH   1   6
BRANCH   1   9
ATOM      9  C   UNL     1     140.546 103.310 106.496  1.00  0.00     0.047 C 
ATOM     10  C   UNL     1     141.933 103.977 106.451  1.00  0.00     0.014 C 
ATOM     11  C   UNL     1     139.485 104.325 106.038  1.00  0.00     0.014 C 
ENDBRANCH   1   9
TORSDOF 3
ENDMDL
MODEL 8
REMARK VINA RESULT:    -2.793     17.583     18.531
REMARK INTER + INTRA:          -3.261
REMARK INTER:                  -3.207
REMARK INTRA:                  -0.054
REMARK UNBOUND:                -0.060
REMARK SMILES CC(C)[C@@H]([NH3+])C(=O)[O-]
REMARK SMILES IDX 4 1 5 2 6 6 7 7 8 8 2 9 1 10 3 11
REMARK H PARENT 5 3 5 4 5 5
REMARK Flexibility Score: inf
ROOT
ATOM      1  C   UNL     1     132.056 117.126 114.244  1.00  0.00     0.230 C 
ENDROOT
BRANCH   1   2
ATOM      2  N   UNL     1     131.992 118.574 114.497  1.00  0.00    -0.350 N 
ATOM      3  H   UNL     1     132.193 118.774 115.503  1.00  0.00     0.345 HD
ATOM      4  H   UNL     1     132.676 119.086 113.893  1.00  0.00     0.345 HD
ATOM      5  H   UNL     1     131.028 118.932 114.299  1.00  0.00     0.345 HD
ENDBRANCH   1   2
BRANCH   1   6
ATOM      6  C   UNL     1     131.260 116.396 115.299  1.00  0.00     0.099 C 
ATOM      7  O   UNL     1     130.536 115.414 114.987  1.00  0.00    -0.544 OA
ATOM      8  O   UNL     1     131.328 116.804 116.625  1.00  0.00    -0.544 OA
ENDBRANCH   1   6
BRANCH   1   9
ATOM      9  C   UNL     1     131.547 116.762 112.816  1.00  0.00     0.047 C 
ATOM     10  C   UNL     1     132.705 116.732 111.802  1.00  0.00     0.014 C 
ATOM     11  C   UNL     1     130.473 117.748 112.322  1.00  0.00     0.014 C 
ENDBRANCH   1   9
TORSDOF 3
ENDMDL
MODEL 9
REMARK VINA RESULT:    -2.782      1.723      2.175
REMARK INTER + INTRA:          -3.249
REMARK INTER:                  -3.202
REMARK INTRA:                  -0.048
REMARK UNBOUND:                -0.060
REMARK SMILES CC(C)[C@@H]([NH3+])C(=O)[O-]
REMARK SMILES IDX 4 1 5 2 6 6 7 7 8 8 2 9 1 10 3 11
REMARK H PARENT 5 3 5 4 5 5
REMARK Flexibility Score: inf
ROOT
ATOM      1  C   UNL     1     140.665 102.923 107.293  1.00  0.00     0.230 C 
ENDROOT
BRANCH   1   2
ATOM      2  N   UNL     1     141.829 103.167 106.426  1.00  0.00    -0.350 N 
ATOM      3  H   UNL     1     141.849 104.167 106.122  1.00  0.00     0.345 HD
ATOM      4  H   UNL     1     142.718 102.935 106.926  1.00  0.00     0.345 HD
ATOM      5  H   UNL     1     141.762 102.583 105.561  1.00  0.00     0.345 HD
ENDBRANCH   1   2
BRANCH   1   6
ATOM      6  C   UNL     1     139.450 103.599 106.705  1.00  0.00     0.099 C 
ATOM      7  O   UNL     1     138.753 104.380 107.404  1.00  0.00    -0.544 OA
ATOM      8  O   UNL     1     139.100 103.366 105.381  1.00  0.00    -0.544 OA
ENDBRANCH   1   6
BRANCH   1   9
ATOM      9  C   UNL     1     140.405 101.399 107.501  1.00  0.00     0.047 C 
ATOM     10  C   UNL     1     140.676 100.981 108.957  1.00  0.00     0.014 C 
ATOM     11  C   UNL     1     141.267 100.538 106.562  1.00  0.00     0.014 C 
ENDBRANCH   1   9
TORSDOF 3
ENDMDL
