MODEL 1
REMARK VINA RESULT:    -3.657      0.000      0.000
REMARK INTER + INTRA:          -4.273
REMARK INTER:                  -4.192
REMARK INTRA:                  -0.081
REMARK UNBOUND:                -0.081
REMARK SMILES COc1cc(C(=O)[O-])ccc1O
REMARK SMILES IDX 5 1 9 2 4 3 10 4 3 5 11 6 6 7 7 8 8 9 2 10 1 11 12 12
REMARK H PARENT 12 13
REMARK Flexibility Score: inf
ROOT
ATOM      1  C   UNL     1      -6.648  16.591  35.303  1.00  0.00     0.001 A 
ATOM      2  C   UNL     1      -6.468  16.743  36.689  1.00  0.00     0.014 A 
ATOM      3  C   UNL     1      -7.874  16.092  34.825  1.00  0.00     0.060 A 
ATOM      4  C   UNL     1      -7.492  16.406  37.576  1.00  0.00     0.051 A 
ATOM      5  C   UNL     1      -8.910  15.751  35.718  1.00  0.00     0.161 A 
ATOM      6  C   UNL     1      -8.710  15.911  37.095  1.00  0.00     0.157 A 
ENDROOT
BRANCH   1   7
ATOM      7  C   UNL     1      -5.560  16.949  34.367  1.00  0.00     0.072 C 
ATOM      8  O   UNL     1      -5.800  17.125  33.143  1.00  0.00    -0.545 OA
ATOM      9  O   UNL     1      -4.256  17.097  34.826  1.00  0.00    -0.545 OA
ENDBRANCH   1   7
BRANCH   5  10
ATOM     10  O   UNL     1     -10.145  15.251  35.275  1.00  0.00    -0.493 OA
ATOM     11  C   UNL     1     -10.569  15.234  33.916  1.00  0.00     0.278 C 
ENDBRANCH   5  10
BRANCH   6  12
ATOM     12  O   UNL     1      -9.731  15.575  37.983  1.00  0.00    -0.504 OA
ATOM     13  H   UNL     1     -10.019  16.204  38.723  1.00  0.00     0.293 HD
ENDBRANCH   6  12
TORSDOF 3
ENDMDL
MODEL 2
REMARK VINA RESULT:    -3.517      6.518      8.354
REMARK INTER + INTRA:          -4.112
REMARK INTER:                  -4.031
REMARK INTRA:                  -0.081
REMARK UNBOUND:                -0.081
REMARK SMILES COc1cc(C(=O)[O-])ccc1O
REMARK SMILES IDX 5 1 9 2 4 3 10 4 3 5 11 6 6 7 7 8 8 9 2 10 1 11 12 12
REMARK H PARENT 12 13
REMARK Flexibility Score: inf
ROOT
ATOM      1  C   UNL     1      -9.903  15.667  27.070  1.00  0.00     0.001 A 
ATOM      2  C   UNL     1      -8.566  16.099  27.050  1.00  0.00     0.014 A 
ATOM      3  C   UNL     1     -10.435  15.148  28.265  1.00  0.00     0.060 A 
ATOM      4  C   UNL     1      -7.779  16.015  28.200  1.00  0.00     0.051 A 
ATOM      5  C   UNL     1      -9.643  15.061  29.427  1.00  0.00     0.161 A 
ATOM      6  C   UNL     1      -8.313  15.498  29.386  1.00  0.00     0.157 A 
ENDROOT
BRANCH   1   7
ATOM      7  C   UNL     1     -10.734  15.758  25.849  1.00  0.00     0.072 C 
ATOM      8  O   UNL     1     -11.125  14.716  25.260  1.00  0.00    -0.545 OA
ATOM      9  O   UNL     1     -11.094  16.999  25.334  1.00  0.00    -0.545 OA
ENDBRANCH   1   7
BRANCH   5  10
ATOM     10  O   UNL     1     -10.142  14.548  30.636  1.00  0.00    -0.493 OA
ATOM     11  C   UNL     1     -10.816  15.321  31.624  1.00  0.00     0.278 C 
ENDBRANCH   5  10
BRANCH   6  12
ATOM     12  O   UNL     1      -7.524  15.414  30.533  1.00  0.00    -0.504 OA
ATOM     13  H   UNL     1      -7.651  16.051  31.312  1.00  0.00     0.293 HD
ENDBRANCH   6  12
TORSDOF 3
ENDMDL
MODEL 3
REMARK VINA RESULT:    -3.341      1.695      3.661
REMARK INTER + INTRA:          -3.911
REMARK INTER:                  -3.832
REMARK INTRA:                  -0.079
REMARK UNBOUND:                -0.081
REMARK SMILES COc1cc(C(=O)[O-])ccc1O
REMARK SMILES IDX 5 1 9 2 4 3 10 4 3 5 11 6 6 7 7 8 8 9 2 10 1 11 12 12
REMARK H PARENT 12 13
REMARK Flexibility Score: inf
ROOT
ATOM      1  C   UNL     1      -7.565  16.400  36.206  1.00  0.00     0.001 A 
ATOM      2  C   UNL     1      -6.366  16.746  35.559  1.00  0.00     0.014 A 
ATOM      3  C   UNL     1      -8.679  16.032  35.429  1.00  0.00     0.060 A 
ATOM      4  C   UNL     1      -6.283  16.724  34.166  1.00  0.00     0.051 A 
ATOM      5  C   UNL     1      -8.599  16.010  34.022  1.00  0.00     0.161 A 
ATOM      6  C   UNL     1      -7.395  16.358  33.397  1.00  0.00     0.157 A 
ENDROOT
BRANCH   1   7
ATOM      7  C   UNL     1      -7.648  16.423  37.683  1.00  0.00     0.072 C 
ATOM      8  O   UNL     1      -6.668  16.061  38.387  1.00  0.00    -0.545 OA
ATOM      9  O   UNL     1      -8.812  16.847  38.316  1.00  0.00    -0.545 OA
ENDBRANCH   1   7
BRANCH   5  10
ATOM     10  O   UNL     1      -9.691  15.649  33.216  1.00  0.00    -0.493 OA
ATOM     11  C   UNL     1     -10.933  15.160  33.711  1.00  0.00     0.278 C 
ENDBRANCH   5  10
BRANCH   6  12
ATOM     12  O   UNL     1      -7.309  16.338  32.005  1.00  0.00    -0.504 OA
ATOM     13  H   UNL     1      -7.940  15.779  31.443  1.00  0.00     0.293 HD
ENDBRANCH   6  12
TORSDOF 3
ENDMDL
MODEL 4
REMARK VINA RESULT:    -3.115      2.167      3.963
REMARK INTER + INTRA:          -3.652
REMARK INTER:                  -3.555
REMARK INTRA:                  -0.097
REMARK UNBOUND:                -0.081
REMARK SMILES COc1cc(C(=O)[O-])ccc1O
REMARK SMILES IDX 5 1 9 2 4 3 10 4 3 5 11 6 6 7 7 8 8 9 2 10 1 11 12 12
REMARK H PARENT 12 13
REMARK Flexibility Score: inf
ROOT
ATOM      1  C   UNL     1      -8.915  16.351  33.226  1.00  0.00     0.001 A 
ATOM      2  C   UNL     1      -7.608  16.781  32.937  1.00  0.00     0.014 A 
ATOM      3  C   UNL     1      -9.221  15.926  34.532  1.00  0.00     0.060 A 
ATOM      4  C   UNL     1      -6.629  16.786  33.933  1.00  0.00     0.051 A 
ATOM      5  C   UNL     1      -8.235  15.929  35.540  1.00  0.00     0.161 A 
ATOM      6  C   UNL     1      -6.939  16.362  35.231  1.00  0.00     0.157 A 
ENDROOT
BRANCH   1   7
ATOM      7  C   UNL     1      -9.949  16.348  32.168  1.00  0.00     0.072 C 
ATOM      8  O   UNL     1     -11.031  16.971  32.327  1.00  0.00    -0.545 OA
ATOM      9  O   UNL     1      -9.739  15.654  30.980  1.00  0.00    -0.545 OA
ENDBRANCH   1   7
BRANCH   5  10
ATOM     10  O   UNL     1      -8.506  15.511  36.853  1.00  0.00    -0.493 OA
ATOM     11  C   UNL     1      -9.303  16.236  37.782  1.00  0.00     0.278 C 
ENDBRANCH   5  10
BRANCH   6  12
ATOM     12  O   UNL     1      -5.960  16.367  36.223  1.00  0.00    -0.504 OA
ATOM     13  H   UNL     1      -6.130  15.969  37.140  1.00  0.00     0.293 HD
ENDBRANCH   6  12
TORSDOF 3
ENDMDL
MODEL 5
REMARK VINA RESULT:    -3.107      1.943      3.960
REMARK INTER + INTRA:          -3.643
REMARK INTER:                  -3.551
REMARK INTRA:                  -0.092
REMARK UNBOUND:                -0.081
REMARK SMILES COc1cc(C(=O)[O-])ccc1O
REMARK SMILES IDX 5 1 9 2 4 3 10 4 3 5 11 6 6 7 7 8 8 9 2 10 1 11 12 12
REMARK H PARENT 12 13
REMARK Flexibility Score: inf
ROOT
ATOM      1  C   UNL     1      -9.103  15.999  33.884  1.00  0.00     0.001 A 
ATOM      2  C   UNL     1      -9.725  15.436  35.010  1.00  0.00     0.014 A 
ATOM      3  C   UNL     1      -7.821  16.564  34.022  1.00  0.00     0.060 A 
ATOM      4  C   UNL     1      -9.080  15.437  36.249  1.00  0.00     0.051 A 
ATOM      5  C   UNL     1      -7.168  16.568  35.271  1.00  0.00     0.161 A 
ATOM      6  C   UNL     1      -7.806  16.001  36.382  1.00  0.00     0.157 A 
ENDROOT
BRANCH   1   7
ATOM      7  C   UNL     1      -9.789  15.995  32.573  1.00  0.00     0.072 C 
ATOM      8  O   UNL     1     -10.653  15.119  32.304  1.00  0.00    -0.545 OA
ATOM      9  O   UNL     1      -9.490  16.961  31.618  1.00  0.00    -0.545 OA
ENDBRANCH   1   7
BRANCH   5  10
ATOM     10  O   UNL     1      -5.889  17.123  35.445  1.00  0.00    -0.493 OA
ATOM     11  C   UNL     1      -4.759  16.815  34.638  1.00  0.00     0.278 C 
ENDBRANCH   5  10
BRANCH   6  12
ATOM     12  O   UNL     1      -7.164  16.002  37.620  1.00  0.00    -0.504 OA
ATOM     13  H   UNL     1      -7.239  15.217  38.257  1.00  0.00     0.293 HD
ENDBRANCH   6  12
TORSDOF 3
ENDMDL
MODEL 6
REMARK VINA RESULT:    -2.920      2.192      3.252
REMARK INTER + INTRA:          -3.429
REMARK INTER:                  -3.333
REMARK INTRA:                  -0.096
REMARK UNBOUND:                -0.081
REMARK SMILES COc1cc(C(=O)[O-])ccc1O
REMARK SMILES IDX 5 1 9 2 4 3 10 4 3 5 11 6 6 7 7 8 8 9 2 10 1 11 12 12
REMARK H PARENT 12 13
REMARK Flexibility Score: inf
ROOT
ATOM      1  C   UNL     1      -7.264  16.426  34.641  1.00  0.00     0.001 A 
ATOM      2  C   UNL     1      -8.288  15.782  35.356  1.00  0.00     0.014 A 
ATOM      3  C   UNL     1      -7.479  16.760  33.291  1.00  0.00     0.060 A 
ATOM      4  C   UNL     1      -9.501  15.479  34.734  1.00  0.00     0.051 A 
ATOM      5  C   UNL     1      -8.702  16.454  32.660  1.00  0.00     0.161 A 
ATOM      6  C   UNL     1      -9.710  15.812  33.391  1.00  0.00     0.157 A 
ENDROOT
BRANCH   1   7
ATOM      7  C   UNL     1      -5.981  16.747  35.304  1.00  0.00     0.072 C 
ATOM      8  O   UNL     1      -5.943  17.009  36.535  1.00  0.00    -0.545 OA
ATOM      9  O   UNL     1      -4.796  16.763  34.575  1.00  0.00    -0.545 OA
ENDBRANCH   1   7
BRANCH   5  10
ATOM     10  O   UNL     1      -8.950  16.772  31.315  1.00  0.00    -0.493 OA
ATOM     11  C   UNL     1      -8.545  15.972  30.209  1.00  0.00     0.278 C 
ENDBRANCH   5  10
BRANCH   6  12
ATOM     12  O   UNL     1     -10.922  15.507  32.772  1.00  0.00    -0.504 OA
ATOM     13  H   UNL     1     -11.123  14.575  32.431  1.00  0.00     0.293 HD
ENDBRANCH   6  12
TORSDOF 3
ENDMDL
MODEL 7
REMARK VINA RESULT:    -2.909      3.489      5.511
REMARK INTER + INTRA:          -3.415
REMARK INTER:                  -3.312
REMARK INTRA:                  -0.104
REMARK UNBOUND:                -0.081
REMARK SMILES COc1cc(C(=O)[O-])ccc1O
REMARK SMILES IDX 5 1 9 2 4 3 10 4 3 5 11 6 6 7 7 8 8 9 2 10 1 11 12 12
REMARK H PARENT 12 13
REMARK Flexibility Score: inf
ROOT
ATOM      1  C   UNL     1      -9.956  15.319  30.505  1.00  0.00     0.001 A 
ATOM      2  C   UNL     1     -10.805  14.260  30.869  1.00  0.00     0.014 A 
ATOM      3  C   UNL     1      -9.435  16.153  31.512  1.00  0.00     0.060 A 
ATOM      4  C   UNL     1     -11.125  14.039  32.211  1.00  0.00     0.051 A 
ATOM      5  C   UNL     1      -9.756  15.934  32.867  1.00  0.00     0.161 A 
ATOM      6  C   UNL     1     -10.603  14.872  33.208  1.00  0.00     0.157 A 
ENDROOT
BRANCH   1   7
ATOM      7  C   UNL     1      -9.620  15.549  29.083  1.00  0.00     0.072 C 
ATOM      8  O   UNL     1     -10.244  14.946  28.171  1.00  0.00    -0.545 OA
ATOM      9  O   UNL     1      -8.608  16.437  28.733  1.00  0.00    -0.545 OA
ENDBRANCH   1   7
BRANCH   5  10
ATOM     10  O   UNL     1      -9.254  16.746  33.896  1.00  0.00    -0.493 OA
ATOM     11  C   UNL     1      -7.931  16.666  34.416  1.00  0.00     0.278 C 
ENDBRANCH   5  10
BRANCH   6  12
ATOM     12  O   UNL     1     -10.925  14.650  34.547  1.00  0.00    -0.504 OA
ATOM     13  H   UNL     1     -10.687  13.782  35.012  1.00  0.00     0.293 HD
ENDBRANCH   6  12
TORSDOF 3
ENDMDL
MODEL 8
REMARK VINA RESULT:    -2.895      2.353      4.488
REMARK INTER + INTRA:          -3.400
REMARK INTER:                  -3.306
REMARK INTRA:                  -0.094
REMARK UNBOUND:                -0.081
REMARK SMILES COc1cc(C(=O)[O-])ccc1O
REMARK SMILES IDX 5 1 9 2 4 3 10 4 3 5 11 6 6 7 7 8 8 9 2 10 1 11 12 12
REMARK H PARENT 12 13
REMARK Flexibility Score: inf
ROOT
ATOM      1  C   UNL     1      -8.858  16.157  34.733  1.00  0.00     0.001 A 
ATOM      2  C   UNL     1      -7.566  16.600  34.403  1.00  0.00     0.014 A 
ATOM      3  C   UNL     1      -9.793  15.949  33.701  1.00  0.00     0.060 A 
ATOM      4  C   UNL     1      -7.216  16.831  33.071  1.00  0.00     0.051 A 
ATOM      5  C   UNL     1      -9.443  16.181  32.356  1.00  0.00     0.161 A 
ATOM      6  C   UNL     1      -8.150  16.622  32.049  1.00  0.00     0.157 A 
ENDROOT
BRANCH   1   7
ATOM      7  C   UNL     1      -9.225  15.914  36.145  1.00  0.00     0.072 C 
ATOM      8  O   UNL     1      -8.998  14.798  36.684  1.00  0.00    -0.545 OA
ATOM      9  O   UNL     1      -9.826  16.916  36.900  1.00  0.00    -0.545 OA
ENDBRANCH   1   7
BRANCH   5  10
ATOM     10  O   UNL     1     -10.351  15.984  31.302  1.00  0.00    -0.493 OA
ATOM     11  C   UNL     1     -10.638  14.722  30.709  1.00  0.00     0.278 C 
ENDBRANCH   5  10
BRANCH   6  12
ATOM     12  O   UNL     1      -7.798  16.854  30.719  1.00  0.00    -0.504 OA
ATOM     13  H   UNL     1      -6.831  16.848  30.418  1.00  0.00     0.293 HD
ENDBRANCH   6  12
TORSDOF 3
ENDMDL
MODEL 9
REMARK VINA RESULT:    -2.828      6.122      8.685
REMARK INTER + INTRA:          -3.322
REMARK INTER:                  -3.219
REMARK INTRA:                  -0.103
REMARK UNBOUND:                -0.081
REMARK SMILES COc1cc(C(=O)[O-])ccc1O
REMARK SMILES IDX 5 1 9 2 4 3 10 4 3 5 11 6 6 7 7 8 8 9 2 10 1 11 12 12
REMARK H PARENT 12 13
REMARK Flexibility Score: inf
ROOT
ATOM      1  C   UNL     1     -10.343  15.276  29.531  1.00  0.00     0.001 A 
ATOM      2  C   UNL     1     -11.095  14.340  28.802  1.00  0.00     0.014 A 
ATOM      3  C   UNL     1      -9.552  16.209  28.834  1.00  0.00     0.060 A 
ATOM      4  C   UNL     1     -11.060  14.338  27.406  1.00  0.00     0.051 A 
ATOM      5  C   UNL     1      -9.514  16.209  27.425  1.00  0.00     0.161 A 
ATOM      6  C   UNL     1     -10.272  15.268  26.717  1.00  0.00     0.157 A 
ENDROOT
BRANCH   1   7
ATOM      7  C   UNL     1     -10.384  15.276  31.010  1.00  0.00     0.072 C 
ATOM      8  O   UNL     1      -9.907  16.240  31.665  1.00  0.00    -0.545 OA
ATOM      9  O   UNL     1     -10.949  14.208  31.699  1.00  0.00    -0.545 OA
ENDBRANCH   1   7
BRANCH   5  10
ATOM     10  O   UNL     1      -8.736  17.125  26.698  1.00  0.00    -0.493 OA
ATOM     11  C   UNL     1      -7.324  17.040  26.541  1.00  0.00     0.278 C 
ENDBRANCH   5  10
BRANCH   6  12
ATOM     12  O   UNL     1     -10.238  15.262  25.323  1.00  0.00    -0.504 OA
ATOM     13  H   UNL     1      -9.980  16.088  24.796  1.00  0.00     0.293 HD
ENDBRANCH   6  12
TORSDOF 3
ENDMDL
