MODEL 1
REMARK VINA RESULT:   136.595      0.000      0.000
REMARK INTER + INTRA:         226.041
REMARK INTER:                 216.449
REMARK INTRA:                   9.592
REMARK UNBOUND:                 9.592
REMARK SMILES C[C@H]1O[C@@H](O[C@@H]2CC[C@]3(C)[C@@H](CC[C@]4(C)[C@H]3C=C[C@]35OC[C@@]6(CCC(C)(C)C[C@@H]63)[C@H](O)C[C@@]54C)[C@]2(C)CO)[C@@H](O)[C@@H](O[C@@H]2O[C@@H](CO)[C@H](O)[C@@H](O)[C@H]2O)[C@@H]1O
REMARK SMILES IDX 1 1 2 2 54 3 41 4 39 5 4 6 3 7 55 8 42 10 43 11 52 12 44 13
REMARK SMILES IDX 50 14 45 15 48 16 53 17 51 19 46 21 47 22 49 24 5 26 6 27
REMARK SMILES IDX 7 28 35 29 8 30 11 31 36 32 9 33 12 34 10 35 16 36 13 37
REMARK SMILES IDX 14 38 17 39 15 40 33 41 18 42 19 43 32 44 34 45 29 46 20 47
REMARK SMILES IDX 30 48 22 49 28 50 21 51 23 52 25 53 24 54 26 55 27 56 37 57
REMARK SMILES IDX 38 58 31 60 40 62
REMARK H PARENT 55 9 53 18 51 20 47 23 49 25 38 59 31 61 40 63
REMARK Flexibility Score: inf
ROOT
ATOM      1  C   UNL     1       3.641  29.264  20.998  1.00  0.00     0.041 C 
ATOM      2  C   UNL     1       3.573  28.505  22.346  1.00  0.00     0.150 C 
ATOM      3  C   UNL     1       4.229  27.109  22.023  1.00  0.00     0.175 C 
ATOM      4  C   UNL     1       3.617  25.987  22.833  1.00  0.00     0.186 C 
ATOM      5  C   UNL     1       3.208  26.402  24.249  1.00  0.00     0.202 C 
ATOM      6  C   UNL     1       2.557  27.919  24.452  1.00  0.00     0.282 C 
ATOM      7  O   UNL     1       2.298  28.488  23.114  1.00  0.00    -0.344 OA
ENDROOT
BRANCH   3   8
ATOM      8  O   UNL     1       5.637  27.121  22.244  1.00  0.00    -0.388 OA
ATOM      9  H   UNL     1       5.763  26.796  23.176  1.00  0.00     0.211 HD
ENDBRANCH   3   8
BRANCH   4  10
ATOM     10  O   UNL     1       2.651  25.150  22.150  1.00  0.00    -0.341 OA
BRANCH  10  11
ATOM     11  C   UNL     1       3.120  23.996  21.484  1.00  0.00     0.282 C 
ATOM     12  C   UNL     1       3.340  24.342  19.958  1.00  0.00     0.202 C 
ATOM     13  O   UNL     1       4.353  23.496  22.039  1.00  0.00    -0.341 OA
ATOM     14  C   UNL     1       4.389  23.372  19.290  1.00  0.00     0.179 C 
ATOM     15  C   UNL     1       4.867  22.295  21.417  1.00  0.00     0.178 C 
ATOM     16  C   UNL     1       4.182  21.996  20.045  1.00  0.00     0.177 C 
BRANCH  12  17
ATOM     17  O   UNL     1       2.164  24.341  19.179  1.00  0.00    -0.385 OA
ATOM     18  H   UNL     1       2.083  25.165  18.607  1.00  0.00     0.211 HD
ENDBRANCH  12  17
BRANCH  14  19
ATOM     19  O   UNL     1       4.192  23.305  17.874  1.00  0.00    -0.387 OA
ATOM     20  H   UNL     1       3.208  23.202  17.642  1.00  0.00     0.211 HD
ENDBRANCH  14  19
BRANCH  15  21
ATOM     21  C   UNL     1       5.011  21.110  22.471  1.00  0.00     0.191 C 
BRANCH  21  22
ATOM     22  O   UNL     1       5.734  21.477  23.644  1.00  0.00    -0.394 OA
ATOM     23  H   UNL     1       5.458  22.350  24.039  1.00  0.00     0.210 HD
ENDBRANCH  21  22
ENDBRANCH  15  21
BRANCH  16  24
ATOM     24  O   UNL     1       4.757  20.911  19.344  1.00  0.00    -0.387 OA
ATOM     25  H   UNL     1       5.137  21.249  18.485  1.00  0.00     0.211 HD
ENDBRANCH  16  24
ENDBRANCH  10  11
ENDBRANCH   4  10
BRANCH   6  26
ATOM     26  O   UNL     1       1.569  28.289  25.597  1.00  0.00    -0.346 OA
BRANCH  26  27
ATOM     27  C   UNL     1       0.980  27.190  26.523  1.00  0.00     0.130 C 
ATOM     28  C   UNL     1       1.088  27.881  27.793  1.00  0.00     0.033 C 
ATOM     29  C   UNL     1       1.776  25.840  27.023  1.00  0.00     0.020 C 
ATOM     30  C   UNL     1       0.262  27.710  28.929  1.00  0.00     0.010 C 
ATOM     31  C   UNL     1       1.521  25.508  28.754  1.00  0.00     0.006 C 
ATOM     32  C   UNL     1       1.278  24.550  26.215  1.00  0.00     0.017 C 
ATOM     33  C   UNL     1       0.292  26.277  29.324  1.00  0.00    -0.022 C 
ATOM     34  C   UNL     1       1.115  24.106  29.525  1.00  0.00     0.005 C 
ATOM     35  C   UNL     1       0.488  26.554  30.936  1.00  0.00     0.012 C 
ATOM     36  C   UNL     1      -1.067  25.294  28.847  1.00  0.00     0.024 C 
ATOM     37  C   UNL     1      -0.308  24.069  30.502  1.00  0.00     0.008 C 
ATOM     38  C   UNL     1      -1.722  24.978  30.064  1.00  0.00    -0.017 C 
ATOM     39  C   UNL     1      -2.009  24.850  27.666  1.00  0.00    -0.024 C 
ATOM     40  C   UNL     1      -2.659  23.694  30.047  1.00  0.00     0.013 C 
ATOM     41  C   UNL     1      -2.870  26.427  30.027  1.00  0.00     0.009 C 
ATOM     42  C   UNL     1      -3.319  25.236  27.731  1.00  0.00     0.005 C 
ATOM     43  C   UNL     1      -3.565  26.541  28.482  1.00  0.00     0.096 C 
ATOM     44  C   UNL     1      -2.574  28.034  30.361  1.00  0.00     0.043 C 
ATOM     45  C   UNL     1      -3.978  26.126  31.123  1.00  0.00     0.015 C 
ATOM     46  C   UNL     1      -3.108  27.664  27.437  1.00  0.00     0.037 C 
ATOM     47  O   UNL     1      -4.932  26.868  28.647  1.00  0.00    -0.369 OA
ATOM     48  C   UNL     1      -2.856  29.274  29.376  1.00  0.00     0.124 C 
ATOM     49  C   UNL     1      -3.665  28.890  28.064  1.00  0.00     0.026 C 
ATOM     50  C   UNL     1      -3.843  27.414  25.993  1.00  0.00     0.014 C 
ATOM     51  C   UNL     1      -5.032  28.299  28.494  1.00  0.00     0.171 C 
ATOM     52  C   UNL     1      -3.701  30.121  27.052  1.00  0.00     0.013 C 
ATOM     53  C   UNL     1      -3.724  28.561  24.948  1.00  0.00    -0.035 C 
ATOM     54  C   UNL     1      -3.151  29.841  25.614  1.00  0.00     0.007 C 
ATOM     55  C   UNL     1      -5.109  28.850  24.301  1.00  0.00     0.011 C 
ATOM     56  C   UNL     1      -2.736  28.127  23.814  1.00  0.00     0.011 C 
BRANCH  29  57
ATOM     57  C   UNL     1       3.264  26.233  26.549  1.00  0.00     0.165 C 
BRANCH  57  58
ATOM     58  O   UNL     1       3.919  25.107  25.982  1.00  0.00    -0.396 OA
ATOM     59  H   UNL     1       3.241  24.382  25.905  1.00  0.00     0.210 HD
ENDBRANCH  57  58
ENDBRANCH  29  57
BRANCH  48  60
ATOM     60  O   UNL     1      -1.697  30.110  29.201  1.00  0.00    -0.392 OA
ATOM     61  H   UNL     1      -1.865  30.949  29.709  1.00  0.00     0.210 HD
ENDBRANCH  48  60
ENDBRANCH  26  27
ENDBRANCH   6  26
BRANCH   5  62
ATOM     62  O   UNL     1       2.475  25.307  24.740  1.00  0.00    -0.385 OA
ATOM     63  H   UNL     1       1.508  25.440  24.450  1.00  0.00     0.211 HD
ENDBRANCH   5  62
TORSDOF 14
ENDMDL
