MODEL 1
REMARK VINA RESULT:    -5.496      0.000      0.000
REMARK INTER + INTRA:          -8.290
REMARK INTER:                  -7.585
REMARK INTRA:                  -0.705
REMARK UNBOUND:                -0.705
REMARK SMILES C[C@@H]1OC(=O)[C@H](C)[C@@H]1C[C@@H](O)[C@@](C)(O)[C@@H]1CC[C@]2(O)C3=CC(=O)[C@H]4C[C@H](O)[C@@H](O)C[C@]4(C)[C@H]3CC[C@@]12C
REMARK SMILES IDX 12 1 13 2 10 3 9 4 8 5 7 6 6 7 4 8 2 9 3 10 5 11 1 12 11 13
REMARK SMILES IDX 15 15 16 16 36 17 17 18 18 19 35 20 37 21 20 22 34 23 33 24
REMARK SMILES IDX 21 25 31 26 22 27 24 28 30 29 32 30 23 31 25 32 28 33 26 34
REMARK SMILES IDX 19 35 29 37 27 39 14 41
REMARK H PARENT 11 14 19 36 29 38 27 40 14 42
REMARK Flexibility Score: inf
ROOT
ATOM      1  C   UNL     1      24.842  10.425  32.936  1.00  0.00     0.091 C 
ATOM      2  C   UNL     1      26.080  10.379  33.855  1.00  0.00     0.045 C 
ENDROOT
BRANCH   1   3
ATOM      3  C   UNL     1      23.611  11.020  33.738  1.00  0.00     0.146 C 
BRANCH   3   4
ATOM      4  C   UNL     1      22.386  10.055  33.813  1.00  0.00     0.043 C 
BRANCH   4   5
ATOM      5  C   UNL     1      21.033  10.720  34.243  1.00  0.00     0.046 C 
ATOM      6  C   UNL     1      20.199  10.540  31.702  1.00  0.00     0.020 C 
ATOM      7  C   UNL     1      19.869  10.597  33.199  1.00  0.00     0.103 C 
ATOM      8  C   UNL     1      19.173   9.373  33.671  1.00  0.00     0.309 C 
ATOM      9  C   UNL     1      20.399  10.020  35.493  1.00  0.00     0.177 C 
ATOM     10  O   UNL     1      19.513   9.048  34.963  1.00  0.00    -0.462 OA
ATOM     11  O   UNL     1      18.325   8.722  33.000  1.00  0.00    -0.252 OA
ATOM     12  C   UNL     1      21.329   9.381  36.523  1.00  0.00     0.053 C 
ENDBRANCH   4   5
ENDBRANCH   3   4
BRANCH   3  13
ATOM     13  O   UNL     1      23.996  11.472  35.021  1.00  0.00    -0.390 OA
ATOM     14  H   UNL     1      24.982  11.372  35.097  1.00  0.00     0.211 HD
ENDBRANCH   3  13
ENDBRANCH   1   3
BRANCH   1  15
ATOM     15  C   UNL     1      25.154  11.324  31.668  1.00  0.00     0.032 C 
ATOM     16  C   UNL     1      24.488  12.736  31.688  1.00  0.00     0.010 C 
ATOM     17  C   UNL     1      24.849  10.795  30.221  1.00  0.00     0.006 C 
ATOM     18  C   UNL     1      24.175  13.123  30.238  1.00  0.00     0.041 C 
ATOM     19  C   UNL     1      24.962  12.114  29.404  1.00  0.00     0.092 C 
ATOM     20  C   UNL     1      25.869   9.753  29.634  1.00  0.00     0.011 C 
ATOM     21  C   UNL     1      23.406  10.190  30.162  1.00  0.00     0.015 C 
ATOM     22  C   UNL     1      24.503  11.858  27.981  1.00  0.00    -0.031 C 
ATOM     23  C   UNL     1      26.181   9.928  28.115  1.00  0.00     0.009 C 
ATOM     24  C   UNL     1      25.036  10.598  27.290  1.00  0.00     0.025 C 
ATOM     25  C   UNL     1      23.750  12.740  27.299  1.00  0.00     0.050 C 
ATOM     26  C   UNL     1      25.385  10.906  25.786  1.00  0.00    -0.013 C 
ATOM     27  C   UNL     1      23.390  12.499  25.889  1.00  0.00     0.159 C 
ATOM     28  C   UNL     1      24.033  11.355  25.132  1.00  0.00     0.070 C 
ATOM     29  C   UNL     1      25.863   9.621  25.047  1.00  0.00     0.042 C 
ATOM     30  C   UNL     1      26.483  12.008  25.692  1.00  0.00     0.013 C 
ATOM     31  O   UNL     1      22.390  13.096  25.410  1.00  0.00    -0.295 OA
ATOM     32  C   UNL     1      24.176  11.628  23.626  1.00  0.00     0.047 C 
ATOM     33  C   UNL     1      25.927   9.750  23.504  1.00  0.00     0.143 C 
ATOM     34  C   UNL     1      24.640  10.359  22.894  1.00  0.00     0.143 C 
BRANCH  19  35
ATOM     35  O   UNL     1      26.312  12.544  29.377  1.00  0.00    -0.385 OA
ATOM     36  H   UNL     1      26.886  11.735  29.352  1.00  0.00     0.211 HD
ENDBRANCH  19  35
BRANCH  33  37
ATOM     37  O   UNL     1      27.046  10.498  23.100  1.00  0.00    -0.390 OA
ATOM     38  H   UNL     1      27.577   9.922  22.492  1.00  0.00     0.211 HD
ENDBRANCH  33  37
BRANCH  34  39
ATOM     39  O   UNL     1      23.606   9.407  22.922  1.00  0.00    -0.390 OA
ATOM     40  H   UNL     1      23.619   8.982  23.825  1.00  0.00     0.211 HD
ENDBRANCH  34  39
ENDBRANCH   1  15
BRANCH   1  41
ATOM     41  O   UNL     1      24.572   9.100  32.557  1.00  0.00    -0.387 OA
ATOM     42  H   UNL     1      25.252   8.503  32.965  1.00  0.00     0.211 HD
ENDBRANCH   1  41
TORSDOF 9
ENDMDL
MODEL 2
REMARK VINA RESULT:    -5.491      3.044     10.610
REMARK INTER + INTRA:          -8.282
REMARK INTER:                  -8.240
REMARK INTRA:                  -0.042
REMARK UNBOUND:                -0.705
REMARK SMILES C[C@@H]1OC(=O)[C@H](C)[C@@H]1C[C@@H](O)[C@@](C)(O)[C@@H]1CC[C@]2(O)C3=CC(=O)[C@H]4C[C@H](O)[C@@H](O)C[C@]4(C)[C@H]3CC[C@@]12C
REMARK SMILES IDX 12 1 13 2 10 3 9 4 8 5 7 6 6 7 4 8 2 9 3 10 5 11 1 12 11 13
REMARK SMILES IDX 15 15 16 16 36 17 17 18 18 19 35 20 37 21 20 22 34 23 33 24
REMARK SMILES IDX 21 25 31 26 22 27 24 28 30 29 32 30 23 31 25 32 28 33 26 34
REMARK SMILES IDX 19 35 29 37 27 39 14 41
REMARK H PARENT 11 14 19 36 29 38 27 40 14 42
REMARK Flexibility Score: inf
ROOT
ATOM      1  C   UNL     1      22.534  10.319  31.603  1.00  0.00     0.091 C 
ATOM      2  C   UNL     1      20.996  10.443  31.616  1.00  0.00     0.045 C 
ENDROOT
BRANCH   1   3
ATOM      3  C   UNL     1      23.118  11.135  30.374  1.00  0.00     0.146 C 
BRANCH   3   4
ATOM      4  C   UNL     1      22.132  11.245  29.169  1.00  0.00     0.043 C 
BRANCH   4   5
ATOM      5  C   UNL     1      21.966  12.683  28.568  1.00  0.00     0.046 C 
ATOM      6  C   UNL     1      24.139  12.248  27.060  1.00  0.00     0.020 C 
ATOM      7  C   UNL     1      22.798  12.964  27.269  1.00  0.00     0.103 C 
ATOM      8  C   UNL     1      21.813  12.635  26.207  1.00  0.00     0.309 C 
ATOM      9  C   UNL     1      20.507  12.949  28.061  1.00  0.00     0.177 C 
ATOM     10  O   UNL     1      20.525  12.602  26.686  1.00  0.00    -0.462 OA
ATOM     11  O   UNL     1      22.097  12.456  24.990  1.00  0.00    -0.252 OA
ATOM     12  C   UNL     1      19.348  12.247  28.768  1.00  0.00     0.053 C 
ENDBRANCH   4   5
ENDBRANCH   3   4
BRANCH   3  13
ATOM     13  O   UNL     1      23.596  12.404  30.772  1.00  0.00    -0.390 OA
ATOM     14  H   UNL     1      23.389  13.050  30.046  1.00  0.00     0.211 HD
ENDBRANCH   3  13
ENDBRANCH   1   3
BRANCH   1  15
ATOM     15  C   UNL     1      23.124  10.882  32.962  1.00  0.00     0.032 C 
ATOM     16  C   UNL     1      24.639  10.580  33.191  1.00  0.00     0.010 C 
ATOM     17  C   UNL     1      22.463  10.503  34.336  1.00  0.00     0.006 C 
ATOM     18  C   UNL     1      24.858  10.417  34.700  1.00  0.00     0.041 C 
ATOM     19  C   UNL     1      23.573  10.960  35.324  1.00  0.00     0.092 C 
ATOM     20  C   UNL     1      21.131  11.256  34.694  1.00  0.00     0.011 C 
ATOM     21  C   UNL     1      22.215   8.958  34.405  1.00  0.00     0.015 C 
ATOM     22  C   UNL     1      23.214  10.499  36.724  1.00  0.00    -0.031 C 
ATOM     23  C   UNL     1      20.988  11.649  36.198  1.00  0.00     0.009 C 
ATOM     24  C   UNL     1      21.772  10.730  37.188  1.00  0.00     0.025 C 
ATOM     25  C   UNL     1      24.131  10.005  37.575  1.00  0.00     0.050 C 
ATOM     26  C   UNL     1      21.750  11.191  38.692  1.00  0.00    -0.013 C 
ATOM     27  C   UNL     1      23.765   9.642  38.958  1.00  0.00     0.159 C 
ATOM     28  C   UNL     1      22.398  10.011  39.496  1.00  0.00     0.070 C 
ATOM     29  C   UNL     1      20.289  11.364  39.204  1.00  0.00     0.042 C 
ATOM     30  C   UNL     1      22.532  12.527  38.868  1.00  0.00     0.013 C 
ATOM     31  O   UNL     1      24.498   8.835  39.585  1.00  0.00    -0.295 OA
ATOM     32  C   UNL     1      22.390  10.264  41.012  1.00  0.00     0.047 C 
ATOM     33  C   UNL     1      20.156  11.507  40.742  1.00  0.00     0.143 C 
ATOM     34  C   UNL     1      20.949  10.428  41.521  1.00  0.00     0.143 C 
BRANCH  19  35
ATOM     35  O   UNL     1      23.663  12.374  35.320  1.00  0.00    -0.385 OA
ATOM     36  H   UNL     1      24.600  12.617  35.100  1.00  0.00     0.211 HD
ENDBRANCH  19  35
BRANCH  33  37
ATOM     37  O   UNL     1      20.545  12.787  41.171  1.00  0.00    -0.390 OA
ATOM     38  H   UNL     1      21.409  12.992  40.729  1.00  0.00     0.211 HD
ENDBRANCH  33  37
BRANCH  34  39
ATOM     39  O   UNL     1      20.285   9.192  41.427  1.00  0.00    -0.390 OA
ATOM     40  H   UNL     1      20.536   8.659  42.232  1.00  0.00     0.211 HD
ENDBRANCH  34  39
ENDBRANCH   1  15
BRANCH   1  41
ATOM     41  O   UNL     1      22.827   8.954  31.455  1.00  0.00    -0.387 OA
ATOM     42  H   UNL     1      23.501   8.846  30.734  1.00  0.00     0.211 HD
ENDBRANCH   1  41
TORSDOF 9
ENDMDL
MODEL 3
REMARK VINA RESULT:    -5.476      5.836     10.568
REMARK INTER + INTRA:          -8.262
REMARK INTER:                  -7.764
REMARK INTRA:                  -0.498
REMARK UNBOUND:                -0.705
REMARK SMILES C[C@@H]1OC(=O)[C@H](C)[C@@H]1C[C@@H](O)[C@@](C)(O)[C@@H]1CC[C@]2(O)C3=CC(=O)[C@H]4C[C@H](O)[C@@H](O)C[C@]4(C)[C@H]3CC[C@@]12C
REMARK SMILES IDX 12 1 13 2 10 3 9 4 8 5 7 6 6 7 4 8 2 9 3 10 5 11 1 12 11 13
REMARK SMILES IDX 15 15 16 16 36 17 17 18 18 19 35 20 37 21 20 22 34 23 33 24
REMARK SMILES IDX 21 25 31 26 22 27 24 28 30 29 32 30 23 31 25 32 28 33 26 34
REMARK SMILES IDX 19 35 29 37 27 39 14 41
REMARK H PARENT 11 14 19 36 29 38 27 40 14 42
REMARK Flexibility Score: inf
ROOT
ATOM      1  C   UNL     1      21.405   8.464  37.318  1.00  0.00     0.091 C 
ATOM      2  C   UNL     1      21.004   8.967  38.720  1.00  0.00     0.045 C 
ENDROOT
BRANCH   1   3
ATOM      3  C   UNL     1      21.383   9.677  36.296  1.00  0.00     0.146 C 
BRANCH   3   4
ATOM      4  C   UNL     1      20.876   9.288  34.872  1.00  0.00     0.043 C 
BRANCH   4   5
ATOM      5  C   UNL     1      20.870  10.451  33.821  1.00  0.00     0.046 C 
ATOM      6  C   UNL     1      23.442   9.914  33.289  1.00  0.00     0.020 C 
ATOM      7  C   UNL     1      22.083  10.459  32.828  1.00  0.00     0.103 C 
ATOM      8  C   UNL     1      21.532   9.700  31.677  1.00  0.00     0.309 C 
ATOM      9  C   UNL     1      19.662  10.347  32.828  1.00  0.00     0.177 C 
ATOM     10  O   UNL     1      20.160   9.623  31.715  1.00  0.00    -0.462 OA
ATOM     11  O   UNL     1      22.220   9.218  30.734  1.00  0.00    -0.252 OA
ATOM     12  C   UNL     1      18.359   9.722  33.325  1.00  0.00     0.053 C 
ENDBRANCH   4   5
ENDBRANCH   3   4
BRANCH   3  13
ATOM     13  O   UNL     1      20.672  10.783  36.817  1.00  0.00    -0.390 OA
ATOM     14  H   UNL     1      19.763  10.469  37.071  1.00  0.00     0.211 HD
ENDBRANCH   3  13
ENDBRANCH   1   3
BRANCH   1  15
ATOM     15  C   UNL     1      22.855   7.826  37.376  1.00  0.00     0.032 C 
ATOM     16  C   UNL     1      23.912   8.519  36.460  1.00  0.00     0.010 C 
ATOM     17  C   UNL     1      23.065   6.296  37.086  1.00  0.00     0.006 C 
ATOM     18  C   UNL     1      24.897   7.442  35.990  1.00  0.00     0.041 C 
ATOM     19  C   UNL     1      24.608   6.249  36.899  1.00  0.00     0.092 C 
ATOM     20  C   UNL     1      22.669   5.311  38.245  1.00  0.00     0.011 C 
ATOM     21  C   UNL     1      22.302   5.887  35.782  1.00  0.00     0.015 C 
ATOM     22  C   UNL     1      25.007   4.870  36.409  1.00  0.00    -0.031 C 
ATOM     23  C   UNL     1      23.630   4.094  38.424  1.00  0.00     0.009 C 
ATOM     24  C   UNL     1      24.385   3.666  37.125  1.00  0.00     0.025 C 
ATOM     25  C   UNL     1      25.945   4.687  35.463  1.00  0.00     0.050 C 
ATOM     26  C   UNL     1      25.457   2.530  37.315  1.00  0.00    -0.013 C 
ATOM     27  C   UNL     1      26.370   3.331  35.067  1.00  0.00     0.159 C 
ATOM     28  C   UNL     1      25.901   2.132  35.866  1.00  0.00     0.070 C 
ATOM     29  C   UNL     1      24.828   1.270  37.979  1.00  0.00     0.042 C 
ATOM     30  C   UNL     1      26.649   3.041  38.180  1.00  0.00     0.013 C 
ATOM     31  O   UNL     1      26.919   3.172  33.946  1.00  0.00    -0.295 OA
ATOM     32  C   UNL     1      26.905   0.968  35.861  1.00  0.00     0.047 C 
ATOM     33  C   UNL     1      25.713  -0.001  37.922  1.00  0.00     0.143 C 
ATOM     34  C   UNL     1      26.283  -0.279  36.509  1.00  0.00     0.143 C 
BRANCH  19  35
ATOM     35  O   UNL     1      25.246   6.494  38.140  1.00  0.00    -0.385 OA
ATOM     36  H   UNL     1      24.540   6.691  38.809  1.00  0.00     0.211 HD
ENDBRANCH  19  35
BRANCH  33  37
ATOM     37  O   UNL     1      26.763   0.066  38.854  1.00  0.00    -0.390 OA
ATOM     38  H   UNL     1      27.493   0.589  38.433  1.00  0.00     0.211 HD
ENDBRANCH  33  37
BRANCH  34  39
ATOM     39  O   UNL     1      25.262  -0.769  35.675  1.00  0.00    -0.390 OA
ATOM     40  H   UNL     1      25.679  -1.427  35.051  1.00  0.00     0.211 HD
ENDBRANCH  34  39
ENDBRANCH   1  15
BRANCH   1  41
ATOM     41  O   UNL     1      20.449   7.506  36.945  1.00  0.00    -0.387 OA
ATOM     42  H   UNL     1      20.442   7.426  35.956  1.00  0.00     0.211 HD
ENDBRANCH   1  41
TORSDOF 9
ENDMDL
MODEL 4
REMARK VINA RESULT:    -5.471      3.536      6.417
REMARK INTER + INTRA:          -8.255
REMARK INTER:                  -8.266
REMARK INTRA:                   0.011
REMARK UNBOUND:                -0.705
REMARK SMILES C[C@@H]1OC(=O)[C@H](C)[C@@H]1C[C@@H](O)[C@@](C)(O)[C@@H]1CC[C@]2(O)C3=CC(=O)[C@H]4C[C@H](O)[C@@H](O)C[C@]4(C)[C@H]3CC[C@@]12C
REMARK SMILES IDX 12 1 13 2 10 3 9 4 8 5 7 6 6 7 4 8 2 9 3 10 5 11 1 12 11 13
REMARK SMILES IDX 15 15 16 16 36 17 17 18 18 19 35 20 37 21 20 22 34 23 33 24
REMARK SMILES IDX 21 25 31 26 22 27 24 28 30 29 32 30 23 31 25 32 28 33 26 34
REMARK SMILES IDX 19 35 29 37 27 39 14 41
REMARK H PARENT 11 14 19 36 29 38 27 40 14 42
REMARK Flexibility Score: inf
ROOT
ATOM      1  C   UNL     1      20.472   8.566  37.371  1.00  0.00     0.091 C 
ATOM      2  C   UNL     1      20.436   7.143  36.775  1.00  0.00     0.045 C 
ENDROOT
BRANCH   1   3
ATOM      3  C   UNL     1      21.258   8.541  38.748  1.00  0.00     0.146 C 
BRANCH   3   4
ATOM      4  C   UNL     1      20.434   9.101  39.950  1.00  0.00     0.043 C 
BRANCH   4   5
ATOM      5  C   UNL     1      21.225  10.037  40.927  1.00  0.00     0.046 C 
ATOM      6  C   UNL     1      20.300  12.153  39.567  1.00  0.00     0.020 C 
ATOM      7  C   UNL     1      20.816  11.550  40.880  1.00  0.00     0.103 C 
ATOM      8  C   UNL     1      19.807  11.620  41.968  1.00  0.00     0.309 C 
ATOM      9  C   UNL     1      20.951   9.691  42.431  1.00  0.00     0.177 C 
ATOM     10  O   UNL     1      19.882  10.540  42.816  1.00  0.00    -0.462 OA
ATOM     11  O   UNL     1      18.999  12.574  42.143  1.00  0.00    -0.252 OA
ATOM     12  C   UNL     1      20.636   8.243  42.803  1.00  0.00     0.053 C 
ENDBRANCH   4   5
ENDBRANCH   3   4
BRANCH   3  13
ATOM     13  O   UNL     1      21.776   7.256  39.028  1.00  0.00    -0.390 OA
ATOM     14  H   UNL     1      21.167   6.815  39.678  1.00  0.00     0.211 HD
ENDBRANCH   3  13
ENDBRANCH   1   3
BRANCH   1  15
ATOM     15  C   UNL     1      21.184   9.551  36.353  1.00  0.00     0.032 C 
ATOM     16  C   UNL     1      20.434  10.899  36.115  1.00  0.00     0.010 C 
ATOM     17  C   UNL     1      21.548   9.072  34.902  1.00  0.00     0.006 C 
ATOM     18  C   UNL     1      20.702  11.331  34.669  1.00  0.00     0.041 C 
ATOM     19  C   UNL     1      21.855  10.435  34.219  1.00  0.00     0.092 C 
ATOM     20  C   UNL     1      22.814   8.150  34.773  1.00  0.00     0.011 C 
ATOM     21  C   UNL     1      20.320   8.352  34.250  1.00  0.00     0.015 C 
ATOM     22  C   UNL     1      22.043  10.215  32.731  1.00  0.00    -0.031 C 
ATOM     23  C   UNL     1      23.699   8.428  33.518  1.00  0.00     0.009 C 
ATOM     24  C   UNL     1      22.931   9.040  32.304  1.00  0.00     0.025 C 
ATOM     25  C   UNL     1      21.551  11.063  31.810  1.00  0.00     0.050 C 
ATOM     26  C   UNL     1      23.830   9.452  31.080  1.00  0.00    -0.013 C 
ATOM     27  C   UNL     1      21.821  10.865  30.374  1.00  0.00     0.159 C 
ATOM     28  C   UNL     1      22.826   9.819  29.934  1.00  0.00     0.070 C 
ATOM     29  C   UNL     1      24.690   8.251  30.586  1.00  0.00     0.042 C 
ATOM     30  C   UNL     1      24.758  10.645  31.458  1.00  0.00     0.013 C 
ATOM     31  O   UNL     1      21.051  11.399  29.533  1.00  0.00    -0.295 OA
ATOM     32  C   UNL     1      23.542  10.178  28.622  1.00  0.00     0.047 C 
ATOM     33  C   UNL     1      25.365   8.463  29.207  1.00  0.00     0.143 C 
ATOM     34  C   UNL     1      24.385   8.992  28.130  1.00  0.00     0.143 C 
BRANCH  19  35
ATOM     35  O   UNL     1      23.049  10.978  34.754  1.00  0.00    -0.385 OA
ATOM     36  H   UNL     1      22.803  11.766  35.305  1.00  0.00     0.211 HD
ENDBRANCH  19  35
BRANCH  33  37
ATOM     37  O   UNL     1      26.472   9.321  29.307  1.00  0.00    -0.390 OA
ATOM     38  H   UNL     1      27.149   9.000  28.658  1.00  0.00     0.211 HD
ENDBRANCH  33  37
BRANCH  34  39
ATOM     39  O   UNL     1      23.527   7.956  27.720  1.00  0.00    -0.390 OA
ATOM     40  H   UNL     1      23.026   8.285  26.922  1.00  0.00     0.211 HD
ENDBRANCH  34  39
ENDBRANCH   1  15
BRANCH   1  41
ATOM     41  O   UNL     1      19.138   8.946  37.587  1.00  0.00    -0.387 OA
ATOM     42  H   UNL     1      19.081   9.936  37.586  1.00  0.00     0.211 HD
ENDBRANCH   1  41
TORSDOF 9
ENDMDL
MODEL 5
REMARK VINA RESULT:    -5.469      2.651     10.232
REMARK INTER + INTRA:          -8.252
REMARK INTER:                  -9.128
REMARK INTRA:                   0.876
REMARK UNBOUND:                -0.705
REMARK SMILES C[C@@H]1OC(=O)[C@H](C)[C@@H]1C[C@@H](O)[C@@](C)(O)[C@@H]1CC[C@]2(O)C3=CC(=O)[C@H]4C[C@H](O)[C@@H](O)C[C@]4(C)[C@H]3CC[C@@]12C
REMARK SMILES IDX 12 1 13 2 10 3 9 4 8 5 7 6 6 7 4 8 2 9 3 10 5 11 1 12 11 13
REMARK SMILES IDX 15 15 16 16 36 17 17 18 18 19 35 20 37 21 20 22 34 23 33 24
REMARK SMILES IDX 21 25 31 26 22 27 24 28 30 29 32 30 23 31 25 32 28 33 26 34
REMARK SMILES IDX 19 35 29 37 27 39 14 41
REMARK H PARENT 11 14 19 36 29 38 27 40 14 42
REMARK Flexibility Score: inf
ROOT
ATOM      1  C   UNL     1      23.195   9.454  31.108  1.00  0.00     0.091 C 
ATOM      2  C   UNL     1      23.024   8.335  30.059  1.00  0.00     0.045 C 
ENDROOT
BRANCH   1   3
ATOM      3  C   UNL     1      23.187  10.864  30.382  1.00  0.00     0.146 C 
BRANCH   3   4
ATOM      4  C   UNL     1      22.009  11.042  29.373  1.00  0.00     0.043 C 
BRANCH   4   5
ATOM      5  C   UNL     1      21.808  12.498  28.827  1.00  0.00     0.046 C 
ATOM      6  C   UNL     1      23.877  12.104  27.168  1.00  0.00     0.020 C 
ATOM      7  C   UNL     1      22.554  12.815  27.485  1.00  0.00     0.103 C 
ATOM      8  C   UNL     1      21.501  12.520  26.481  1.00  0.00     0.309 C 
ATOM      9  C   UNL     1      20.320  12.781  28.425  1.00  0.00     0.177 C 
ATOM     10  O   UNL     1      20.247  12.474  27.042  1.00  0.00    -0.462 OA
ATOM     11  O   UNL     1      21.703  12.376  25.243  1.00  0.00    -0.252 OA
ATOM     12  C   UNL     1      19.208  12.060  29.186  1.00  0.00     0.053 C 
ENDBRANCH   4   5
ENDBRANCH   3   4
BRANCH   3  13
ATOM     13  O   UNL     1      23.241  11.927  31.311  1.00  0.00    -0.390 OA
ATOM     14  H   UNL     1      23.292  11.535  32.223  1.00  0.00     0.211 HD
ENDBRANCH   3  13
ENDBRANCH   1   3
BRANCH   1  15
ATOM     15  C   UNL     1      22.017   9.376  32.166  1.00  0.00     0.032 C 
ATOM     16  C   UNL     1      20.865  10.404  31.937  1.00  0.00     0.010 C 
ATOM     17  C   UNL     1      22.316   9.496  33.703  1.00  0.00     0.006 C 
ATOM     18  C   UNL     1      20.301  10.784  33.311  1.00  0.00     0.041 C 
ATOM     19  C   UNL     1      20.883   9.734  34.256  1.00  0.00     0.092 C 
ATOM     20  C   UNL     1      22.915   8.218  34.394  1.00  0.00     0.011 C 
ATOM     21  C   UNL     1      23.260  10.716  33.973  1.00  0.00     0.015 C 
ATOM     22  C   UNL     1      20.969  10.077  35.731  1.00  0.00    -0.031 C 
ATOM     23  C   UNL     1      22.372   7.937  35.830  1.00  0.00     0.009 C 
ATOM     24  C   UNL     1      21.883   9.205  36.600  1.00  0.00     0.025 C 
ATOM     25  C   UNL     1      20.205  11.030  36.294  1.00  0.00     0.050 C 
ATOM     26  C   UNL     1      21.208   8.926  37.993  1.00  0.00    -0.013 C 
ATOM     27  C   UNL     1      20.253  11.283  37.746  1.00  0.00     0.159 C 
ATOM     28  C   UNL     1      21.015  10.335  38.650  1.00  0.00     0.070 C 
ATOM     29  C   UNL     1      22.150   8.099  38.917  1.00  0.00     0.042 C 
ATOM     30  C   UNL     1      19.857   8.170  37.806  1.00  0.00     0.013 C 
ATOM     31  O   UNL     1      19.863  12.398  38.180  1.00  0.00    -0.295 OA
ATOM     32  C   UNL     1      20.428  10.244  40.068  1.00  0.00     0.047 C 
ATOM     33  C   UNL     1      21.711   8.042  40.403  1.00  0.00     0.143 C 
ATOM     34  C   UNL     1      21.360   9.435  40.983  1.00  0.00     0.143 C 
BRANCH  19  35
ATOM     35  O   UNL     1      20.112   8.554  34.107  1.00  0.00    -0.385 OA
ATOM     36  H   UNL     1      20.141   8.064  34.970  1.00  0.00     0.211 HD
ENDBRANCH  19  35
BRANCH  33  37
ATOM     37  O   UNL     1      20.630   7.164  40.583  1.00  0.00    -0.390 OA
ATOM     38  H   UNL     1      20.542   7.005  41.558  1.00  0.00     0.211 HD
ENDBRANCH  33  37
BRANCH  34  39
ATOM     39  O   UNL     1      22.539  10.168  41.202  1.00  0.00    -0.390 OA
ATOM     40  H   UNL     1      22.308  10.928  41.806  1.00  0.00     0.211 HD
ENDBRANCH  34  39
ENDBRANCH   1  15
BRANCH   1  41
ATOM     41  O   UNL     1      24.439   9.240  31.725  1.00  0.00    -0.387 OA
ATOM     42  H   UNL     1      24.698   8.290  31.606  1.00  0.00     0.211 HD
ENDBRANCH   1  41
TORSDOF 9
ENDMDL
MODEL 6
REMARK VINA RESULT:    -5.414      3.672     11.314
REMARK INTER + INTRA:          -8.176
REMARK INTER:                  -7.526
REMARK INTRA:                  -0.650
REMARK UNBOUND:                -0.705
REMARK SMILES C[C@@H]1OC(=O)[C@H](C)[C@@H]1C[C@@H](O)[C@@](C)(O)[C@@H]1CC[C@]2(O)C3=CC(=O)[C@H]4C[C@H](O)[C@@H](O)C[C@]4(C)[C@H]3CC[C@@]12C
REMARK SMILES IDX 12 1 13 2 10 3 9 4 8 5 7 6 6 7 4 8 2 9 3 10 5 11 1 12 11 13
REMARK SMILES IDX 15 15 16 16 36 17 17 18 18 19 35 20 37 21 20 22 34 23 33 24
REMARK SMILES IDX 21 25 31 26 22 27 24 28 30 29 32 30 23 31 25 32 28 33 26 34
REMARK SMILES IDX 19 35 29 37 27 39 14 41
REMARK H PARENT 11 14 19 36 29 38 27 40 14 42
REMARK Flexibility Score: inf
ROOT
ATOM      1  C   UNL     1      19.513   9.598  33.351  1.00  0.00     0.091 C 
ATOM      2  C   UNL     1      18.012   9.366  33.079  1.00  0.00     0.045 C 
ENDROOT
BRANCH   1   3
ATOM      3  C   UNL     1      20.115  10.538  32.224  1.00  0.00     0.146 C 
BRANCH   3   4
ATOM      4  C   UNL     1      21.327   9.910  31.466  1.00  0.00     0.043 C 
BRANCH   4   5
ATOM      5  C   UNL     1      22.614  10.803  31.403  1.00  0.00     0.046 C 
ATOM      6  C   UNL     1      24.011   8.770  32.452  1.00  0.00     0.020 C 
ATOM      7  C   UNL     1      23.968  10.034  31.583  1.00  0.00     0.103 C 
ATOM      8  C   UNL     1      24.345   9.761  30.172  1.00  0.00     0.309 C 
ATOM      9  C   UNL     1      22.815  11.455  29.992  1.00  0.00     0.177 C 
ATOM     10  O   UNL     1      23.656  10.557  29.288  1.00  0.00    -0.462 OA
ATOM     11  O   UNL     1      25.230   8.938  29.808  1.00  0.00    -0.252 OA
ATOM     12  C   UNL     1      21.579  11.787  29.157  1.00  0.00     0.053 C 
ENDBRANCH   4   5
ENDBRANCH   3   4
BRANCH   3  13
ATOM     13  O   UNL     1      19.115  10.982  31.328  1.00  0.00    -0.390 OA
ATOM     14  H   UNL     1      19.529  11.071  30.428  1.00  0.00     0.211 HD
ENDBRANCH   3  13
ENDBRANCH   1   3
BRANCH   1  15
ATOM     15  C   UNL     1      19.698  10.267  34.776  1.00  0.00     0.032 C 
ATOM     16  C   UNL     1      20.250  11.727  34.747  1.00  0.00     0.010 C 
ATOM     17  C   UNL     1      20.572   9.567  35.878  1.00  0.00     0.006 C 
ATOM     18  C   UNL     1      21.099  11.929  36.007  1.00  0.00     0.041 C 
ATOM     19  C   UNL     1      20.745  10.734  36.891  1.00  0.00     0.092 C 
ATOM     20  C   UNL     1      19.908   8.352  36.621  1.00  0.00     0.011 C 
ATOM     21  C   UNL     1      21.941   9.110  35.268  1.00  0.00     0.015 C 
ATOM     22  C   UNL     1      21.741  10.322  37.959  1.00  0.00    -0.031 C 
ATOM     23  C   UNL     1      20.219   8.271  38.148  1.00  0.00     0.009 C 
ATOM     24  C   UNL     1      21.572   8.927  38.571  1.00  0.00     0.025 C 
ATOM     25  C   UNL     1      22.671  11.167  38.439  1.00  0.00     0.050 C 
ATOM     26  C   UNL     1      21.839   8.976  40.121  1.00  0.00    -0.013 C 
ATOM     27  C   UNL     1      23.570  10.762  39.536  1.00  0.00     0.159 C 
ATOM     28  C   UNL     1      23.322   9.460  40.271  1.00  0.00     0.070 C 
ATOM     29  C   UNL     1      21.741   7.555  40.752  1.00  0.00     0.042 C 
ATOM     30  C   UNL     1      20.829   9.934  40.822  1.00  0.00     0.013 C 
ATOM     31  O   UNL     1      24.655  11.381  39.689  1.00  0.00    -0.295 OA
ATOM     32  C   UNL     1      23.780   9.495  41.738  1.00  0.00     0.047 C 
ATOM     33  C   UNL     1      22.291   7.450  42.198  1.00  0.00     0.143 C 
ATOM     34  C   UNL     1      23.691   8.093  42.360  1.00  0.00     0.143 C 
BRANCH  19  35
ATOM     35  O   UNL     1      19.503  11.016  37.510  1.00  0.00    -0.385 OA
ATOM     36  H   UNL     1      19.385  10.373  38.258  1.00  0.00     0.211 HD
ENDBRANCH  19  35
BRANCH  33  37
ATOM     37  O   UNL     1      21.398   8.013  43.125  1.00  0.00    -0.390 OA
ATOM     38  H   UNL     1      21.866   8.043  43.999  1.00  0.00     0.211 HD
ENDBRANCH  33  37
BRANCH  34  39
ATOM     39  O   UNL     1      24.663   7.265  41.769  1.00  0.00    -0.390 OA
ATOM     40  H   UNL     1      24.251   6.859  40.956  1.00  0.00     0.211 HD
ENDBRANCH  34  39
ENDBRANCH   1  15
BRANCH   1  41
ATOM     41  O   UNL     1      20.130   8.337  33.304  1.00  0.00    -0.387 OA
ATOM     42  H   UNL     1      19.833   7.864  32.484  1.00  0.00     0.211 HD
ENDBRANCH   1  41
TORSDOF 9
ENDMDL
MODEL 7
REMARK VINA RESULT:    -5.349      3.421      6.766
REMARK INTER + INTRA:          -8.086
REMARK INTER:                  -8.043
REMARK INTRA:                  -0.044
REMARK UNBOUND:                -0.705
REMARK SMILES C[C@@H]1OC(=O)[C@H](C)[C@@H]1C[C@@H](O)[C@@](C)(O)[C@@H]1CC[C@]2(O)C3=CC(=O)[C@H]4C[C@H](O)[C@@H](O)C[C@]4(C)[C@H]3CC[C@@]12C
REMARK SMILES IDX 12 1 13 2 10 3 9 4 8 5 7 6 6 7 4 8 2 9 3 10 5 11 1 12 11 13
REMARK SMILES IDX 15 15 16 16 36 17 17 18 18 19 35 20 37 21 20 22 34 23 33 24
REMARK SMILES IDX 21 25 31 26 22 27 24 28 30 29 32 30 23 31 25 32 28 33 26 34
REMARK SMILES IDX 19 35 29 37 27 39 14 41
REMARK H PARENT 11 14 19 36 29 38 27 40 14 42
REMARK Flexibility Score: inf
ROOT
ATOM      1  C   UNL     1      20.646   9.768  37.300  1.00  0.00     0.091 C 
ATOM      2  C   UNL     1      19.350  10.080  36.524  1.00  0.00     0.045 C 
ENDROOT
BRANCH   1   3
ATOM      3  C   UNL     1      20.364   8.623  38.361  1.00  0.00     0.146 C 
BRANCH   3   4
ATOM      4  C   UNL     1      20.877   8.958  39.797  1.00  0.00     0.043 C 
BRANCH   4   5
ATOM      5  C   UNL     1      20.691   7.819  40.858  1.00  0.00     0.046 C 
ATOM      6  C   UNL     1      22.587   6.406  39.596  1.00  0.00     0.020 C 
ATOM      7  C   UNL     1      21.831   6.744  40.888  1.00  0.00     0.103 C 
ATOM      8  C   UNL     1      22.727   7.288  41.940  1.00  0.00     0.309 C 
ATOM      9  C   UNL     1      20.743   8.363  42.327  1.00  0.00     0.177 C 
ATOM     10  O   UNL     1      22.098   8.227  42.723  1.00  0.00    -0.462 OA
ATOM     11  O   UNL     1      23.914   6.910  42.144  1.00  0.00    -0.252 OA
ATOM     12  C   UNL     1      20.254   9.786  42.597  1.00  0.00     0.053 C 
ENDBRANCH   4   5
ENDBRANCH   3   4
BRANCH   3  13
ATOM     13  O   UNL     1      19.001   8.247  38.370  1.00  0.00    -0.390 OA
ATOM     14  H   UNL     1      18.508   8.872  37.775  1.00  0.00     0.211 HD
ENDBRANCH   3  13
ENDBRANCH   1   3
BRANCH   1  15
ATOM     15  C   UNL     1      21.776   9.309  36.287  1.00  0.00     0.032 C 
ATOM     16  C   UNL     1      23.209   9.225  36.900  1.00  0.00     0.010 C 
ATOM     17  C   UNL     1      21.998  10.081  34.938  1.00  0.00     0.006 C 
ATOM     18  C   UNL     1      24.209   9.579  35.793  1.00  0.00     0.041 C 
ATOM     19  C   UNL     1      23.382   9.517  34.510  1.00  0.00     0.092 C 
ATOM     20  C   UNL     1      20.962   9.788  33.793  1.00  0.00     0.011 C 
ATOM     21  C   UNL     1      22.048  11.623  35.202  1.00  0.00     0.015 C 
ATOM     22  C   UNL     1      23.884  10.290  33.305  1.00  0.00    -0.031 C 
ATOM     23  C   UNL     1      21.576   9.710  32.360  1.00  0.00     0.009 C 
ATOM     24  C   UNL     1      22.886  10.539  32.169  1.00  0.00     0.025 C 
ATOM     25  C   UNL     1      25.171  10.656  33.171  1.00  0.00     0.050 C 
ATOM     26  C   UNL     1      23.592  10.366  30.774  1.00  0.00    -0.013 C 
ATOM     27  C   UNL     1      25.644  11.335  31.949  1.00  0.00     0.159 C 
ATOM     28  C   UNL     1      24.727  11.446  30.747  1.00  0.00     0.070 C 
ATOM     29  C   UNL     1      22.612  10.683  29.605  1.00  0.00     0.042 C 
ATOM     30  C   UNL     1      24.148   8.918  30.617  1.00  0.00     0.013 C 
ATOM     31  O   UNL     1      26.705  12.010  32.003  1.00  0.00    -0.295 OA
ATOM     32  C   UNL     1      25.482  11.468  29.408  1.00  0.00     0.047 C 
ATOM     33  C   UNL     1      23.289  10.846  28.220  1.00  0.00     0.143 C 
ATOM     34  C   UNL     1      24.518  11.788  28.255  1.00  0.00     0.143 C 
BRANCH  19  35
ATOM     35  O   UNL     1      23.252   8.152  34.153  1.00  0.00    -0.385 OA
ATOM     36  H   UNL     1      24.089   7.689  34.420  1.00  0.00     0.211 HD
ENDBRANCH  19  35
BRANCH  33  37
ATOM     37  O   UNL     1      23.657   9.601  27.683  1.00  0.00    -0.390 OA
ATOM     38  H   UNL     1      23.006   9.389  26.965  1.00  0.00     0.211 HD
ENDBRANCH  33  37
BRANCH  34  39
ATOM     39  O   UNL     1      24.089  13.122  28.371  1.00  0.00    -0.390 OA
ATOM     40  H   UNL     1      23.099  13.126  28.248  1.00  0.00     0.211 HD
ENDBRANCH  34  39
ENDBRANCH   1  15
BRANCH   1  41
ATOM     41  O   UNL     1      21.015  10.952  37.960  1.00  0.00    -0.387 OA
ATOM     42  H   UNL     1      22.004  11.034  37.945  1.00  0.00     0.211 HD
ENDBRANCH   1  41
TORSDOF 9
ENDMDL
MODEL 8
REMARK VINA RESULT:    -5.334      7.788     11.238
REMARK INTER + INTRA:          -8.066
REMARK INTER:                  -7.810
REMARK INTRA:                  -0.256
REMARK UNBOUND:                -0.705
REMARK SMILES C[C@@H]1OC(=O)[C@H](C)[C@@H]1C[C@@H](O)[C@@](C)(O)[C@@H]1CC[C@]2(O)C3=CC(=O)[C@H]4C[C@H](O)[C@@H](O)C[C@]4(C)[C@H]3CC[C@@]12C
REMARK SMILES IDX 12 1 13 2 10 3 9 4 8 5 7 6 6 7 4 8 2 9 3 10 5 11 1 12 11 13
REMARK SMILES IDX 15 15 16 16 36 17 17 18 18 19 35 20 37 21 20 22 34 23 33 24
REMARK SMILES IDX 21 25 31 26 22 27 24 28 30 29 32 30 23 31 25 32 28 33 26 34
REMARK SMILES IDX 19 35 29 37 27 39 14 41
REMARK H PARENT 11 14 19 36 29 38 27 40 14 42
REMARK Flexibility Score: inf
ROOT
ATOM      1  C   UNL     1      21.107   8.384  36.457  1.00  0.00     0.091 C 
ATOM      2  C   UNL     1      20.288   7.613  35.402  1.00  0.00     0.045 C 
ENDROOT
BRANCH   1   3
ATOM      3  C   UNL     1      20.448   8.185  37.886  1.00  0.00     0.146 C 
BRANCH   3   4
ATOM      4  C   UNL     1      21.274   8.814  39.051  1.00  0.00     0.043 C 
BRANCH   4   5
ATOM      5  C   UNL     1      20.539   8.882  40.434  1.00  0.00     0.046 C 
ATOM      6  C   UNL     1      22.172   6.958  41.338  1.00  0.00     0.020 C 
ATOM      7  C   UNL     1      21.283   8.177  41.620  1.00  0.00     0.103 C 
ATOM      8  C   UNL     1      22.046   9.307  42.209  1.00  0.00     0.309 C 
ATOM      9  C   UNL     1      20.424  10.349  40.973  1.00  0.00     0.177 C 
ATOM     10  O   UNL     1      21.560  10.528  41.803  1.00  0.00    -0.462 OA
ATOM     11  O   UNL     1      22.998   9.186  43.029  1.00  0.00    -0.252 OA
ATOM     12  C   UNL     1      20.321  11.493  39.964  1.00  0.00     0.053 C 
ENDBRANCH   4   5
ENDBRANCH   3   4
BRANCH   3  13
ATOM     13  O   UNL     1      19.105   8.623  37.905  1.00  0.00    -0.390 OA
ATOM     14  H   UNL     1      18.548   7.886  38.273  1.00  0.00     0.211 HD
ENDBRANCH   3  13
ENDBRANCH   1   3
BRANCH   1  15
ATOM     15  C   UNL     1      22.601   7.852  36.465  1.00  0.00     0.032 C 
ATOM     16  C   UNL     1      23.444   8.253  35.214  1.00  0.00     0.010 C 
ATOM     17  C   UNL     1      22.900   6.319  36.633  1.00  0.00     0.006 C 
ATOM     18  C   UNL     1      24.440   7.119  34.942  1.00  0.00     0.041 C 
ATOM     19  C   UNL     1      24.396   6.271  36.212  1.00  0.00     0.092 C 
ATOM     20  C   UNL     1      22.770   5.744  38.090  1.00  0.00     0.011 C 
ATOM     21  C   UNL     1      21.991   5.485  35.669  1.00  0.00     0.015 C 
ATOM     22  C   UNL     1      24.839   4.824  36.114  1.00  0.00    -0.031 C 
ATOM     23  C   UNL     1      23.851   4.685  38.472  1.00  0.00     0.009 C 
ATOM     24  C   UNL     1      24.439   3.891  37.263  1.00  0.00     0.025 C 
ATOM     25  C   UNL     1      25.639   4.382  35.127  1.00  0.00     0.050 C 
ATOM     26  C   UNL     1      25.625   2.917  37.612  1.00  0.00    -0.013 C 
ATOM     27  C   UNL     1      26.119   2.987  35.106  1.00  0.00     0.159 C 
ATOM     28  C   UNL     1      25.881   2.091  36.305  1.00  0.00     0.070 C 
ATOM     29  C   UNL     1      25.215   1.913  38.731  1.00  0.00     0.042 C 
ATOM     30  C   UNL     1      26.882   3.721  38.061  1.00  0.00     0.013 C 
ATOM     31  O   UNL     1      26.507   2.497  34.014  1.00  0.00    -0.295 OA
ATOM     32  C   UNL     1      26.972   1.025  36.492  1.00  0.00     0.047 C 
ATOM     33  C   UNL     1      26.192   0.725  38.922  1.00  0.00     0.143 C 
ATOM     34  C   UNL     1      26.567   0.030  37.590  1.00  0.00     0.143 C 
BRANCH  19  35
ATOM     35  O   UNL     1      25.188   6.925  37.188  1.00  0.00    -0.385 OA
ATOM     36  H   UNL     1      24.941   7.887  37.183  1.00  0.00     0.211 HD
ENDBRANCH  19  35
BRANCH  33  37
ATOM     37  O   UNL     1      27.358   1.126  39.595  1.00  0.00    -0.390 OA
ATOM     38  H   UNL     1      27.799   1.812  39.031  1.00  0.00     0.211 HD
ENDBRANCH  33  37
BRANCH  34  39
ATOM     39  O   UNL     1      25.481  -0.740  37.135  1.00  0.00    -0.390 OA
ATOM     40  H   UNL     1      25.708  -1.059  36.217  1.00  0.00     0.211 HD
ENDBRANCH  34  39
ENDBRANCH   1  15
BRANCH   1  41
ATOM     41  O   UNL     1      21.060   9.740  36.093  1.00  0.00    -0.387 OA
ATOM     42  H   UNL     1      20.698   9.813  35.172  1.00  0.00     0.211 HD
ENDBRANCH   1  41
TORSDOF 9
ENDMDL
MODEL 9
REMARK VINA RESULT:    -5.260      2.285      9.242
REMARK INTER + INTRA:          -7.963
REMARK INTER:                  -7.172
REMARK INTRA:                  -0.791
REMARK UNBOUND:                -0.705
REMARK SMILES C[C@@H]1OC(=O)[C@H](C)[C@@H]1C[C@@H](O)[C@@](C)(O)[C@@H]1CC[C@]2(O)C3=CC(=O)[C@H]4C[C@H](O)[C@@H](O)C[C@]4(C)[C@H]3CC[C@@]12C
REMARK SMILES IDX 12 1 13 2 10 3 9 4 8 5 7 6 6 7 4 8 2 9 3 10 5 11 1 12 11 13
REMARK SMILES IDX 15 15 16 16 36 17 17 18 18 19 35 20 37 21 20 22 34 23 33 24
REMARK SMILES IDX 21 25 31 26 22 27 24 28 30 29 32 30 23 31 25 32 28 33 26 34
REMARK SMILES IDX 19 35 29 37 27 39 14 41
REMARK H PARENT 11 14 19 36 29 38 27 40 14 42
REMARK Flexibility Score: inf
ROOT
ATOM      1  C   UNL     1      24.487  11.332  27.567  1.00  0.00     0.091 C 
ATOM      2  C   UNL     1      23.963  12.624  26.906  1.00  0.00     0.045 C 
ENDROOT
BRANCH   1   3
ATOM      3  C   UNL     1      25.960  11.038  27.058  1.00  0.00     0.146 C 
BRANCH   3   4
ATOM      4  C   UNL     1      26.136   9.619  26.433  1.00  0.00     0.043 C 
BRANCH   4   5
ATOM      5  C   UNL     1      27.616   9.115  26.320  1.00  0.00     0.046 C 
ATOM      6  C   UNL     1      27.407   8.107  28.795  1.00  0.00     0.020 C 
ATOM      7  C   UNL     1      28.048   8.065  27.401  1.00  0.00     0.103 C 
ATOM      8  C   UNL     1      27.781   6.785  26.697  1.00  0.00     0.309 C 
ATOM      9  C   UNL     1      27.871   8.315  24.996  1.00  0.00     0.177 C 
ATOM     10  O   UNL     1      27.653   6.956  25.339  1.00  0.00    -0.462 OA
ATOM     11  O   UNL     1      27.726   5.653  27.253  1.00  0.00    -0.252 OA
ATOM     12  C   UNL     1      27.062   8.683  23.753  1.00  0.00     0.053 C 
ENDBRANCH   4   5
ENDBRANCH   3   4
BRANCH   3  13
ATOM     13  O   UNL     1      26.421  12.051  26.187  1.00  0.00    -0.390 OA
ATOM     14  H   UNL     1      27.103  12.587  26.674  1.00  0.00     0.211 HD
ENDBRANCH   3  13
ENDBRANCH   1   3
BRANCH   1  15
ATOM     15  C   UNL     1      24.476  11.499  29.144  1.00  0.00     0.032 C 
ATOM     16  C   UNL     1      25.888  11.515  29.809  1.00  0.00     0.010 C 
ATOM     17  C   UNL     1      23.657  10.506  30.045  1.00  0.00     0.006 C 
ATOM     18  C   UNL     1      25.754  10.883  31.200  1.00  0.00     0.041 C 
ATOM     19  C   UNL     1      24.247  10.837  31.445  1.00  0.00     0.092 C 
ATOM     20  C   UNL     1      22.103  10.731  30.089  1.00  0.00     0.011 C 
ATOM     21  C   UNL     1      23.950   9.028  29.619  1.00  0.00     0.015 C 
ATOM     22  C   UNL     1      23.723   9.835  32.455  1.00  0.00    -0.031 C 
ATOM     23  C   UNL     1      21.451  10.515  31.491  1.00  0.00     0.009 C 
ATOM     24  C   UNL     1      22.222   9.525  32.420  1.00  0.00     0.025 C 
ATOM     25  C   UNL     1      24.502   9.310  33.418  1.00  0.00     0.050 C 
ATOM     26  C   UNL     1      21.656   9.399  33.883  1.00  0.00    -0.013 C 
ATOM     27  C   UNL     1      23.942   8.400  34.436  1.00  0.00     0.159 C 
ATOM     28  C   UNL     1      22.442   8.207  34.529  1.00  0.00     0.070 C 
ATOM     29  C   UNL     1      20.146   9.016  33.869  1.00  0.00     0.042 C 
ATOM     30  C   UNL     1      21.854  10.732  34.664  1.00  0.00     0.013 C 
ATOM     31  O   UNL     1      24.722   7.627  35.051  1.00  0.00    -0.295 OA
ATOM     32  C   UNL     1      21.958   7.892  35.954  1.00  0.00     0.047 C 
ATOM     33  C   UNL     1      19.582   8.564  35.240  1.00  0.00     0.143 C 
ATOM     34  C   UNL     1      20.471   7.507  35.942  1.00  0.00     0.143 C 
BRANCH  19  35
ATOM     35  O   UNL     1      23.840  12.136  31.839  1.00  0.00    -0.385 OA
ATOM     36  H   UNL     1      22.930  12.291  31.473  1.00  0.00     0.211 HD
ENDBRANCH  19  35
BRANCH  33  37
ATOM     37  O   UNL     1      19.380   9.660  36.095  1.00  0.00    -0.390 OA
ATOM     38  H   UNL     1      18.449   9.601  36.430  1.00  0.00     0.211 HD
ENDBRANCH  33  37
BRANCH  34  39
ATOM     39  O   UNL     1      20.323   6.264  35.301  1.00  0.00    -0.390 OA
ATOM     40  H   UNL     1      21.056   6.189  34.628  1.00  0.00     0.211 HD
ENDBRANCH  34  39
ENDBRANCH   1  15
BRANCH   1  41
ATOM     41  O   UNL     1      23.626  10.297  27.166  1.00  0.00    -0.387 OA
ATOM     42  H   UNL     1      23.581  10.282  26.175  1.00  0.00     0.211 HD
ENDBRANCH   1  41
TORSDOF 9
ENDMDL
