MODEL 1
REMARK VINA RESULT:    -4.061      0.000      0.000
REMARK INTER + INTRA:          -5.316
REMARK INTER:                  -5.248
REMARK INTRA:                  -0.067
REMARK UNBOUND:                -0.067
REMARK SMILES CCCCCCC(=O)[O-]
REMARK SMILES IDX 5 1 6 2 7 3 8 4 9 5 4 6 3 7 2 8 1 9
REMARK H PARENT
REMARK Flexibility Score: inf
ROOT
ATOM      1  C   UNL     1     -20.359  -1.243   7.563  1.00  0.00     0.006 C 
ENDROOT
BRANCH   1   2
ATOM      2  C   UNL     1     -20.373  -1.040   9.081  1.00  0.00     0.053 C 
BRANCH   2   3
ATOM      3  C   UNL     1     -19.647  -2.155   9.765  1.00  0.00     0.041 C 
ATOM      4  O   UNL     1     -19.344  -2.062  10.983  1.00  0.00    -0.550 OA
ATOM      5  O   UNL     1     -19.264  -3.280   9.044  1.00  0.00    -0.550 OA
ENDBRANCH   2   3
ENDBRANCH   1   2
BRANCH   1   6
ATOM      6  C   UNL     1     -20.533   0.095   6.829  1.00  0.00     0.000 C 
BRANCH   6   7
ATOM      7  C   UNL     1     -20.033   1.298   7.649  1.00  0.00    -0.000 C 
BRANCH   7   8
ATOM      8  C   UNL     1     -21.130   2.287   8.082  1.00  0.00    -0.003 C 
ATOM      9  C   UNL     1     -21.526   2.136   9.550  1.00  0.00     0.004 C 
ENDBRANCH   7   8
ENDBRANCH   6   7
ENDBRANCH   1   6
TORSDOF 5
ENDMDL
MODEL 2
REMARK VINA RESULT:    -3.966      2.713      4.187
REMARK INTER + INTRA:          -5.192
REMARK INTER:                  -5.078
REMARK INTRA:                  -0.114
REMARK UNBOUND:                -0.067
REMARK SMILES CCCCCCC(=O)[O-]
REMARK SMILES IDX 5 1 6 2 7 3 8 4 9 5 4 6 3 7 2 8 1 9
REMARK H PARENT
REMARK Flexibility Score: inf
ROOT
ATOM      1  C   UNL     1     -20.384   1.339   7.648  1.00  0.00     0.006 C 
ENDROOT
BRANCH   1   2
ATOM      2  C   UNL     1     -20.743   0.995   9.096  1.00  0.00     0.053 C 
BRANCH   2   3
ATOM      3  C   UNL     1     -21.657   2.032   9.669  1.00  0.00     0.041 C 
ATOM      4  O   UNL     1     -22.313   1.791  10.716  1.00  0.00    -0.550 OA
ATOM      5  O   UNL     1     -21.820   3.250   9.020  1.00  0.00    -0.550 OA
ENDBRANCH   2   3
ENDBRANCH   1   2
BRANCH   1   6
ATOM      6  C   UNL     1     -20.040   0.071   6.852  1.00  0.00     0.000 C 
BRANCH   6   7
ATOM      7  C   UNL     1     -20.723  -1.191   7.412  1.00  0.00    -0.000 C 
BRANCH   7   8
ATOM      8  C   UNL     1     -19.759  -2.254   7.970  1.00  0.00    -0.003 C 
ATOM      9  C   UNL     1     -19.743  -2.303   9.497  1.00  0.00     0.004 C 
ENDBRANCH   7   8
ENDBRANCH   6   7
ENDBRANCH   1   6
TORSDOF 5
ENDMDL
MODEL 3
REMARK VINA RESULT:    -3.953      2.853      5.031
REMARK INTER + INTRA:          -5.176
REMARK INTER:                  -5.047
REMARK INTRA:                  -0.129
REMARK UNBOUND:                -0.067
REMARK SMILES CCCCCCC(=O)[O-]
REMARK SMILES IDX 5 1 6 2 7 3 8 4 9 5 4 6 3 7 2 8 1 9
REMARK H PARENT
REMARK Flexibility Score: inf
ROOT
ATOM      1  C   UNL     1     -20.350  -0.961   9.852  1.00  0.00     0.006 C 
ENDROOT
BRANCH   1   2
ATOM      2  C   UNL     1     -20.374  -0.413   8.422  1.00  0.00     0.053 C 
BRANCH   2   3
ATOM      3  C   UNL     1     -20.758   1.034   8.423  1.00  0.00     0.041 C 
ATOM      4  O   UNL     1     -20.551   1.745   7.405  1.00  0.00    -0.550 OA
ATOM      5  O   UNL     1     -21.302   1.608   9.565  1.00  0.00    -0.550 OA
ENDBRANCH   2   3
ENDBRANCH   1   2
BRANCH   1   6
ATOM      6  C   UNL     1     -19.542  -2.265   9.925  1.00  0.00     0.000 C 
BRANCH   6   7
ATOM      7  C   UNL     1     -19.632  -3.099   8.633  1.00  0.00    -0.000 C 
BRANCH   7   8
ATOM      8  C   UNL     1     -18.909  -4.457   8.689  1.00  0.00    -0.003 C 
ATOM      9  C   UNL     1     -19.871  -5.645   8.701  1.00  0.00     0.004 C 
ENDBRANCH   7   8
ENDBRANCH   6   7
ENDBRANCH   1   6
TORSDOF 5
ENDMDL
MODEL 4
REMARK VINA RESULT:    -3.893      1.964      2.744
REMARK INTER + INTRA:          -5.098
REMARK INTER:                  -4.960
REMARK INTRA:                  -0.137
REMARK UNBOUND:                -0.067
REMARK SMILES CCCCCCC(=O)[O-]
REMARK SMILES IDX 5 1 6 2 7 3 8 4 9 5 4 6 3 7 2 8 1 9
REMARK H PARENT
REMARK Flexibility Score: inf
ROOT
ATOM      1  C   UNL     1     -21.016   0.805   9.960  1.00  0.00     0.006 C 
ENDROOT
BRANCH   1   2
ATOM      2  C   UNL     1     -20.539   0.478   8.542  1.00  0.00     0.053 C 
BRANCH   2   3
ATOM      3  C   UNL     1     -20.289  -0.991   8.400  1.00  0.00     0.041 C 
ATOM      4  O   UNL     1     -19.944  -1.674   9.400  1.00  0.00    -0.550 OA
ATOM      5  O   UNL     1     -20.391  -1.597   7.154  1.00  0.00    -0.550 OA
ENDBRANCH   2   3
ENDBRANCH   1   2
BRANCH   1   6
ATOM      6  C   UNL     1     -21.839   2.102   9.976  1.00  0.00     0.000 C 
BRANCH   6   7
ATOM      7  C   UNL     1     -21.484   3.051   8.816  1.00  0.00    -0.000 C 
BRANCH   7   8
ATOM      8  C   UNL     1     -22.194   4.416   8.856  1.00  0.00    -0.003 C 
ATOM      9  C   UNL     1     -21.252   5.570   9.199  1.00  0.00     0.004 C 
ENDBRANCH   7   8
ENDBRANCH   6   7
ENDBRANCH   1   6
TORSDOF 5
ENDMDL
MODEL 5
REMARK VINA RESULT:    -3.340      2.853      4.232
REMARK INTER + INTRA:          -4.383
REMARK INTER:                  -4.199
REMARK INTRA:                  -0.185
REMARK UNBOUND:                -0.067
REMARK SMILES CCCCCCC(=O)[O-]
REMARK SMILES IDX 5 1 6 2 7 3 8 4 9 5 4 6 3 7 2 8 1 9
REMARK H PARENT
REMARK Flexibility Score: inf
ROOT
ATOM      1  C   UNL     1     -20.098  -1.650   8.573  1.00  0.00     0.006 C 
ENDROOT
BRANCH   1   2
ATOM      2  C   UNL     1     -20.477  -0.209   8.929  1.00  0.00     0.053 C 
BRANCH   2   3
ATOM      3  C   UNL     1     -20.454   0.655   7.708  1.00  0.00     0.041 C 
ATOM      4  O   UNL     1     -20.770   1.871   7.786  1.00  0.00    -0.550 OA
ATOM      5  O   UNL     1     -20.129   0.105   6.474  1.00  0.00    -0.550 OA
ENDBRANCH   2   3
ENDBRANCH   1   2
BRANCH   1   6
ATOM      6  C   UNL     1     -19.669  -2.429   9.826  1.00  0.00     0.000 C 
BRANCH   6   7
ATOM      7  C   UNL     1     -19.724  -1.579  11.109  1.00  0.00    -0.000 C 
BRANCH   7   8
ATOM      8  C   UNL     1     -20.610  -2.153  12.228  1.00  0.00    -0.003 C 
ATOM      9  C   UNL     1     -20.804  -1.184  13.393  1.00  0.00     0.004 C 
ENDBRANCH   7   8
ENDBRANCH   6   7
ENDBRANCH   1   6
TORSDOF 5
ENDMDL
MODEL 6
REMARK VINA RESULT:    -3.330     12.608     13.838
REMARK INTER + INTRA:          -4.371
REMARK INTER:                  -4.158
REMARK INTRA:                  -0.213
REMARK UNBOUND:                -0.067
REMARK SMILES CCCCCCC(=O)[O-]
REMARK SMILES IDX 5 1 6 2 7 3 8 4 9 5 4 6 3 7 2 8 1 9
REMARK H PARENT
REMARK Flexibility Score: inf
ROOT
ATOM      1  C   UNL     1     -14.768  10.172  12.669  1.00  0.00     0.006 C 
ENDROOT
BRANCH   1   2
ATOM      2  C   UNL     1     -14.361  11.093  11.515  1.00  0.00     0.053 C 
BRANCH   2   3
ATOM      3  C   UNL     1     -14.687  10.458  10.199  1.00  0.00     0.041 C 
ATOM      4  O   UNL     1     -14.032  10.763   9.169  1.00  0.00    -0.550 OA
ATOM      5  O   UNL     1     -15.746   9.564  10.102  1.00  0.00    -0.550 OA
ENDBRANCH   2   3
ENDBRANCH   1   2
BRANCH   1   6
ATOM      6  C   UNL     1     -13.847  10.374  13.882  1.00  0.00     0.000 C 
BRANCH   6   7
ATOM      7  C   UNL     1     -12.549  11.124  13.530  1.00  0.00    -0.000 C 
BRANCH   7   8
ATOM      8  C   UNL     1     -11.253  10.354  13.840  1.00  0.00    -0.003 C 
ATOM      9  C   UNL     1     -10.249  10.384  12.688  1.00  0.00     0.004 C 
ENDBRANCH   7   8
ENDBRANCH   6   7
ENDBRANCH   1   6
TORSDOF 5
ENDMDL
MODEL 7
REMARK VINA RESULT:    -3.239      1.698      2.397
REMARK INTER + INTRA:          -4.253
REMARK INTER:                  -4.108
REMARK INTRA:                  -0.145
REMARK UNBOUND:                -0.067
REMARK SMILES CCCCCCC(=O)[O-]
REMARK SMILES IDX 5 1 6 2 7 3 8 4 9 5 4 6 3 7 2 8 1 9
REMARK H PARENT
REMARK Flexibility Score: inf
ROOT
ATOM      1  C   UNL     1     -20.391  -0.185   9.563  1.00  0.00     0.006 C 
ENDROOT
BRANCH   1   2
ATOM      2  C   UNL     1     -19.941  -1.612   9.893  1.00  0.00     0.053 C 
BRANCH   2   3
ATOM      3  C   UNL     1     -19.761  -2.407   8.639  1.00  0.00     0.041 C 
ATOM      4  O   UNL     1     -19.298  -3.577   8.691  1.00  0.00    -0.550 OA
ATOM      5  O   UNL     1     -20.060  -1.839   7.406  1.00  0.00    -0.550 OA
ENDBRANCH   2   3
ENDBRANCH   1   2
BRANCH   1   6
ATOM      6  C   UNL     1     -21.121   0.449  10.757  1.00  0.00     0.000 C 
BRANCH   6   7
ATOM      7  C   UNL     1     -21.540   1.908  10.497  1.00  0.00    -0.000 C 
BRANCH   7   8
ATOM      8  C   UNL     1     -21.461   2.350   9.024  1.00  0.00    -0.003 C 
ATOM      9  C   UNL     1     -21.821   3.822   8.822  1.00  0.00     0.004 C 
ENDBRANCH   7   8
ENDBRANCH   6   7
ENDBRANCH   1   6
TORSDOF 5
ENDMDL
MODEL 8
REMARK VINA RESULT:    -3.215      2.536      3.587
REMARK INTER + INTRA:          -4.222
REMARK INTER:                  -4.046
REMARK INTRA:                  -0.176
REMARK UNBOUND:                -0.067
REMARK SMILES CCCCCCC(=O)[O-]
REMARK SMILES IDX 5 1 6 2 7 3 8 4 9 5 4 6 3 7 2 8 1 9
REMARK H PARENT
REMARK Flexibility Score: inf
ROOT
ATOM      1  C   UNL     1     -20.850   1.433   8.729  1.00  0.00     0.006 C 
ENDROOT
BRANCH   1   2
ATOM      2  C   UNL     1     -20.595  -0.072   8.858  1.00  0.00     0.053 C 
BRANCH   2   3
ATOM      3  C   UNL     1     -20.394  -0.686   7.508  1.00  0.00     0.041 C 
ATOM      4  O   UNL     1     -20.520   0.014   6.469  1.00  0.00    -0.550 OA
ATOM      5  O   UNL     1     -20.115  -2.042   7.395  1.00  0.00    -0.550 OA
ENDBRANCH   2   3
ENDBRANCH   1   2
BRANCH   1   6
ATOM      6  C   UNL     1     -21.694   1.948   9.905  1.00  0.00     0.000 C 
BRANCH   6   7
ATOM      7  C   UNL     1     -21.707   0.980  11.103  1.00  0.00    -0.000 C 
BRANCH   7   8
ATOM      8  C   UNL     1     -21.276   1.603  12.443  1.00  0.00    -0.003 C 
ATOM      9  C   UNL     1     -21.028   0.563  13.534  1.00  0.00     0.004 C 
ENDBRANCH   7   8
ENDBRANCH   6   7
ENDBRANCH   1   6
TORSDOF 5
ENDMDL
MODEL 9
REMARK VINA RESULT:    -3.012      2.759      3.942
REMARK INTER + INTRA:          -3.960
REMARK INTER:                  -3.828
REMARK INTRA:                  -0.132
REMARK UNBOUND:                -0.067
REMARK SMILES CCCCCCC(=O)[O-]
REMARK SMILES IDX 5 1 6 2 7 3 8 4 9 5 4 6 3 7 2 8 1 9
REMARK H PARENT
REMARK Flexibility Score: inf
ROOT
ATOM      1  C   UNL     1     -21.931   1.110  11.585  1.00  0.00     0.006 C 
ENDROOT
BRANCH   1   2
ATOM      2  C   UNL     1     -21.112   1.281  12.868  1.00  0.00     0.053 C 
BRANCH   2   3
ATOM      3  C   UNL     1     -20.920  -0.039  13.545  1.00  0.00     0.041 C 
ATOM      4  O   UNL     1     -20.961  -0.119  14.801  1.00  0.00    -0.550 OA
ATOM      5  O   UNL     1     -20.648  -1.174  12.792  1.00  0.00    -0.550 OA
ENDBRANCH   2   3
ENDBRANCH   1   2
BRANCH   1   6
ATOM      6  C   UNL     1     -21.191   1.708  10.379  1.00  0.00     0.000 C 
BRANCH   6   7
ATOM      7  C   UNL     1     -20.804   0.650   9.329  1.00  0.00    -0.000 C 
BRANCH   7   8
ATOM      8  C   UNL     1     -20.526   1.208   7.922  1.00  0.00    -0.003 C 
ATOM      9  C   UNL     1     -20.373   0.114   6.865  1.00  0.00     0.004 C 
ENDBRANCH   7   8
ENDBRANCH   6   7
ENDBRANCH   1   6
TORSDOF 5
ENDMDL
