MODEL 1
REMARK VINA RESULT:    -4.025      0.000      0.000
REMARK INTER + INTRA:          -4.143
REMARK INTER:                  -4.143
REMARK INTRA:                   0.000
REMARK UNBOUND:                 0.000
REMARK SMILES Cc1ccccc1O
REMARK SMILES IDX 1 1 2 2 3 3 4 4 5 5 6 6 7 7 8 8
REMARK H PARENT 8 9
REMARK Flexibility Score: inf
ROOT
ATOM      1  C   UNL     1      39.626  17.456  53.308  1.00  0.00     0.048 C 
ATOM      2  C   UNL     1      38.990  18.671  53.922  1.00  0.00    -0.009 A 
ATOM      3  C   UNL     1      37.632  18.654  54.282  1.00  0.00     0.007 A 
ATOM      4  C   UNL     1      37.039  19.785  54.853  1.00  0.00     0.001 A 
ATOM      5  C   UNL     1      37.795  20.938  55.069  1.00  0.00     0.004 A 
ATOM      6  C   UNL     1      39.146  20.966  54.713  1.00  0.00     0.046 A 
ATOM      7  C   UNL     1      39.750  19.836  54.139  1.00  0.00     0.118 A 
ENDROOT
BRANCH   7   8
ATOM      8  O   UNL     1      41.099  19.867  53.787  1.00  0.00    -0.508 OA
ATOM      9  H   UNL     1      41.395  20.066  52.838  1.00  0.00     0.293 HD
ENDBRANCH   7   8
TORSDOF 1
ENDMDL
MODEL 2
REMARK VINA RESULT:    -3.956      6.779      7.771
REMARK INTER + INTRA:          -4.072
REMARK INTER:                  -4.072
REMARK INTRA:                   0.000
REMARK UNBOUND:                 0.000
REMARK SMILES Cc1ccccc1O
REMARK SMILES IDX 1 1 2 2 3 3 4 4 5 5 6 6 7 7 8 8
REMARK H PARENT 8 9
REMARK Flexibility Score: inf
ROOT
ATOM      1  C   UNL     1      40.691  27.275  55.993  1.00  0.00     0.048 C 
ATOM      2  C   UNL     1      41.284  26.505  54.847  1.00  0.00    -0.009 A 
ATOM      3  C   UNL     1      42.658  26.212  54.826  1.00  0.00     0.007 A 
ATOM      4  C   UNL     1      43.211  25.496  53.760  1.00  0.00     0.001 A 
ATOM      5  C   UNL     1      42.399  25.068  52.708  1.00  0.00     0.004 A 
ATOM      6  C   UNL     1      41.031  25.355  52.718  1.00  0.00     0.046 A 
ATOM      7  C   UNL     1      40.468  26.073  53.784  1.00  0.00     0.118 A 
ENDROOT
BRANCH   7   8
ATOM      8  O   UNL     1      39.102  26.357  53.791  1.00  0.00    -0.508 OA
ATOM      9  H   UNL     1      38.686  26.947  54.503  1.00  0.00     0.293 HD
ENDBRANCH   7   8
TORSDOF 1
ENDMDL
MODEL 3
REMARK VINA RESULT:    -3.894     15.959     17.279
REMARK INTER + INTRA:          -4.008
REMARK INTER:                  -4.008
REMARK INTRA:                   0.000
REMARK UNBOUND:                 0.000
REMARK SMILES Cc1ccccc1O
REMARK SMILES IDX 1 1 2 2 3 3 4 4 5 5 6 6 7 7 8 8
REMARK H PARENT 8 9
REMARK Flexibility Score: inf
ROOT
ATOM      1  C   UNL     1      48.570  33.765  60.225  1.00  0.00     0.048 C 
ATOM      2  C   UNL     1      47.470  33.327  61.150  1.00  0.00    -0.009 A 
ATOM      3  C   UNL     1      47.478  33.723  62.498  1.00  0.00     0.007 A 
ATOM      4  C   UNL     1      46.455  33.315  63.360  1.00  0.00     0.001 A 
ATOM      5  C   UNL     1      45.418  32.510  62.885  1.00  0.00     0.004 A 
ATOM      6  C   UNL     1      45.401  32.110  61.546  1.00  0.00     0.046 A 
ATOM      7  C   UNL     1      46.424  32.514  60.674  1.00  0.00     0.118 A 
ENDROOT
BRANCH   7   8
ATOM      8  O   UNL     1      46.402  32.113  59.338  1.00  0.00    -0.508 OA
ATOM      9  H   UNL     1      46.653  31.170  59.063  1.00  0.00     0.293 HD
ENDBRANCH   7   8
TORSDOF 1
ENDMDL
MODEL 4
REMARK VINA RESULT:    -3.888      0.996      2.671
REMARK INTER + INTRA:          -4.002
REMARK INTER:                  -4.002
REMARK INTRA:                   0.000
REMARK UNBOUND:                 0.000
REMARK SMILES Cc1ccccc1O
REMARK SMILES IDX 1 1 2 2 3 3 4 4 5 5 6 6 7 7 8 8
REMARK H PARENT 8 9
REMARK Flexibility Score: inf
ROOT
ATOM      1  C   UNL     1      38.003  21.376  55.367  1.00  0.00     0.048 C 
ATOM      2  C   UNL     1      37.935  20.050  54.664  1.00  0.00    -0.009 A 
ATOM      3  C   UNL     1      36.694  19.513  54.281  1.00  0.00     0.007 A 
ATOM      4  C   UNL     1      36.631  18.278  53.628  1.00  0.00     0.001 A 
ATOM      5  C   UNL     1      37.802  17.571  53.352  1.00  0.00     0.004 A 
ATOM      6  C   UNL     1      39.041  18.095  53.730  1.00  0.00     0.046 A 
ATOM      7  C   UNL     1      39.115  19.333  54.386  1.00  0.00     0.118 A 
ENDROOT
BRANCH   7   8
ATOM      8  O   UNL     1      40.354  19.853  54.760  1.00  0.00    -0.508 OA
ATOM      9  H   UNL     1      40.896  20.436  54.133  1.00  0.00     0.293 HD
ENDBRANCH   7   8
TORSDOF 1
ENDMDL
MODEL 5
REMARK VINA RESULT:    -3.765      1.473      2.631
REMARK INTER + INTRA:          -3.875
REMARK INTER:                  -3.875
REMARK INTRA:                   0.000
REMARK UNBOUND:                 0.000
REMARK SMILES Cc1ccccc1O
REMARK SMILES IDX 1 1 2 2 3 3 4 4 5 5 6 6 7 7 8 8
REMARK H PARENT 8 9
REMARK Flexibility Score: inf
ROOT
ATOM      1  C   UNL     1      39.606  22.219  53.446  1.00  0.00     0.048 C 
ATOM      2  C   UNL     1      38.723  21.006  53.510  1.00  0.00    -0.009 A 
ATOM      3  C   UNL     1      37.483  20.995  52.848  1.00  0.00     0.007 A 
ATOM      4  C   UNL     1      36.661  19.866  52.908  1.00  0.00     0.001 A 
ATOM      5  C   UNL     1      37.067  18.741  53.628  1.00  0.00     0.004 A 
ATOM      6  C   UNL     1      38.297  18.742  54.291  1.00  0.00     0.046 A 
ATOM      7  C   UNL     1      39.129  19.870  54.236  1.00  0.00     0.118 A 
ENDROOT
BRANCH   7   8
ATOM      8  O   UNL     1      40.357  19.866  54.899  1.00  0.00    -0.508 OA
ATOM      9  H   UNL     1      40.414  19.914  55.910  1.00  0.00     0.293 HD
ENDBRANCH   7   8
TORSDOF 1
ENDMDL
MODEL 6
REMARK VINA RESULT:    -3.736     16.472     17.715
REMARK INTER + INTRA:          -3.845
REMARK INTER:                  -3.845
REMARK INTRA:                   0.000
REMARK UNBOUND:                 0.000
REMARK SMILES Cc1ccccc1O
REMARK SMILES IDX 1 1 2 2 3 3 4 4 5 5 6 6 7 7 8 8
REMARK H PARENT 8 9
REMARK Flexibility Score: inf
ROOT
ATOM      1  C   UNL     1      47.145  33.187  64.706  1.00  0.00     0.048 C 
ATOM      2  C   UNL     1      46.635  33.037  63.301  1.00  0.00    -0.009 A 
ATOM      3  C   UNL     1      45.396  32.421  63.058  1.00  0.00     0.007 A 
ATOM      4  C   UNL     1      44.921  32.280  61.750  1.00  0.00     0.001 A 
ATOM      5  C   UNL     1      45.678  32.752  60.676  1.00  0.00     0.004 A 
ATOM      6  C   UNL     1      46.912  33.366  60.906  1.00  0.00     0.046 A 
ATOM      7  C   UNL     1      47.396  33.511  62.216  1.00  0.00     0.118 A 
ENDROOT
BRANCH   7   8
ATOM      8  O   UNL     1      48.628  34.125  62.441  1.00  0.00    -0.508 OA
ATOM      9  H   UNL     1      49.015  34.795  61.786  1.00  0.00     0.293 HD
ENDBRANCH   7   8
TORSDOF 1
ENDMDL
MODEL 7
REMARK VINA RESULT:    -3.711      6.874      7.649
REMARK INTER + INTRA:          -3.820
REMARK INTER:                  -3.820
REMARK INTRA:                   0.000
REMARK UNBOUND:                 0.000
REMARK SMILES Cc1ccccc1O
REMARK SMILES IDX 1 1 2 2 3 3 4 4 5 5 6 6 7 7 8 8
REMARK H PARENT 8 9
REMARK Flexibility Score: inf
ROOT
ATOM      1  C   UNL     1      40.813  25.889  54.038  1.00  0.00     0.048 C 
ATOM      2  C   UNL     1      41.982  25.493  53.182  1.00  0.00    -0.009 A 
ATOM      3  C   UNL     1      41.807  25.249  51.809  1.00  0.00     0.007 A 
ATOM      4  C   UNL     1      42.894  24.879  51.013  1.00  0.00     0.001 A 
ATOM      5  C   UNL     1      44.164  24.750  51.578  1.00  0.00     0.004 A 
ATOM      6  C   UNL     1      44.351  24.989  52.942  1.00  0.00     0.046 A 
ATOM      7  C   UNL     1      43.264  25.361  53.750  1.00  0.00     0.118 A 
ENDROOT
BRANCH   7   8
ATOM      8  O   UNL     1      43.455  25.600  55.110  1.00  0.00    -0.508 OA
ATOM      9  H   UNL     1      43.319  24.870  55.801  1.00  0.00     0.293 HD
ENDBRANCH   7   8
TORSDOF 1
ENDMDL
MODEL 8
REMARK VINA RESULT:    -3.684      2.467      3.401
REMARK INTER + INTRA:          -3.792
REMARK INTER:                  -3.792
REMARK INTRA:                   0.000
REMARK UNBOUND:                 0.000
REMARK SMILES Cc1ccccc1O
REMARK SMILES IDX 1 1 2 2 3 3 4 4 5 5 6 6 7 7 8 8
REMARK H PARENT 8 9
REMARK Flexibility Score: inf
ROOT
ATOM      1  C   UNL     1      38.200  21.570  51.901  1.00  0.00     0.048 C 
ATOM      2  C   UNL     1      37.967  20.405  52.821  1.00  0.00    -0.009 A 
ATOM      3  C   UNL     1      38.905  19.361  52.893  1.00  0.00     0.007 A 
ATOM      4  C   UNL     1      38.688  18.276  53.749  1.00  0.00     0.001 A 
ATOM      5  C   UNL     1      37.537  18.225  54.537  1.00  0.00     0.004 A 
ATOM      6  C   UNL     1      36.598  19.258  54.472  1.00  0.00     0.046 A 
ATOM      7  C   UNL     1      36.807  20.350  53.616  1.00  0.00     0.118 A 
ENDROOT
BRANCH   7   8
ATOM      8  O   UNL     1      35.868  21.379  53.555  1.00  0.00    -0.508 OA
ATOM      9  H   UNL     1      35.163  21.412  52.827  1.00  0.00     0.293 HD
ENDBRANCH   7   8
TORSDOF 1
ENDMDL
MODEL 9
REMARK VINA RESULT:    -3.677     16.320     17.326
REMARK INTER + INTRA:          -3.784
REMARK INTER:                  -3.784
REMARK INTRA:                   0.000
REMARK UNBOUND:                 0.000
REMARK SMILES Cc1ccccc1O
REMARK SMILES IDX 1 1 2 2 3 3 4 4 5 5 6 6 7 7 8 8
REMARK H PARENT 8 9
REMARK Flexibility Score: inf
ROOT
ATOM      1  C   UNL     1      46.766  32.441  59.204  1.00  0.00     0.048 C 
ATOM      2  C   UNL     1      46.656  32.707  60.679  1.00  0.00    -0.009 A 
ATOM      3  C   UNL     1      45.619  32.126  61.429  1.00  0.00     0.007 A 
ATOM      4  C   UNL     1      45.516  32.374  62.801  1.00  0.00     0.001 A 
ATOM      5  C   UNL     1      46.445  33.201  63.435  1.00  0.00     0.004 A 
ATOM      6  C   UNL     1      47.480  33.784  62.699  1.00  0.00     0.046 A 
ATOM      7  C   UNL     1      47.591  33.541  61.321  1.00  0.00     0.118 A 
ENDROOT
BRANCH   7   8
ATOM      8  O   UNL     1      48.626  34.125  60.590  1.00  0.00    -0.508 OA
ATOM      9  H   UNL     1      48.494  34.425  59.631  1.00  0.00     0.293 HD
ENDBRANCH   7   8
TORSDOF 1
ENDMDL
