MODEL 1
REMARK VINA RESULT:    -4.801      0.000      0.000
REMARK INTER + INTRA:          -5.250
REMARK INTER:                  -5.222
REMARK INTRA:                  -0.027
REMARK UNBOUND:                -0.027
REMARK SMILES O=C([O-])c1ccc(O)cc1
REMARK SMILES IDX 7 1 6 2 9 3 5 4 10 5 4 6 8 7 2 9 1 10 3 11
REMARK H PARENT 8 8
REMARK Flexibility Score: inf
ROOT
ATOM      1  C   UNL     1      45.820  46.105  34.469  1.00  0.00     0.115 A 
ATOM      2  C   UNL     1      47.004  46.396  33.784  1.00  0.00     0.047 A 
ATOM      3  C   UNL     1      45.305  47.028  35.389  1.00  0.00     0.047 A 
ATOM      4  C   UNL     1      47.671  47.603  34.013  1.00  0.00     0.014 A 
ATOM      5  C   UNL     1      45.970  48.235  35.620  1.00  0.00     0.014 A 
ATOM      6  C   UNL     1      47.161  48.536  34.934  1.00  0.00    -0.003 A 
ENDROOT
BRANCH   1   7
ATOM      7  O   UNL     1      45.167  44.898  34.231  1.00  0.00    -0.508 OA
ATOM      8  H   UNL     1      44.216  44.872  33.879  1.00  0.00     0.293 HD
ENDBRANCH   1   7
BRANCH   6   9
ATOM      9  C   UNL     1      47.862  49.815  35.181  1.00  0.00     0.071 C 
ATOM     10  O   UNL     1      48.850  49.864  35.963  1.00  0.00    -0.545 OA
ATOM     11  O   UNL     1      47.441  50.982  34.554  1.00  0.00    -0.545 OA
ENDBRANCH   6   9
TORSDOF 2
ENDMDL
MODEL 2
REMARK VINA RESULT:    -4.789      0.042      1.533
REMARK INTER + INTRA:          -5.237
REMARK INTER:                  -5.209
REMARK INTRA:                  -0.027
REMARK UNBOUND:                -0.027
REMARK SMILES O=C([O-])c1ccc(O)cc1
REMARK SMILES IDX 7 1 6 2 9 3 5 4 10 5 4 6 8 7 2 9 1 10 3 11
REMARK H PARENT 8 8
REMARK Flexibility Score: inf
ROOT
ATOM      1  C   UNL     1      45.812  46.084  34.448  1.00  0.00     0.115 A 
ATOM      2  C   UNL     1      45.290  47.001  35.364  1.00  0.00     0.047 A 
ATOM      3  C   UNL     1      47.008  46.375  33.778  1.00  0.00     0.047 A 
ATOM      4  C   UNL     1      45.956  48.204  35.615  1.00  0.00     0.014 A 
ATOM      5  C   UNL     1      47.677  47.576  34.026  1.00  0.00     0.014 A 
ATOM      6  C   UNL     1      47.159  48.505  34.947  1.00  0.00    -0.003 A 
ENDROOT
BRANCH   1   7
ATOM      7  O   UNL     1      45.136  44.889  34.209  1.00  0.00    -0.508 OA
ATOM      8  H   UNL     1      44.133  44.869  34.064  1.00  0.00     0.293 HD
ENDBRANCH   1   7
BRANCH   6   9
ATOM      9  C   UNL     1      47.869  49.776  35.207  1.00  0.00     0.071 C 
ATOM     10  O   UNL     1      48.839  49.815  36.011  1.00  0.00    -0.545 OA
ATOM     11  O   UNL     1      47.476  50.946  34.567  1.00  0.00    -0.545 OA
ENDBRANCH   6   9
TORSDOF 2
ENDMDL
MODEL 3
REMARK VINA RESULT:    -4.788      2.021      4.522
REMARK INTER + INTRA:          -5.235
REMARK INTER:                  -5.208
REMARK INTRA:                  -0.027
REMARK UNBOUND:                -0.027
REMARK SMILES O=C([O-])c1ccc(O)cc1
REMARK SMILES IDX 7 1 6 2 9 3 5 4 10 5 4 6 8 7 2 9 1 10 3 11
REMARK H PARENT 8 8
REMARK Flexibility Score: inf
ROOT
ATOM      1  C   UNL     1      49.704  50.060  36.079  1.00  0.00     0.115 A 
ATOM      2  C   UNL     1      49.421  48.884  36.779  1.00  0.00     0.047 A 
ATOM      3  C   UNL     1      48.795  50.538  35.126  1.00  0.00     0.047 A 
ATOM      4  C   UNL     1      48.236  48.185  36.532  1.00  0.00     0.014 A 
ATOM      5  C   UNL     1      47.609  49.842  34.876  1.00  0.00     0.014 A 
ATOM      6  C   UNL     1      47.316  48.657  35.576  1.00  0.00    -0.003 A 
ENDROOT
BRANCH   1   7
ATOM      7  O   UNL     1      50.889  50.746  36.336  1.00  0.00    -0.508 OA
ATOM      8  H   UNL     1      51.012  51.714  36.060  1.00  0.00     0.293 HD
ENDBRANCH   1   7
BRANCH   6   9
ATOM      9  C   UNL     1      46.060  47.923  35.310  1.00  0.00     0.071 C 
ATOM     10  O   UNL     1      46.048  46.937  34.524  1.00  0.00    -0.545 OA
ATOM     11  O   UNL     1      44.874  48.309  35.924  1.00  0.00    -0.545 OA
ENDBRANCH   6   9
TORSDOF 2
ENDMDL
MODEL 4
REMARK VINA RESULT:    -4.766      1.114      4.449
REMARK INTER + INTRA:          -5.211
REMARK INTER:                  -5.177
REMARK INTRA:                  -0.033
REMARK UNBOUND:                -0.027
REMARK SMILES O=C([O-])c1ccc(O)cc1
REMARK SMILES IDX 7 1 6 2 9 3 5 4 10 5 4 6 8 7 2 9 1 10 3 11
REMARK H PARENT 8 8
REMARK Flexibility Score: inf
ROOT
ATOM      1  C   UNL     1      48.278  49.420  34.329  1.00  0.00     0.115 A 
ATOM      2  C   UNL     1      47.185  49.503  35.198  1.00  0.00     0.047 A 
ATOM      3  C   UNL     1      48.493  48.246  33.596  1.00  0.00     0.047 A 
ATOM      4  C   UNL     1      46.310  48.422  35.335  1.00  0.00     0.014 A 
ATOM      5  C   UNL     1      47.621  47.162  33.730  1.00  0.00     0.014 A 
ATOM      6  C   UNL     1      46.519  47.238  34.602  1.00  0.00    -0.003 A 
ENDROOT
BRANCH   1   7
ATOM      7  O   UNL     1      49.141  50.506  34.202  1.00  0.00    -0.508 OA
ATOM      8  H   UNL     1      49.250  50.995  33.321  1.00  0.00     0.293 HD
ENDBRANCH   1   7
BRANCH   6   9
ATOM      9  C   UNL     1      45.597  46.090  34.743  1.00  0.00     0.071 C 
ATOM     10  O   UNL     1      44.381  46.275  35.018  1.00  0.00    -0.545 OA
ATOM     11  O   UNL     1      46.059  44.791  34.573  1.00  0.00    -0.545 OA
ENDBRANCH   6   9
TORSDOF 2
ENDMDL
MODEL 5
REMARK VINA RESULT:    -4.734      1.109      4.114
REMARK INTER + INTRA:          -5.176
REMARK INTER:                  -5.142
REMARK INTRA:                  -0.034
REMARK UNBOUND:                -0.027
REMARK SMILES O=C([O-])c1ccc(O)cc1
REMARK SMILES IDX 7 1 6 2 9 3 5 4 10 5 4 6 8 7 2 9 1 10 3 11
REMARK H PARENT 8 8
REMARK Flexibility Score: inf
ROOT
ATOM      1  C   UNL     1      48.283  49.504  34.368  1.00  0.00     0.115 A 
ATOM      2  C   UNL     1      48.551  48.347  33.629  1.00  0.00     0.047 A 
ATOM      3  C   UNL     1      47.163  49.548  35.208  1.00  0.00     0.047 A 
ATOM      4  C   UNL     1      47.705  47.238  33.727  1.00  0.00     0.014 A 
ATOM      5  C   UNL     1      46.315  48.441  35.308  1.00  0.00     0.014 A 
ATOM      6  C   UNL     1      46.577  47.273  34.568  1.00  0.00    -0.003 A 
ENDROOT
BRANCH   1   7
ATOM      7  O   UNL     1      49.135  50.601  34.261  1.00  0.00    -0.508 OA
ATOM      8  H   UNL     1      49.628  50.806  33.399  1.00  0.00     0.293 HD
ENDBRANCH   1   7
BRANCH   6   9
ATOM      9  C   UNL     1      45.678  46.103  34.676  1.00  0.00     0.071 C 
ATOM     10  O   UNL     1      46.117  44.938  34.476  1.00  0.00    -0.545 OA
ATOM     11  O   UNL     1      44.337  46.272  34.999  1.00  0.00    -0.545 OA
ENDBRANCH   6   9
TORSDOF 2
ENDMDL
MODEL 6
REMARK VINA RESULT:    -4.636      1.380      2.088
REMARK INTER + INTRA:          -5.069
REMARK INTER:                  -5.033
REMARK INTRA:                  -0.036
REMARK UNBOUND:                -0.027
REMARK SMILES O=C([O-])c1ccc(O)cc1
REMARK SMILES IDX 7 1 6 2 9 3 5 4 10 5 4 6 8 7 2 9 1 10 3 11
REMARK H PARENT 8 8
REMARK Flexibility Score: inf
ROOT
ATOM      1  C   UNL     1      45.623  46.986  35.022  1.00  0.00     0.115 A 
ATOM      2  C   UNL     1      45.728  48.248  35.613  1.00  0.00     0.047 A 
ATOM      3  C   UNL     1      46.603  46.559  34.117  1.00  0.00     0.047 A 
ATOM      4  C   UNL     1      46.806  49.083  35.305  1.00  0.00     0.014 A 
ATOM      5  C   UNL     1      47.682  47.390  33.806  1.00  0.00     0.014 A 
ATOM      6  C   UNL     1      47.796  48.662  34.396  1.00  0.00    -0.003 A 
ENDROOT
BRANCH   1   7
ATOM      7  O   UNL     1      44.542  46.166  35.339  1.00  0.00    -0.508 OA
ATOM      8  H   UNL     1      44.306  45.951  36.302  1.00  0.00     0.293 HD
ENDBRANCH   1   7
BRANCH   6   9
ATOM      9  C   UNL     1      48.940  49.540  34.065  1.00  0.00     0.071 C 
ATOM     10  O   UNL     1      49.689  49.275  33.086  1.00  0.00    -0.545 OA
ATOM     11  O   UNL     1      49.204  50.670  34.830  1.00  0.00    -0.545 OA
ENDBRANCH   6   9
TORSDOF 2
ENDMDL
MODEL 7
REMARK VINA RESULT:    -4.619      1.430      1.636
REMARK INTER + INTRA:          -5.051
REMARK INTER:                  -5.016
REMARK INTRA:                  -0.035
REMARK UNBOUND:                -0.027
REMARK SMILES O=C([O-])c1ccc(O)cc1
REMARK SMILES IDX 7 1 6 2 9 3 5 4 10 5 4 6 8 7 2 9 1 10 3 11
REMARK H PARENT 8 8
REMARK Flexibility Score: inf
ROOT
ATOM      1  C   UNL     1      45.602  47.055  35.052  1.00  0.00     0.115 A 
ATOM      2  C   UNL     1      46.558  46.563  34.158  1.00  0.00     0.047 A 
ATOM      3  C   UNL     1      45.766  48.328  35.613  1.00  0.00     0.047 A 
ATOM      4  C   UNL     1      47.673  47.337  33.823  1.00  0.00     0.014 A 
ATOM      5  C   UNL     1      46.880  49.105  35.281  1.00  0.00     0.014 A 
ATOM      6  C   UNL     1      47.846  48.618  34.382  1.00  0.00    -0.003 A 
ENDROOT
BRANCH   1   7
ATOM      7  O   UNL     1      44.496  46.272  35.375  1.00  0.00    -0.508 OA
ATOM      8  H   UNL     1      44.092  45.625  34.707  1.00  0.00     0.293 HD
ENDBRANCH   1   7
BRANCH   6   9
ATOM      9  C   UNL     1      49.024  49.442  34.032  1.00  0.00     0.071 C 
ATOM     10  O   UNL     1      49.700  49.187  32.999  1.00  0.00    -0.545 OA
ATOM     11  O   UNL     1      49.401  50.509  34.838  1.00  0.00    -0.545 OA
ENDBRANCH   6   9
TORSDOF 2
ENDMDL
MODEL 8
REMARK VINA RESULT:    -4.569      1.874      2.435
REMARK INTER + INTRA:          -4.996
REMARK INTER:                  -4.961
REMARK INTRA:                  -0.035
REMARK UNBOUND:                -0.027
REMARK SMILES O=C([O-])c1ccc(O)cc1
REMARK SMILES IDX 7 1 6 2 9 3 5 4 10 5 4 6 8 7 2 9 1 10 3 11
REMARK H PARENT 8 8
REMARK Flexibility Score: inf
ROOT
ATOM      1  C   UNL     1      46.041  47.460  35.926  1.00  0.00     0.115 A 
ATOM      2  C   UNL     1      46.349  48.626  35.218  1.00  0.00     0.047 A 
ATOM      3  C   UNL     1      46.967  46.936  36.837  1.00  0.00     0.047 A 
ATOM      4  C   UNL     1      47.574  49.268  35.417  1.00  0.00     0.014 A 
ATOM      5  C   UNL     1      48.193  47.576  37.040  1.00  0.00     0.014 A 
ATOM      6  C   UNL     1      48.510  48.749  36.332  1.00  0.00    -0.003 A 
ENDROOT
BRANCH   1   7
ATOM      7  O   UNL     1      44.816  46.831  35.716  1.00  0.00    -0.508 OA
ATOM      8  H   UNL     1      44.682  45.849  35.931  1.00  0.00     0.293 HD
ENDBRANCH   1   7
BRANCH   6   9
ATOM      9  C   UNL     1      49.809  49.425  36.547  1.00  0.00     0.071 C 
ATOM     10  O   UNL     1      50.753  48.826  37.130  1.00  0.00    -0.545 OA
ATOM     11  O   UNL     1      50.005  50.729  36.110  1.00  0.00    -0.545 OA
ENDBRANCH   6   9
TORSDOF 2
ENDMDL
MODEL 9
REMARK VINA RESULT:    -4.482     10.423     12.171
REMARK INTER + INTRA:          -4.902
REMARK INTER:                  -4.866
REMARK INTRA:                  -0.035
REMARK UNBOUND:                -0.027
REMARK SMILES O=C([O-])c1ccc(O)cc1
REMARK SMILES IDX 7 1 6 2 9 3 5 4 10 5 4 6 8 7 2 9 1 10 3 11
REMARK H PARENT 8 8
REMARK Flexibility Score: inf
ROOT
ATOM      1  C   UNL     1      45.552  58.770  42.106  1.00  0.00     0.115 A 
ATOM      2  C   UNL     1      46.692  58.865  41.301  1.00  0.00     0.047 A 
ATOM      3  C   UNL     1      44.346  58.323  41.551  1.00  0.00     0.047 A 
ATOM      4  C   UNL     1      46.632  58.514  39.950  1.00  0.00     0.014 A 
ATOM      5  C   UNL     1      44.282  57.972  40.200  1.00  0.00     0.014 A 
ATOM      6  C   UNL     1      45.424  58.063  39.384  1.00  0.00    -0.003 A 
ENDROOT
BRANCH   1   7
ATOM      7  O   UNL     1      45.629  59.123  43.451  1.00  0.00    -0.508 OA
ATOM      8  H   UNL     1      46.120  58.543  44.123  1.00  0.00     0.293 HD
ENDBRANCH   1   7
BRANCH   6   9
ATOM      9  C   UNL     1      45.353  57.691  37.954  1.00  0.00     0.071 C 
ATOM     10  O   UNL     1      44.240  57.610  37.368  1.00  0.00    -0.545 OA
ATOM     11  O   UNL     1      46.513  57.427  37.236  1.00  0.00    -0.545 OA
ENDBRANCH   6   9
TORSDOF 2
ENDMDL
