MODEL 1
REMARK VINA RESULT:    -4.652      0.000      0.000
REMARK INTER + INTRA:          -5.828
REMARK INTER:                  -5.740
REMARK INTRA:                  -0.088
REMARK UNBOUND:                -0.088
REMARK SMILES Oc1cc(O)c2cc(O)c(-c3cc(O)c(O)c(O)c3)[o+]c2c1
REMARK SMILES IDX 10 1 20 2 21 3 22 4 2 5 3 6 4 7 6 8 7 9 8 10 11 11 12 12
REMARK SMILES IDX 13 13 19 14 15 15 17 16 14 17 16 19 18 21 9 23 1 25 5 27
REMARK H PARENT 14 18 16 20 18 22 9 24 1 26 5 28
REMARK Flexibility Score: inf
ROOT
ATOM      1  C   UNL     1      27.584   4.764 -13.126  1.00  0.00     0.402 A 
ATOM      2  O   UNL     1      28.392   5.627 -13.735  1.00  0.00    -0.202 OA
ATOM      3  C   UNL     1      29.246   5.277 -14.691  1.00  0.00     0.368 A 
ATOM      4  C   UNL     1      30.057   6.257 -15.270  1.00  0.00     0.162 A 
ATOM      5  C   UNL     1      30.965   5.918 -16.274  1.00  0.00     0.128 A 
ATOM      6  C   UNL     1      31.065   4.589 -16.703  1.00  0.00     0.093 A 
ATOM      7  C   UNL     1      30.264   3.589 -16.139  1.00  0.00     0.136 A 
ATOM      8  C   UNL     1      29.337   3.930 -15.119  1.00  0.00     0.125 A 
ATOM      9  C   UNL     1      28.485   2.998 -14.507  1.00  0.00     0.078 A 
ATOM     10  C   UNL     1      27.594   3.410 -13.512  1.00  0.00     0.223 A 
ENDROOT
BRANCH   1  11
ATOM     11  C   UNL     1      26.683   5.275 -12.068  1.00  0.00     0.091 A 
ATOM     12  C   UNL     1      25.298   5.041 -12.108  1.00  0.00     0.068 A 
ATOM     13  C   UNL     1      24.465   5.513 -11.086  1.00  0.00     0.162 A 
ATOM     14  C   UNL     1      27.227   5.960 -10.971  1.00  0.00     0.068 A 
ATOM     15  C   UNL     1      25.016   6.218 -10.002  1.00  0.00     0.200 A 
ATOM     16  C   UNL     1      26.403   6.436  -9.945  1.00  0.00     0.162 A 
BRANCH  13  17
ATOM     17  O   UNL     1      23.091   5.280 -11.140  1.00  0.00    -0.504 OA
ATOM     18  H   UNL     1      22.423   5.960 -10.794  1.00  0.00     0.293 HD
ENDBRANCH  13  17
BRANCH  15  19
ATOM     19  O   UNL     1      24.201   6.699  -8.977  1.00  0.00    -0.502 OA
ATOM     20  H   UNL     1      24.122   7.687  -8.768  1.00  0.00     0.293 HD
ENDBRANCH  15  19
BRANCH  16  21
ATOM     21  O   UNL     1      26.981   7.125  -8.880  1.00  0.00    -0.504 OA
ATOM     22  H   UNL     1      27.585   7.926  -9.020  1.00  0.00     0.293 HD
ENDBRANCH  16  21
ENDBRANCH   1  11
BRANCH  10  23
ATOM     23  O   UNL     1      26.712   2.494 -12.938  1.00  0.00    -0.500 OA
ATOM     24  H   UNL     1      27.044   1.692 -12.415  1.00  0.00     0.294 HD
ENDBRANCH  10  23
BRANCH   5  25
ATOM     25  O   UNL     1      31.765   6.908 -16.839  1.00  0.00    -0.507 OA
ATOM     26  H   UNL     1      32.494   6.685 -17.506  1.00  0.00     0.293 HD
ENDBRANCH   5  25
BRANCH   7  27
ATOM     27  O   UNL     1      30.426   2.287 -16.620  1.00  0.00    -0.507 OA
ATOM     28  H   UNL     1      30.394   1.458 -16.045  1.00  0.00     0.293 HD
ENDBRANCH   7  27
TORSDOF 7
ENDMDL
MODEL 2
REMARK VINA RESULT:    -4.555      1.294      7.286
REMARK INTER + INTRA:          -5.708
REMARK INTER:                  -6.068
REMARK INTRA:                   0.361
REMARK UNBOUND:                -0.088
REMARK SMILES Oc1cc(O)c2cc(O)c(-c3cc(O)c(O)c(O)c3)[o+]c2c1
REMARK SMILES IDX 10 1 20 2 21 3 22 4 2 5 3 6 4 7 6 8 7 9 8 10 11 11 12 12
REMARK SMILES IDX 13 13 19 14 15 15 17 16 14 17 16 19 18 21 9 23 1 25 5 27
REMARK H PARENT 14 18 16 20 18 22 9 24 1 26 5 28
REMARK Flexibility Score: inf
ROOT
ATOM      1  C   UNL     1      27.759   5.057 -13.424  1.00  0.00     0.402 A 
ATOM      2  O   UNL     1      26.677   4.295 -13.302  1.00  0.00    -0.202 OA
ATOM      3  C   UNL     1      25.673   4.577 -12.478  1.00  0.00     0.368 A 
ATOM      4  C   UNL     1      24.578   3.711 -12.418  1.00  0.00     0.162 A 
ATOM      5  C   UNL     1      23.512   3.981 -11.559  1.00  0.00     0.128 A 
ATOM      6  C   UNL     1      23.539   5.125 -10.752  1.00  0.00     0.093 A 
ATOM      7  C   UNL     1      24.625   6.007 -10.793  1.00  0.00     0.136 A 
ATOM      8  C   UNL     1      25.711   5.738 -11.668  1.00  0.00     0.125 A 
ATOM      9  C   UNL     1      26.833   6.572 -11.785  1.00  0.00     0.078 A 
ATOM     10  C   UNL     1      27.862   6.243 -12.672  1.00  0.00     0.223 A 
ENDROOT
BRANCH   1  11
ATOM     11  C   UNL     1      28.814   4.630 -14.370  1.00  0.00     0.091 A 
ATOM     12  C   UNL     1      28.899   3.302 -14.823  1.00  0.00     0.068 A 
ATOM     13  C   UNL     1      29.891   2.922 -15.735  1.00  0.00     0.162 A 
ATOM     14  C   UNL     1      29.717   5.579 -14.872  1.00  0.00     0.068 A 
ATOM     15  C   UNL     1      30.805   3.875 -16.216  1.00  0.00     0.200 A 
ATOM     16  C   UNL     1      30.712   5.209 -15.783  1.00  0.00     0.162 A 
BRANCH  13  17
ATOM     17  O   UNL     1      29.970   1.599 -16.173  1.00  0.00    -0.504 OA
ATOM     18  H   UNL     1      29.555   0.840 -15.645  1.00  0.00     0.293 HD
ENDBRANCH  13  17
BRANCH  15  19
ATOM     19  O   UNL     1      31.803   3.513 -17.121  1.00  0.00    -0.502 OA
ATOM     20  H   UNL     1      31.698   3.642 -18.120  1.00  0.00     0.293 HD
ENDBRANCH  15  19
BRANCH  16  21
ATOM     21  O   UNL     1      31.599   6.181 -16.246  1.00  0.00    -0.504 OA
ATOM     22  H   UNL     1      32.492   5.942 -16.657  1.00  0.00     0.293 HD
ENDBRANCH  16  21
ENDBRANCH   1  11
BRANCH  10  23
ATOM     23  O   UNL     1      28.955   7.098 -12.826  1.00  0.00    -0.500 OA
ATOM     24  H   UNL     1      29.503   7.111 -13.677  1.00  0.00     0.294 HD
ENDBRANCH  10  23
BRANCH   5  25
ATOM     25  O   UNL     1      22.429   3.107 -11.514  1.00  0.00    -0.507 OA
ATOM     26  H   UNL     1      21.954   2.894 -10.644  1.00  0.00     0.293 HD
ENDBRANCH   5  25
BRANCH   7  27
ATOM     27  O   UNL     1      24.579   7.125  -9.954  1.00  0.00    -0.507 OA
ATOM     28  H   UNL     1      24.135   7.141  -9.048  1.00  0.00     0.293 HD
ENDBRANCH   7  27
TORSDOF 7
ENDMDL
MODEL 3
REMARK VINA RESULT:    -4.384      0.229      1.808
REMARK INTER + INTRA:          -5.497
REMARK INTER:                  -5.289
REMARK INTRA:                  -0.208
REMARK UNBOUND:                -0.088
REMARK SMILES Oc1cc(O)c2cc(O)c(-c3cc(O)c(O)c(O)c3)[o+]c2c1
REMARK SMILES IDX 10 1 20 2 21 3 22 4 2 5 3 6 4 7 6 8 7 9 8 10 11 11 12 12
REMARK SMILES IDX 13 13 19 14 15 15 17 16 14 17 16 19 18 21 9 23 1 25 5 27
REMARK H PARENT 14 18 16 20 18 22 9 24 1 26 5 28
REMARK Flexibility Score: inf
ROOT
ATOM      1  C   UNL     1      27.627   4.785 -13.001  1.00  0.00     0.402 A 
ATOM      2  O   UNL     1      28.301   5.679 -13.718  1.00  0.00    -0.202 OA
ATOM      3  C   UNL     1      29.124   5.351 -14.708  1.00  0.00     0.368 A 
ATOM      4  C   UNL     1      29.792   6.363 -15.402  1.00  0.00     0.162 A 
ATOM      5  C   UNL     1      30.663   6.047 -16.445  1.00  0.00     0.128 A 
ATOM      6  C   UNL     1      30.871   4.708 -16.798  1.00  0.00     0.093 A 
ATOM      7  C   UNL     1      30.215   3.675 -16.118  1.00  0.00     0.136 A 
ATOM      8  C   UNL     1      29.325   3.993 -15.059  1.00  0.00     0.125 A 
ATOM      9  C   UNL     1      28.614   3.026 -14.332  1.00  0.00     0.078 A 
ATOM     10  C   UNL     1      27.751   3.416 -13.303  1.00  0.00     0.223 A 
ENDROOT
BRANCH   1  11
ATOM     11  C   UNL     1      26.748   5.276 -11.915  1.00  0.00     0.091 A 
ATOM     12  C   UNL     1      27.270   5.968 -10.808  1.00  0.00     0.068 A 
ATOM     13  C   UNL     1      26.420   6.445  -9.801  1.00  0.00     0.162 A 
ATOM     14  C   UNL     1      25.361   5.098 -12.016  1.00  0.00     0.068 A 
ATOM     15  C   UNL     1      25.033   6.242  -9.900  1.00  0.00     0.200 A 
ATOM     16  C   UNL     1      24.504   5.569 -11.015  1.00  0.00     0.162 A 
BRANCH  13  17
ATOM     17  O   UNL     1      26.948   7.125  -8.704  1.00  0.00    -0.504 OA
ATOM     18  H   UNL     1      26.972   6.707  -7.782  1.00  0.00     0.293 HD
ENDBRANCH  13  17
BRANCH  15  19
ATOM     19  O   UNL     1      24.172   6.706  -8.904  1.00  0.00    -0.502 OA
ATOM     20  H   UNL     1      23.676   7.585  -8.986  1.00  0.00     0.293 HD
ENDBRANCH  15  19
BRANCH  16  21
ATOM     21  O   UNL     1      23.132   5.358 -11.147  1.00  0.00    -0.504 OA
ATOM     22  H   UNL     1      22.462   5.759 -10.503  1.00  0.00     0.293 HD
ENDBRANCH  16  21
ENDBRANCH   1  11
BRANCH  10  23
ATOM     23  O   UNL     1      27.006   2.458 -12.613  1.00  0.00    -0.500 OA
ATOM     24  H   UNL     1      26.805   2.552 -11.625  1.00  0.00     0.294 HD
ENDBRANCH  10  23
BRANCH   5  25
ATOM     25  O   UNL     1      31.320   7.070 -17.125  1.00  0.00    -0.507 OA
ATOM     26  H   UNL     1      30.886   7.974 -17.271  1.00  0.00     0.293 HD
ENDBRANCH   5  25
BRANCH   7  27
ATOM     27  O   UNL     1      30.477   2.365 -16.528  1.00  0.00    -0.507 OA
ATOM     28  H   UNL     1      31.270   2.091 -17.090  1.00  0.00     0.293 HD
ENDBRANCH   7  27
TORSDOF 7
ENDMDL
MODEL 4
REMARK VINA RESULT:    -4.144      1.346      7.226
REMARK INTER + INTRA:          -5.200
REMARK INTER:                  -4.840
REMARK INTRA:                  -0.360
REMARK UNBOUND:                -0.088
REMARK SMILES Oc1cc(O)c2cc(O)c(-c3cc(O)c(O)c(O)c3)[o+]c2c1
REMARK SMILES IDX 10 1 20 2 21 3 22 4 2 5 3 6 4 7 6 8 7 9 8 10 11 11 12 12
REMARK SMILES IDX 13 13 19 14 15 15 17 16 14 17 16 19 18 21 9 23 1 25 5 27
REMARK H PARENT 14 18 16 20 18 22 9 24 1 26 5 28
REMARK Flexibility Score: inf
ROOT
ATOM      1  C   UNL     1      27.862   5.248 -13.831  1.00  0.00     0.402 A 
ATOM      2  O   UNL     1      28.092   5.327 -12.524  1.00  0.00    -0.202 OA
ATOM      3  C   UNL     1      27.196   5.776 -11.651  1.00  0.00     0.368 A 
ATOM      4  C   UNL     1      27.533   5.825 -10.295  1.00  0.00     0.162 A 
ATOM      5  C   UNL     1      26.613   6.293  -9.357  1.00  0.00     0.128 A 
ATOM      6  C   UNL     1      25.346   6.718  -9.774  1.00  0.00     0.093 A 
ATOM      7  C   UNL     1      24.985   6.680 -11.126  1.00  0.00     0.136 A 
ATOM      8  C   UNL     1      25.917   6.201 -12.084  1.00  0.00     0.125 A 
ATOM      9  C   UNL     1      25.637   6.114 -13.457  1.00  0.00     0.078 A 
ATOM     10  C   UNL     1      26.605   5.627 -14.340  1.00  0.00     0.223 A 
ENDROOT
BRANCH   1  11
ATOM     11  C   UNL     1      28.945   4.741 -14.704  1.00  0.00     0.091 A 
ATOM     12  C   UNL     1      29.991   5.576 -15.134  1.00  0.00     0.068 A 
ATOM     13  C   UNL     1      31.018   5.072 -15.941  1.00  0.00     0.162 A 
ATOM     14  C   UNL     1      28.962   3.386 -15.066  1.00  0.00     0.068 A 
ATOM     15  C   UNL     1      31.015   3.718 -16.317  1.00  0.00     0.200 A 
ATOM     16  C   UNL     1      29.983   2.873 -15.873  1.00  0.00     0.162 A 
BRANCH  13  17
ATOM     17  O   UNL     1      32.048   5.911 -16.368  1.00  0.00    -0.504 OA
ATOM     18  H   UNL     1      32.968   5.878 -15.945  1.00  0.00     0.293 HD
ENDBRANCH  13  17
BRANCH  15  19
ATOM     19  O   UNL     1      32.028   3.200 -17.125  1.00  0.00    -0.502 OA
ATOM     20  H   UNL     1      33.010   3.333 -16.912  1.00  0.00     0.293 HD
ENDBRANCH  15  19
BRANCH  16  21
ATOM     21  O   UNL     1      29.955   1.524 -16.222  1.00  0.00    -0.504 OA
ATOM     22  H   UNL     1      29.158   0.933 -16.024  1.00  0.00     0.293 HD
ENDBRANCH  16  21
ENDBRANCH   1  11
BRANCH  10  23
ATOM     23  O   UNL     1      26.311   5.493 -15.698  1.00  0.00    -0.500 OA
ATOM     24  H   UNL     1      26.325   6.288 -16.326  1.00  0.00     0.294 HD
ENDBRANCH  10  23
BRANCH   5  25
ATOM     25  O   UNL     1      26.967   6.334  -8.010  1.00  0.00    -0.507 OA
ATOM     26  H   UNL     1      26.818   5.540  -7.398  1.00  0.00     0.293 HD
ENDBRANCH   5  25
BRANCH   7  27
ATOM     27  O   UNL     1      23.703   7.124 -11.463  1.00  0.00    -0.507 OA
ATOM     28  H   UNL     1      23.438   8.095 -11.542  1.00  0.00     0.293 HD
ENDBRANCH   7  27
TORSDOF 7
ENDMDL
MODEL 5
REMARK VINA RESULT:    -4.036      1.704      3.472
REMARK INTER + INTRA:          -5.068
REMARK INTER:                  -5.418
REMARK INTRA:                   0.350
REMARK UNBOUND:                -0.088
REMARK SMILES Oc1cc(O)c2cc(O)c(-c3cc(O)c(O)c(O)c3)[o+]c2c1
REMARK SMILES IDX 10 1 20 2 21 3 22 4 2 5 3 6 4 7 6 8 7 9 8 10 11 11 12 12
REMARK SMILES IDX 13 13 19 14 15 15 17 16 14 17 16 19 18 21 9 23 1 25 5 27
REMARK H PARENT 14 18 16 20 18 22 9 24 1 26 5 28
REMARK Flexibility Score: inf
ROOT
ATOM      1  C   UNL     1      27.362   4.781 -13.790  1.00  0.00     0.402 A 
ATOM      2  O   UNL     1      28.092   3.903 -14.471  1.00  0.00    -0.202 OA
ATOM      3  C   UNL     1      29.227   4.217 -15.087  1.00  0.00     0.368 A 
ATOM      4  C   UNL     1      29.923   3.224 -15.781  1.00  0.00     0.162 A 
ATOM      5  C   UNL     1      31.115   3.527 -16.438  1.00  0.00     0.128 A 
ATOM      6  C   UNL     1      31.618   4.833 -16.404  1.00  0.00     0.093 A 
ATOM      7  C   UNL     1      30.940   5.847 -15.716  1.00  0.00     0.136 A 
ATOM      8  C   UNL     1      29.727   5.542 -15.043  1.00  0.00     0.125 A 
ATOM      9  C   UNL     1      28.988   6.489 -14.318  1.00  0.00     0.078 A 
ATOM     10  C   UNL     1      27.803   6.113 -13.678  1.00  0.00     0.223 A 
ENDROOT
BRANCH   1  11
ATOM     11  C   UNL     1      26.109   4.310 -13.157  1.00  0.00     0.091 A 
ATOM     12  C   UNL     1      25.448   5.076 -12.181  1.00  0.00     0.068 A 
ATOM     13  C   UNL     1      24.253   4.624 -11.609  1.00  0.00     0.162 A 
ATOM     14  C   UNL     1      25.537   3.100 -13.576  1.00  0.00     0.068 A 
ATOM     15  C   UNL     1      23.698   3.399 -12.020  1.00  0.00     0.200 A 
ATOM     16  C   UNL     1      24.344   2.639 -13.011  1.00  0.00     0.162 A 
BRANCH  13  17
ATOM     17  O   UNL     1      23.608   5.389 -10.638  1.00  0.00    -0.504 OA
ATOM     18  H   UNL     1      22.676   5.757 -10.784  1.00  0.00     0.293 HD
ENDBRANCH  13  17
BRANCH  15  19
ATOM     19  O   UNL     1      22.510   2.931 -11.458  1.00  0.00    -0.502 OA
ATOM     20  H   UNL     1      21.962   2.195 -11.888  1.00  0.00     0.293 HD
ENDBRANCH  15  19
BRANCH  16  21
ATOM     21  O   UNL     1      23.816   1.424 -13.445  1.00  0.00    -0.504 OA
ATOM     22  H   UNL     1      23.139   0.905 -12.900  1.00  0.00     0.293 HD
ENDBRANCH  16  21
ENDBRANCH   1  11
BRANCH  10  23
ATOM     23  O   UNL     1      27.094   7.042 -12.915  1.00  0.00    -0.500 OA
ATOM     24  H   UNL     1      27.296   8.034 -12.962  1.00  0.00     0.294 HD
ENDBRANCH  10  23
BRANCH   5  25
ATOM     25  O   UNL     1      31.795   2.523 -17.125  1.00  0.00    -0.507 OA
ATOM     26  H   UNL     1      31.569   2.290 -18.085  1.00  0.00     0.293 HD
ENDBRANCH   5  25
BRANCH   7  27
ATOM     27  O   UNL     1      31.505   7.125 -15.731  1.00  0.00    -0.507 OA
ATOM     28  H   UNL     1      31.799   7.609 -16.566  1.00  0.00     0.293 HD
ENDBRANCH   7  27
TORSDOF 7
ENDMDL
MODEL 6
REMARK VINA RESULT:    -3.958      1.279      7.042
REMARK INTER + INTRA:          -4.972
REMARK INTER:                  -5.341
REMARK INTRA:                   0.370
REMARK UNBOUND:                -0.088
REMARK SMILES Oc1cc(O)c2cc(O)c(-c3cc(O)c(O)c(O)c3)[o+]c2c1
REMARK SMILES IDX 10 1 20 2 21 3 22 4 2 5 3 6 4 7 6 8 7 9 8 10 11 11 12 12
REMARK SMILES IDX 13 13 19 14 15 15 17 16 14 17 16 19 18 21 9 23 1 25 5 27
REMARK H PARENT 14 18 16 20 18 22 9 24 1 26 5 28
REMARK Flexibility Score: inf
ROOT
ATOM      1  C   UNL     1      27.196   4.442 -13.810  1.00  0.00     0.402 A 
ATOM      2  O   UNL     1      26.950   5.294 -12.819  1.00  0.00    -0.202 OA
ATOM      3  C   UNL     1      25.849   5.254 -12.077  1.00  0.00     0.368 A 
ATOM      4  C   UNL     1      25.679   6.195 -11.059  1.00  0.00     0.162 A 
ATOM      5  C   UNL     1      24.530   6.178 -10.267  1.00  0.00     0.128 A 
ATOM      6  C   UNL     1      23.542   5.213 -10.494  1.00  0.00     0.093 A 
ATOM      7  C   UNL     1      23.688   4.259 -11.508  1.00  0.00     0.136 A 
ATOM      8  C   UNL     1      24.856   4.271 -12.314  1.00  0.00     0.125 A 
ATOM      9  C   UNL     1      25.094   3.346 -13.343  1.00  0.00     0.078 A 
ATOM     10  C   UNL     1      26.271   3.419 -14.093  1.00  0.00     0.223 A 
ENDROOT
BRANCH   1  11
ATOM     11  C   UNL     1      28.457   4.597 -14.571  1.00  0.00     0.091 A 
ATOM     12  C   UNL     1      29.189   5.797 -14.540  1.00  0.00     0.068 A 
ATOM     13  C   UNL     1      30.391   5.917 -15.249  1.00  0.00     0.162 A 
ATOM     14  C   UNL     1      28.965   3.508 -15.295  1.00  0.00     0.068 A 
ATOM     15  C   UNL     1      30.880   4.827 -15.989  1.00  0.00     0.200 A 
ATOM     16  C   UNL     1      30.164   3.618 -16.007  1.00  0.00     0.162 A 
BRANCH  13  17
ATOM     17  O   UNL     1      31.106   7.114 -15.215  1.00  0.00    -0.504 OA
ATOM     18  H   UNL     1      32.075   7.162 -15.506  1.00  0.00     0.293 HD
ENDBRANCH  13  17
BRANCH  15  19
ATOM     19  O   UNL     1      32.073   4.931 -16.705  1.00  0.00    -0.502 OA
ATOM     20  H   UNL     1      32.736   5.680 -16.545  1.00  0.00     0.293 HD
ENDBRANCH  15  19
BRANCH  16  21
ATOM     21  O   UNL     1      30.626   2.517 -16.725  1.00  0.00    -0.504 OA
ATOM     22  H   UNL     1      31.268   2.611 -17.502  1.00  0.00     0.293 HD
ENDBRANCH  16  21
ENDBRANCH   1  11
BRANCH  10  23
ATOM     23  O   UNL     1      26.532   2.470 -15.082  1.00  0.00    -0.500 OA
ATOM     24  H   UNL     1      27.149   2.668 -15.860  1.00  0.00     0.294 HD
ENDBRANCH  10  23
BRANCH   5  25
ATOM     25  O   UNL     1      24.379   7.125  -9.257  1.00  0.00    -0.507 OA
ATOM     26  H   UNL     1      23.665   7.031  -8.544  1.00  0.00     0.293 HD
ENDBRANCH   5  25
BRANCH   7  27
ATOM     27  O   UNL     1      22.655   3.331 -11.673  1.00  0.00    -0.507 OA
ATOM     28  H   UNL     1      22.763   2.333 -11.571  1.00  0.00     0.293 HD
ENDBRANCH   7  27
TORSDOF 7
ENDMDL
MODEL 7
REMARK VINA RESULT:    -3.763      1.332      2.765
REMARK INTER + INTRA:          -4.731
REMARK INTER:                  -5.164
REMARK INTRA:                   0.433
REMARK UNBOUND:                -0.088
REMARK SMILES Oc1cc(O)c2cc(O)c(-c3cc(O)c(O)c(O)c3)[o+]c2c1
REMARK SMILES IDX 10 1 20 2 21 3 22 4 2 5 3 6 4 7 6 8 7 9 8 10 11 11 12 12
REMARK SMILES IDX 13 13 19 14 15 15 17 16 14 17 16 19 18 21 9 23 1 25 5 27
REMARK H PARENT 14 18 16 20 18 22 9 24 1 26 5 28
REMARK Flexibility Score: inf
ROOT
ATOM      1  C   UNL     1      27.467   4.810 -13.629  1.00  0.00     0.402 A 
ATOM      2  O   UNL     1      27.742   3.667 -14.251  1.00  0.00    -0.202 OA
ATOM      3  C   UNL     1      28.788   3.507 -15.055  1.00  0.00     0.368 A 
ATOM      4  C   UNL     1      28.993   2.268 -15.667  1.00  0.00     0.162 A 
ATOM      5  C   UNL     1      30.081   2.073 -16.518  1.00  0.00     0.128 A 
ATOM      6  C   UNL     1      30.973   3.124 -16.762  1.00  0.00     0.093 A 
ATOM      7  C   UNL     1      30.790   4.375 -16.162  1.00  0.00     0.136 A 
ATOM      8  C   UNL     1      29.685   4.577 -15.292  1.00  0.00     0.125 A 
ATOM      9  C   UNL     1      29.431   5.792 -14.637  1.00  0.00     0.078 A 
ATOM     10  C   UNL     1      28.324   5.914 -13.792  1.00  0.00     0.223 A 
ENDROOT
BRANCH   1  11
ATOM     11  C   UNL     1      26.264   4.865 -12.767  1.00  0.00     0.091 A 
ATOM     12  C   UNL     1      25.318   3.826 -12.761  1.00  0.00     0.068 A 
ATOM     13  C   UNL     1      24.198   3.887 -11.921  1.00  0.00     0.162 A 
ATOM     14  C   UNL     1      26.090   5.950 -11.895  1.00  0.00     0.068 A 
ATOM     15  C   UNL     1      24.021   4.989 -11.067  1.00  0.00     0.200 A 
ATOM     16  C   UNL     1      24.975   6.021 -11.054  1.00  0.00     0.162 A 
BRANCH  13  17
ATOM     17  O   UNL     1      23.262   2.852 -11.928  1.00  0.00    -0.504 OA
ATOM     18  H   UNL     1      23.338   2.073 -12.570  1.00  0.00     0.293 HD
ENDBRANCH  13  17
BRANCH  15  19
ATOM     19  O   UNL     1      22.909   5.068 -10.228  1.00  0.00    -0.502 OA
ATOM     20  H   UNL     1      21.980   5.262 -10.580  1.00  0.00     0.293 HD
ENDBRANCH  15  19
BRANCH  16  21
ATOM     21  O   UNL     1      24.832   7.124 -10.213  1.00  0.00    -0.504 OA
ATOM     22  H   UNL     1      25.364   7.221  -9.357  1.00  0.00     0.293 HD
ENDBRANCH  16  21
ENDBRANCH   1  11
BRANCH  10  23
ATOM     23  O   UNL     1      28.098   7.106 -13.101  1.00  0.00    -0.500 OA
ATOM     24  H   UNL     1      28.594   7.326 -12.246  1.00  0.00     0.294 HD
ENDBRANCH  10  23
BRANCH   5  25
ATOM     25  O   UNL     1      30.268   0.830 -17.119  1.00  0.00    -0.507 OA
ATOM     26  H   UNL     1      31.143   0.583 -17.566  1.00  0.00     0.293 HD
ENDBRANCH   5  25
BRANCH   7  27
ATOM     27  O   UNL     1      31.721   5.374 -16.457  1.00  0.00    -0.507 OA
ATOM     28  H   UNL     1      32.716   5.222 -16.539  1.00  0.00     0.293 HD
ENDBRANCH   7  27
TORSDOF 7
ENDMDL
MODEL 8
REMARK VINA RESULT:    -3.402      2.702      4.068
REMARK INTER + INTRA:          -4.285
REMARK INTER:                  -3.905
REMARK INTRA:                  -0.380
REMARK UNBOUND:                -0.088
REMARK SMILES Oc1cc(O)c2cc(O)c(-c3cc(O)c(O)c(O)c3)[o+]c2c1
REMARK SMILES IDX 10 1 20 2 21 3 22 4 2 5 3 6 4 7 6 8 7 9 8 10 11 11 12 12
REMARK SMILES IDX 13 13 19 14 15 15 17 16 14 17 16 19 18 21 9 23 1 25 5 27
REMARK H PARENT 14 18 16 20 18 22 9 24 1 26 5 28
REMARK Flexibility Score: inf
ROOT
ATOM      1  C   UNL     1      26.366   4.379 -13.139  1.00  0.00     0.402 A 
ATOM      2  O   UNL     1      27.304   4.812 -12.301  1.00  0.00    -0.202 OA
ATOM      3  C   UNL     1      28.339   5.552 -12.682  1.00  0.00     0.368 A 
ATOM      4  C   UNL     1      29.275   5.956 -11.727  1.00  0.00     0.162 A 
ATOM      5  C   UNL     1      30.374   6.731 -12.100  1.00  0.00     0.128 A 
ATOM      6  C   UNL     1      30.540   7.106 -13.439  1.00  0.00     0.093 A 
ATOM      7  C   UNL     1      29.617   6.713 -14.415  1.00  0.00     0.136 A 
ATOM      8  C   UNL     1      28.496   5.927 -14.039  1.00  0.00     0.125 A 
ATOM      9  C   UNL     1      27.514   5.499 -14.946  1.00  0.00     0.078 A 
ATOM     10  C   UNL     1      26.435   4.730 -14.500  1.00  0.00     0.223 A 
ENDROOT
BRANCH   1  11
ATOM     11  C   UNL     1      25.266   3.552 -12.593  1.00  0.00     0.091 A 
ATOM     12  C   UNL     1      24.083   4.135 -12.105  1.00  0.00     0.068 A 
ATOM     13  C   UNL     1      23.045   3.334 -11.613  1.00  0.00     0.162 A 
ATOM     14  C   UNL     1      25.379   2.154 -12.612  1.00  0.00     0.068 A 
ATOM     15  C   UNL     1      23.176   1.934 -11.615  1.00  0.00     0.200 A 
ATOM     16  C   UNL     1      24.348   1.346 -12.122  1.00  0.00     0.162 A 
BRANCH  13  17
ATOM     17  O   UNL     1      21.878   3.923 -11.125  1.00  0.00    -0.504 OA
ATOM     18  H   UNL     1      21.644   3.901 -10.140  1.00  0.00     0.293 HD
ENDBRANCH  13  17
BRANCH  15  19
ATOM     19  O   UNL     1      22.154   1.122 -11.125  1.00  0.00    -0.502 OA
ATOM     20  H   UNL     1      22.330   0.193 -10.762  1.00  0.00     0.293 HD
ENDBRANCH  15  19
BRANCH  16  21
ATOM     21  O   UNL     1      24.506  -0.039 -12.145  1.00  0.00    -0.504 OA
ATOM     22  H   UNL     1      24.790  -0.563 -11.327  1.00  0.00     0.293 HD
ENDBRANCH  16  21
ENDBRANCH   1  11
BRANCH  10  23
ATOM     23  O   UNL     1      25.432   4.347 -15.392  1.00  0.00    -0.500 OA
ATOM     24  H   UNL     1      24.810   5.024 -15.815  1.00  0.00     0.294 HD
ENDBRANCH  10  23
BRANCH   5  25
ATOM     25  O   UNL     1      31.296   7.125 -11.134  1.00  0.00    -0.507 OA
ATOM     26  H   UNL     1      31.795   6.448 -10.569  1.00  0.00     0.293 HD
ENDBRANCH   5  25
BRANCH   7  27
ATOM     27  O   UNL     1      29.855   7.124 -15.730  1.00  0.00    -0.507 OA
ATOM     28  H   UNL     1      29.731   8.068 -16.064  1.00  0.00     0.293 HD
ENDBRANCH   7  27
TORSDOF 7
ENDMDL
