MODEL 1
REMARK VINA RESULT:    -2.618      0.000      0.000
REMARK INTER + INTRA:          -4.316
REMARK INTER:                  -3.536
REMARK INTRA:                  -0.780
REMARK UNBOUND:                -0.780
REMARK SMILES CCCCCCCC(C)=O
REMARK SMILES IDX 5 1 4 2 3 3 2 4 1 5 6 6 7 7 8 8 10 9 9 10
REMARK H PARENT
REMARK Flexibility Score: inf
ROOT
ATOM      1  C   UNL     1     142.440 141.059 143.113  1.00  0.00     0.000 C 
ENDROOT
BRANCH   1   2
ATOM      2  C   UNL     1     143.089 140.067 142.134  1.00  0.00     0.000 C 
BRANCH   2   3
ATOM      3  C   UNL     1     142.051 139.280 141.314  1.00  0.00    -0.000 C 
BRANCH   3   4
ATOM      4  C   UNL     1     140.924 138.708 142.187  1.00  0.00    -0.003 C 
ATOM      5  C   UNL     1     139.715 138.255 141.370  1.00  0.00     0.004 C 
ENDBRANCH   3   4
ENDBRANCH   2   3
ENDBRANCH   1   2
BRANCH   1   6
ATOM      6  C   UNL     1     142.100 142.405 142.450  1.00  0.00     0.008 C 
BRANCH   6   7
ATOM      7  C   UNL     1     140.645 142.820 142.704  1.00  0.00     0.075 C 
BRANCH   7   8
ATOM      8  C   UNL     1     139.703 142.214 141.693  1.00  0.00     0.129 C 
ATOM      9  O   UNL     1     140.046 142.135 140.524  1.00  0.00    -0.300 OA
ATOM     10  C   UNL     1     138.354 141.696 142.096  1.00  0.00     0.087 C 
ENDBRANCH   7   8
ENDBRANCH   6   7
ENDBRANCH   1   6
TORSDOF 6
ENDMDL
MODEL 2
REMARK VINA RESULT:    -2.599      1.605      2.841
REMARK INTER + INTRA:          -4.290
REMARK INTER:                  -3.531
REMARK INTRA:                  -0.760
REMARK UNBOUND:                -0.780
REMARK SMILES CCCCCCCC(C)=O
REMARK SMILES IDX 5 1 4 2 3 3 2 4 1 5 6 6 7 7 8 8 10 9 9 10
REMARK H PARENT
REMARK Flexibility Score: inf
ROOT
ATOM      1  C   UNL     1     139.511 139.752 142.246  1.00  0.00     0.000 C 
ENDROOT
BRANCH   1   2
ATOM      2  C   UNL     1     140.765 138.890 142.029  1.00  0.00     0.000 C 
BRANCH   2   3
ATOM      3  C   UNL     1     141.874 139.190 143.053  1.00  0.00    -0.000 C 
BRANCH   3   4
ATOM      4  C   UNL     1     143.217 139.520 142.383  1.00  0.00    -0.003 C 
ATOM      5  C   UNL     1     143.065 139.900 140.910  1.00  0.00     0.004 C 
ENDBRANCH   3   4
ENDBRANCH   2   3
ENDBRANCH   1   2
BRANCH   1   6
ATOM      6  C   UNL     1     139.819 141.065 142.988  1.00  0.00     0.008 C 
BRANCH   6   7
ATOM      7  C   UNL     1     139.919 142.258 142.029  1.00  0.00     0.075 C 
BRANCH   7   8
ATOM      8  C   UNL     1     141.255 142.950 142.129  1.00  0.00     0.129 C 
ATOM      9  O   UNL     1     141.962 142.753 143.105  1.00  0.00    -0.300 OA
ATOM     10  C   UNL     1     141.742 143.868 141.047  1.00  0.00     0.087 C 
ENDBRANCH   7   8
ENDBRANCH   6   7
ENDBRANCH   1   6
TORSDOF 6
ENDMDL
MODEL 3
REMARK VINA RESULT:    -2.591      1.448      4.280
REMARK INTER + INTRA:          -4.280
REMARK INTER:                  -3.576
REMARK INTRA:                  -0.704
REMARK UNBOUND:                -0.780
REMARK SMILES CCCCCCCC(C)=O
REMARK SMILES IDX 5 1 4 2 3 3 2 4 1 5 6 6 7 7 8 8 10 9 9 10
REMARK H PARENT
REMARK Flexibility Score: inf
ROOT
ATOM      1  C   UNL     1     139.136 140.467 143.125  1.00  0.00     0.000 C 
ENDROOT
BRANCH   1   2
ATOM      2  C   UNL     1     138.537 141.426 142.083  1.00  0.00     0.000 C 
BRANCH   2   3
ATOM      3  C   UNL     1     139.614 142.141 141.248  1.00  0.00    -0.000 C 
BRANCH   3   4
ATOM      4  C   UNL     1     140.718 142.759 142.120  1.00  0.00    -0.003 C 
ATOM      5  C   UNL     1     141.702 143.607 141.315  1.00  0.00     0.004 C 
ENDBRANCH   3   4
ENDBRANCH   2   3
ENDBRANCH   1   2
BRANCH   1   6
ATOM      6  C   UNL     1     139.525 139.107 142.520  1.00  0.00     0.008 C 
BRANCH   6   7
ATOM      7  C   UNL     1     141.000 138.766 142.772  1.00  0.00     0.075 C 
BRANCH   7   8
ATOM      8  C   UNL     1     141.885 139.228 141.642  1.00  0.00     0.129 C 
ATOM      9  O   UNL     1     141.517 139.073 140.488  1.00  0.00    -0.300 OA
ATOM     10  C   UNL     1     143.207 139.886 141.905  1.00  0.00     0.087 C 
ENDBRANCH   7   8
ENDBRANCH   6   7
ENDBRANCH   1   6
TORSDOF 6
ENDMDL
MODEL 4
REMARK VINA RESULT:    -2.565      1.357      3.046
REMARK INTER + INTRA:          -4.244
REMARK INTER:                  -3.390
REMARK INTRA:                  -0.854
REMARK UNBOUND:                -0.780
REMARK SMILES CCCCCCCC(C)=O
REMARK SMILES IDX 5 1 4 2 3 3 2 4 1 5 6 6 7 7 8 8 10 9 9 10
REMARK H PARENT
REMARK Flexibility Score: inf
ROOT
ATOM      1  C   UNL     1     141.992 139.662 143.124  1.00  0.00     0.000 C 
ENDROOT
BRANCH   1   2
ATOM      2  C   UNL     1     142.618 140.888 142.438  1.00  0.00     0.000 C 
BRANCH   2   3
ATOM      3  C   UNL     1     142.157 142.216 143.064  1.00  0.00    -0.000 C 
BRANCH   3   4
ATOM      4  C   UNL     1     141.766 143.259 142.006  1.00  0.00    -0.003 C 
ATOM      5  C   UNL     1     141.921 142.739 140.578  1.00  0.00     0.004 C 
ENDBRANCH   3   4
ENDBRANCH   2   3
ENDBRANCH   1   2
BRANCH   1   6
ATOM      6  C   UNL     1     140.454 139.689 143.090  1.00  0.00     0.008 C 
BRANCH   6   7
ATOM      7  C   UNL     1     139.906 139.548 141.664  1.00  0.00     0.075 C 
BRANCH   7   8
ATOM      8  C   UNL     1     138.910 140.631 141.334  1.00  0.00     0.129 C 
ATOM      9  O   UNL     1     138.445 140.697 140.207  1.00  0.00    -0.300 OA
ATOM     10  C   UNL     1     138.468 141.626 142.366  1.00  0.00     0.087 C 
ENDBRANCH   7   8
ENDBRANCH   6   7
ENDBRANCH   1   6
TORSDOF 6
ENDMDL
MODEL 5
REMARK VINA RESULT:    -2.563      1.522      3.701
REMARK INTER + INTRA:          -4.242
REMARK INTER:                  -3.567
REMARK INTRA:                  -0.675
REMARK UNBOUND:                -0.780
REMARK SMILES CCCCCCCC(C)=O
REMARK SMILES IDX 5 1 4 2 3 3 2 4 1 5 6 6 7 7 8 8 10 9 9 10
REMARK H PARENT
REMARK Flexibility Score: inf
ROOT
ATOM      1  C   UNL     1     139.619 142.280 141.645  1.00  0.00     0.000 C 
ENDROOT
BRANCH   1   2
ATOM      2  C   UNL     1     140.581 142.467 142.829  1.00  0.00     0.000 C 
BRANCH   2   3
ATOM      3  C   UNL     1     142.041 142.144 142.463  1.00  0.00    -0.000 C 
BRANCH   3   4
ATOM      4  C   UNL     1     142.506 140.798 143.037  1.00  0.00    -0.003 C 
ATOM      5  C   UNL     1     143.154 139.899 141.985  1.00  0.00     0.004 C 
ENDBRANCH   3   4
ENDBRANCH   2   3
ENDBRANCH   1   2
BRANCH   1   6
ATOM      6  C   UNL     1     138.784 140.992 141.762  1.00  0.00     0.008 C 
BRANCH   6   7
ATOM      7  C   UNL     1     139.297 139.887 140.830  1.00  0.00     0.075 C 
BRANCH   7   8
ATOM      8  C   UNL     1     139.632 138.625 141.586  1.00  0.00     0.129 C 
ATOM      9  O   UNL     1     139.657 138.644 142.806  1.00  0.00    -0.300 OA
ATOM     10  C   UNL     1     139.927 137.341 140.868  1.00  0.00     0.087 C 
ENDBRANCH   7   8
ENDBRANCH   6   7
ENDBRANCH   1   6
TORSDOF 6
ENDMDL
MODEL 6
REMARK VINA RESULT:    -2.561      1.310      3.305
REMARK INTER + INTRA:          -4.239
REMARK INTER:                  -3.419
REMARK INTRA:                  -0.820
REMARK UNBOUND:                -0.780
REMARK SMILES CCCCCCCC(C)=O
REMARK SMILES IDX 5 1 4 2 3 3 2 4 1 5 6 6 7 7 8 8 10 9 9 10
REMARK H PARENT
REMARK Flexibility Score: inf
ROOT
ATOM      1  C   UNL     1     140.918 139.149 142.358  1.00  0.00     0.000 C 
ENDROOT
BRANCH   1   2
ATOM      2  C   UNL     1     139.459 139.615 142.216  1.00  0.00     0.000 C 
BRANCH   2   3
ATOM      3  C   UNL     1     139.146 140.851 143.078  1.00  0.00    -0.000 C 
BRANCH   3   4
ATOM      4  C   UNL     1     138.458 141.967 142.277  1.00  0.00    -0.003 C 
ATOM      5  C   UNL     1     138.563 141.761 140.767  1.00  0.00     0.004 C 
ENDBRANCH   3   4
ENDBRANCH   2   3
ENDBRANCH   1   2
BRANCH   1   6
ATOM      6  C   UNL     1     141.832 139.733 141.267  1.00  0.00     0.008 C 
BRANCH   6   7
ATOM      7  C   UNL     1     142.654 140.923 141.781  1.00  0.00     0.075 C 
BRANCH   7   8
ATOM      8  C   UNL     1     142.255 142.214 141.109  1.00  0.00     0.129 C 
ATOM      9  O   UNL     1     142.228 142.274 139.890  1.00  0.00    -0.300 OA
ATOM     10  C   UNL     1     141.879 143.426 141.909  1.00  0.00     0.087 C 
ENDBRANCH   7   8
ENDBRANCH   6   7
ENDBRANCH   1   6
TORSDOF 6
ENDMDL
MODEL 7
REMARK VINA RESULT:    -2.555      1.379      3.427
REMARK INTER + INTRA:          -4.231
REMARK INTER:                  -3.421
REMARK INTRA:                  -0.809
REMARK UNBOUND:                -0.780
REMARK SMILES CCCCCCCC(C)=O
REMARK SMILES IDX 5 1 4 2 3 3 2 4 1 5 6 6 7 7 8 8 10 9 9 10
REMARK H PARENT
REMARK Flexibility Score: inf
ROOT
ATOM      1  C   UNL     1     142.122 142.007 142.660  1.00  0.00     0.000 C 
ENDROOT
BRANCH   1   2
ATOM      2  C   UNL     1     140.800 142.669 142.239  1.00  0.00     0.000 C 
BRANCH   2   3
ATOM      3  C   UNL     1     139.598 142.161 143.054  1.00  0.00    -0.000 C 
BRANCH   3   4
ATOM      4  C   UNL     1     138.322 142.042 142.205  1.00  0.00    -0.003 C 
ATOM      5  C   UNL     1     138.616 141.755 140.733  1.00  0.00     0.004 C 
ENDBRANCH   3   4
ENDBRANCH   2   3
ENDBRANCH   1   2
BRANCH   1   6
ATOM      6  C   UNL     1     141.934 140.546 143.106  1.00  0.00     0.008 C 
BRANCH   6   7
ATOM      7  C   UNL     1     142.253 139.554 141.980  1.00  0.00     0.075 C 
BRANCH   7   8
ATOM      8  C   UNL     1     141.004 138.929 141.410  1.00  0.00     0.129 C 
ATOM      9  O   UNL     1     140.908 138.772 140.203  1.00  0.00    -0.300 OA
ATOM     10  C   UNL     1     139.880 138.485 142.298  1.00  0.00     0.087 C 
ENDBRANCH   7   8
ENDBRANCH   6   7
ENDBRANCH   1   6
TORSDOF 6
ENDMDL
MODEL 8
REMARK VINA RESULT:    -2.545      1.980      3.378
REMARK INTER + INTRA:          -4.217
REMARK INTER:                  -3.371
REMARK INTRA:                  -0.846
REMARK UNBOUND:                -0.780
REMARK SMILES CCCCCCCC(C)=O
REMARK SMILES IDX 5 1 4 2 3 3 2 4 1 5 6 6 7 7 8 8 10 9 9 10
REMARK H PARENT
REMARK Flexibility Score: inf
ROOT
ATOM      1  C   UNL     1     139.982 140.973 142.955  1.00  0.00     0.000 C 
ENDROOT
BRANCH   1   2
ATOM      2  C   UNL     1     139.155 139.980 142.122  1.00  0.00     0.000 C 
BRANCH   2   3
ATOM      3  C   UNL     1     139.525 138.514 142.409  1.00  0.00    -0.000 C 
BRANCH   3   4
ATOM      4  C   UNL     1     140.191 137.830 141.205  1.00  0.00    -0.003 C 
ATOM      5  C   UNL     1     140.027 138.624 139.910  1.00  0.00     0.004 C 
ENDBRANCH   3   4
ENDBRANCH   2   3
ENDBRANCH   1   2
BRANCH   1   6
ATOM      6  C   UNL     1     141.092 141.651 142.133  1.00  0.00     0.008 C 
BRANCH   6   7
ATOM      7  C   UNL     1     142.485 141.384 142.717  1.00  0.00     0.075 C 
BRANCH   7   8
ATOM      8  C   UNL     1     143.015 140.031 142.311  1.00  0.00     0.129 C 
ATOM      9  O   UNL     1     143.023 139.120 143.125  1.00  0.00    -0.300 OA
ATOM     10  C   UNL     1     143.524 139.776 140.924  1.00  0.00     0.087 C 
ENDBRANCH   7   8
ENDBRANCH   6   7
ENDBRANCH   1   6
TORSDOF 6
ENDMDL
MODEL 9
REMARK VINA RESULT:    -2.505      1.678      2.305
REMARK INTER + INTRA:          -4.164
REMARK INTER:                  -3.655
REMARK INTRA:                  -0.509
REMARK UNBOUND:                -0.780
REMARK SMILES CCCCCCCC(C)=O
REMARK SMILES IDX 5 1 4 2 3 3 2 4 1 5 6 6 7 7 8 8 10 9 9 10
REMARK H PARENT
REMARK Flexibility Score: inf
ROOT
ATOM      1  C   UNL     1     142.024 142.226 141.962  1.00  0.00     0.000 C 
ENDROOT
BRANCH   1   2
ATOM      2  C   UNL     1     142.507 141.337 143.120  1.00  0.00     0.000 C 
BRANCH   2   3
ATOM      3  C   UNL     1     142.831 139.902 142.668  1.00  0.00    -0.000 C 
BRANCH   3   4
ATOM      4  C   UNL     1     142.866 139.761 141.139  1.00  0.00    -0.003 C 
ATOM      5  C   UNL     1     144.289 139.734 140.580  1.00  0.00     0.004 C 
ENDBRANCH   3   4
ENDBRANCH   2   3
ENDBRANCH   1   2
BRANCH   1   6
ATOM      6  C   UNL     1     140.716 142.966 142.294  1.00  0.00     0.008 C 
BRANCH   6   7
ATOM      7  C   UNL     1     139.759 142.101 143.125  1.00  0.00     0.075 C 
BRANCH   7   8
ATOM      8  C   UNL     1     138.907 141.210 142.255  1.00  0.00     0.129 C 
ATOM      9  O   UNL     1     139.118 140.008 142.238  1.00  0.00    -0.300 OA
ATOM     10  C   UNL     1     137.796 141.770 141.417  1.00  0.00     0.087 C 
ENDBRANCH   7   8
ENDBRANCH   6   7
ENDBRANCH   1   6
TORSDOF 6
ENDMDL
