MODEL 1
REMARK VINA RESULT:   -10.248      0.000      0.000
REMARK INTER + INTRA:         -14.582
REMARK INTER:                 -13.542
REMARK INTRA:                  -1.039
REMARK UNBOUND:                -1.039
REMARK SMILES CC[C@H](C=C[C@@H](C)[C@@H]1CC[C@H]2[C@H]3CC=C4C[C@H](O)CC[C@@]4(C)[C@H]3CC[C@]21C)C(C)C
REMARK SMILES IDX 6 1 7 2 5 3 4 4 3 5 2 6 1 7 28 8 29 9 30 10 8 11 9 12 26 13
REMARK SMILES IDX 10 14 11 15 25 16 27 17 12 18 24 19 23 20 13 21 21 22 14 23
REMARK SMILES IDX 15 24 20 25 22 26 16 27 19 28 17 29 18 30
REMARK H PARENT 18 31
REMARK Flexibility Score: inf
ROOT
ATOM      1  C   UNL     1     -22.279 -42.759  23.453  1.00  0.00     0.012 C 
ATOM      2  C   UNL     1     -23.603 -42.147  22.962  1.00  0.00     0.012 C 
ENDROOT
BRANCH   1   3
ATOM      3  C   UNL     1     -22.549 -44.169  23.937  1.00  0.00    -0.028 C 
ATOM      4  C   UNL     1     -21.917 -45.231  23.405  1.00  0.00    -0.027 C 
BRANCH   4   5
ATOM      5  C   UNL     1     -22.152 -46.642  23.915  1.00  0.00     0.014 C 
BRANCH   5   6
ATOM      6  C   UNL     1     -22.561 -47.628  22.779  1.00  0.00     0.004 C 
ATOM      7  C   UNL     1     -23.799 -47.234  21.957  1.00  0.00     0.004 C 
ENDBRANCH   5   6
BRANCH   5   8
ATOM      8  C   UNL     1     -20.974 -47.116  24.825  1.00  0.00    -0.011 C 
ATOM      9  C   UNL     1     -20.188 -48.282  24.203  1.00  0.00     0.008 C 
ATOM     10  C   UNL     1     -20.012 -45.994  25.253  1.00  0.00     0.008 C 
ENDBRANCH   5   8
ENDBRANCH   4   5
ENDBRANCH   1   3
BRANCH   1  11
ATOM     11  C   UNL     1     -21.516 -41.954  24.568  1.00  0.00     0.002 C 
ATOM     12  C   UNL     1     -22.078 -40.541  24.798  1.00  0.00     0.005 C 
ATOM     13  C   UNL     1     -19.978 -41.722  24.388  1.00  0.00    -0.026 C 
ATOM     14  C   UNL     1     -21.120 -39.558  24.116  1.00  0.00     0.005 C 
ATOM     15  C   UNL     1     -19.916 -40.381  23.616  1.00  0.00    -0.001 C 
ATOM     16  C   UNL     1     -19.295 -41.619  25.813  1.00  0.00     0.007 C 
ATOM     17  C   UNL     1     -19.272 -42.847  23.590  1.00  0.00     0.012 C 
ATOM     18  C   UNL     1     -18.521 -39.677  23.631  1.00  0.00     0.000 C 
ATOM     19  C   UNL     1     -18.622 -40.275  26.126  1.00  0.00     0.005 C 
ATOM     20  C   UNL     1     -17.721 -39.813  24.966  1.00  0.00     0.003 C 
ATOM     21  C   UNL     1     -18.587 -38.244  23.103  1.00  0.00     0.031 C 
ATOM     22  C   UNL     1     -16.757 -38.597  25.340  1.00  0.00    -0.008 C 
ATOM     23  C   UNL     1     -17.225 -37.634  23.070  1.00  0.00    -0.027 C 
ATOM     24  C   UNL     1     -16.384 -37.751  24.116  1.00  0.00    -0.065 C 
ATOM     25  C   UNL     1     -17.393 -37.593  26.352  1.00  0.00     0.014 C 
ATOM     26  C   UNL     1     -15.466 -39.213  25.957  1.00  0.00     0.016 C 
ATOM     27  C   UNL     1     -15.400 -36.626  24.340  1.00  0.00     0.063 C 
ATOM     28  C   UNL     1     -16.511 -36.348  26.632  1.00  0.00     0.033 C 
ATOM     29  C   UNL     1     -16.018 -35.642  25.346  1.00  0.00     0.118 C 
BRANCH  29  30
ATOM     30  O   UNL     1     -15.064 -34.665  25.672  1.00  0.00    -0.393 OA
ATOM     31  H   UNL     1     -15.551 -33.933  26.136  1.00  0.00     0.210 HD
ENDBRANCH  29  30
ENDBRANCH   1  11
TORSDOF 6
ENDMDL
MODEL 2
REMARK VINA RESULT:    -9.646      3.335      9.362
REMARK INTER + INTRA:         -13.786
REMARK INTER:                 -13.249
REMARK INTRA:                  -0.537
REMARK UNBOUND:                -1.039
REMARK SMILES CC[C@H](C=C[C@@H](C)[C@@H]1CC[C@H]2[C@H]3CC=C4C[C@H](O)CC[C@@]4(C)[C@H]3CC[C@]21C)C(C)C
REMARK SMILES IDX 6 1 7 2 5 3 4 4 3 5 2 6 1 7 28 8 29 9 30 10 8 11 9 12 26 13
REMARK SMILES IDX 10 14 11 15 25 16 27 17 12 18 24 19 23 20 13 21 21 22 14 23
REMARK SMILES IDX 15 24 20 25 22 26 16 27 19 28 17 29 18 30
REMARK H PARENT 18 31
REMARK Flexibility Score: inf
ROOT
ATOM      1  C   UNL     1     -18.953 -39.559  25.745  1.00  0.00     0.012 C 
ATOM      2  C   UNL     1     -20.355 -38.925  25.733  1.00  0.00     0.012 C 
ENDROOT
BRANCH   1   3
ATOM      3  C   UNL     1     -17.994 -38.628  25.032  1.00  0.00    -0.028 C 
ATOM      4  C   UNL     1     -16.872 -38.180  25.625  1.00  0.00    -0.027 C 
BRANCH   4   5
ATOM      5  C   UNL     1     -15.887 -37.281  24.900  1.00  0.00     0.014 C 
BRANCH   5   6
ATOM      6  C   UNL     1     -16.245 -37.093  23.395  1.00  0.00     0.004 C 
ATOM      7  C   UNL     1     -15.211 -36.340  22.544  1.00  0.00     0.004 C 
ENDBRANCH   5   6
BRANCH   5   8
ATOM      8  C   UNL     1     -15.633 -35.963  25.700  1.00  0.00    -0.011 C 
ATOM      9  C   UNL     1     -16.938 -35.312  26.186  1.00  0.00     0.008 C 
ATOM     10  C   UNL     1     -14.645 -36.113  26.870  1.00  0.00     0.008 C 
ENDBRANCH   5   8
ENDBRANCH   4   5
ENDBRANCH   1   3
BRANCH   1  11
ATOM     11  C   UNL     1     -18.841 -41.003  25.132  1.00  0.00     0.002 C 
ATOM     12  C   UNL     1     -18.968 -41.030  23.599  1.00  0.00     0.005 C 
ATOM     13  C   UNL     1     -19.861 -42.090  25.613  1.00  0.00    -0.026 C 
ATOM     14  C   UNL     1     -20.381 -41.529  23.272  1.00  0.00     0.005 C 
ATOM     15  C   UNL     1     -21.030 -41.938  24.610  1.00  0.00    -0.001 C 
ATOM     16  C   UNL     1     -19.182 -43.518  25.524  1.00  0.00     0.007 C 
ATOM     17  C   UNL     1     -20.353 -41.875  27.066  1.00  0.00     0.012 C 
ATOM     18  C   UNL     1     -22.026 -43.142  24.574  1.00  0.00     0.000 C 
ATOM     19  C   UNL     1     -19.851 -44.506  24.558  1.00  0.00     0.005 C 
ATOM     20  C   UNL     1     -21.377 -44.549  24.763  1.00  0.00     0.003 C 
ATOM     21  C   UNL     1     -22.986 -43.067  23.386  1.00  0.00     0.031 C 
ATOM     22  C   UNL     1     -22.096 -45.766  24.021  1.00  0.00    -0.008 C 
ATOM     23  C   UNL     1     -23.962 -44.196  23.430  1.00  0.00    -0.027 C 
ATOM     24  C   UNL     1     -23.558 -45.457  23.678  1.00  0.00    -0.065 C 
ATOM     25  C   UNL     1     -21.428 -46.142  22.661  1.00  0.00     0.014 C 
ATOM     26  C   UNL     1     -22.037 -46.988  24.987  1.00  0.00     0.016 C 
ATOM     27  C   UNL     1     -24.362 -46.576  23.054  1.00  0.00     0.063 C 
ATOM     28  C   UNL     1     -22.187 -47.244  21.878  1.00  0.00     0.033 C 
ATOM     29  C   UNL     1     -23.699 -46.956  21.720  1.00  0.00     0.118 C 
BRANCH  29  30
ATOM     30  O   UNL     1     -24.349 -48.084  21.194  1.00  0.00    -0.393 OA
ATOM     31  H   UNL     1     -23.703 -48.837  21.246  1.00  0.00     0.210 HD
ENDBRANCH  29  30
ENDBRANCH   1  11
TORSDOF 6
ENDMDL
MODEL 3
REMARK VINA RESULT:    -9.646      0.464      1.722
REMARK INTER + INTRA:         -13.786
REMARK INTER:                 -13.119
REMARK INTRA:                  -0.667
REMARK UNBOUND:                -1.039
REMARK SMILES CC[C@H](C=C[C@@H](C)[C@@H]1CC[C@H]2[C@H]3CC=C4C[C@H](O)CC[C@@]4(C)[C@H]3CC[C@]21C)C(C)C
REMARK SMILES IDX 6 1 7 2 5 3 4 4 3 5 2 6 1 7 28 8 29 9 30 10 8 11 9 12 26 13
REMARK SMILES IDX 10 14 11 15 25 16 27 17 12 18 24 19 23 20 13 21 21 22 14 23
REMARK SMILES IDX 15 24 20 25 22 26 16 27 19 28 17 29 18 30
REMARK H PARENT 18 31
REMARK Flexibility Score: inf
ROOT
ATOM      1  C   UNL     1     -22.299 -42.718  23.463  1.00  0.00     0.012 C 
ATOM      2  C   UNL     1     -23.720 -42.255  23.095  1.00  0.00     0.012 C 
ENDROOT
BRANCH   1   3
ATOM      3  C   UNL     1     -22.357 -44.174  23.878  1.00  0.00    -0.028 C 
ATOM      4  C   UNL     1     -21.791 -45.143  23.135  1.00  0.00    -0.027 C 
BRANCH   4   5
ATOM      5  C   UNL     1     -21.810 -46.598  23.567  1.00  0.00     0.014 C 
BRANCH   5   6
ATOM      6  C   UNL     1     -21.366 -46.787  25.050  1.00  0.00     0.004 C 
ATOM      7  C   UNL     1     -20.052 -46.100  25.454  1.00  0.00     0.004 C 
ENDBRANCH   5   6
BRANCH   5   8
ATOM      8  C   UNL     1     -23.157 -47.285  23.176  1.00  0.00    -0.011 C 
ATOM      9  C   UNL     1     -24.344 -46.753  23.995  1.00  0.00     0.008 C 
ATOM     10  C   UNL     1     -23.482 -47.233  21.673  1.00  0.00     0.008 C 
ENDBRANCH   5   8
ENDBRANCH   4   5
ENDBRANCH   1   3
BRANCH   1  11
ATOM     11  C   UNL     1     -21.564 -41.881  24.573  1.00  0.00     0.002 C 
ATOM     12  C   UNL     1     -22.105 -40.448  24.721  1.00  0.00     0.005 C 
ATOM     13  C   UNL     1     -20.015 -41.686  24.446  1.00  0.00    -0.026 C 
ATOM     14  C   UNL     1     -21.100 -39.514  24.037  1.00  0.00     0.005 C 
ATOM     15  C   UNL     1     -19.895 -40.381  23.621  1.00  0.00    -0.001 C 
ATOM     16  C   UNL     1     -19.387 -41.536  25.892  1.00  0.00     0.007 C 
ATOM     17  C   UNL     1     -19.302 -42.858  23.725  1.00  0.00     0.012 C 
ATOM     18  C   UNL     1     -18.487 -39.704  23.663  1.00  0.00     0.000 C 
ATOM     19  C   UNL     1     -18.699 -40.193  26.175  1.00  0.00     0.005 C 
ATOM     20  C   UNL     1     -17.744 -39.798  25.034  1.00  0.00     0.003 C 
ATOM     21  C   UNL     1     -18.503 -38.294  23.073  1.00  0.00     0.031 C 
ATOM     22  C   UNL     1     -16.770 -38.586  25.395  1.00  0.00    -0.008 C 
ATOM     23  C   UNL     1     -17.127 -37.712  23.070  1.00  0.00    -0.027 C 
ATOM     24  C   UNL     1     -16.332 -37.801  24.153  1.00  0.00    -0.065 C 
ATOM     25  C   UNL     1     -17.425 -37.527  26.337  1.00  0.00     0.014 C 
ATOM     26  C   UNL     1     -15.518 -39.200  26.090  1.00  0.00     0.016 C 
ATOM     27  C   UNL     1     -15.333 -36.686  24.370  1.00  0.00     0.063 C 
ATOM     28  C   UNL     1     -16.528 -36.289  26.600  1.00  0.00     0.033 C 
ATOM     29  C   UNL     1     -15.970 -35.647  25.307  1.00  0.00     0.118 C 
BRANCH  29  30
ATOM     30  O   UNL     1     -15.010 -34.676  25.631  1.00  0.00    -0.393 OA
ATOM     31  H   UNL     1     -15.419 -33.792  25.434  1.00  0.00     0.210 HD
ENDBRANCH  29  30
ENDBRANCH   1  11
TORSDOF 6
ENDMDL
MODEL 4
REMARK VINA RESULT:    -9.034      1.236      2.853
REMARK INTER + INTRA:         -12.978
REMARK INTER:                 -12.218
REMARK INTRA:                  -0.761
REMARK UNBOUND:                -1.039
REMARK SMILES CC[C@H](C=C[C@@H](C)[C@@H]1CC[C@H]2[C@H]3CC=C4C[C@H](O)CC[C@@]4(C)[C@H]3CC[C@]21C)C(C)C
REMARK SMILES IDX 6 1 7 2 5 3 4 4 3 5 2 6 1 7 28 8 29 9 30 10 8 11 9 12 26 13
REMARK SMILES IDX 10 14 11 15 25 16 27 17 12 18 24 19 23 20 13 21 21 22 14 23
REMARK SMILES IDX 15 24 20 25 22 26 16 27 19 28 17 29 18 30
REMARK H PARENT 18 31
REMARK Flexibility Score: inf
ROOT
ATOM      1  C   UNL     1     -21.835 -43.610  25.188  1.00  0.00     0.012 C 
ATOM      2  C   UNL     1     -21.822 -44.207  26.606  1.00  0.00     0.012 C 
ENDROOT
BRANCH   1   3
ATOM      3  C   UNL     1     -22.306 -44.675  24.219  1.00  0.00    -0.028 C 
ATOM      4  C   UNL     1     -21.445 -45.536  23.644  1.00  0.00    -0.027 C 
BRANCH   4   5
ATOM      5  C   UNL     1     -21.917 -46.632  22.705  1.00  0.00     0.014 C 
BRANCH   5   6
ATOM      6  C   UNL     1     -21.323 -48.027  23.068  1.00  0.00     0.004 C 
ATOM      7  C   UNL     1     -20.319 -48.050  24.231  1.00  0.00     0.004 C 
ENDBRANCH   5   6
BRANCH   5   8
ATOM      8  C   UNL     1     -23.467 -46.588  22.520  1.00  0.00    -0.011 C 
ATOM      9  C   UNL     1     -23.939 -47.441  21.332  1.00  0.00     0.008 C 
ATOM     10  C   UNL     1     -24.266 -46.949  23.784  1.00  0.00     0.008 C 
ENDBRANCH   5   8
ENDBRANCH   4   5
ENDBRANCH   1   3
BRANCH   1  11
ATOM     11  C   UNL     1     -20.478 -42.998  24.681  1.00  0.00     0.002 C 
ATOM     12  C   UNL     1     -19.305 -43.220  25.652  1.00  0.00     0.005 C 
ATOM     13  C   UNL     1     -20.428 -41.462  24.378  1.00  0.00    -0.026 C 
ATOM     14  C   UNL     1     -19.068 -41.894  26.384  1.00  0.00     0.005 C 
ATOM     15  C   UNL     1     -20.002 -40.852  25.736  1.00  0.00    -0.001 C 
ATOM     16  C   UNL     1     -19.360 -41.188  23.241  1.00  0.00     0.007 C 
ATOM     17  C   UNL     1     -21.788 -40.879  23.918  1.00  0.00     0.012 C 
ATOM     18  C   UNL     1     -19.479 -39.382  25.661  1.00  0.00     0.000 C 
ATOM     19  C   UNL     1     -18.174 -40.304  23.651  1.00  0.00     0.005 C 
ATOM     20  C   UNL     1     -18.644 -39.036  24.387  1.00  0.00     0.003 C 
ATOM     21  C   UNL     1     -18.817 -38.933  26.964  1.00  0.00     0.031 C 
ATOM     22  C   UNL     1     -17.506 -37.932  24.565  1.00  0.00    -0.008 C 
ATOM     23  C   UNL     1     -18.394 -37.504  26.872  1.00  0.00    -0.027 C 
ATOM     24  C   UNL     1     -17.747 -37.037  25.787  1.00  0.00    -0.065 C 
ATOM     25  C   UNL     1     -16.083 -38.539  24.778  1.00  0.00     0.014 C 
ATOM     26  C   UNL     1     -17.512 -37.058  23.274  1.00  0.00     0.016 C 
ATOM     27  C   UNL     1     -16.778 -35.896  25.998  1.00  0.00     0.063 C 
ATOM     28  C   UNL     1     -14.990 -37.478  25.067  1.00  0.00     0.033 C 
ATOM     29  C   UNL     1     -15.374 -36.491  26.196  1.00  0.00     0.118 C 
BRANCH  29  30
ATOM     30  O   UNL     1     -14.440 -35.444  26.255  1.00  0.00    -0.393 OA
ATOM     31  H   UNL     1     -14.496 -34.961  25.389  1.00  0.00     0.210 HD
ENDBRANCH  29  30
ENDBRANCH   1  11
TORSDOF 6
ENDMDL
MODEL 5
REMARK VINA RESULT:    -8.761      1.253      2.509
REMARK INTER + INTRA:         -12.618
REMARK INTER:                 -11.655
REMARK INTRA:                  -0.963
REMARK UNBOUND:                -1.039
REMARK SMILES CC[C@H](C=C[C@@H](C)[C@@H]1CC[C@H]2[C@H]3CC=C4C[C@H](O)CC[C@@]4(C)[C@H]3CC[C@]21C)C(C)C
REMARK SMILES IDX 6 1 7 2 5 3 4 4 3 5 2 6 1 7 28 8 29 9 30 10 8 11 9 12 26 13
REMARK SMILES IDX 10 14 11 15 25 16 27 17 12 18 24 19 23 20 13 21 21 22 14 23
REMARK SMILES IDX 15 24 20 25 22 26 16 27 19 28 17 29 18 30
REMARK H PARENT 18 31
REMARK Flexibility Score: inf
ROOT
ATOM      1  C   UNL     1     -21.851 -43.484  25.371  1.00  0.00     0.012 C 
ATOM      2  C   UNL     1     -21.900 -43.801  26.876  1.00  0.00     0.012 C 
ENDROOT
BRANCH   1   3
ATOM      3  C   UNL     1     -22.218 -44.735  24.601  1.00  0.00    -0.028 C 
ATOM      4  C   UNL     1     -21.718 -45.941  24.932  1.00  0.00    -0.027 C 
BRANCH   4   5
ATOM      5  C   UNL     1     -22.116 -47.204  24.190  1.00  0.00     0.014 C 
BRANCH   5   6
ATOM      6  C   UNL     1     -23.442 -47.034  23.388  1.00  0.00     0.004 C 
ATOM      7  C   UNL     1     -23.346 -47.251  21.870  1.00  0.00     0.004 C 
ENDBRANCH   5   6
BRANCH   5   8
ATOM      8  C   UNL     1     -20.912 -47.785  23.381  1.00  0.00    -0.011 C 
ATOM      9  C   UNL     1     -20.051 -46.685  22.742  1.00  0.00     0.008 C 
ATOM     10  C   UNL     1     -20.026 -48.759  24.177  1.00  0.00     0.008 C 
ENDBRANCH   5   8
ENDBRANCH   4   5
ENDBRANCH   1   3
BRANCH   1  11
ATOM     11  C   UNL     1     -20.490 -42.910  24.828  1.00  0.00     0.002 C 
ATOM     12  C   UNL     1     -19.303 -43.143  25.779  1.00  0.00     0.005 C 
ATOM     13  C   UNL     1     -20.413 -41.381  24.500  1.00  0.00    -0.026 C 
ATOM     14  C   UNL     1     -19.023 -41.812  26.485  1.00  0.00     0.005 C 
ATOM     15  C   UNL     1     -19.947 -40.760  25.839  1.00  0.00    -0.001 C 
ATOM     16  C   UNL     1     -19.363 -41.148  23.338  1.00  0.00     0.007 C 
ATOM     17  C   UNL     1     -21.770 -40.775  24.058  1.00  0.00     0.012 C 
ATOM     18  C   UNL     1     -19.393 -39.302  25.731  1.00  0.00     0.000 C 
ATOM     19  C   UNL     1     -18.150 -40.285  23.710  1.00  0.00     0.005 C 
ATOM     20  C   UNL     1     -18.577 -38.995  24.435  1.00  0.00     0.003 C 
ATOM     21  C   UNL     1     -18.695 -38.849  27.013  1.00  0.00     0.031 C 
ATOM     22  C   UNL     1     -17.411 -37.913  24.573  1.00  0.00    -0.008 C 
ATOM     23  C   UNL     1     -18.244 -37.431  26.890  1.00  0.00    -0.027 C 
ATOM     24  C   UNL     1     -17.608 -36.995  25.785  1.00  0.00    -0.065 C 
ATOM     25  C   UNL     1     -15.999 -38.549  24.767  1.00  0.00     0.014 C 
ATOM     26  C   UNL     1     -17.425 -37.060  23.269  1.00  0.00     0.016 C 
ATOM     27  C   UNL     1     -16.610 -35.873  25.959  1.00  0.00     0.063 C 
ATOM     28  C   UNL     1     -14.877 -37.508  25.018  1.00  0.00     0.033 C 
ATOM     29  C   UNL     1     -15.216 -36.495  26.139  1.00  0.00     0.118 C 
BRANCH  29  30
ATOM     30  O   UNL     1     -14.259 -35.469  26.162  1.00  0.00    -0.393 OA
ATOM     31  H   UNL     1     -13.577 -35.728  26.837  1.00  0.00     0.210 HD
ENDBRANCH  29  30
ENDBRANCH   1  11
TORSDOF 6
ENDMDL
MODEL 6
REMARK VINA RESULT:    -8.650      1.474      2.840
REMARK INTER + INTRA:         -12.470
REMARK INTER:                 -11.578
REMARK INTRA:                  -0.893
REMARK UNBOUND:                -1.039
REMARK SMILES CC[C@H](C=C[C@@H](C)[C@@H]1CC[C@H]2[C@H]3CC=C4C[C@H](O)CC[C@@]4(C)[C@H]3CC[C@]21C)C(C)C
REMARK SMILES IDX 6 1 7 2 5 3 4 4 3 5 2 6 1 7 28 8 29 9 30 10 8 11 9 12 26 13
REMARK SMILES IDX 10 14 11 15 25 16 27 17 12 18 24 19 23 20 13 21 21 22 14 23
REMARK SMILES IDX 15 24 20 25 22 26 16 27 19 28 17 29 18 30
REMARK H PARENT 18 31
REMARK Flexibility Score: inf
ROOT
ATOM      1  C   UNL     1     -21.241 -44.091  25.924  1.00  0.00     0.012 C 
ATOM      2  C   UNL     1     -19.981 -44.935  26.180  1.00  0.00     0.012 C 
ENDROOT
BRANCH   1   3
ATOM      3  C   UNL     1     -22.215 -44.911  25.103  1.00  0.00    -0.028 C 
ATOM      4  C   UNL     1     -22.074 -46.243  24.964  1.00  0.00    -0.027 C 
BRANCH   4   5
ATOM      5  C   UNL     1     -23.070 -47.076  24.178  1.00  0.00     0.014 C 
BRANCH   5   6
ATOM      6  C   UNL     1     -24.399 -46.312  23.898  1.00  0.00     0.004 C 
ATOM      7  C   UNL     1     -25.650 -46.850  24.611  1.00  0.00     0.004 C 
ENDBRANCH   5   6
BRANCH   5   8
ATOM      8  C   UNL     1     -22.396 -47.731  22.930  1.00  0.00    -0.011 C 
ATOM      9  C   UNL     1     -22.622 -46.915  21.647  1.00  0.00     0.008 C 
ATOM     10  C   UNL     1     -20.899 -48.040  23.106  1.00  0.00     0.008 C 
ENDBRANCH   5   8
ENDBRANCH   4   5
ENDBRANCH   1   3
BRANCH   1  11
ATOM     11  C   UNL     1     -21.011 -42.696  25.232  1.00  0.00     0.002 C 
ATOM     12  C   UNL     1     -20.106 -42.770  23.990  1.00  0.00     0.005 C 
ATOM     13  C   UNL     1     -20.385 -41.543  26.086  1.00  0.00    -0.026 C 
ATOM     14  C   UNL     1     -18.727 -42.244  24.405  1.00  0.00     0.005 C 
ATOM     15  C   UNL     1     -18.865 -41.721  25.849  1.00  0.00    -0.001 C 
ATOM     16  C   UNL     1     -20.912 -40.150  25.549  1.00  0.00     0.007 C 
ATOM     17  C   UNL     1     -20.720 -41.640  27.596  1.00  0.00     0.012 C 
ATOM     18  C   UNL     1     -17.990 -40.488  26.243  1.00  0.00     0.000 C 
ATOM     19  C   UNL     1     -19.833 -39.207  24.996  1.00  0.00     0.005 C 
ATOM     20  C   UNL     1     -18.637 -39.095  25.959  1.00  0.00     0.003 C 
ATOM     21  C   UNL     1     -16.553 -40.608  25.734  1.00  0.00     0.031 C 
ATOM     22  C   UNL     1     -17.631 -37.906  25.605  1.00  0.00    -0.008 C 
ATOM     23  C   UNL     1     -15.736 -39.444  26.189  1.00  0.00    -0.027 C 
ATOM     24  C   UNL     1     -16.205 -38.185  26.094  1.00  0.00    -0.065 C 
ATOM     25  C   UNL     1     -17.494 -37.649  24.071  1.00  0.00     0.014 C 
ATOM     26  C   UNL     1     -18.177 -36.625  26.303  1.00  0.00     0.016 C 
ATOM     27  C   UNL     1     -15.189 -37.084  25.893  1.00  0.00     0.063 C 
ATOM     28  C   UNL     1     -16.433 -36.576  23.713  1.00  0.00     0.033 C 
ATOM     29  C   UNL     1     -15.060 -36.819  24.385  1.00  0.00     0.118 C 
BRANCH  29  30
ATOM     30  O   UNL     1     -14.226 -35.707  24.186  1.00  0.00    -0.393 OA
ATOM     31  H   UNL     1     -13.304 -35.996  24.416  1.00  0.00     0.210 HD
ENDBRANCH  29  30
ENDBRANCH   1  11
TORSDOF 6
ENDMDL
MODEL 7
REMARK VINA RESULT:    -8.291      1.300      2.992
REMARK INTER + INTRA:         -11.996
REMARK INTER:                 -11.545
REMARK INTRA:                  -0.451
REMARK UNBOUND:                -1.039
REMARK SMILES CC[C@H](C=C[C@@H](C)[C@@H]1CC[C@H]2[C@H]3CC=C4C[C@H](O)CC[C@@]4(C)[C@H]3CC[C@]21C)C(C)C
REMARK SMILES IDX 6 1 7 2 5 3 4 4 3 5 2 6 1 7 28 8 29 9 30 10 8 11 9 12 26 13
REMARK SMILES IDX 10 14 11 15 25 16 27 17 12 18 24 19 23 20 13 21 21 22 14 23
REMARK SMILES IDX 15 24 20 25 22 26 16 27 19 28 17 29 18 30
REMARK H PARENT 18 31
REMARK Flexibility Score: inf
ROOT
ATOM      1  C   UNL     1     -21.435 -42.771  24.450  1.00  0.00     0.012 C 
ATOM      2  C   UNL     1     -20.949 -43.267  25.823  1.00  0.00     0.012 C 
ENDROOT
BRANCH   1   3
ATOM      3  C   UNL     1     -21.427 -43.937  23.484  1.00  0.00    -0.028 C 
ATOM      4  C   UNL     1     -21.627 -45.201  23.901  1.00  0.00    -0.027 C 
BRANCH   4   5
ATOM      5  C   UNL     1     -21.662 -46.368  22.931  1.00  0.00     0.014 C 
BRANCH   5   6
ATOM      6  C   UNL     1     -20.397 -47.273  23.038  1.00  0.00     0.004 C 
ATOM      7  C   UNL     1     -20.343 -48.215  24.252  1.00  0.00     0.004 C 
ENDBRANCH   5   6
BRANCH   5   8
ATOM      8  C   UNL     1     -23.032 -47.116  22.998  1.00  0.00    -0.011 C 
ATOM      9  C   UNL     1     -23.993 -46.486  24.018  1.00  0.00     0.008 C 
ATOM     10  C   UNL     1     -23.732 -47.279  21.638  1.00  0.00     0.008 C 
ENDBRANCH   5   8
ENDBRANCH   4   5
ENDBRANCH   1   3
BRANCH   1  11
ATOM     11  C   UNL     1     -20.639 -41.564  23.829  1.00  0.00     0.002 C 
ATOM     12  C   UNL     1     -19.308 -41.977  23.178  1.00  0.00     0.005 C 
ATOM     13  C   UNL     1     -20.244 -40.377  24.771  1.00  0.00    -0.026 C 
ATOM     14  C   UNL     1     -18.189 -41.583  24.149  1.00  0.00     0.005 C 
ATOM     15  C   UNL     1     -18.853 -40.802  25.301  1.00  0.00    -0.001 C 
ATOM     16  C   UNL     1     -20.176 -39.040  23.925  1.00  0.00     0.007 C 
ATOM     17  C   UNL     1     -21.236 -40.162  25.942  1.00  0.00     0.012 C 
ATOM     18  C   UNL     1     -18.018 -39.651  25.951  1.00  0.00     0.000 C 
ATOM     19  C   UNL     1     -18.798 -38.366  23.869  1.00  0.00     0.005 C 
ATOM     20  C   UNL     1     -18.169 -38.254  25.270  1.00  0.00     0.003 C 
ATOM     21  C   UNL     1     -16.565 -40.056  26.198  1.00  0.00     0.031 C 
ATOM     22  C   UNL     1     -16.893 -37.296  25.331  1.00  0.00    -0.008 C 
ATOM     23  C   UNL     1     -15.823 -38.955  26.881  1.00  0.00    -0.027 C 
ATOM     24  C   UNL     1     -15.930 -37.679  26.462  1.00  0.00    -0.065 C 
ATOM     25  C   UNL     1     -16.030 -37.332  24.031  1.00  0.00     0.014 C 
ATOM     26  C   UNL     1     -17.421 -35.849  25.568  1.00  0.00     0.016 C 
ATOM     27  C   UNL     1     -14.732 -36.780  26.670  1.00  0.00     0.063 C 
ATOM     28  C   UNL     1     -14.728 -36.495  24.124  1.00  0.00     0.033 C 
ATOM     29  C   UNL     1     -13.887 -36.804  25.387  1.00  0.00     0.118 C 
BRANCH  29  30
ATOM     30  O   UNL     1     -12.846 -35.870  25.509  1.00  0.00    -0.393 OA
ATOM     31  H   UNL     1     -12.446 -36.002  26.409  1.00  0.00     0.210 HD
ENDBRANCH  29  30
ENDBRANCH   1  11
TORSDOF 6
ENDMDL
MODEL 8
REMARK VINA RESULT:    -7.343      3.274      9.459
REMARK INTER + INTRA:         -10.743
REMARK INTER:                 -10.309
REMARK INTRA:                  -0.435
REMARK UNBOUND:                -1.039
REMARK SMILES CC[C@H](C=C[C@@H](C)[C@@H]1CC[C@H]2[C@H]3CC=C4C[C@H](O)CC[C@@]4(C)[C@H]3CC[C@]21C)C(C)C
REMARK SMILES IDX 6 1 7 2 5 3 4 4 3 5 2 6 1 7 28 8 29 9 30 10 8 11 9 12 26 13
REMARK SMILES IDX 10 14 11 15 25 16 27 17 12 18 24 19 23 20 13 21 21 22 14 23
REMARK SMILES IDX 15 24 20 25 22 26 16 27 19 28 17 29 18 30
REMARK H PARENT 18 31
REMARK Flexibility Score: inf
ROOT
ATOM      1  C   UNL     1     -17.197 -39.881  25.728  1.00  0.00     0.012 C 
ATOM      2  C   UNL     1     -16.228 -40.785  26.510  1.00  0.00     0.012 C 
ENDROOT
BRANCH   1   3
ATOM      3  C   UNL     1     -16.943 -38.442  26.124  1.00  0.00    -0.028 C 
ATOM      4  C   UNL     1     -15.699 -37.982  26.356  1.00  0.00    -0.027 C 
BRANCH   4   5
ATOM      5  C   UNL     1     -15.435 -36.531  26.712  1.00  0.00     0.014 C 
BRANCH   5   6
ATOM      6  C   UNL     1     -13.954 -36.277  27.128  1.00  0.00     0.004 C 
ATOM      7  C   UNL     1     -12.911 -36.379  26.005  1.00  0.00     0.004 C 
ENDBRANCH   5   6
BRANCH   5   8
ATOM      8  C   UNL     1     -16.000 -35.569  25.618  1.00  0.00    -0.011 C 
ATOM      9  C   UNL     1     -16.107 -36.248  24.243  1.00  0.00     0.008 C 
ATOM     10  C   UNL     1     -17.336 -34.903  25.988  1.00  0.00     0.008 C 
ENDBRANCH   5   8
ENDBRANCH   4   5
ENDBRANCH   1   3
BRANCH   1  11
ATOM     11  C   UNL     1     -18.728 -40.210  25.883  1.00  0.00     0.002 C 
ATOM     12  C   UNL     1     -19.025 -41.241  26.986  1.00  0.00     0.005 C 
ATOM     13  C   UNL     1     -19.494 -40.764  24.635  1.00  0.00    -0.026 C 
ATOM     14  C   UNL     1     -19.307 -42.577  26.291  1.00  0.00     0.005 C 
ATOM     15  C   UNL     1     -19.324 -42.297  24.775  1.00  0.00    -0.001 C 
ATOM     16  C   UNL     1     -21.013 -40.324  24.717  1.00  0.00     0.007 C 
ATOM     17  C   UNL     1     -18.916 -40.269  23.285  1.00  0.00     0.012 C 
ATOM     18  C   UNL     1     -20.306 -43.149  23.908  1.00  0.00     0.000 C 
ATOM     19  C   UNL     1     -22.027 -41.473  24.815  1.00  0.00     0.005 C 
ATOM     20  C   UNL     1     -21.747 -42.562  23.764  1.00  0.00     0.003 C 
ATOM     21  C   UNL     1     -20.285 -44.629  24.291  1.00  0.00     0.031 C 
ATOM     22  C   UNL     1     -22.929 -43.623  23.600  1.00  0.00    -0.008 C 
ATOM     23  C   UNL     1     -21.184 -45.415  23.395  1.00  0.00    -0.027 C 
ATOM     24  C   UNL     1     -22.427 -44.983  23.102  1.00  0.00    -0.065 C 
ATOM     25  C   UNL     1     -23.676 -43.927  24.936  1.00  0.00     0.014 C 
ATOM     26  C   UNL     1     -23.931 -43.030  22.565  1.00  0.00     0.016 C 
ATOM     27  C   UNL     1     -23.475 -46.036  22.823  1.00  0.00     0.063 C 
ATOM     28  C   UNL     1     -24.749 -45.040  24.811  1.00  0.00     0.033 C 
ATOM     29  C   UNL     1     -24.221 -46.329  24.135  1.00  0.00     0.118 C 
BRANCH  29  30
ATOM     30  O   UNL     1     -25.289 -47.200  23.867  1.00  0.00    -0.393 OA
ATOM     31  H   UNL     1     -24.961 -48.120  24.049  1.00  0.00     0.210 HD
ENDBRANCH  29  30
ENDBRANCH   1  11
TORSDOF 6
ENDMDL
