MODEL 1
REMARK VINA RESULT:    -6.279      0.000      0.000
REMARK INTER + INTRA:         -12.340
REMARK INTER:                 -11.418
REMARK INTRA:                  -0.921
REMARK UNBOUND:                -0.921
REMARK SMILES CCCCCC=CCC=CCCCCCCCC(=O)[O-]
REMARK SMILES IDX 11 1 12 2 13 3 14 4 15 5 16 6 17 7 18 8 19 9 20 10 10 11
REMARK SMILES IDX 9 12 8 13 7 14 6 15 5 16 4 17 3 18 2 19 1 20
REMARK H PARENT
REMARK Flexibility Score: inf
ROOT
ATOM      1  C   UNL     1     -16.903  60.167  -2.449  1.00  0.00     0.027 C 
ENDROOT
BRANCH   1   2
ATOM      2  C   UNL     1     -15.871  60.624  -3.495  1.00  0.00     0.004 C 
BRANCH   2   3
ATOM      3  C   UNL     1     -16.095  60.040  -4.910  1.00  0.00     0.000 C 
BRANCH   3   4
ATOM      4  C   UNL     1     -17.332  59.132  -5.062  1.00  0.00     0.000 C 
BRANCH   4   5
ATOM      5  C   UNL     1     -17.560  58.668  -6.513  1.00  0.00     0.000 C 
BRANCH   5   6
ATOM      6  C   UNL     1     -19.006  58.212  -6.764  1.00  0.00     0.006 C 
BRANCH   6   7
ATOM      7  C   UNL     1     -20.039  59.023  -5.969  1.00  0.00     0.053 C 
BRANCH   7   8
ATOM      8  C   UNL     1     -21.019  58.108  -5.306  1.00  0.00     0.041 C 
ATOM      9  O   UNL     1     -20.752  56.886  -5.168  1.00  0.00    -0.550 OA
ATOM     10  O   UNL     1     -22.261  58.590  -4.912  1.00  0.00    -0.550 OA
ENDBRANCH   7   8
ENDBRANCH   6   7
ENDBRANCH   5   6
ENDBRANCH   4   5
ENDBRANCH   3   4
ENDBRANCH   2   3
ENDBRANCH   1   2
BRANCH   1  11
ATOM     11  C   UNL     1     -16.839  60.998  -1.182  1.00  0.00    -0.031 C 
ATOM     12  C   UNL     1     -17.514  60.716  -0.051  1.00  0.00    -0.027 C 
BRANCH  12  13
ATOM     13  C   UNL     1     -18.417  59.518   0.134  1.00  0.00     0.054 C 
BRANCH  13  14
ATOM     14  C   UNL     1     -19.636  59.889   0.937  1.00  0.00    -0.027 C 
ATOM     15  C   UNL     1     -20.681  60.528   0.389  1.00  0.00    -0.031 C 
BRANCH  15  16
ATOM     16  C   UNL     1     -21.871  60.902   1.237  1.00  0.00     0.027 C 
BRANCH  16  17
ATOM     17  C   UNL     1     -22.848  59.727   1.442  1.00  0.00     0.004 C 
BRANCH  17  18
ATOM     18  C   UNL     1     -23.185  59.410   2.920  1.00  0.00     0.000 C 
BRANCH  18  19
ATOM     19  C   UNL     1     -23.915  58.072   3.155  1.00  0.00    -0.003 C 
ATOM     20  C   UNL     1     -23.267  57.217   4.242  1.00  0.00     0.004 C 
ENDBRANCH  18  19
ENDBRANCH  17  18
ENDBRANCH  16  17
ENDBRANCH  15  16
ENDBRANCH  13  14
ENDBRANCH  12  13
ENDBRANCH   1  11
TORSDOF 14
ENDMDL
MODEL 2
REMARK VINA RESULT:    -6.206      5.960     11.019
REMARK INTER + INTRA:         -12.207
REMARK INTER:                 -11.386
REMARK INTRA:                  -0.821
REMARK UNBOUND:                -0.921
REMARK SMILES CCCCCC=CCC=CCCCCCCCC(=O)[O-]
REMARK SMILES IDX 11 1 12 2 13 3 14 4 15 5 16 6 17 7 18 8 19 9 20 10 10 11
REMARK SMILES IDX 9 12 8 13 7 14 6 15 5 16 4 17 3 18 2 19 1 20
REMARK H PARENT
REMARK Flexibility Score: inf
ROOT
ATOM      1  C   UNL     1     -27.236  57.272   1.301  1.00  0.00     0.027 C 
ENDROOT
BRANCH   1   2
ATOM      2  C   UNL     1     -28.210  57.203   0.112  1.00  0.00     0.004 C 
BRANCH   2   3
ATOM      3  C   UNL     1     -29.661  57.618   0.451  1.00  0.00     0.000 C 
BRANCH   3   4
ATOM      4  C   UNL     1     -30.575  56.481   0.949  1.00  0.00     0.000 C 
BRANCH   4   5
ATOM      5  C   UNL     1     -30.417  56.203   2.456  1.00  0.00     0.000 C 
BRANCH   5   6
ATOM      6  C   UNL     1     -30.388  57.493   3.292  1.00  0.00     0.006 C 
BRANCH   6   7
ATOM      7  C   UNL     1     -30.976  57.311   4.699  1.00  0.00     0.053 C 
BRANCH   7   8
ATOM      8  C   UNL     1     -30.216  58.135   5.690  1.00  0.00     0.041 C 
ATOM      9  O   UNL     1     -28.958  58.116   5.697  1.00  0.00    -0.550 OA
ATOM     10  O   UNL     1     -30.900  58.863   6.655  1.00  0.00    -0.550 OA
ENDBRANCH   7   8
ENDBRANCH   6   7
ENDBRANCH   5   6
ENDBRANCH   4   5
ENDBRANCH   3   4
ENDBRANCH   2   3
ENDBRANCH   1   2
BRANCH   1  11
ATOM     11  C   UNL     1     -25.813  56.943   0.893  1.00  0.00    -0.031 C 
ATOM     12  C   UNL     1     -24.718  57.298   1.595  1.00  0.00    -0.027 C 
BRANCH  12  13
ATOM     13  C   UNL     1     -24.745  58.054   2.903  1.00  0.00     0.054 C 
BRANCH  13  14
ATOM     14  C   UNL     1     -23.425  58.735   3.152  1.00  0.00    -0.027 C 
ATOM     15  C   UNL     1     -22.895  59.601   2.274  1.00  0.00    -0.031 C 
BRANCH  15  16
ATOM     16  C   UNL     1     -21.558  60.240   2.553  1.00  0.00     0.027 C 
BRANCH  16  17
ATOM     17  C   UNL     1     -20.591  60.143   1.357  1.00  0.00     0.004 C 
BRANCH  17  18
ATOM     18  C   UNL     1     -19.187  59.585   1.697  1.00  0.00     0.000 C 
BRANCH  18  19
ATOM     19  C   UNL     1     -18.193  59.541   0.518  1.00  0.00    -0.003 C 
ATOM     20  C   UNL     1     -18.881  59.522  -0.845  1.00  0.00     0.004 C 
ENDBRANCH  18  19
ENDBRANCH  17  18
ENDBRANCH  16  17
ENDBRANCH  15  16
ENDBRANCH  13  14
ENDBRANCH  12  13
ENDBRANCH   1  11
TORSDOF 14
ENDMDL
MODEL 3
REMARK VINA RESULT:    -6.066      4.682      9.297
REMARK INTER + INTRA:         -11.951
REMARK INTER:                 -10.554
REMARK INTRA:                  -1.397
REMARK UNBOUND:                -0.921
REMARK SMILES CCCCCC=CCC=CCCCCCCCC(=O)[O-]
REMARK SMILES IDX 11 1 12 2 13 3 14 4 15 5 16 6 17 7 18 8 19 9 20 10 10 11
REMARK SMILES IDX 9 12 8 13 7 14 6 15 5 16 4 17 3 18 2 19 1 20
REMARK H PARENT
REMARK Flexibility Score: inf
ROOT
ATOM      1  C   UNL     1     -26.421  58.699   3.738  1.00  0.00     0.027 C 
ENDROOT
BRANCH   1   2
ATOM      2  C   UNL     1     -27.875  59.087   3.419  1.00  0.00     0.004 C 
BRANCH   2   3
ATOM      3  C   UNL     1     -28.866  57.900   3.419  1.00  0.00     0.000 C 
BRANCH   3   4
ATOM      4  C   UNL     1     -29.770  57.794   2.174  1.00  0.00     0.000 C 
BRANCH   4   5
ATOM      5  C   UNL     1     -29.071  58.266   0.885  1.00  0.00     0.000 C 
BRANCH   5   6
ATOM      6  C   UNL     1     -28.516  57.097   0.055  1.00  0.00     0.006 C 
BRANCH   6   7
ATOM      7  C   UNL     1     -28.014  57.528  -1.330  1.00  0.00     0.053 C 
BRANCH   7   8
ATOM      8  C   UNL     1     -29.156  57.995  -2.175  1.00  0.00     0.041 C 
ATOM      9  O   UNL     1     -29.244  59.205  -2.510  1.00  0.00    -0.550 OA
ATOM     10  O   UNL     1     -30.165  57.108  -2.529  1.00  0.00    -0.550 OA
ENDBRANCH   7   8
ENDBRANCH   6   7
ENDBRANCH   5   6
ENDBRANCH   4   5
ENDBRANCH   3   4
ENDBRANCH   2   3
ENDBRANCH   1   2
BRANCH   1  11
ATOM     11  C   UNL     1     -25.739  58.020   2.565  1.00  0.00    -0.031 C 
ATOM     12  C   UNL     1     -24.406  57.871   2.441  1.00  0.00    -0.027 C 
BRANCH  12  13
ATOM     13  C   UNL     1     -23.391  58.337   3.459  1.00  0.00     0.054 C 
BRANCH  13  14
ATOM     14  C   UNL     1     -22.598  59.501   2.927  1.00  0.00    -0.027 C 
ATOM     15  C   UNL     1     -22.636  59.854   1.633  1.00  0.00    -0.031 C 
BRANCH  15  16
ATOM     16  C   UNL     1     -21.805  61.012   1.139  1.00  0.00     0.027 C 
BRANCH  16  17
ATOM     17  C   UNL     1     -21.003  60.669  -0.132  1.00  0.00     0.004 C 
BRANCH  17  18
ATOM     18  C   UNL     1     -19.464  60.722   0.035  1.00  0.00     0.000 C 
BRANCH  18  19
ATOM     19  C   UNL     1     -18.833  59.484   0.705  1.00  0.00    -0.003 C 
ATOM     20  C   UNL     1     -18.825  59.566   2.230  1.00  0.00     0.004 C 
ENDBRANCH  18  19
ENDBRANCH  17  18
ENDBRANCH  16  17
ENDBRANCH  15  16
ENDBRANCH  13  14
ENDBRANCH  12  13
ENDBRANCH   1  11
TORSDOF 14
ENDMDL
MODEL 4
REMARK VINA RESULT:    -6.061      8.586     11.406
REMARK INTER + INTRA:         -11.943
REMARK INTER:                 -11.034
REMARK INTRA:                  -0.909
REMARK UNBOUND:                -0.921
REMARK SMILES CCCCCC=CCC=CCCCCCCCC(=O)[O-]
REMARK SMILES IDX 11 1 12 2 13 3 14 4 15 5 16 6 17 7 18 8 19 9 20 10 10 11
REMARK SMILES IDX 9 12 8 13 7 14 6 15 5 16 4 17 3 18 2 19 1 20
REMARK H PARENT
REMARK Flexibility Score: inf
ROOT
ATOM      1  C   UNL     1     -26.827  56.524   1.117  1.00  0.00     0.027 C 
ENDROOT
BRANCH   1   2
ATOM      2  C   UNL     1     -28.043  57.189   0.452  1.00  0.00     0.004 C 
BRANCH   2   3
ATOM      3  C   UNL     1     -29.044  57.828   1.443  1.00  0.00     0.000 C 
BRANCH   3   4
ATOM      4  C   UNL     1     -30.355  57.045   1.655  1.00  0.00     0.000 C 
BRANCH   4   5
ATOM      5  C   UNL     1     -30.417  56.338   3.022  1.00  0.00     0.000 C 
BRANCH   5   6
ATOM      6  C   UNL     1     -31.008  57.235   4.121  1.00  0.00     0.006 C 
BRANCH   6   7
ATOM      7  C   UNL     1     -29.936  57.963   4.945  1.00  0.00     0.053 C 
BRANCH   7   8
ATOM      8  C   UNL     1     -30.446  58.254   6.321  1.00  0.00     0.041 C 
ATOM      9  O   UNL     1     -31.677  58.430   6.516  1.00  0.00    -0.550 OA
ATOM     10  O   UNL     1     -29.554  58.406   7.373  1.00  0.00    -0.550 OA
ENDBRANCH   7   8
ENDBRANCH   6   7
ENDBRANCH   5   6
ENDBRANCH   4   5
ENDBRANCH   3   4
ENDBRANCH   2   3
ENDBRANCH   1   2
BRANCH   1  11
ATOM     11  C   UNL     1     -25.523  57.193   0.723  1.00  0.00    -0.031 C 
ATOM     12  C   UNL     1     -24.665  57.762   1.594  1.00  0.00    -0.027 C 
BRANCH  12  13
ATOM     13  C   UNL     1     -24.861  57.800   3.091  1.00  0.00     0.054 C 
BRANCH  13  14
ATOM     14  C   UNL     1     -23.539  57.689   3.804  1.00  0.00    -0.027 C 
ATOM     15  C   UNL     1     -23.398  56.977   4.933  1.00  0.00    -0.031 C 
BRANCH  15  16
ATOM     16  C   UNL     1     -22.061  56.914   5.628  1.00  0.00     0.027 C 
BRANCH  16  17
ATOM     17  C   UNL     1     -22.190  56.681   7.146  1.00  0.00     0.004 C 
BRANCH  17  18
ATOM     18  C   UNL     1     -23.608  56.287   7.626  1.00  0.00     0.000 C 
BRANCH  18  19
ATOM     19  C   UNL     1     -23.878  54.770   7.704  1.00  0.00    -0.003 C 
ATOM     20  C   UNL     1     -22.658  53.925   7.343  1.00  0.00     0.004 C 
ENDBRANCH  18  19
ENDBRANCH  17  18
ENDBRANCH  16  17
ENDBRANCH  15  16
ENDBRANCH  13  14
ENDBRANCH  12  13
ENDBRANCH   1  11
TORSDOF 14
ENDMDL
MODEL 5
REMARK VINA RESULT:    -6.054      7.248      9.579
REMARK INTER + INTRA:         -11.930
REMARK INTER:                 -10.391
REMARK INTRA:                  -1.539
REMARK UNBOUND:                -0.921
REMARK SMILES CCCCCC=CCC=CCCCCCCCC(=O)[O-]
REMARK SMILES IDX 11 1 12 2 13 3 14 4 15 5 16 6 17 7 18 8 19 9 20 10 10 11
REMARK SMILES IDX 9 12 8 13 7 14 6 15 5 16 4 17 3 18 2 19 1 20
REMARK H PARENT
REMARK Flexibility Score: inf
ROOT
ATOM      1  C   UNL     1     -22.731  59.529   2.105  1.00  0.00     0.027 C 
ENDROOT
BRANCH   1   2
ATOM      2  C   UNL     1     -21.540  60.222   2.789  1.00  0.00     0.004 C 
BRANCH   2   3
ATOM      3  C   UNL     1     -20.418  59.260   3.244  1.00  0.00     0.000 C 
BRANCH   3   4
ATOM      4  C   UNL     1     -20.518  58.772   4.703  1.00  0.00     0.000 C 
BRANCH   4   5
ATOM      5  C   UNL     1     -21.229  57.412   4.831  1.00  0.00     0.000 C 
BRANCH   5   6
ATOM      6  C   UNL     1     -21.968  57.259   6.171  1.00  0.00     0.006 C 
BRANCH   6   7
ATOM      7  C   UNL     1     -23.275  56.461   6.049  1.00  0.00     0.053 C 
BRANCH   7   8
ATOM      8  C   UNL     1     -23.488  55.624   7.270  1.00  0.00     0.041 C 
ATOM      9  O   UNL     1     -24.634  55.529   7.782  1.00  0.00    -0.550 OA
ATOM     10  O   UNL     1     -22.405  55.011   7.889  1.00  0.00    -0.550 OA
ENDBRANCH   7   8
ENDBRANCH   6   7
ENDBRANCH   5   6
ENDBRANCH   4   5
ENDBRANCH   3   4
ENDBRANCH   2   3
ENDBRANCH   1   2
BRANCH   1  11
ATOM     11  C   UNL     1     -23.809  59.133   3.096  1.00  0.00    -0.031 C 
ATOM     12  C   UNL     1     -24.616  58.063   2.957  1.00  0.00    -0.027 C 
BRANCH  12  13
ATOM     13  C   UNL     1     -24.554  57.084   1.807  1.00  0.00     0.054 C 
BRANCH  13  14
ATOM     14  C   UNL     1     -25.652  57.360   0.814  1.00  0.00    -0.027 C 
ATOM     15  C   UNL     1     -26.838  56.733   0.874  1.00  0.00    -0.031 C 
BRANCH  15  16
ATOM     16  C   UNL     1     -27.900  57.022  -0.158  1.00  0.00     0.027 C 
BRANCH  16  17
ATOM     17  C   UNL     1     -29.240  57.449   0.473  1.00  0.00     0.004 C 
BRANCH  17  18
ATOM     18  C   UNL     1     -29.112  58.324   1.745  1.00  0.00     0.000 C 
BRANCH  18  19
ATOM     19  C   UNL     1     -29.589  57.658   3.051  1.00  0.00    -0.003 C 
ATOM     20  C   UNL     1     -30.431  56.406   2.814  1.00  0.00     0.004 C 
ENDBRANCH  18  19
ENDBRANCH  17  18
ENDBRANCH  16  17
ENDBRANCH  15  16
ENDBRANCH  13  14
ENDBRANCH  12  13
ENDBRANCH   1  11
TORSDOF 14
ENDMDL
MODEL 6
REMARK VINA RESULT:    -6.009      1.396      2.893
REMARK INTER + INTRA:         -11.849
REMARK INTER:                 -10.602
REMARK INTRA:                  -1.247
REMARK UNBOUND:                -0.921
REMARK SMILES CCCCCC=CCC=CCCCCCCCC(=O)[O-]
REMARK SMILES IDX 11 1 12 2 13 3 14 4 15 5 16 6 17 7 18 8 19 9 20 10 10 11
REMARK SMILES IDX 9 12 8 13 7 14 6 15 5 16 4 17 3 18 2 19 1 20
REMARK H PARENT
REMARK Flexibility Score: inf
ROOT
ATOM      1  C   UNL     1     -16.112  60.618  -4.527  1.00  0.00     0.027 C 
ENDROOT
BRANCH   1   2
ATOM      2  C   UNL     1     -17.055  59.435  -4.803  1.00  0.00     0.004 C 
BRANCH   2   3
ATOM      3  C   UNL     1     -16.849  58.762  -6.180  1.00  0.00     0.000 C 
BRANCH   3   4
ATOM      4  C   UNL     1     -18.141  58.422  -6.949  1.00  0.00     0.000 C 
BRANCH   4   5
ATOM      5  C   UNL     1     -19.237  57.826  -6.046  1.00  0.00     0.000 C 
BRANCH   5   6
ATOM      6  C   UNL     1     -20.427  58.780  -5.857  1.00  0.00     0.006 C 
BRANCH   6   7
ATOM      7  C   UNL     1     -21.318  58.402  -4.665  1.00  0.00     0.053 C 
BRANCH   7   8
ATOM      8  C   UNL     1     -22.000  57.096  -4.919  1.00  0.00     0.041 C 
ATOM      9  O   UNL     1     -21.758  56.102  -4.185  1.00  0.00    -0.550 OA
ATOM     10  O   UNL     1     -22.843  56.954  -6.013  1.00  0.00    -0.550 OA
ENDBRANCH   7   8
ENDBRANCH   6   7
ENDBRANCH   5   6
ENDBRANCH   4   5
ENDBRANCH   3   4
ENDBRANCH   2   3
ENDBRANCH   1   2
BRANCH   1  11
ATOM     11  C   UNL     1     -15.082  60.292  -3.462  1.00  0.00    -0.031 C 
ATOM     12  C   UNL     1     -15.100  60.785  -2.208  1.00  0.00    -0.027 C 
BRANCH  12  13
ATOM     13  C   UNL     1     -16.159  61.717  -1.667  1.00  0.00     0.054 C 
BRANCH  13  14
ATOM     14  C   UNL     1     -17.042  61.004  -0.677  1.00  0.00    -0.027 C 
ATOM     15  C   UNL     1     -17.689  59.871  -0.989  1.00  0.00    -0.031 C 
BRANCH  15  16
ATOM     16  C   UNL     1     -18.583  59.203   0.026  1.00  0.00     0.027 C 
BRANCH  16  17
ATOM     17  C   UNL     1     -19.442  60.211   0.816  1.00  0.00     0.004 C 
BRANCH  17  18
ATOM     18  C   UNL     1     -20.729  60.678   0.092  1.00  0.00     0.000 C 
BRANCH  18  19
ATOM     19  C   UNL     1     -21.890  61.093   1.018  1.00  0.00    -0.003 C 
ATOM     20  C   UNL     1     -22.643  59.902   1.608  1.00  0.00     0.004 C 
ENDBRANCH  18  19
ENDBRANCH  17  18
ENDBRANCH  16  17
ENDBRANCH  15  16
ENDBRANCH  13  14
ENDBRANCH  12  13
ENDBRANCH   1  11
TORSDOF 14
ENDMDL
MODEL 7
REMARK VINA RESULT:    -5.895      8.432     11.546
REMARK INTER + INTRA:         -11.642
REMARK INTER:                 -10.811
REMARK INTRA:                  -0.830
REMARK UNBOUND:                -0.921
REMARK SMILES CCCCCC=CCC=CCCCCCCCC(=O)[O-]
REMARK SMILES IDX 11 1 12 2 13 3 14 4 15 5 16 6 17 7 18 8 19 9 20 10 10 11
REMARK SMILES IDX 9 12 8 13 7 14 6 15 5 16 4 17 3 18 2 19 1 20
REMARK H PARENT
REMARK Flexibility Score: inf
ROOT
ATOM      1  C   UNL     1     -27.955  58.071   3.323  1.00  0.00     0.027 C 
ENDROOT
BRANCH   1   2
ATOM      2  C   UNL     1     -26.587  58.642   3.735  1.00  0.00     0.004 C 
BRANCH   2   3
ATOM      3  C   UNL     1     -25.403  58.149   2.871  1.00  0.00     0.000 C 
BRANCH   3   4
ATOM      4  C   UNL     1     -24.001  58.476   3.423  1.00  0.00     0.000 C 
BRANCH   4   5
ATOM      5  C   UNL     1     -23.275  57.239   3.984  1.00  0.00     0.000 C 
BRANCH   5   6
ATOM      6  C   UNL     1     -23.684  56.924   5.432  1.00  0.00     0.006 C 
BRANCH   6   7
ATOM      7  C   UNL     1     -22.644  56.078   6.180  1.00  0.00     0.053 C 
BRANCH   7   8
ATOM      8  C   UNL     1     -23.322  55.125   7.112  1.00  0.00     0.041 C 
ATOM      9  O   UNL     1     -24.488  55.361   7.523  1.00  0.00    -0.550 OA
ATOM     10  O   UNL     1     -22.637  54.014   7.588  1.00  0.00    -0.550 OA
ENDBRANCH   7   8
ENDBRANCH   6   7
ENDBRANCH   5   6
ENDBRANCH   4   5
ENDBRANCH   3   4
ENDBRANCH   2   3
ENDBRANCH   1   2
BRANCH   1  11
ATOM     11  C   UNL     1     -29.041  58.407   4.328  1.00  0.00    -0.031 C 
ATOM     12  C   UNL     1     -30.168  57.688   4.500  1.00  0.00    -0.027 C 
BRANCH  12  13
ATOM     13  C   UNL     1     -30.509  56.430   3.736  1.00  0.00     0.054 C 
BRANCH  13  14
ATOM     14  C   UNL     1     -30.299  56.631   2.258  1.00  0.00    -0.027 C 
ATOM     15  C   UNL     1     -31.178  57.304   1.500  1.00  0.00    -0.031 C 
BRANCH  15  16
ATOM     16  C   UNL     1     -30.939  57.459   0.019  1.00  0.00     0.027 C 
BRANCH  16  17
ATOM     17  C   UNL     1     -29.596  58.146  -0.298  1.00  0.00     0.004 C 
BRANCH  17  18
ATOM     18  C   UNL     1     -28.930  57.696  -1.622  1.00  0.00     0.000 C 
BRANCH  18  19
ATOM     19  C   UNL     1     -27.485  57.175  -1.487  1.00  0.00    -0.003 C 
ATOM     20  C   UNL     1     -27.111  56.808  -0.052  1.00  0.00     0.004 C 
ENDBRANCH  18  19
ENDBRANCH  17  18
ENDBRANCH  16  17
ENDBRANCH  15  16
ENDBRANCH  13  14
ENDBRANCH  12  13
ENDBRANCH   1  11
TORSDOF 14
ENDMDL
MODEL 8
REMARK VINA RESULT:    -5.867      0.851      1.464
REMARK INTER + INTRA:         -11.590
REMARK INTER:                 -10.622
REMARK INTRA:                  -0.968
REMARK UNBOUND:                -0.921
REMARK SMILES CCCCCC=CCC=CCCCCCCCC(=O)[O-]
REMARK SMILES IDX 11 1 12 2 13 3 14 4 15 5 16 6 17 7 18 8 19 9 20 10 10 11
REMARK SMILES IDX 9 12 8 13 7 14 6 15 5 16 4 17 3 18 2 19 1 20
REMARK H PARENT
REMARK Flexibility Score: inf
ROOT
ATOM      1  C   UNL     1     -17.794  59.770  -1.898  1.00  0.00     0.027 C 
ENDROOT
BRANCH   1   2
ATOM      2  C   UNL     1     -16.534  60.295  -2.607  1.00  0.00     0.004 C 
BRANCH   2   3
ATOM      3  C   UNL     1     -16.433  59.906  -4.100  1.00  0.00     0.000 C 
BRANCH   3   4
ATOM      4  C   UNL     1     -17.765  59.518  -4.773  1.00  0.00     0.000 C 
BRANCH   4   5
ATOM      5  C   UNL     1     -17.788  58.056  -5.257  1.00  0.00     0.000 C 
BRANCH   5   6
ATOM      6  C   UNL     1     -19.107  57.688  -5.955  1.00  0.00     0.006 C 
BRANCH   6   7
ATOM      7  C   UNL     1     -20.267  58.621  -5.580  1.00  0.00     0.053 C 
BRANCH   7   8
ATOM      8  C   UNL     1     -21.470  57.823  -5.189  1.00  0.00     0.041 C 
ATOM      9  O   UNL     1     -22.592  58.382  -5.076  1.00  0.00    -0.550 OA
ATOM     10  O   UNL     1     -21.337  56.477  -4.875  1.00  0.00    -0.550 OA
ENDBRANCH   7   8
ENDBRANCH   6   7
ENDBRANCH   5   6
ENDBRANCH   4   5
ENDBRANCH   3   4
ENDBRANCH   2   3
ENDBRANCH   1   2
BRANCH   1  11
ATOM     11  C   UNL     1     -17.600  59.658  -0.397  1.00  0.00    -0.031 C 
ATOM     12  C   UNL     1     -18.323  60.335   0.517  1.00  0.00    -0.027 C 
BRANCH  12  13
ATOM     13  C   UNL     1     -19.447  61.289   0.187  1.00  0.00     0.054 C 
BRANCH  13  14
ATOM     14  C   UNL     1     -20.781  60.598   0.296  1.00  0.00    -0.027 C 
ATOM     15  C   UNL     1     -21.394  60.418   1.477  1.00  0.00    -0.031 C 
BRANCH  15  16
ATOM     16  C   UNL     1     -22.718  59.699   1.542  1.00  0.00     0.027 C 
BRANCH  16  17
ATOM     17  C   UNL     1     -23.087  59.261   2.973  1.00  0.00     0.004 C 
BRANCH  17  18
ATOM     18  C   UNL     1     -23.680  57.834   3.086  1.00  0.00     0.000 C 
BRANCH  18  19
ATOM     19  C   UNL     1     -23.538  57.171   4.471  1.00  0.00    -0.003 C 
ATOM     20  C   UNL     1     -22.116  57.234   5.024  1.00  0.00     0.004 C 
ENDBRANCH  18  19
ENDBRANCH  17  18
ENDBRANCH  16  17
ENDBRANCH  15  16
ENDBRANCH  13  14
ENDBRANCH  12  13
ENDBRANCH   1  11
TORSDOF 14
ENDMDL
MODEL 9
REMARK VINA RESULT:    -5.585      2.196      3.419
REMARK INTER + INTRA:         -11.077
REMARK INTER:                  -9.376
REMARK INTRA:                  -1.702
REMARK UNBOUND:                -0.921
REMARK SMILES CCCCCC=CCC=CCCCCCCCC(=O)[O-]
REMARK SMILES IDX 11 1 12 2 13 3 14 4 15 5 16 6 17 7 18 8 19 9 20 10 10 11
REMARK SMILES IDX 9 12 8 13 7 14 6 15 5 16 4 17 3 18 2 19 1 20
REMARK H PARENT
REMARK Flexibility Score: inf
ROOT
ATOM      1  C   UNL     1     -14.511  62.538  -3.215  1.00  0.00     0.027 C 
ENDROOT
BRANCH   1   2
ATOM      2  C   UNL     1     -15.075  61.816  -4.451  1.00  0.00     0.004 C 
BRANCH   2   3
ATOM      3  C   UNL     1     -15.359  60.311  -4.236  1.00  0.00     0.000 C 
BRANCH   3   4
ATOM      4  C   UNL     1     -16.814  59.870  -4.493  1.00  0.00     0.000 C 
BRANCH   4   5
ATOM      5  C   UNL     1     -16.948  58.918  -5.695  1.00  0.00     0.000 C 
BRANCH   5   6
ATOM      6  C   UNL     1     -18.275  58.143  -5.686  1.00  0.00     0.006 C 
BRANCH   6   7
ATOM      7  C   UNL     1     -18.807  57.876  -4.270  1.00  0.00     0.053 C 
BRANCH   7   8
ATOM      8  C   UNL     1     -19.657  56.646  -4.257  1.00  0.00     0.041 C 
ATOM      9  O   UNL     1     -19.227  55.584  -3.738  1.00  0.00    -0.550 OA
ATOM     10  O   UNL     1     -20.895  56.652  -4.887  1.00  0.00    -0.550 OA
ENDBRANCH   7   8
ENDBRANCH   6   7
ENDBRANCH   5   6
ENDBRANCH   4   5
ENDBRANCH   3   4
ENDBRANCH   2   3
ENDBRANCH   1   2
BRANCH   1  11
ATOM     11  C   UNL     1     -15.357  63.732  -2.814  1.00  0.00    -0.031 C 
ATOM     12  C   UNL     1     -15.918  63.894  -1.599  1.00  0.00    -0.027 C 
BRANCH  12  13
ATOM     13  C   UNL     1     -15.771  62.925  -0.450  1.00  0.00     0.054 C 
BRANCH  13  14
ATOM     14  C   UNL     1     -16.958  62.001  -0.376  1.00  0.00    -0.027 C 
ATOM     15  C   UNL     1     -16.915  60.749  -0.857  1.00  0.00    -0.031 C 
BRANCH  15  16
ATOM     16  C   UNL     1     -18.136  59.866  -0.784  1.00  0.00     0.027 C 
BRANCH  16  17
ATOM     17  C   UNL     1     -18.538  59.526   0.664  1.00  0.00     0.004 C 
BRANCH  17  18
ATOM     18  C   UNL     1     -19.988  59.914   1.046  1.00  0.00     0.000 C 
BRANCH  18  19
ATOM     19  C   UNL     1     -20.746  60.744  -0.010  1.00  0.00    -0.003 C 
ATOM     20  C   UNL     1     -21.706  61.762   0.602  1.00  0.00     0.004 C 
ENDBRANCH  18  19
ENDBRANCH  17  18
ENDBRANCH  16  17
ENDBRANCH  15  16
ENDBRANCH  13  14
ENDBRANCH  12  13
ENDBRANCH   1  11
TORSDOF 14
ENDMDL
