MODEL 1
REMARK VINA RESULT:    -5.851      0.000      0.000
REMARK INTER + INTRA:          -5.897
REMARK INTER:                  -6.364
REMARK INTRA:                   0.467
REMARK UNBOUND:                 0.467
REMARK SMILES C[C@H]1[C@H]2C3=CC[C@H]4[C@]5(C)CC[C@@H](O)C(C)(C)[C@H]5CC[C@@]4(C)[C@@]3(C)CC[C@]2(C(=O)[O-])CC[C@@H]1C
REMARK SMILES IDX 26 1 30 2 25 3 3 4 31 5 24 6 4 7 2 8 32 9 22 10 5 11 1 12
REMARK SMILES IDX 33 13 23 14 20 15 6 16 7 17 19 18 21 19 8 20 18 21 17 22
REMARK SMILES IDX 10 23 9 24 14 25 11 26 12 27 15 28 16 29 27 30 28 31 29 32
REMARK SMILES IDX 13 33
REMARK H PARENT 13 34
REMARK Flexibility Score: inf
ROOT
ATOM      1  C   UNL     1      22.424  20.479  42.134  1.00  0.00     0.017 C 
ATOM      2  C   UNL     1      20.903  20.439  42.466  1.00  0.00     0.014 C 
ATOM      3  C   UNL     1      22.724  21.839  41.471  1.00  0.00     0.014 C 
ATOM      4  C   UNL     1      23.235  20.389  43.471  1.00  0.00     0.030 C 
ATOM      5  C   UNL     1      20.503  19.185  43.253  1.00  0.00     0.004 C 
ATOM      6  C   UNL     1      24.220  22.034  41.181  1.00  0.00     0.013 C 
ATOM      7  C   UNL     1      24.746  20.688  43.277  1.00  0.00    -0.063 C 
ATOM      8  C   UNL     1      22.834  19.137  44.343  1.00  0.00    -0.003 C 
ATOM      9  C   UNL     1      21.295  19.040  44.567  1.00  0.00    -0.011 C 
ATOM     10  C   UNL     1      25.169  21.905  42.430  1.00  0.00    -0.006 C 
ATOM     11  C   UNL     1      25.639  20.215  44.164  1.00  0.00    -0.027 C 
ATOM     12  C   UNL     1      23.386  17.790  43.832  1.00  0.00     0.008 C 
ATOM     13  C   UNL     1      20.801  20.031  45.637  1.00  0.00     0.008 C 
ATOM     14  C   UNL     1      24.936  23.143  43.361  1.00  0.00     0.017 C 
ATOM     15  C   UNL     1      26.722  21.827  41.960  1.00  0.00    -0.020 C 
ATOM     16  C   UNL     1      27.118  20.344  44.019  1.00  0.00     0.032 C 
ATOM     17  C   UNL     1      27.677  21.557  43.207  1.00  0.00     0.006 C 
ATOM     18  C   UNL     1      26.969  20.642  40.949  1.00  0.00     0.008 C 
ATOM     19  C   UNL     1      27.068  23.187  41.235  1.00  0.00     0.012 C 
ATOM     20  C   UNL     1      29.265  21.375  42.874  1.00  0.00    -0.025 C 
ATOM     21  C   UNL     1      28.446  20.182  40.761  1.00  0.00     0.005 C 
ATOM     22  C   UNL     1      29.477  21.184  41.332  1.00  0.00     0.003 C 
ATOM     23  C   UNL     1      30.068  22.645  43.295  1.00  0.00     0.010 C 
ATOM     24  C   UNL     1      29.887  20.184  43.691  1.00  0.00     0.012 C 
ATOM     25  C   UNL     1      30.968  21.075  40.821  1.00  0.00    -0.006 C 
ATOM     26  C   UNL     1      31.553  22.613  42.865  1.00  0.00     0.033 C 
ATOM     27  C   UNL     1      31.751  22.325  41.359  1.00  0.00     0.120 C 
ATOM     28  C   UNL     1      31.674  19.741  41.201  1.00  0.00     0.014 C 
ATOM     29  C   UNL     1      30.993  21.178  39.267  1.00  0.00     0.014 C 
ENDROOT
BRANCH   1  30
ATOM     30  C   UNL     1      22.765  19.375  41.133  1.00  0.00     0.048 C 
ATOM     31  O   UNL     1      21.916  19.004  40.278  1.00  0.00    -0.550 OA
ATOM     32  O   UNL     1      24.046  18.840  41.066  1.00  0.00    -0.550 OA
ENDBRANCH   1  30
BRANCH  27  33
ATOM     33  O   UNL     1      33.125  22.195  41.082  1.00  0.00    -0.393 OA
ATOM     34  H   UNL     1      33.204  21.830  40.160  1.00  0.00     0.210 HD
ENDBRANCH  27  33
TORSDOF 2
ENDMDL
MODEL 2
REMARK VINA RESULT:    -5.724      8.630     14.068
REMARK INTER + INTRA:          -5.759
REMARK INTER:                  -6.227
REMARK INTRA:                   0.468
REMARK UNBOUND:                 0.467
REMARK SMILES C[C@H]1[C@H]2C3=CC[C@H]4[C@]5(C)CC[C@@H](O)C(C)(C)[C@H]5CC[C@@]4(C)[C@@]3(C)CC[C@]2(C(=O)[O-])CC[C@@H]1C
REMARK SMILES IDX 26 1 30 2 25 3 3 4 31 5 24 6 4 7 2 8 32 9 22 10 5 11 1 12
REMARK SMILES IDX 33 13 23 14 20 15 6 16 7 17 19 18 21 19 8 20 18 21 17 22
REMARK SMILES IDX 10 23 9 24 14 25 11 26 12 27 15 28 16 29 27 30 28 31 29 32
REMARK SMILES IDX 13 33
REMARK H PARENT 13 34
REMARK Flexibility Score: inf
ROOT
ATOM      1  C   UNL     1      16.469  19.458  54.805  1.00  0.00     0.017 C 
ATOM      2  C   UNL     1      16.057  19.270  56.294  1.00  0.00     0.014 C 
ATOM      3  C   UNL     1      17.439  18.315  54.439  1.00  0.00     0.014 C 
ATOM      4  C   UNL     1      15.191  19.330  53.909  1.00  0.00     0.030 C 
ATOM      5  C   UNL     1      14.985  20.272  56.741  1.00  0.00     0.004 C 
ATOM      6  C   UNL     1      17.844  18.341  52.957  1.00  0.00     0.013 C 
ATOM      7  C   UNL     1      15.527  19.234  52.395  1.00  0.00    -0.063 C 
ATOM      8  C   UNL     1      14.037  20.311  54.349  1.00  0.00    -0.003 C 
ATOM      9  C   UNL     1      13.716  20.201  55.871  1.00  0.00    -0.011 C 
ATOM     10  C   UNL     1      16.650  18.284  51.933  1.00  0.00    -0.006 C 
ATOM     11  C   UNL     1      14.604  19.586  51.483  1.00  0.00    -0.027 C 
ATOM     12  C   UNL     1      14.256  21.786  53.955  1.00  0.00     0.008 C 
ATOM     13  C   UNL     1      12.875  18.953  56.197  1.00  0.00     0.008 C 
ATOM     14  C   UNL     1      16.014  16.853  51.989  1.00  0.00     0.017 C 
ATOM     15  C   UNL     1      17.171  18.619  50.432  1.00  0.00    -0.020 C 
ATOM     16  C   UNL     1      14.852  19.642  50.013  1.00  0.00     0.032 C 
ATOM     17  C   UNL     1      15.947  18.701  49.414  1.00  0.00     0.006 C 
ATOM     18  C   UNL     1      17.898  20.018  50.362  1.00  0.00     0.008 C 
ATOM     19  C   UNL     1      18.204  17.496  50.025  1.00  0.00     0.012 C 
ATOM     20  C   UNL     1      16.313  19.111  47.877  1.00  0.00    -0.025 C 
ATOM     21  C   UNL     1      18.053  20.653  48.949  1.00  0.00     0.005 C 
ATOM     22  C   UNL     1      17.780  19.659  47.796  1.00  0.00     0.003 C 
ATOM     23  C   UNL     1      16.236  17.866  46.938  1.00  0.00     0.010 C 
ATOM     24  C   UNL     1      15.281  20.147  47.301  1.00  0.00     0.012 C 
ATOM     25  C   UNL     1      18.331  20.027  46.361  1.00  0.00    -0.006 C 
ATOM     26  C   UNL     1      16.724  18.141  45.497  1.00  0.00     0.033 C 
ATOM     27  C   UNL     1      18.133  18.774  45.436  1.00  0.00     0.120 C 
ATOM     28  C   UNL     1      17.695  21.308  45.747  1.00  0.00     0.014 C 
ATOM     29  C   UNL     1      19.866  20.275  46.443  1.00  0.00     0.014 C 
ENDROOT
BRANCH   1  30
ATOM     30  C   UNL     1      17.209  20.785  54.634  1.00  0.00     0.048 C 
ATOM     31  O   UNL     1      17.935  21.233  55.562  1.00  0.00    -0.550 OA
ATOM     32  O   UNL     1      17.192  21.463  53.422  1.00  0.00    -0.550 OA
ENDBRANCH   1  30
BRANCH  27  33
ATOM     33  O   UNL     1      18.446  19.100  44.103  1.00  0.00    -0.393 OA
ATOM     34  H   UNL     1      19.221  19.722  44.128  1.00  0.00     0.210 HD
ENDBRANCH  27  33
TORSDOF 2
ENDMDL
MODEL 3
REMARK VINA RESULT:    -5.722     12.717     15.479
REMARK INTER + INTRA:          -5.758
REMARK INTER:                  -6.227
REMARK INTRA:                   0.470
REMARK UNBOUND:                 0.467
REMARK SMILES C[C@H]1[C@H]2C3=CC[C@H]4[C@]5(C)CC[C@@H](O)C(C)(C)[C@H]5CC[C@@]4(C)[C@@]3(C)CC[C@]2(C(=O)[O-])CC[C@@H]1C
REMARK SMILES IDX 26 1 30 2 25 3 3 4 31 5 24 6 4 7 2 8 32 9 22 10 5 11 1 12
REMARK SMILES IDX 33 13 23 14 20 15 6 16 7 17 19 18 21 19 8 20 18 21 17 22
REMARK SMILES IDX 10 23 9 24 14 25 11 26 12 27 15 28 16 29 27 30 28 31 29 32
REMARK SMILES IDX 13 33
REMARK H PARENT 13 34
REMARK Flexibility Score: inf
ROOT
ATOM      1  C   UNL     1      28.963  31.118  54.722  1.00  0.00     0.017 C 
ATOM      2  C   UNL     1      29.340  31.280  56.224  1.00  0.00     0.014 C 
ATOM      3  C   UNL     1      27.426  31.189  54.615  1.00  0.00     0.014 C 
ATOM      4  C   UNL     1      29.572  32.316  53.918  1.00  0.00     0.030 C 
ATOM      5  C   UNL     1      30.856  31.361  56.446  1.00  0.00     0.004 C 
ATOM      6  C   UNL     1      26.936  31.136  53.160  1.00  0.00     0.013 C 
ATOM      7  C   UNL     1      29.034  32.397  52.463  1.00  0.00    -0.063 C 
ATOM      8  C   UNL     1      31.126  32.473  54.141  1.00  0.00    -0.003 C 
ATOM      9  C   UNL     1      31.505  32.511  55.653  1.00  0.00    -0.011 C 
ATOM     10  C   UNL     1      27.520  32.248  52.212  1.00  0.00    -0.006 C 
ATOM     11  C   UNL     1      29.756  33.025  51.518  1.00  0.00    -0.027 C 
ATOM     12  C   UNL     1      31.994  31.437  53.398  1.00  0.00     0.008 C 
ATOM     13  C   UNL     1      31.204  33.879  56.292  1.00  0.00     0.008 C 
ATOM     14  C   UNL     1      26.905  33.628  52.627  1.00  0.00     0.017 C 
ATOM     15  C   UNL     1      27.176  31.912  50.660  1.00  0.00    -0.020 C 
ATOM     16  C   UNL     1      29.393  33.068  50.072  1.00  0.00     0.032 C 
ATOM     17  C   UNL     1      27.882  32.958  49.686  1.00  0.00     0.006 C 
ATOM     18  C   UNL     1      27.704  30.488  50.238  1.00  0.00     0.008 C 
ATOM     19  C   UNL     1      25.604  31.932  50.507  1.00  0.00     0.012 C 
ATOM     20  C   UNL     1      27.690  32.698  48.087  1.00  0.00    -0.025 C 
ATOM     21  C   UNL     1      27.836  30.218  48.709  1.00  0.00     0.005 C 
ATOM     22  C   UNL     1      27.104  31.265  47.837  1.00  0.00     0.003 C 
ATOM     23  C   UNL     1      26.680  33.719  47.477  1.00  0.00     0.010 C 
ATOM     24  C   UNL     1      29.038  32.911  47.307  1.00  0.00     0.012 C 
ATOM     25  C   UNL     1      26.775  30.875  46.341  1.00  0.00    -0.006 C 
ATOM     26  C   UNL     1      26.323  33.436  45.999  1.00  0.00     0.033 C 
ATOM     27  C   UNL     1      25.841  31.989  45.750  1.00  0.00     0.120 C 
ATOM     28  C   UNL     1      28.032  30.641  45.455  1.00  0.00     0.014 C 
ATOM     29  C   UNL     1      25.950  29.554  46.319  1.00  0.00     0.014 C 
ENDROOT
BRANCH   1  30
ATOM     30  C   UNL     1      29.413  29.747  54.218  1.00  0.00     0.048 C 
ATOM     31  O   UNL     1      29.432  28.756  54.997  1.00  0.00    -0.550 OA
ATOM     32  O   UNL     1      29.699  29.537  52.875  1.00  0.00    -0.550 OA
ENDBRANCH   1  30
BRANCH  27  33
ATOM     33  O   UNL     1      25.655  31.786  44.370  1.00  0.00    -0.393 OA
ATOM     34  H   UNL     1      26.226  31.015  44.108  1.00  0.00     0.210 HD
ENDBRANCH  27  33
TORSDOF 2
ENDMDL
MODEL 4
REMARK VINA RESULT:    -5.670     13.801     17.214
REMARK INTER + INTRA:          -5.700
REMARK INTER:                  -6.769
REMARK INTRA:                   1.069
REMARK UNBOUND:                 0.467
REMARK SMILES C[C@H]1[C@H]2C3=CC[C@H]4[C@]5(C)CC[C@@H](O)C(C)(C)[C@H]5CC[C@@]4(C)[C@@]3(C)CC[C@]2(C(=O)[O-])CC[C@@H]1C
REMARK SMILES IDX 26 1 30 2 25 3 3 4 31 5 24 6 4 7 2 8 32 9 22 10 5 11 1 12
REMARK SMILES IDX 33 13 23 14 20 15 6 16 7 17 19 18 21 19 8 20 18 21 17 22
REMARK SMILES IDX 10 23 9 24 14 25 11 26 12 27 15 28 16 29 27 30 28 31 29 32
REMARK SMILES IDX 13 33
REMARK H PARENT 13 34
REMARK Flexibility Score: inf
ROOT
ATOM      1  C   UNL     1      28.833  32.478  52.555  1.00  0.00     0.017 C 
ATOM      2  C   UNL     1      30.179  32.961  51.939  1.00  0.00     0.014 C 
ATOM      3  C   UNL     1      27.894  32.103  51.390  1.00  0.00     0.014 C 
ATOM      4  C   UNL     1      29.101  31.195  53.410  1.00  0.00     0.030 C 
ATOM      5  C   UNL     1      31.249  33.238  53.004  1.00  0.00     0.004 C 
ATOM      6  C   UNL     1      26.559  31.519  51.877  1.00  0.00     0.013 C 
ATOM      7  C   UNL     1      27.793  30.480  53.846  1.00  0.00    -0.063 C 
ATOM      8  C   UNL     1      30.224  31.410  54.497  1.00  0.00    -0.003 C 
ATOM      9  C   UNL     1      31.529  32.009  53.889  1.00  0.00    -0.011 C 
ATOM     10  C   UNL     1      26.677  30.255  52.807  1.00  0.00    -0.006 C 
ATOM     11  C   UNL     1      27.797  29.682  54.928  1.00  0.00    -0.027 C 
ATOM     12  C   UNL     1      29.784  32.228  55.729  1.00  0.00     0.008 C 
ATOM     13  C   UNL     1      32.359  30.950  53.140  1.00  0.00     0.008 C 
ATOM     14  C   UNL     1      27.172  29.046  51.942  1.00  0.00     0.017 C 
ATOM     15  C   UNL     1      25.244  29.918  53.494  1.00  0.00    -0.020 C 
ATOM     16  C   UNL     1      26.581  29.037  55.503  1.00  0.00     0.032 C 
ATOM     17  C   UNL     1      25.387  28.726  54.543  1.00  0.00     0.006 C 
ATOM     18  C   UNL     1      24.676  31.150  54.299  1.00  0.00     0.008 C 
ATOM     19  C   UNL     1      24.232  29.565  52.334  1.00  0.00     0.012 C 
ATOM     20  C   UNL     1      24.039  28.329  55.373  1.00  0.00    -0.025 C 
ATOM     21  C   UNL     1      23.562  30.845  55.345  1.00  0.00     0.005 C 
ATOM     22  C   UNL     1      22.944  29.436  55.189  1.00  0.00     0.003 C 
ATOM     23  C   UNL     1      23.434  26.993  54.841  1.00  0.00     0.010 C 
ATOM     24  C   UNL     1      24.356  28.081  56.892  1.00  0.00     0.012 C 
ATOM     25  C   UNL     1      21.538  29.173  55.860  1.00  0.00    -0.006 C 
ATOM     26  C   UNL     1      22.067  26.633  55.469  1.00  0.00     0.033 C 
ATOM     27  C   UNL     1      21.027  27.772  55.368  1.00  0.00     0.120 C 
ATOM     28  C   UNL     1      21.546  29.275  57.412  1.00  0.00     0.014 C 
ATOM     29  C   UNL     1      20.510  30.221  55.340  1.00  0.00     0.014 C 
ENDROOT
BRANCH   1  30
ATOM     30  C   UNL     1      28.184  33.617  53.342  1.00  0.00     0.048 C 
ATOM     31  O   UNL     1      28.888  34.559  53.798  1.00  0.00    -0.550 OA
ATOM     32  O   UNL     1      26.804  33.700  53.472  1.00  0.00    -0.550 OA
ENDBRANCH   1  30
BRANCH  27  33
ATOM     33  O   UNL     1      19.861  27.406  56.067  1.00  0.00    -0.393 OA
ATOM     34  H   UNL     1      20.149  26.888  56.865  1.00  0.00     0.210 HD
ENDBRANCH  27  33
TORSDOF 2
ENDMDL
MODEL 5
REMARK VINA RESULT:    -5.551     14.190     17.569
REMARK INTER + INTRA:          -5.571
REMARK INTER:                  -6.040
REMARK INTRA:                   0.469
REMARK UNBOUND:                 0.467
REMARK SMILES C[C@H]1[C@H]2C3=CC[C@H]4[C@]5(C)CC[C@@H](O)C(C)(C)[C@H]5CC[C@@]4(C)[C@@]3(C)CC[C@]2(C(=O)[O-])CC[C@@H]1C
REMARK SMILES IDX 26 1 30 2 25 3 3 4 31 5 24 6 4 7 2 8 32 9 22 10 5 11 1 12
REMARK SMILES IDX 33 13 23 14 20 15 6 16 7 17 19 18 21 19 8 20 18 21 17 22
REMARK SMILES IDX 10 23 9 24 14 25 11 26 12 27 15 28 16 29 27 30 28 31 29 32
REMARK SMILES IDX 13 33
REMARK H PARENT 13 34
REMARK Flexibility Score: inf
ROOT
ATOM      1  C   UNL     1      25.481  27.664  56.567  1.00  0.00     0.017 C 
ATOM      2  C   UNL     1      26.893  27.787  57.212  1.00  0.00     0.014 C 
ATOM      3  C   UNL     1      24.668  26.659  57.408  1.00  0.00     0.014 C 
ATOM      4  C   UNL     1      24.772  29.059  56.638  1.00  0.00     0.030 C 
ATOM      5  C   UNL     1      27.757  28.864  56.542  1.00  0.00     0.004 C 
ATOM      6  C   UNL     1      23.218  26.525  56.921  1.00  0.00     0.013 C 
ATOM      7  C   UNL     1      23.266  28.985  56.268  1.00  0.00    -0.063 C 
ATOM      8  C   UNL     1      25.635  30.215  55.998  1.00  0.00    -0.003 C 
ATOM      9  C   UNL     1      27.087  30.251  56.564  1.00  0.00    -0.011 C 
ATOM     10  C   UNL     1      22.396  27.867  56.876  1.00  0.00    -0.006 C 
ATOM     11  C   UNL     1      22.632  30.085  55.824  1.00  0.00    -0.027 C 
ATOM     12  C   UNL     1      25.662  30.224  54.456  1.00  0.00     0.008 C 
ATOM     13  C   UNL     1      27.147  30.885  57.966  1.00  0.00     0.008 C 
ATOM     14  C   UNL     1      22.119  28.329  58.348  1.00  0.00     0.017 C 
ATOM     15  C   UNL     1      21.001  27.654  56.072  1.00  0.00    -0.020 C 
ATOM     16  C   UNL     1      21.223  30.105  55.336  1.00  0.00     0.032 C 
ATOM     17  C   UNL     1      20.230  29.039  55.903  1.00  0.00     0.006 C 
ATOM     18  C   UNL     1      21.244  27.102  54.614  1.00  0.00     0.008 C 
ATOM     19  C   UNL     1      20.145  26.597  56.874  1.00  0.00     0.012 C 
ATOM     20  C   UNL     1      18.845  28.993  55.041  1.00  0.00    -0.025 C 
ATOM     21  C   UNL     1      20.070  27.264  53.603  1.00  0.00     0.005 C 
ATOM     22  C   UNL     1      18.726  27.629  54.277  1.00  0.00     0.003 C 
ATOM     23  C   UNL     1      17.604  29.102  55.981  1.00  0.00     0.010 C 
ATOM     24  C   UNL     1      18.744  30.213  54.055  1.00  0.00     0.012 C 
ATOM     25  C   UNL     1      17.400  27.379  53.455  1.00  0.00    -0.006 C 
ATOM     26  C   UNL     1      16.253  28.905  55.255  1.00  0.00     0.033 C 
ATOM     27  C   UNL     1      16.186  27.603  54.425  1.00  0.00     0.120 C 
ATOM     28  C   UNL     1      17.280  28.243  52.167  1.00  0.00     0.014 C 
ATOM     29  C   UNL     1      17.337  25.888  53.011  1.00  0.00     0.014 C 
ENDROOT
BRANCH   1  30
ATOM     30  C   UNL     1      25.606  27.109  55.148  1.00  0.00     0.048 C 
ATOM     31  O   UNL     1      26.525  26.296  54.860  1.00  0.00    -0.550 OA
ATOM     32  O   UNL     1      24.649  27.394  54.182  1.00  0.00    -0.550 OA
ENDBRANCH   1  30
BRANCH  27  33
ATOM     33  O   UNL     1      14.976  27.564  53.707  1.00  0.00    -0.393 OA
ATOM     34  H   UNL     1      14.547  26.689  53.902  1.00  0.00     0.210 HD
ENDBRANCH  27  33
TORSDOF 2
ENDMDL
MODEL 6
REMARK VINA RESULT:    -5.544     12.156     14.401
REMARK INTER + INTRA:          -5.563
REMARK INTER:                  -6.030
REMARK INTRA:                   0.467
REMARK UNBOUND:                 0.467
REMARK SMILES C[C@H]1[C@H]2C3=CC[C@H]4[C@]5(C)CC[C@@H](O)C(C)(C)[C@H]5CC[C@@]4(C)[C@@]3(C)CC[C@]2(C(=O)[O-])CC[C@@H]1C
REMARK SMILES IDX 26 1 30 2 25 3 3 4 31 5 24 6 4 7 2 8 32 9 22 10 5 11 1 12
REMARK SMILES IDX 33 13 23 14 20 15 6 16 7 17 19 18 21 19 8 20 18 21 17 22
REMARK SMILES IDX 10 23 9 24 14 25 11 26 12 27 15 28 16 29 27 30 28 31 29 32
REMARK SMILES IDX 13 33
REMARK H PARENT 13 34
REMARK Flexibility Score: inf
ROOT
ATOM      1  C   UNL     1      27.828  30.710  53.466  1.00  0.00     0.017 C 
ATOM      2  C   UNL     1      27.121  30.086  54.705  1.00  0.00     0.014 C 
ATOM      3  C   UNL     1      28.976  29.765  53.056  1.00  0.00     0.014 C 
ATOM      4  C   UNL     1      26.802  30.787  52.285  1.00  0.00     0.030 C 
ATOM      5  C   UNL     1      25.872  30.869  55.128  1.00  0.00     0.004 C 
ATOM      6  C   UNL     1      29.692  30.231  51.779  1.00  0.00     0.013 C 
ATOM      7  C   UNL     1      27.472  31.142  50.930  1.00  0.00    -0.063 C 
ATOM      8  C   UNL     1      25.477  31.548  52.677  1.00  0.00    -0.003 C 
ATOM      9  C   UNL     1      24.842  30.993  53.989  1.00  0.00    -0.011 C 
ATOM     10  C   UNL     1      28.768  30.416  50.519  1.00  0.00    -0.006 C 
ATOM     11  C   UNL     1      26.740  31.699  49.949  1.00  0.00    -0.027 C 
ATOM     12  C   UNL     1      25.612  33.082  52.757  1.00  0.00     0.008 C 
ATOM     13  C   UNL     1      24.095  29.667  53.755  1.00  0.00     0.008 C 
ATOM     14  C   UNL     1      28.299  29.001  50.034  1.00  0.00     0.017 C 
ATOM     15  C   UNL     1      29.568  31.189  49.335  1.00  0.00    -0.020 C 
ATOM     16  C   UNL     1      27.299  32.183  48.654  1.00  0.00     0.032 C 
ATOM     17  C   UNL     1      28.597  31.503  48.110  1.00  0.00     0.006 C 
ATOM     18  C   UNL     1      30.131  32.580  49.821  1.00  0.00     0.008 C 
ATOM     19  C   UNL     1      30.783  30.276  48.907  1.00  0.00     0.012 C 
ATOM     20  C   UNL     1      29.245  32.351  46.875  1.00  0.00    -0.025 C 
ATOM     21  C   UNL     1      30.523  33.600  48.710  1.00  0.00     0.005 C 
ATOM     22  C   UNL     1      30.624  32.965  47.303  1.00  0.00     0.003 C 
ATOM     23  C   UNL     1      29.517  31.425  45.649  1.00  0.00     0.010 C 
ATOM     24  C   UNL     1      28.257  33.461  46.363  1.00  0.00     0.012 C 
ATOM     25  C   UNL     1      31.433  33.752  46.197  1.00  0.00    -0.006 C 
ATOM     26  C   UNL     1      30.278  32.122  44.497  1.00  0.00     0.033 C 
ATOM     27  C   UNL     1      31.586  32.808  44.952  1.00  0.00     0.120 C 
ATOM     28  C   UNL     1      30.810  35.125  45.812  1.00  0.00     0.014 C 
ATOM     29  C   UNL     1      32.875  34.035  46.713  1.00  0.00     0.014 C 
ENDROOT
BRANCH   1  30
ATOM     30  C   UNL     1      28.435  32.062  53.841  1.00  0.00     0.048 C 
ATOM     31  O   UNL     1      28.894  32.256  55.000  1.00  0.00    -0.550 OA
ATOM     32  O   UNL     1      28.599  33.062  52.891  1.00  0.00    -0.550 OA
ENDBRANCH   1  30
BRANCH  27  33
ATOM     33  O   UNL     1      32.146  33.515  43.872  1.00  0.00    -0.393 OA
ATOM     34  H   UNL     1      31.392  33.904  43.354  1.00  0.00     0.210 HD
ENDBRANCH  27  33
TORSDOF 2
ENDMDL
MODEL 7
REMARK VINA RESULT:    -5.494      8.070     12.389
REMARK INTER + INTRA:          -5.509
REMARK INTER:                  -5.979
REMARK INTRA:                   0.469
REMARK UNBOUND:                 0.467
REMARK SMILES C[C@H]1[C@H]2C3=CC[C@H]4[C@]5(C)CC[C@@H](O)C(C)(C)[C@H]5CC[C@@]4(C)[C@@]3(C)CC[C@]2(C(=O)[O-])CC[C@@H]1C
REMARK SMILES IDX 26 1 30 2 25 3 3 4 31 5 24 6 4 7 2 8 32 9 22 10 5 11 1 12
REMARK SMILES IDX 33 13 23 14 20 15 6 16 7 17 19 18 21 19 8 20 18 21 17 22
REMARK SMILES IDX 10 23 9 24 14 25 11 26 12 27 15 28 16 29 27 30 28 31 29 32
REMARK SMILES IDX 13 33
REMARK H PARENT 13 34
REMARK Flexibility Score: inf
ROOT
ATOM      1  C   UNL     1      16.835  21.743  43.953  1.00  0.00     0.017 C 
ATOM      2  C   UNL     1      16.716  22.017  42.424  1.00  0.00     0.014 C 
ATOM      3  C   UNL     1      15.467  22.059  44.592  1.00  0.00     0.014 C 
ATOM      4  C   UNL     1      17.145  20.224  44.170  1.00  0.00     0.030 C 
ATOM      5  C   UNL     1      17.979  21.610  41.653  1.00  0.00     0.004 C 
ATOM      6  C   UNL     1      15.432  21.735  46.093  1.00  0.00     0.013 C 
ATOM      7  C   UNL     1      17.018  19.792  45.656  1.00  0.00    -0.063 C 
ATOM      8  C   UNL     1      18.414  19.739  43.366  1.00  0.00    -0.003 C 
ATOM      9  C   UNL     1      18.340  20.127  41.857  1.00  0.00    -0.011 C 
ATOM     10  C   UNL     1      15.790  20.249  46.469  1.00  0.00    -0.006 C 
ATOM     11  C   UNL     1      17.677  18.706  46.095  1.00  0.00    -0.027 C 
ATOM     12  C   UNL     1      19.766  20.178  43.965  1.00  0.00     0.008 C 
ATOM     13  C   UNL     1      17.398  19.201  41.066  1.00  0.00     0.008 C 
ATOM     14  C   UNL     1      14.623  19.320  45.991  1.00  0.00     0.017 C 
ATOM     15  C   UNL     1      16.015  20.106  48.072  1.00  0.00    -0.020 C 
ATOM     16  C   UNL     1      17.718  18.264  47.519  1.00  0.00     0.032 C 
ATOM     17  C   UNL     1      16.513  18.638  48.443  1.00  0.00     0.006 C 
ATOM     18  C   UNL     1      17.124  21.097  48.598  1.00  0.00     0.008 C 
ATOM     19  C   UNL     1      14.647  20.461  48.777  1.00  0.00     0.012 C 
ATOM     20  C   UNL     1      16.859  18.370  50.015  1.00  0.00    -0.025 C 
ATOM     21  C   UNL     1      17.743  20.773  49.991  1.00  0.00     0.005 C 
ATOM     22  C   UNL     1      16.932  19.729  50.794  1.00  0.00     0.003 C 
ATOM     23  C   UNL     1      15.741  17.514  50.690  1.00  0.00     0.010 C 
ATOM     24  C   UNL     1      18.186  17.543  50.176  1.00  0.00     0.012 C 
ATOM     25  C   UNL     1      17.177  19.650  52.354  1.00  0.00    -0.006 C 
ATOM     26  C   UNL     1      15.916  17.353  52.218  1.00  0.00     0.033 C 
ATOM     27  C   UNL     1      16.087  18.697  52.962  1.00  0.00     0.120 C 
ATOM     28  C   UNL     1      18.616  19.212  52.749  1.00  0.00     0.014 C 
ATOM     29  C   UNL     1      16.936  21.052  52.988  1.00  0.00     0.014 C 
ENDROOT
BRANCH   1  30
ATOM     30  C   UNL     1      17.876  22.678  44.568  1.00  0.00     0.048 C 
ATOM     31  O   UNL     1      18.047  23.836  44.101  1.00  0.00    -0.550 OA
ATOM     32  O   UNL     1      18.569  22.319  45.717  1.00  0.00    -0.550 OA
ENDBRANCH   1  30
BRANCH  27  33
ATOM     33  O   UNL     1      16.359  18.451  54.320  1.00  0.00    -0.393 OA
ATOM     34  H   UNL     1      17.275  18.067  54.370  1.00  0.00     0.210 HD
ENDBRANCH  27  33
TORSDOF 2
ENDMDL
MODEL 8
REMARK VINA RESULT:    -5.486     10.264     14.066
REMARK INTER + INTRA:          -5.500
REMARK INTER:                  -5.971
REMARK INTRA:                   0.471
REMARK UNBOUND:                 0.467
REMARK SMILES C[C@H]1[C@H]2C3=CC[C@H]4[C@]5(C)CC[C@@H](O)C(C)(C)[C@H]5CC[C@@]4(C)[C@@]3(C)CC[C@]2(C(=O)[O-])CC[C@@H]1C
REMARK SMILES IDX 26 1 30 2 25 3 3 4 31 5 24 6 4 7 2 8 32 9 22 10 5 11 1 12
REMARK SMILES IDX 33 13 23 14 20 15 6 16 7 17 19 18 21 19 8 20 18 21 17 22
REMARK SMILES IDX 10 23 9 24 14 25 11 26 12 27 15 28 16 29 27 30 28 31 29 32
REMARK SMILES IDX 13 33
REMARK H PARENT 13 34
REMARK Flexibility Score: inf
ROOT
ATOM      1  C   UNL     1      17.400  20.370  54.825  1.00  0.00     0.017 C 
ATOM      2  C   UNL     1      17.624  20.177  56.354  1.00  0.00     0.014 C 
ATOM      3  C   UNL     1      18.776  20.633  54.180  1.00  0.00     0.014 C 
ATOM      4  C   UNL     1      16.817  19.045  54.230  1.00  0.00     0.030 C 
ATOM      5  C   UNL     1      16.340  19.775  57.092  1.00  0.00     0.004 C 
ATOM      6  C   UNL     1      18.695  20.747  52.651  1.00  0.00     0.013 C 
ATOM      7  C   UNL     1      16.809  19.038  52.677  1.00  0.00    -0.063 C 
ATOM      8  C   UNL     1      15.515  18.560  54.978  1.00  0.00    -0.003 C 
ATOM      9  C   UNL     1      15.714  18.487  56.523  1.00  0.00    -0.011 C 
ATOM     10  C   UNL     1      18.065  19.505  51.916  1.00  0.00    -0.006 C 
ATOM     11  C   UNL     1      15.951  18.239  52.017  1.00  0.00    -0.027 C 
ATOM     12  C   UNL     1      14.240  19.359  54.641  1.00  0.00     0.008 C 
ATOM     13  C   UNL     1      16.508  17.238  56.947  1.00  0.00     0.008 C 
ATOM     14  C   UNL     1      19.068  18.305  52.020  1.00  0.00     0.017 C 
ATOM     15  C   UNL     1      17.757  19.860  50.361  1.00  0.00    -0.020 C 
ATOM     16  C   UNL     1      15.778  18.232  50.536  1.00  0.00     0.032 C 
ATOM     17  C   UNL     1      16.993  18.656  49.648  1.00  0.00     0.006 C 
ATOM     18  C   UNL     1      16.821  21.122  50.222  1.00  0.00     0.008 C 
ATOM     19  C   UNL     1      19.137  20.178  49.663  1.00  0.00     0.012 C 
ATOM     20  C   UNL     1      16.545  18.903  48.098  1.00  0.00    -0.025 C 
ATOM     21  C   UNL     1      16.101  21.309  48.853  1.00  0.00     0.005 C 
ATOM     22  C   UNL     1      16.683  20.420  47.729  1.00  0.00     0.003 C 
ATOM     23  C   UNL     1      17.466  18.107  47.122  1.00  0.00     0.010 C 
ATOM     24  C   UNL     1      15.087  18.378  47.834  1.00  0.00     0.012 C 
ATOM     25  C   UNL     1      16.368  20.827  46.234  1.00  0.00    -0.006 C 
ATOM     26  C   UNL     1      17.207  18.416  45.629  1.00  0.00     0.033 C 
ATOM     27  C   UNL     1      17.248  19.925  45.298  1.00  0.00     0.120 C 
ATOM     28  C   UNL     1      14.860  20.754  45.861  1.00  0.00     0.014 C 
ATOM     29  C   UNL     1      16.828  22.294  45.988  1.00  0.00     0.014 C 
ENDROOT
BRANCH   1  30
ATOM     30  C   UNL     1      16.517  21.594  54.581  1.00  0.00     0.048 C 
ATOM     31  O   UNL     1      16.567  22.582  55.362  1.00  0.00    -0.550 OA
ATOM     32  O   UNL     1      15.733  21.694  53.439  1.00  0.00    -0.550 OA
ENDBRANCH   1  30
BRANCH  27  33
ATOM     33  O   UNL     1      16.884  20.121  43.952  1.00  0.00    -0.393 OA
ATOM     34  H   UNL     1      17.571  19.667  43.394  1.00  0.00     0.210 HD
ENDBRANCH  27  33
TORSDOF 2
ENDMDL
MODEL 9
REMARK VINA RESULT:    -5.422     13.695     17.132
REMARK INTER + INTRA:          -5.431
REMARK INTER:                  -5.899
REMARK INTRA:                   0.469
REMARK UNBOUND:                 0.467
REMARK SMILES C[C@H]1[C@H]2C3=CC[C@H]4[C@]5(C)CC[C@@H](O)C(C)(C)[C@H]5CC[C@@]4(C)[C@@]3(C)CC[C@]2(C(=O)[O-])CC[C@@H]1C
REMARK SMILES IDX 26 1 30 2 25 3 3 4 31 5 24 6 4 7 2 8 32 9 22 10 5 11 1 12
REMARK SMILES IDX 33 13 23 14 20 15 6 16 7 17 19 18 21 19 8 20 18 21 17 22
REMARK SMILES IDX 10 23 9 24 14 25 11 26 12 27 15 28 16 29 27 30 28 31 29 32
REMARK SMILES IDX 13 33
REMARK H PARENT 13 34
REMARK Flexibility Score: inf
ROOT
ATOM      1  C   UNL     1      27.775  30.157  53.244  1.00  0.00     0.017 C 
ATOM      2  C   UNL     1      29.034  30.918  52.733  1.00  0.00     0.014 C 
ATOM      3  C   UNL     1      28.225  29.223  54.387  1.00  0.00     0.014 C 
ATOM      4  C   UNL     1      26.759  31.197  53.825  1.00  0.00     0.030 C 
ATOM      5  C   UNL     1      28.693  31.981  51.681  1.00  0.00     0.004 C 
ATOM      6  C   UNL     1      27.046  28.484  55.039  1.00  0.00     0.013 C 
ATOM      7  C   UNL     1      25.592  30.527  54.601  1.00  0.00    -0.063 C 
ATOM      8  C   UNL     1      26.402  32.340  52.797  1.00  0.00    -0.003 C 
ATOM      9  C   UNL     1      27.674  33.014  52.199  1.00  0.00    -0.011 C 
ATOM     10  C   UNL     1      25.908  29.407  55.612  1.00  0.00    -0.006 C 
ATOM     11  C   UNL     1      24.427  31.181  54.751  1.00  0.00    -0.027 C 
ATOM     12  C   UNL     1      25.440  31.918  51.668  1.00  0.00     0.008 C 
ATOM     13  C   UNL     1      28.324  34.004  53.183  1.00  0.00     0.008 C 
ATOM     14  C   UNL     1      26.460  30.150  56.876  1.00  0.00     0.017 C 
ATOM     15  C   UNL     1      24.598  28.525  55.995  1.00  0.00    -0.020 C 
ATOM     16  C   UNL     1      23.207  30.594  55.377  1.00  0.00     0.032 C 
ATOM     17  C   UNL     1      23.395  29.468  56.445  1.00  0.00     0.006 C 
ATOM     18  C   UNL     1      24.072  27.693  54.762  1.00  0.00     0.008 C 
ATOM     19  C   UNL     1      25.019  27.520  57.138  1.00  0.00     0.012 C 
ATOM     20  C   UNL     1      21.982  28.723  56.784  1.00  0.00    -0.025 C 
ATOM     21  C   UNL     1      22.610  27.163  54.853  1.00  0.00     0.005 C 
ATOM     22  C   UNL     1      22.018  27.239  56.280  1.00  0.00     0.003 C 
ATOM     23  C   UNL     1      21.735  28.679  58.324  1.00  0.00     0.010 C 
ATOM     24  C   UNL     1      20.763  29.507  56.177  1.00  0.00     0.012 C 
ATOM     25  C   UNL     1      20.757  26.342  56.601  1.00  0.00    -0.006 C 
ATOM     26  C   UNL     1      20.497  27.848  58.733  1.00  0.00     0.033 C 
ATOM     27  C   UNL     1      20.496  26.418  58.147  1.00  0.00     0.120 C 
ATOM     28  C   UNL     1      19.488  26.712  55.780  1.00  0.00     0.014 C 
ATOM     29  C   UNL     1      21.085  24.853  56.284  1.00  0.00     0.014 C 
ENDROOT
BRANCH   1  30
ATOM     30  C   UNL     1      27.199  29.294  52.122  1.00  0.00     0.048 C 
ATOM     31  O   UNL     1      27.959  28.784  51.256  1.00  0.00    -0.550 OA
ATOM     32  O   UNL     1      25.850  28.960  52.097  1.00  0.00    -0.550 OA
ENDBRANCH   1  30
BRANCH  27  33
ATOM     33  O   UNL     1      19.284  25.779  58.468  1.00  0.00    -0.393 OA
ATOM     34  H   UNL     1      18.871  26.293  59.212  1.00  0.00     0.210 HD
ENDBRANCH  27  33
TORSDOF 2
ENDMDL
