MODEL 1
REMARK VINA RESULT:    -4.095      0.000      0.000
REMARK INTER + INTRA:          -7.322
REMARK INTER:                  -6.249
REMARK INTRA:                  -1.073
REMARK UNBOUND:                -1.073
REMARK SMILES CC(=O)CCC=C(C)CCC=C(C)CCC=C(C)C
REMARK SMILES IDX 10 1 11 2 12 3 13 4 14 5 15 6 16 7 18 8 17 9 19 10 9 11 7 12
REMARK SMILES IDX 6 13 8 14 5 15 4 16 2 17 3 18 1 19
REMARK H PARENT
REMARK Flexibility Score: inf
ROOT
ATOM      1  C   UNL     1      22.570  28.016  27.806  1.00  0.00     0.032 C 
ENDROOT
BRANCH   1   2
ATOM      2  C   UNL     1      23.476  28.708  28.797  1.00  0.00    -0.028 C 
ATOM      3  C   UNL     1      24.712  28.292  29.161  1.00  0.00    -0.077 C 
ATOM      4  C   UNL     1      25.461  29.111  30.182  1.00  0.00     0.039 C 
BRANCH   3   5
ATOM      5  C   UNL     1      25.375  27.051  28.592  1.00  0.00     0.034 C 
BRANCH   5   6
ATOM      6  C   UNL     1      26.893  27.240  28.476  1.00  0.00     0.032 C 
BRANCH   6   7
ATOM      7  C   UNL     1      27.274  27.659  27.078  1.00  0.00    -0.028 C 
ATOM      8  C   UNL     1      28.691  29.571  27.862  1.00  0.00     0.039 C 
ATOM      9  C   UNL     1      28.062  28.717  26.785  1.00  0.00    -0.080 C 
ATOM     10  C   UNL     1      28.335  29.030  25.335  1.00  0.00     0.039 C 
ENDBRANCH   6   7
ENDBRANCH   5   6
ENDBRANCH   3   5
ENDBRANCH   1   2
BRANCH   1  11
ATOM     11  C   UNL     1      21.749  26.927  28.506  1.00  0.00     0.034 C 
BRANCH  11  12
ATOM     12  C   UNL     1      21.256  25.900  27.510  1.00  0.00    -0.077 C 
ATOM     13  C   UNL     1      20.124  26.154  26.812  1.00  0.00    -0.028 C 
ATOM     14  C   UNL     1      22.049  24.631  27.306  1.00  0.00     0.039 C 
BRANCH  13  15
ATOM     15  C   UNL     1      19.499  25.203  25.824  1.00  0.00     0.035 C 
BRANCH  15  16
ATOM     16  C   UNL     1      19.046  25.949  24.565  1.00  0.00     0.079 C 
BRANCH  16  17
ATOM     17  C   UNL     1      19.050  25.027  23.375  1.00  0.00     0.130 C 
ATOM     18  O   UNL     1      18.326  24.042  23.376  1.00  0.00    -0.300 OA
ATOM     19  C   UNL     1      19.923  25.296  22.184  1.00  0.00     0.087 C 
ENDBRANCH  16  17
ENDBRANCH  15  16
ENDBRANCH  13  15
ENDBRANCH  11  12
ENDBRANCH   1  11
TORSDOF 9
ENDMDL
MODEL 2
REMARK VINA RESULT:    -3.710      1.774      2.594
REMARK INTER + INTRA:          -6.734
REMARK INTER:                  -5.645
REMARK INTRA:                  -1.089
REMARK UNBOUND:                -1.073
REMARK SMILES CC(=O)CCC=C(C)CCC=C(C)CCC=C(C)C
REMARK SMILES IDX 10 1 11 2 12 3 13 4 14 5 15 6 16 7 18 8 17 9 19 10 9 11 7 12
REMARK SMILES IDX 6 13 8 14 5 15 4 16 2 17 3 18 1 19
REMARK H PARENT
REMARK Flexibility Score: inf
ROOT
ATOM      1  C   UNL     1      22.523  27.919  27.767  1.00  0.00     0.032 C 
ENDROOT
BRANCH   1   2
ATOM      2  C   UNL     1      23.360  28.576  28.839  1.00  0.00    -0.028 C 
ATOM      3  C   UNL     1      24.675  28.343  29.067  1.00  0.00    -0.077 C 
ATOM      4  C   UNL     1      25.338  29.086  30.200  1.00  0.00     0.039 C 
BRANCH   3   5
ATOM      5  C   UNL     1      25.506  27.379  28.242  1.00  0.00     0.034 C 
BRANCH   5   6
ATOM      6  C   UNL     1      25.356  25.941  28.755  1.00  0.00     0.032 C 
BRANCH   6   7
ATOM      7  C   UNL     1      26.434  25.615  29.759  1.00  0.00    -0.028 C 
ATOM      8  C   UNL     1      27.705  24.159  28.164  1.00  0.00     0.039 C 
ATOM      9  C   UNL     1      27.483  24.798  29.515  1.00  0.00    -0.080 C 
ATOM     10  C   UNL     1      28.468  24.544  30.628  1.00  0.00     0.039 C 
ENDBRANCH   6   7
ENDBRANCH   5   6
ENDBRANCH   3   5
ENDBRANCH   1   2
BRANCH   1  11
ATOM     11  C   UNL     1      21.574  26.890  28.390  1.00  0.00     0.034 C 
BRANCH  11  12
ATOM     12  C   UNL     1      21.205  25.819  27.385  1.00  0.00    -0.077 C 
ATOM     13  C   UNL     1      20.119  26.004  26.599  1.00  0.00    -0.028 C 
ATOM     14  C   UNL     1      22.070  24.586  27.272  1.00  0.00     0.039 C 
BRANCH  13  15
ATOM     15  C   UNL     1      19.615  25.003  25.590  1.00  0.00     0.035 C 
BRANCH  15  16
ATOM     16  C   UNL     1      19.322  25.685  24.250  1.00  0.00     0.079 C 
BRANCH  16  17
ATOM     17  C   UNL     1      19.614  24.750  23.107  1.00  0.00     0.130 C 
ATOM     18  O   UNL     1      20.734  24.276  22.990  1.00  0.00    -0.300 OA
ATOM     19  C   UNL     1      18.552  24.382  22.111  1.00  0.00     0.087 C 
ENDBRANCH  16  17
ENDBRANCH  15  16
ENDBRANCH  13  15
ENDBRANCH  11  12
ENDBRANCH   1  11
TORSDOF 9
ENDMDL
MODEL 3
REMARK VINA RESULT:    -3.593      0.851      1.534
REMARK INTER + INTRA:          -6.556
REMARK INTER:                  -6.029
REMARK INTRA:                  -0.526
REMARK UNBOUND:                -1.073
REMARK SMILES CC(=O)CCC=C(C)CCC=C(C)CCC=C(C)C
REMARK SMILES IDX 10 1 11 2 12 3 13 4 14 5 15 6 16 7 18 8 17 9 19 10 9 11 7 12
REMARK SMILES IDX 6 13 8 14 5 15 4 16 2 17 3 18 1 19
REMARK H PARENT
REMARK Flexibility Score: inf
ROOT
ATOM      1  C   UNL     1      23.025  27.374  28.089  1.00  0.00     0.032 C 
ENDROOT
BRANCH   1   2
ATOM      2  C   UNL     1      24.057  26.311  28.382  1.00  0.00    -0.028 C 
ATOM      3  C   UNL     1      25.338  26.537  28.758  1.00  0.00    -0.077 C 
ATOM      4  C   UNL     1      26.227  25.341  28.991  1.00  0.00     0.039 C 
BRANCH   3   5
ATOM      5  C   UNL     1      25.917  27.926  28.955  1.00  0.00     0.034 C 
BRANCH   5   6
ATOM      6  C   UNL     1      27.400  27.966  28.567  1.00  0.00     0.032 C 
BRANCH   6   7
ATOM      7  C   UNL     1      27.603  28.777  27.310  1.00  0.00    -0.028 C 
ATOM      8  C   UNL     1      27.705  26.758  25.829  1.00  0.00     0.039 C 
ATOM      9  C   UNL     1      27.765  28.247  26.077  1.00  0.00    -0.080 C 
ATOM     10  C   UNL     1      27.986  29.185  24.917  1.00  0.00     0.039 C 
ENDBRANCH   6   7
ENDBRANCH   5   6
ENDBRANCH   3   5
ENDBRANCH   1   2
BRANCH   1  11
ATOM     11  C   UNL     1      21.619  26.852  28.405  1.00  0.00     0.034 C 
BRANCH  11  12
ATOM     12  C   UNL     1      21.189  25.815  27.390  1.00  0.00    -0.077 C 
ATOM     13  C   UNL     1      20.097  26.059  26.626  1.00  0.00    -0.028 C 
ATOM     14  C   UNL     1      21.998  24.549  27.240  1.00  0.00     0.039 C 
BRANCH  13  15
ATOM     15  C   UNL     1      19.535  25.097  25.611  1.00  0.00     0.035 C 
BRANCH  15  16
ATOM     16  C   UNL     1      18.976  25.853  24.401  1.00  0.00     0.079 C 
BRANCH  16  17
ATOM     17  C   UNL     1      19.028  24.988  23.169  1.00  0.00     0.130 C 
ATOM     18  O   UNL     1      18.249  24.053  23.058  1.00  0.00    -0.300 OA
ATOM     19  C   UNL     1      20.017  25.256  22.071  1.00  0.00     0.087 C 
ENDBRANCH  16  17
ENDBRANCH  15  16
ENDBRANCH  13  15
ENDBRANCH  11  12
ENDBRANCH   1  11
TORSDOF 9
ENDMDL
MODEL 4
REMARK VINA RESULT:    -2.935      1.365      2.442
REMARK INTER + INTRA:          -5.552
REMARK INTER:                  -4.549
REMARK INTRA:                  -1.002
REMARK UNBOUND:                -1.073
REMARK SMILES CC(=O)CCC=C(C)CCC=C(C)CCC=C(C)C
REMARK SMILES IDX 10 1 11 2 12 3 13 4 14 5 15 6 16 7 18 8 17 9 19 10 9 11 7 12
REMARK SMILES IDX 6 13 8 14 5 15 4 16 2 17 3 18 1 19
REMARK H PARENT
REMARK Flexibility Score: inf
ROOT
ATOM      1  C   UNL     1      24.676  26.440  28.352  1.00  0.00     0.032 C 
ENDROOT
BRANCH   1   2
ATOM      2  C   UNL     1      26.002  25.776  28.642  1.00  0.00    -0.028 C 
ATOM      3  C   UNL     1      27.168  26.418  28.892  1.00  0.00    -0.077 C 
ATOM      4  C   UNL     1      28.396  25.579  29.143  1.00  0.00     0.039 C 
BRANCH   3   5
ATOM      5  C   UNL     1      27.296  27.929  28.932  1.00  0.00     0.034 C 
BRANCH   5   6
ATOM      6  C   UNL     1      28.547  28.398  28.180  1.00  0.00     0.032 C 
BRANCH   6   7
ATOM      7  C   UNL     1      28.169  29.174  26.942  1.00  0.00    -0.028 C 
ATOM      8  C   UNL     1      28.025  27.126  25.504  1.00  0.00     0.039 C 
ATOM      9  C   UNL     1      27.954  28.619  25.728  1.00  0.00    -0.080 C 
ATOM     10  C   UNL     1      27.608  29.528  24.575  1.00  0.00     0.039 C 
ENDBRANCH   6   7
ENDBRANCH   5   6
ENDBRANCH   3   5
ENDBRANCH   1   2
BRANCH   1  11
ATOM     11  C   UNL     1      23.565  25.388  28.259  1.00  0.00     0.034 C 
BRANCH  11  12
ATOM     12  C   UNL     1      22.268  26.015  27.796  1.00  0.00    -0.077 C 
ATOM     13  C   UNL     1      21.368  25.248  27.136  1.00  0.00    -0.028 C 
ATOM     14  C   UNL     1      22.002  27.470  28.100  1.00  0.00     0.039 C 
BRANCH  13  15
ATOM     15  C   UNL     1      20.059  25.752  26.583  1.00  0.00     0.035 C 
BRANCH  15  16
ATOM     16  C   UNL     1      19.554  24.835  25.465  1.00  0.00     0.079 C 
BRANCH  16  17
ATOM     17  C   UNL     1      19.138  25.646  24.266  1.00  0.00     0.130 C 
ATOM     18  O   UNL     1      18.836  26.821  24.411  1.00  0.00    -0.300 OA
ATOM     19  C   UNL     1      19.093  25.039  22.893  1.00  0.00     0.087 C 
ENDBRANCH  16  17
ENDBRANCH  15  16
ENDBRANCH  13  15
ENDBRANCH  11  12
ENDBRANCH   1  11
TORSDOF 9
ENDMDL
MODEL 5
REMARK VINA RESULT:    -2.868      4.342      7.035
REMARK INTER + INTRA:          -5.449
REMARK INTER:                  -3.710
REMARK INTRA:                  -1.739
REMARK UNBOUND:                -1.073
REMARK SMILES CC(=O)CCC=C(C)CCC=C(C)CCC=C(C)C
REMARK SMILES IDX 10 1 11 2 12 3 13 4 14 5 15 6 16 7 18 8 17 9 19 10 9 11 7 12
REMARK SMILES IDX 6 13 8 14 5 15 4 16 2 17 3 18 1 19
REMARK H PARENT
REMARK Flexibility Score: inf
ROOT
ATOM      1  C   UNL     1      25.951  23.963  27.688  1.00  0.00     0.032 C 
ENDROOT
BRANCH   1   2
ATOM      2  C   UNL     1      24.677  24.751  27.885  1.00  0.00    -0.028 C 
ATOM      3  C   UNL     1      24.602  26.066  28.200  1.00  0.00    -0.077 C 
ATOM      4  C   UNL     1      23.234  26.675  28.372  1.00  0.00     0.039 C 
BRANCH   3   5
ATOM      5  C   UNL     1      25.823  26.949  28.385  1.00  0.00     0.034 C 
BRANCH   5   6
ATOM      6  C   UNL     1      26.277  26.961  29.850  1.00  0.00     0.032 C 
BRANCH   6   7
ATOM      7  C   UNL     1      26.872  25.630  30.238  1.00  0.00    -0.028 C 
ATOM      8  C   UNL     1      29.121  26.170  29.274  1.00  0.00     0.039 C 
ATOM      9  C   UNL     1      28.141  25.251  29.965  1.00  0.00    -0.080 C 
ATOM     10  C   UNL     1      28.586  23.875  30.393  1.00  0.00     0.039 C 
ENDBRANCH   6   7
ENDBRANCH   5   6
ENDBRANCH   3   5
ENDBRANCH   1   2
BRANCH   1  11
ATOM     11  C   UNL     1      26.409  24.050  26.229  1.00  0.00     0.034 C 
BRANCH  11  12
ATOM     12  C   UNL     1      27.701  24.830  26.116  1.00  0.00    -0.077 C 
ATOM     13  C   UNL     1      27.648  26.140  25.777  1.00  0.00    -0.028 C 
ATOM     14  C   UNL     1      29.010  24.134  26.404  1.00  0.00     0.039 C 
BRANCH  13  15
ATOM     15  C   UNL     1      28.857  27.022  25.587  1.00  0.00     0.035 C 
BRANCH  15  16
ATOM     16  C   UNL     1      28.449  28.386  25.023  1.00  0.00     0.079 C 
BRANCH  16  17
ATOM     17  C   UNL     1      28.646  29.464  26.055  1.00  0.00     0.130 C 
ATOM     18  O   UNL     1      28.696  30.633  25.700  1.00  0.00    -0.300 OA
ATOM     19  C   UNL     1      28.778  29.132  27.513  1.00  0.00     0.087 C 
ENDBRANCH  16  17
ENDBRANCH  15  16
ENDBRANCH  13  15
ENDBRANCH  11  12
ENDBRANCH   1  11
TORSDOF 9
ENDMDL
MODEL 6
REMARK VINA RESULT:    -2.821      2.852      6.614
REMARK INTER + INTRA:          -5.377
REMARK INTER:                  -3.529
REMARK INTRA:                  -1.848
REMARK UNBOUND:                -1.073
REMARK SMILES CC(=O)CCC=C(C)CCC=C(C)CCC=C(C)C
REMARK SMILES IDX 10 1 11 2 12 3 13 4 14 5 15 6 16 7 18 8 17 9 19 10 9 11 7 12
REMARK SMILES IDX 6 13 8 14 5 15 4 16 2 17 3 18 1 19
REMARK H PARENT
REMARK Flexibility Score: inf
ROOT
ATOM      1  C   UNL     1      23.319  24.054  27.726  1.00  0.00     0.032 C 
ENDROOT
BRANCH   1   2
ATOM      2  C   UNL     1      22.088  24.425  26.934  1.00  0.00    -0.028 C 
ATOM      3  C   UNL     1      21.242  25.444  27.220  1.00  0.00    -0.077 C 
ATOM      4  C   UNL     1      20.052  25.648  26.318  1.00  0.00     0.039 C 
BRANCH   3   5
ATOM      5  C   UNL     1      21.435  26.382  28.397  1.00  0.00     0.034 C 
BRANCH   5   6
ATOM      6  C   UNL     1      22.227  27.629  27.984  1.00  0.00     0.032 C 
BRANCH   6   7
ATOM      7  C   UNL     1      23.693  27.462  28.299  1.00  0.00    -0.028 C 
ATOM      8  C   UNL     1      23.825  29.599  29.601  1.00  0.00     0.039 C 
ATOM      9  C   UNL     1      24.429  28.349  29.003  1.00  0.00    -0.080 C 
ATOM     10  C   UNL     1      25.894  28.058  29.215  1.00  0.00     0.039 C 
ENDBRANCH   6   7
ENDBRANCH   5   6
ENDBRANCH   3   5
ENDBRANCH   1   2
BRANCH   1  11
ATOM     11  C   UNL     1      24.519  23.875  26.790  1.00  0.00     0.034 C 
BRANCH  11  12
ATOM     12  C   UNL     1      25.761  24.511  27.377  1.00  0.00    -0.077 C 
ATOM     13  C   UNL     1      26.574  25.230  26.568  1.00  0.00    -0.028 C 
ATOM     14  C   UNL     1      26.047  24.347  28.851  1.00  0.00     0.039 C 
BRANCH  13  15
ATOM     15  C   UNL     1      27.861  25.879  27.010  1.00  0.00     0.035 C 
BRANCH  15  16
ATOM     16  C   UNL     1      28.464  26.715  25.877  1.00  0.00     0.079 C 
BRANCH  16  17
ATOM     17  C   UNL     1      28.166  28.177  26.085  1.00  0.00     0.130 C 
ATOM     18  O   UNL     1      27.349  28.731  25.365  1.00  0.00    -0.300 OA
ATOM     19  C   UNL     1      28.850  28.965  27.165  1.00  0.00     0.087 C 
ENDBRANCH  16  17
ENDBRANCH  15  16
ENDBRANCH  13  15
ENDBRANCH  11  12
ENDBRANCH   1  11
TORSDOF 9
ENDMDL
MODEL 7
REMARK VINA RESULT:    -2.767      3.226      7.812
REMARK INTER + INTRA:          -5.296
REMARK INTER:                  -4.360
REMARK INTRA:                  -0.935
REMARK UNBOUND:                -1.073
REMARK SMILES CC(=O)CCC=C(C)CCC=C(C)CCC=C(C)C
REMARK SMILES IDX 10 1 11 2 12 3 13 4 14 5 15 6 16 7 18 8 17 9 19 10 9 11 7 12
REMARK SMILES IDX 6 13 8 14 5 15 4 16 2 17 3 18 1 19
REMARK H PARENT
REMARK Flexibility Score: inf
ROOT
ATOM      1  C   UNL     1      25.322  25.422  28.580  1.00  0.00     0.032 C 
ENDROOT
BRANCH   1   2
ATOM      2  C   UNL     1      24.487  26.673  28.443  1.00  0.00    -0.028 C 
ATOM      3  C   UNL     1      23.156  26.711  28.192  1.00  0.00    -0.077 C 
ATOM      4  C   UNL     1      22.498  28.063  28.073  1.00  0.00     0.039 C 
BRANCH   3   5
ATOM      5  C   UNL     1      22.303  25.467  28.030  1.00  0.00     0.034 C 
BRANCH   5   6
ATOM      6  C   UNL     1      20.946  25.807  27.399  1.00  0.00     0.032 C 
BRANCH   6   7
ATOM      7  C   UNL     1      20.743  25.035  26.119  1.00  0.00    -0.028 C 
ATOM      8  C   UNL     1      18.468  26.002  25.706  1.00  0.00     0.039 C 
ATOM      9  C   UNL     1      19.626  25.094  25.360  1.00  0.00    -0.080 C 
ATOM     10  C   UNL     1      19.557  24.242  24.117  1.00  0.00     0.039 C 
ENDBRANCH   6   7
ENDBRANCH   5   6
ENDBRANCH   3   5
ENDBRANCH   1   2
BRANCH   1  11
ATOM     11  C   UNL     1      26.019  25.101  27.254  1.00  0.00     0.034 C 
BRANCH  11  12
ATOM     12  C   UNL     1      27.425  25.660  27.235  1.00  0.00    -0.077 C 
ATOM     13  C   UNL     1      27.654  26.837  26.605  1.00  0.00    -0.028 C 
ATOM     14  C   UNL     1      28.529  24.904  27.936  1.00  0.00     0.039 C 
BRANCH  13  15
ATOM     15  C   UNL     1      29.009  27.485  26.474  1.00  0.00     0.035 C 
BRANCH  15  16
ATOM     16  C   UNL     1      29.123  28.237  25.144  1.00  0.00     0.079 C 
BRANCH  16  17
ATOM     17  C   UNL     1      28.374  29.541  25.210  1.00  0.00     0.130 C 
ATOM     18  O   UNL     1      28.680  30.368  26.058  1.00  0.00    -0.300 OA
ATOM     19  C   UNL     1      27.261  29.849  24.251  1.00  0.00     0.087 C 
ENDBRANCH  16  17
ENDBRANCH  15  16
ENDBRANCH  13  15
ENDBRANCH  11  12
ENDBRANCH   1  11
TORSDOF 9
ENDMDL
MODEL 8
REMARK VINA RESULT:    -2.634      2.637      7.605
REMARK INTER + INTRA:          -5.093
REMARK INTER:                  -4.455
REMARK INTRA:                  -0.637
REMARK UNBOUND:                -1.073
REMARK SMILES CC(=O)CCC=C(C)CCC=C(C)CCC=C(C)C
REMARK SMILES IDX 10 1 11 2 12 3 13 4 14 5 15 6 16 7 18 8 17 9 19 10 9 11 7 12
REMARK SMILES IDX 6 13 8 14 5 15 4 16 2 17 3 18 1 19
REMARK H PARENT
REMARK Flexibility Score: inf
ROOT
ATOM      1  C   UNL     1      21.994  27.616  28.458  1.00  0.00     0.032 C 
ENDROOT
BRANCH   1   2
ATOM      2  C   UNL     1      22.260  26.200  28.004  1.00  0.00    -0.028 C 
ATOM      3  C   UNL     1      21.447  25.459  27.214  1.00  0.00    -0.077 C 
ATOM      4  C   UNL     1      21.876  24.052  26.881  1.00  0.00     0.039 C 
BRANCH   3   5
ATOM      5  C   UNL     1      20.136  25.974  26.651  1.00  0.00     0.034 C 
BRANCH   5   6
ATOM      6  C   UNL     1      19.475  24.928  25.744  1.00  0.00     0.032 C 
BRANCH   6   7
ATOM      7  C   UNL     1      19.288  25.471  24.349  1.00  0.00    -0.028 C 
ATOM      8  C   UNL     1      20.931  23.875  23.332  1.00  0.00     0.039 C 
ATOM      9  C   UNL     1      19.952  25.024  23.259  1.00  0.00    -0.080 C 
ATOM     10  C   UNL     1      19.678  25.684  21.931  1.00  0.00     0.039 C 
ENDBRANCH   6   7
ENDBRANCH   5   6
ENDBRANCH   3   5
ENDBRANCH   1   2
BRANCH   1  11
ATOM     11  C   UNL     1      23.191  28.514  28.125  1.00  0.00     0.034 C 
BRANCH  11  12
ATOM     12  C   UNL     1      24.451  27.999  28.787  1.00  0.00    -0.077 C 
ATOM     13  C   UNL     1      24.967  26.814  28.383  1.00  0.00    -0.028 C 
ATOM     14  C   UNL     1      25.111  28.829  29.862  1.00  0.00     0.039 C 
BRANCH  13  15
ATOM     15  C   UNL     1      26.188  26.165  28.983  1.00  0.00     0.035 C 
BRANCH  15  16
ATOM     16  C   UNL     1      27.193  25.785  27.891  1.00  0.00     0.079 C 
BRANCH  16  17
ATOM     17  C   UNL     1      27.872  27.014  27.348  1.00  0.00     0.130 C 
ATOM     18  O   UNL     1      27.991  27.150  26.139  1.00  0.00    -0.300 OA
ATOM     19  C   UNL     1      28.401  28.080  28.264  1.00  0.00     0.087 C 
ENDBRANCH  16  17
ENDBRANCH  15  16
ENDBRANCH  13  15
ENDBRANCH  11  12
ENDBRANCH   1  11
TORSDOF 9
ENDMDL
MODEL 9
REMARK VINA RESULT:    -2.341      2.940      6.623
REMARK INTER + INTRA:          -4.645
REMARK INTER:                  -2.732
REMARK INTRA:                  -1.912
REMARK UNBOUND:                -1.073
REMARK SMILES CC(=O)CCC=C(C)CCC=C(C)CCC=C(C)C
REMARK SMILES IDX 10 1 11 2 12 3 13 4 14 5 15 6 16 7 18 8 17 9 19 10 9 11 7 12
REMARK SMILES IDX 6 13 8 14 5 15 4 16 2 17 3 18 1 19
REMARK H PARENT
REMARK Flexibility Score: inf
ROOT
ATOM      1  C   UNL     1      22.068  26.795  28.381  1.00  0.00     0.032 C 
ENDROOT
BRANCH   1   2
ATOM      2  C   UNL     1      21.145  26.338  27.276  1.00  0.00    -0.028 C 
ATOM      3  C   UNL     1      21.094  25.088  26.756  1.00  0.00    -0.077 C 
ATOM      4  C   UNL     1      20.114  24.826  25.640  1.00  0.00     0.039 C 
BRANCH   3   5
ATOM      5  C   UNL     1      21.968  23.947  27.242  1.00  0.00     0.034 C 
BRANCH   5   6
ATOM      6  C   UNL     1      23.332  23.960  26.542  1.00  0.00     0.032 C 
BRANCH   6   7
ATOM      7  C   UNL     1      24.452  23.887  27.550  1.00  0.00    -0.028 C 
ATOM      8  C   UNL     1      26.240  24.261  25.834  1.00  0.00     0.039 C 
ATOM      9  C   UNL     1      25.764  23.997  27.243  1.00  0.00    -0.080 C 
ATOM     10  C   UNL     1      26.774  23.876  28.358  1.00  0.00     0.039 C 
ENDBRANCH   6   7
ENDBRANCH   5   6
ENDBRANCH   3   5
ENDBRANCH   1   2
BRANCH   1  11
ATOM     11  C   UNL     1      22.736  28.120  28.001  1.00  0.00     0.034 C 
BRANCH  11  12
ATOM     12  C   UNL     1      24.053  28.288  28.729  1.00  0.00    -0.077 C 
ATOM     13  C   UNL     1      25.091  27.483  28.400  1.00  0.00    -0.028 C 
ATOM     14  C   UNL     1      24.180  29.360  29.785  1.00  0.00     0.039 C 
BRANCH  13  15
ATOM     15  C   UNL     1      26.440  27.513  29.071  1.00  0.00     0.035 C 
BRANCH  15  16
ATOM     16  C   UNL     1      27.412  28.409  28.296  1.00  0.00     0.079 C 
BRANCH  16  17
ATOM     17  C   UNL     1      27.878  27.719  27.042  1.00  0.00     0.130 C 
ATOM     18  O   UNL     1      27.462  28.100  25.957  1.00  0.00    -0.300 OA
ATOM     19  C   UNL     1      28.849  26.575  27.097  1.00  0.00     0.087 C 
ENDBRANCH  16  17
ENDBRANCH  15  16
ENDBRANCH  13  15
ENDBRANCH  11  12
ENDBRANCH   1  11
TORSDOF 9
ENDMDL
