MODEL 1
REMARK VINA RESULT:    -6.036      0.000      0.000
REMARK INTER + INTRA:          -8.999
REMARK INTER:                  -8.153
REMARK INTRA:                  -0.846
REMARK UNBOUND:                -0.846
REMARK SMILES CC(=O)CCC=C(C)CCC=C(C)C
REMARK SMILES IDX 7 1 6 2 8 3 9 4 10 5 11 6 13 7 12 8 14 9 5 10 4 11 2 12 3 13
REMARK SMILES IDX 1 14
REMARK H PARENT
REMARK Flexibility Score: inf
ROOT
ATOM      1  C   UNL     1     -10.345  74.595  31.739  1.00  0.00    -0.077 C 
ATOM      2  C   UNL     1     -10.461  73.339  32.229  1.00  0.00    -0.028 C 
ATOM      3  C   UNL     1     -11.175  75.739  32.272  1.00  0.00     0.039 C 
ENDROOT
BRANCH   1   4
ATOM      4  C   UNL     1      -9.370  74.856  30.612  1.00  0.00     0.034 C 
BRANCH   4   5
ATOM      5  C   UNL     1      -9.554  73.836  29.484  1.00  0.00     0.032 C 
BRANCH   5   6
ATOM      6  C   UNL     1     -10.785  74.153  28.672  1.00  0.00    -0.028 C 
ATOM      7  C   UNL     1     -11.938  72.016  29.285  1.00  0.00     0.039 C 
ATOM      8  C   UNL     1     -11.874  73.357  28.592  1.00  0.00    -0.080 C 
ATOM      9  C   UNL     1     -13.048  73.825  27.771  1.00  0.00     0.039 C 
ENDBRANCH   5   6
ENDBRANCH   4   5
ENDBRANCH   1   4
BRANCH   2  10
ATOM     10  C   UNL     1     -11.365  72.949  33.372  1.00  0.00     0.035 C 
BRANCH  10  11
ATOM     11  C   UNL     1     -10.595  72.141  34.421  1.00  0.00     0.079 C 
BRANCH  11  12
ATOM     12  C   UNL     1     -11.124  72.419  35.801  1.00  0.00     0.130 C 
ATOM     13  O   UNL     1     -11.953  73.302  35.966  1.00  0.00    -0.300 OA
ATOM     14  C   UNL     1     -10.656  71.608  36.971  1.00  0.00     0.087 C 
ENDBRANCH  11  12
ENDBRANCH  10  11
ENDBRANCH   2  10
TORSDOF 6
ENDMDL
MODEL 2
REMARK VINA RESULT:    -5.991      1.783      2.341
REMARK INTER + INTRA:          -8.938
REMARK INTER:                  -8.439
REMARK INTRA:                  -0.499
REMARK UNBOUND:                -0.846
REMARK SMILES CC(=O)CCC=C(C)CCC=C(C)C
REMARK SMILES IDX 7 1 6 2 8 3 9 4 10 5 11 6 13 7 12 8 14 9 5 10 4 11 2 12 3 13
REMARK SMILES IDX 1 14
REMARK H PARENT
REMARK Flexibility Score: inf
ROOT
ATOM      1  C   UNL     1     -11.215  74.018  31.258  1.00  0.00    -0.077 C 
ATOM      2  C   UNL     1     -11.610  72.942  31.978  1.00  0.00    -0.028 C 
ATOM      3  C   UNL     1     -10.787  75.307  31.919  1.00  0.00     0.039 C 
ENDROOT
BRANCH   1   4
ATOM      4  C   UNL     1     -11.222  73.933  29.747  1.00  0.00     0.034 C 
BRANCH   4   5
ATOM      5  C   UNL     1      -9.952  74.559  29.161  1.00  0.00     0.032 C 
BRANCH   5   6
ATOM      6  C   UNL     1      -9.425  73.728  28.018  1.00  0.00    -0.028 C 
ATOM      7  C   UNL     1     -10.548  75.127  26.271  1.00  0.00     0.039 C 
ATOM      8  C   UNL     1      -9.663  73.985  26.714  1.00  0.00    -0.080 C 
ATOM      9  C   UNL     1      -9.035  73.089  25.677  1.00  0.00     0.039 C 
ENDBRANCH   5   6
ENDBRANCH   4   5
ENDBRANCH   1   4
BRANCH   2  10
ATOM     10  C   UNL     1     -11.616  72.879  33.485  1.00  0.00     0.035 C 
BRANCH  10  11
ATOM     11  C   UNL     1     -10.470  72.001  33.997  1.00  0.00     0.079 C 
BRANCH  11  12
ATOM     12  C   UNL     1     -10.227  72.242  35.461  1.00  0.00     0.130 C 
ATOM     13  O   UNL     1      -9.593  71.424  36.113  1.00  0.00    -0.300 OA
ATOM     14  C   UNL     1     -10.738  73.486  36.122  1.00  0.00     0.087 C 
ENDBRANCH  11  12
ENDBRANCH  10  11
ENDBRANCH   2  10
TORSDOF 6
ENDMDL
MODEL 3
REMARK VINA RESULT:    -5.989      4.070      7.246
REMARK INTER + INTRA:          -8.935
REMARK INTER:                  -7.959
REMARK INTRA:                  -0.976
REMARK UNBOUND:                -0.846
REMARK SMILES CC(=O)CCC=C(C)CCC=C(C)C
REMARK SMILES IDX 7 1 6 2 8 3 9 4 10 5 11 6 13 7 12 8 14 9 5 10 4 11 2 12 3 13
REMARK SMILES IDX 1 14
REMARK H PARENT
REMARK Flexibility Score: inf
ROOT
ATOM      1  C   UNL     1     -11.271  73.047  28.431  1.00  0.00    -0.077 C 
ATOM      2  C   UNL     1      -9.976  73.117  28.046  1.00  0.00    -0.028 C 
ATOM      3  C   UNL     1     -12.345  73.884  27.777  1.00  0.00     0.039 C 
ENDROOT
BRANCH   1   4
ATOM      4  C   UNL     1     -11.650  72.117  29.564  1.00  0.00     0.034 C 
BRANCH   4   5
ATOM      5  C   UNL     1     -10.782  72.380  30.798  1.00  0.00     0.032 C 
BRANCH   5   6
ATOM      6  C   UNL     1     -11.249  73.613  31.529  1.00  0.00    -0.028 C 
ATOM      7  C   UNL     1      -9.221  74.946  30.912  1.00  0.00     0.039 C 
ATOM      8  C   UNL     1     -10.572  74.781  31.569  1.00  0.00    -0.080 C 
ATOM      9  C   UNL     1     -11.184  75.943  32.308  1.00  0.00     0.039 C 
ENDBRANCH   5   6
ENDBRANCH   4   5
ENDBRANCH   1   4
BRANCH   2  10
ATOM     10  C   UNL     1      -9.469  73.972  26.911  1.00  0.00     0.035 C 
BRANCH  10  11
ATOM     11  C   UNL     1      -9.097  73.105  25.703  1.00  0.00     0.079 C 
BRANCH  11  12
ATOM     12  C   UNL     1      -9.630  73.706  24.432  1.00  0.00     0.130 C 
ATOM     13  O   UNL     1      -9.010  74.603  23.878  1.00  0.00    -0.300 OA
ATOM     14  C   UNL     1     -10.904  73.200  23.828  1.00  0.00     0.087 C 
ENDBRANCH  11  12
ENDBRANCH  10  11
ENDBRANCH   2  10
TORSDOF 6
ENDMDL
MODEL 4
REMARK VINA RESULT:    -5.987      2.924      6.538
REMARK INTER + INTRA:          -8.933
REMARK INTER:                  -8.214
REMARK INTRA:                  -0.719
REMARK UNBOUND:                -0.846
REMARK SMILES CC(=O)CCC=C(C)CCC=C(C)C
REMARK SMILES IDX 7 1 6 2 8 3 9 4 10 5 11 6 13 7 12 8 14 9 5 10 4 11 2 12 3 13
REMARK SMILES IDX 1 14
REMARK H PARENT
REMARK Flexibility Score: inf
ROOT
ATOM      1  C   UNL     1     -10.690  74.225  31.196  1.00  0.00    -0.077 C 
ATOM      2  C   UNL     1     -11.315  73.344  30.382  1.00  0.00    -0.028 C 
ATOM      3  C   UNL     1      -9.428  74.943  30.776  1.00  0.00     0.039 C 
ENDROOT
BRANCH   1   4
ATOM      4  C   UNL     1     -11.260  74.485  32.573  1.00  0.00     0.034 C 
BRANCH   4   5
ATOM      5  C   UNL     1     -11.867  73.207  33.160  1.00  0.00     0.032 C 
BRANCH   5   6
ATOM      6  C   UNL     1     -10.819  72.399  33.885  1.00  0.00    -0.028 C 
ATOM      7  C   UNL     1     -11.615  73.101  36.153  1.00  0.00     0.039 C 
ATOM      8  C   UNL     1     -10.709  72.322  35.229  1.00  0.00    -0.080 C 
ATOM      9  C   UNL     1      -9.634  71.440  35.812  1.00  0.00     0.039 C 
ENDBRANCH   5   6
ENDBRANCH   4   5
ENDBRANCH   1   4
BRANCH   2  10
ATOM     10  C   UNL     1     -10.875  73.021  28.975  1.00  0.00     0.035 C 
BRANCH  10  11
ATOM     11  C   UNL     1     -11.555  73.953  27.967  1.00  0.00     0.079 C 
BRANCH  11  12
ATOM     12  C   UNL     1     -10.542  74.561  27.037  1.00  0.00     0.130 C 
ATOM     13  O   UNL     1     -10.866  75.490  26.311  1.00  0.00    -0.300 OA
ATOM     14  C   UNL     1      -9.133  74.051  27.009  1.00  0.00     0.087 C 
ENDBRANCH  11  12
ENDBRANCH  10  11
ENDBRANCH   2  10
TORSDOF 6
ENDMDL
MODEL 5
REMARK VINA RESULT:    -5.868      5.912      9.329
REMARK INTER + INTRA:          -8.772
REMARK INTER:                  -8.031
REMARK INTRA:                  -0.741
REMARK UNBOUND:                -0.846
REMARK SMILES CC(=O)CCC=C(C)CCC=C(C)C
REMARK SMILES IDX 7 1 6 2 8 3 9 4 10 5 11 6 13 7 12 8 14 9 5 10 4 11 2 12 3 13
REMARK SMILES IDX 1 14
REMARK H PARENT
REMARK Flexibility Score: inf
ROOT
ATOM      1  C   UNL     1      -9.239  72.998  25.063  1.00  0.00    -0.077 C 
ATOM      2  C   UNL     1     -10.320  73.492  24.417  1.00  0.00    -0.028 C 
ATOM      3  C   UNL     1      -8.173  72.205  24.343  1.00  0.00     0.039 C 
ENDROOT
BRANCH   1   4
ATOM      4  C   UNL     1      -9.105  73.229  26.552  1.00  0.00     0.034 C 
BRANCH   4   5
ATOM      5  C   UNL     1      -9.777  74.543  26.962  1.00  0.00     0.032 C 
BRANCH   5   6
ATOM      6  C   UNL     1     -10.039  74.569  28.447  1.00  0.00    -0.028 C 
ATOM      7  C   UNL     1     -12.330  73.583  28.224  1.00  0.00     0.039 C 
ATOM      8  C   UNL     1     -11.170  74.119  29.031  1.00  0.00    -0.080 C 
ATOM      9  C   UNL     1     -11.275  74.172  30.534  1.00  0.00     0.039 C 
ENDBRANCH   5   6
ENDBRANCH   4   5
ENDBRANCH   1   4
BRANCH   2  10
ATOM     10  C   UNL     1     -10.558  73.366  22.932  1.00  0.00     0.035 C 
BRANCH  10  11
ATOM     11  C   UNL     1     -10.284  74.697  22.224  1.00  0.00     0.079 C 
BRANCH  11  12
ATOM     12  C   UNL     1      -8.937  74.678  21.557  1.00  0.00     0.130 C 
ATOM     13  O   UNL     1      -7.929  74.873  22.220  1.00  0.00    -0.300 OA
ATOM     14  C   UNL     1      -8.820  74.402  20.089  1.00  0.00     0.087 C 
ENDBRANCH  11  12
ENDBRANCH  10  11
ENDBRANCH   2  10
TORSDOF 6
ENDMDL
MODEL 6
REMARK VINA RESULT:    -5.861      2.978      6.889
REMARK INTER + INTRA:          -8.762
REMARK INTER:                  -8.322
REMARK INTRA:                  -0.440
REMARK UNBOUND:                -0.846
REMARK SMILES CC(=O)CCC=C(C)CCC=C(C)C
REMARK SMILES IDX 7 1 6 2 8 3 9 4 10 5 11 6 13 7 12 8 14 9 5 10 4 11 2 12 3 13
REMARK SMILES IDX 1 14
REMARK H PARENT
REMARK Flexibility Score: inf
ROOT
ATOM      1  C   UNL     1     -11.311  73.653  31.527  1.00  0.00    -0.077 C 
ATOM      2  C   UNL     1     -11.390  73.283  30.228  1.00  0.00    -0.028 C 
ATOM      3  C   UNL     1     -10.828  75.024  31.938  1.00  0.00     0.039 C 
ENDROOT
BRANCH   1   4
ATOM      4  C   UNL     1     -11.698  72.657  32.599  1.00  0.00     0.034 C 
BRANCH   4   5
ATOM      5  C   UNL     1     -10.684  72.671  33.747  1.00  0.00     0.032 C 
BRANCH   5   6
ATOM      6  C   UNL     1     -11.370  72.933  35.064  1.00  0.00    -0.028 C 
ATOM      7  C   UNL     1      -9.860  71.397  36.341  1.00  0.00     0.039 C 
ATOM      8  C   UNL     1     -10.996  72.388  36.242  1.00  0.00    -0.080 C 
ATOM      9  C   UNL     1     -11.753  72.775  37.486  1.00  0.00     0.039 C 
ENDBRANCH   5   6
ENDBRANCH   4   5
ENDBRANCH   1   4
BRANCH   2  10
ATOM     10  C   UNL     1     -11.071  74.187  29.062  1.00  0.00     0.035 C 
BRANCH  10  11
ATOM     11  C   UNL     1      -9.672  73.889  28.513  1.00  0.00     0.079 C 
BRANCH  11  12
ATOM     12  C   UNL     1      -9.649  74.015  27.015  1.00  0.00     0.130 C 
ATOM     13  O   UNL     1      -8.927  73.282  26.355  1.00  0.00    -0.300 OA
ATOM     14  C   UNL     1     -10.520  75.020  26.324  1.00  0.00     0.087 C 
ENDBRANCH  11  12
ENDBRANCH  10  11
ENDBRANCH   2  10
TORSDOF 6
ENDMDL
MODEL 7
REMARK VINA RESULT:    -5.843      2.462      3.861
REMARK INTER + INTRA:          -8.738
REMARK INTER:                  -8.016
REMARK INTRA:                  -0.722
REMARK UNBOUND:                -0.846
REMARK SMILES CC(=O)CCC=C(C)CCC=C(C)C
REMARK SMILES IDX 7 1 6 2 8 3 9 4 10 5 11 6 13 7 12 8 14 9 5 10 4 11 2 12 3 13
REMARK SMILES IDX 1 14
REMARK H PARENT
REMARK Flexibility Score: inf
ROOT
ATOM      1  C   UNL     1     -11.394  73.499  28.964  1.00  0.00    -0.077 C 
ATOM      2  C   UNL     1     -10.625  74.313  29.722  1.00  0.00    -0.028 C 
ATOM      3  C   UNL     1     -11.753  72.100  29.407  1.00  0.00     0.039 C 
ENDROOT
BRANCH   1   4
ATOM      4  C   UNL     1     -11.891  73.997  27.624  1.00  0.00     0.034 C 
BRANCH   4   5
ATOM      5  C   UNL     1     -10.757  74.655  26.833  1.00  0.00     0.032 C 
BRANCH   5   6
ATOM      6  C   UNL     1      -9.787  73.618  26.323  1.00  0.00    -0.028 C 
ATOM      7  C   UNL     1      -9.993  74.360  23.941  1.00  0.00     0.039 C 
ATOM      8  C   UNL     1      -9.415  73.490  25.032  1.00  0.00    -0.080 C 
ATOM      9  C   UNL     1      -8.403  72.430  24.677  1.00  0.00     0.039 C 
ENDBRANCH   5   6
ENDBRANCH   4   5
ENDBRANCH   1   4
BRANCH   2  10
ATOM     10  C   UNL     1     -10.095  73.958  31.089  1.00  0.00     0.035 C 
BRANCH  10  11
ATOM     11  C   UNL     1     -11.024  74.487  32.186  1.00  0.00     0.079 C 
BRANCH  11  12
ATOM     12  C   UNL     1     -11.518  73.364  33.055  1.00  0.00     0.130 C 
ATOM     13  O   UNL     1     -12.491  73.536  33.775  1.00  0.00    -0.300 OA
ATOM     14  C   UNL     1     -10.839  72.028  33.028  1.00  0.00     0.087 C 
ENDBRANCH  11  12
ENDBRANCH  10  11
ENDBRANCH   2  10
TORSDOF 6
ENDMDL
MODEL 8
REMARK VINA RESULT:    -5.822      4.655      8.118
REMARK INTER + INTRA:          -8.710
REMARK INTER:                  -8.024
REMARK INTRA:                  -0.687
REMARK UNBOUND:                -0.846
REMARK SMILES CC(=O)CCC=C(C)CCC=C(C)C
REMARK SMILES IDX 7 1 6 2 8 3 9 4 10 5 11 6 13 7 12 8 14 9 5 10 4 11 2 12 3 13
REMARK SMILES IDX 1 14
REMARK H PARENT
REMARK Flexibility Score: inf
ROOT
ATOM      1  C   UNL     1     -10.921  74.199  27.402  1.00  0.00    -0.077 C 
ATOM      2  C   UNL     1     -11.134  74.195  26.067  1.00  0.00    -0.028 C 
ATOM      3  C   UNL     1      -9.585  74.582  27.996  1.00  0.00     0.039 C 
ENDROOT
BRANCH   1   4
ATOM      4  C   UNL     1     -12.046  73.790  28.327  1.00  0.00     0.034 C 
BRANCH   4   5
ATOM      5  C   UNL     1     -11.829  72.368  28.853  1.00  0.00     0.032 C 
BRANCH   5   6
ATOM      6  C   UNL     1     -11.740  72.361  30.359  1.00  0.00    -0.028 C 
ATOM      7  C   UNL     1      -9.266  71.974  30.373  1.00  0.00     0.039 C 
ATOM      8  C   UNL     1     -10.593  72.211  31.055  1.00  0.00    -0.080 C 
ATOM      9  C   UNL     1     -10.653  72.266  32.561  1.00  0.00     0.039 C 
ENDBRANCH   5   6
ENDBRANCH   4   5
ENDBRANCH   1   4
BRANCH   2  10
ATOM     10  C   UNL     1     -10.113  74.614  25.038  1.00  0.00     0.035 C 
BRANCH  10  11
ATOM     11  C   UNL     1      -9.824  73.468  24.063  1.00  0.00     0.079 C 
BRANCH  11  12
ATOM     12  C   UNL     1     -10.733  73.542  22.868  1.00  0.00     0.130 C 
ATOM     13  O   UNL     1     -11.716  72.817  22.808  1.00  0.00    -0.300 OA
ATOM     14  C   UNL     1     -10.455  74.512  21.760  1.00  0.00     0.087 C 
ENDBRANCH  11  12
ENDBRANCH  10  11
ENDBRANCH   2  10
TORSDOF 6
ENDMDL
MODEL 9
REMARK VINA RESULT:    -5.729      4.018      7.228
REMARK INTER + INTRA:          -8.584
REMARK INTER:                  -7.929
REMARK INTRA:                  -0.655
REMARK UNBOUND:                -0.846
REMARK SMILES CC(=O)CCC=C(C)CCC=C(C)C
REMARK SMILES IDX 7 1 6 2 8 3 9 4 10 5 11 6 13 7 12 8 14 9 5 10 4 11 2 12 3 13
REMARK SMILES IDX 1 14
REMARK H PARENT
REMARK Flexibility Score: inf
ROOT
ATOM      1  C   UNL     1      -9.553  73.904  29.451  1.00  0.00    -0.077 C 
ATOM      2  C   UNL     1      -9.798  74.478  28.251  1.00  0.00    -0.028 C 
ATOM      3  C   UNL     1      -9.358  72.413  29.598  1.00  0.00     0.039 C 
ENDROOT
BRANCH   1   4
ATOM      4  C   UNL     1      -9.492  74.778  30.684  1.00  0.00     0.034 C 
BRANCH   4   5
ATOM      5  C   UNL     1     -10.898  75.049  31.230  1.00  0.00     0.032 C 
BRANCH   5   6
ATOM      6  C   UNL     1     -10.983  74.693  32.693  1.00  0.00    -0.028 C 
ATOM      7  C   UNL     1     -11.862  72.391  32.248  1.00  0.00     0.039 C 
ATOM      8  C   UNL     1     -11.389  73.495  33.165  1.00  0.00    -0.080 C 
ATOM      9  C   UNL     1     -11.383  73.269  34.656  1.00  0.00     0.039 C 
ENDBRANCH   5   6
ENDBRANCH   4   5
ENDBRANCH   1   4
BRANCH   2  10
ATOM     10  C   UNL     1      -9.849  73.730  26.941  1.00  0.00     0.035 C 
BRANCH  10  11
ATOM     11  C   UNL     1     -10.257  74.665  25.798  1.00  0.00     0.079 C 
BRANCH  11  12
ATOM     12  C   UNL     1      -9.799  74.119  24.474  1.00  0.00     0.130 C 
ATOM     13  O   UNL     1     -10.143  74.671  23.439  1.00  0.00    -0.300 OA
ATOM     14  C   UNL     1      -8.907  72.916  24.416  1.00  0.00     0.087 C 
ENDBRANCH  11  12
ENDBRANCH  10  11
ENDBRANCH   2  10
TORSDOF 6
ENDMDL
