MODEL 1
REMARK VINA RESULT:    -3.842      0.000      0.000
REMARK INTER + INTRA:          -6.260
REMARK INTER:                  -5.526
REMARK INTRA:                  -0.735
REMARK UNBOUND:                -0.735
REMARK SMILES O=C(CO)[C@@H](O)[C@H](O)[C@H](O)CO
REMARK SMILES IDX 7 1 9 2 11 3 12 4 10 6 5 8 2 9 1 10 3 11 4 12 6 14 8 16
REMARK H PARENT 12 5 10 7 4 13 6 15 8 17
REMARK Flexibility Score: inf
ROOT
ATOM      1  C   UNL     1      55.960  19.487  51.849  1.00  0.00     0.181 C 
ENDROOT
BRANCH   1   2
ATOM      2  C   UNL     1      54.550  20.038  51.499  1.00  0.00     0.171 C 
BRANCH   2   3
ATOM      3  C   UNL     1      54.175  21.261  52.357  1.00  0.00     0.190 C 
BRANCH   3   4
ATOM      4  O   UNL     1      53.765  22.334  51.550  1.00  0.00    -0.394 OA
ATOM      5  H   UNL     1      54.482  23.020  51.598  1.00  0.00     0.210 HD
ENDBRANCH   3   4
ENDBRANCH   2   3
BRANCH   2   6
ATOM      6  O   UNL     1      54.501  20.396  50.142  1.00  0.00    -0.388 OA
ATOM      7  H   UNL     1      53.589  20.177  49.817  1.00  0.00     0.211 HD
ENDBRANCH   2   6
ENDBRANCH   1   2
BRANCH   1   8
ATOM      8  C   UNL     1      56.775  19.079  50.588  1.00  0.00     0.214 C 
BRANCH   8   9
ATOM      9  C   UNL     1      58.249  18.865  50.870  1.00  0.00     0.189 C 
ATOM     10  O   UNL     1      58.596  18.521  51.991  1.00  0.00    -0.294 OA
BRANCH   9  11
ATOM     11  C   UNL     1      59.303  19.054  49.810  1.00  0.00     0.234 C 
BRANCH  11  12
ATOM     12  O   UNL     1      58.962  18.332  48.659  1.00  0.00    -0.388 OA
ATOM     13  H   UNL     1      59.735  18.401  48.038  1.00  0.00     0.211 HD
ENDBRANCH  11  12
ENDBRANCH   9  11
ENDBRANCH   8   9
BRANCH   8  14
ATOM     14  O   UNL     1      56.234  17.932  49.980  1.00  0.00    -0.382 OA
ATOM     15  H   UNL     1      55.258  18.075  49.870  1.00  0.00     0.211 HD
ENDBRANCH   8  14
ENDBRANCH   1   8
BRANCH   1  16
ATOM     16  O   UNL     1      55.854  18.385  52.718  1.00  0.00    -0.387 OA
ATOM     17  H   UNL     1      55.639  18.735  53.621  1.00  0.00     0.211 HD
ENDBRANCH   1  16
TORSDOF 10
ENDMDL
MODEL 2
REMARK VINA RESULT:    -3.693      1.194      4.632
REMARK INTER + INTRA:          -6.047
REMARK INTER:                  -5.330
REMARK INTRA:                  -0.717
REMARK UNBOUND:                -0.735
REMARK SMILES O=C(CO)[C@@H](O)[C@H](O)[C@H](O)CO
REMARK SMILES IDX 7 1 9 2 11 3 12 4 10 6 5 8 2 9 1 10 3 11 4 12 6 14 8 16
REMARK H PARENT 12 5 10 7 4 13 6 15 8 17
REMARK Flexibility Score: inf
ROOT
ATOM      1  C   UNL     1      56.396  19.459  51.669  1.00  0.00     0.181 C 
ENDROOT
BRANCH   1   2
ATOM      2  C   UNL     1      56.832  18.975  50.259  1.00  0.00     0.171 C 
BRANCH   2   3
ATOM      3  C   UNL     1      58.298  18.502  50.235  1.00  0.00     0.190 C 
BRANCH   3   4
ATOM      4  O   UNL     1      58.946  18.931  49.066  1.00  0.00    -0.394 OA
ATOM      5  H   UNL     1      59.538  19.685  49.326  1.00  0.00     0.210 HD
ENDBRANCH   3   4
ENDBRANCH   2   3
BRANCH   2   6
ATOM      6  O   UNL     1      56.003  17.923  49.838  1.00  0.00    -0.388 OA
ATOM      7  H   UNL     1      56.592  17.227  49.447  1.00  0.00     0.211 HD
ENDBRANCH   2   6
ENDBRANCH   1   2
BRANCH   1   8
ATOM      8  C   UNL     1      54.894  19.863  51.727  1.00  0.00     0.214 C 
BRANCH   8   9
ATOM      9  C   UNL     1      54.581  20.849  52.835  1.00  0.00     0.189 C 
ATOM     10  O   UNL     1      55.198  20.775  53.888  1.00  0.00    -0.294 OA
BRANCH   9  11
ATOM     11  C   UNL     1      53.539  21.926  52.678  1.00  0.00     0.234 C 
BRANCH  11  12
ATOM     12  O   UNL     1      53.874  22.767  51.608  1.00  0.00    -0.388 OA
ATOM     13  H   UNL     1      53.037  23.225  51.331  1.00  0.00     0.211 HD
ENDBRANCH  11  12
ENDBRANCH   9  11
ENDBRANCH   8   9
BRANCH   8  14
ATOM     14  O   UNL     1      54.455  20.376  50.493  1.00  0.00    -0.382 OA
ATOM     15  H   UNL     1      54.631  21.353  50.487  1.00  0.00     0.211 HD
ENDBRANCH   8  14
ENDBRANCH   1   8
BRANCH   1  16
ATOM     16  O   UNL     1      57.191  20.545  52.083  1.00  0.00    -0.387 OA
ATOM     17  H   UNL     1      56.578  21.266  52.384  1.00  0.00     0.211 HD
ENDBRANCH   1  16
TORSDOF 10
ENDMDL
MODEL 3
REMARK VINA RESULT:    -3.647     16.526     17.307
REMARK INTER + INTRA:          -5.980
REMARK INTER:                  -5.349
REMARK INTRA:                  -0.631
REMARK UNBOUND:                -0.735
REMARK SMILES O=C(CO)[C@@H](O)[C@H](O)[C@H](O)CO
REMARK SMILES IDX 7 1 9 2 11 3 12 4 10 6 5 8 2 9 1 10 3 11 4 12 6 14 8 16
REMARK H PARENT 12 5 10 7 4 13 6 15 8 17
REMARK Flexibility Score: inf
ROOT
ATOM      1  C   UNL     1      64.026  33.773  48.760  1.00  0.00     0.181 C 
ENDROOT
BRANCH   1   2
ATOM      2  C   UNL     1      62.532  33.890  49.175  1.00  0.00     0.171 C 
BRANCH   2   3
ATOM      3  C   UNL     1      62.237  35.207  49.917  1.00  0.00     0.190 C 
BRANCH   3   4
ATOM      4  O   UNL     1      60.897  35.588  49.751  1.00  0.00    -0.394 OA
ATOM      5  H   UNL     1      60.761  36.408  50.294  1.00  0.00     0.210 HD
ENDBRANCH   3   4
ENDBRANCH   2   3
BRANCH   2   6
ATOM      6  O   UNL     1      61.713  33.809  48.037  1.00  0.00    -0.388 OA
ATOM      7  H   UNL     1      62.182  33.228  47.383  1.00  0.00     0.211 HD
ENDBRANCH   2   6
ENDBRANCH   1   2
BRANCH   1   8
ATOM      8  C   UNL     1      64.464  34.895  47.774  1.00  0.00     0.214 C 
BRANCH   8   9
ATOM      9  C   UNL     1      65.915  34.784  47.348  1.00  0.00     0.189 C 
ATOM     10  O   UNL     1      66.756  34.473  48.180  1.00  0.00    -0.294 OA
BRANCH   9  11
ATOM     11  C   UNL     1      66.355  35.036  45.929  1.00  0.00     0.234 C 
BRANCH  11  12
ATOM     12  O   UNL     1      65.867  36.273  45.487  1.00  0.00    -0.388 OA
ATOM     13  H   UNL     1      65.192  36.081  44.785  1.00  0.00     0.211 HD
ENDBRANCH  11  12
ENDBRANCH   9  11
ENDBRANCH   8   9
BRANCH   8  14
ATOM     14  O   UNL     1      63.634  34.929  46.639  1.00  0.00    -0.382 OA
ATOM     15  H   UNL     1      63.631  35.858  46.290  1.00  0.00     0.211 HD
ENDBRANCH   8  14
ENDBRANCH   1   8
BRANCH   1  16
ATOM     16  O   UNL     1      64.278  32.515  48.183  1.00  0.00    -0.387 OA
ATOM     17  H   UNL     1      63.589  32.363  47.484  1.00  0.00     0.211 HD
ENDBRANCH   1  16
TORSDOF 10
ENDMDL
MODEL 4
REMARK VINA RESULT:    -3.528     20.896     21.853
REMARK INTER + INTRA:          -5.810
REMARK INTER:                  -5.091
REMARK INTRA:                  -0.719
REMARK UNBOUND:                -0.735
REMARK SMILES O=C(CO)[C@@H](O)[C@H](O)[C@H](O)CO
REMARK SMILES IDX 7 1 9 2 11 3 12 4 10 6 5 8 2 9 1 10 3 11 4 12 6 14 8 16
REMARK H PARENT 12 5 10 7 4 13 6 15 8 17
REMARK Flexibility Score: inf
ROOT
ATOM      1  C   UNL     1      70.908  33.063  58.634  1.00  0.00     0.181 C 
ENDROOT
BRANCH   1   2
ATOM      2  C   UNL     1      70.534  34.557  58.844  1.00  0.00     0.171 C 
BRANCH   2   3
ATOM      3  C   UNL     1      69.350  34.988  57.959  1.00  0.00     0.190 C 
BRANCH   3   4
ATOM      4  O   UNL     1      68.366  35.639  58.719  1.00  0.00    -0.394 OA
ATOM      5  H   UNL     1      68.059  34.992  59.408  1.00  0.00     0.210 HD
ENDBRANCH   3   4
ENDBRANCH   2   3
BRANCH   2   6
ATOM      6  O   UNL     1      70.208  34.782  60.191  1.00  0.00    -0.388 OA
ATOM      7  H   UNL     1      69.218  34.774  60.255  1.00  0.00     0.211 HD
ENDBRANCH   2   6
ENDBRANCH   1   2
BRANCH   1   8
ATOM      8  C   UNL     1      71.483  32.402  59.920  1.00  0.00     0.214 C 
BRANCH   8   9
ATOM      9  C   UNL     1      72.062  31.022  59.677  1.00  0.00     0.189 C 
ATOM     10  O   UNL     1      71.697  30.389  58.698  1.00  0.00    -0.294 OA
BRANCH   9  11
ATOM     11  C   UNL     1      73.084  30.408  60.600  1.00  0.00     0.234 C 
BRANCH  11  12
ATOM     12  O   UNL     1      72.797  30.747  61.929  1.00  0.00    -0.388 OA
ATOM     13  H   UNL     1      72.199  30.036  62.283  1.00  0.00     0.211 HD
ENDBRANCH  11  12
ENDBRANCH   9  11
ENDBRANCH   8   9
BRANCH   8  14
ATOM     14  O   UNL     1      72.447  33.225  60.530  1.00  0.00    -0.382 OA
ATOM     15  H   UNL     1      72.157  33.397  61.463  1.00  0.00     0.211 HD
ENDBRANCH   8  14
ENDBRANCH   1   8
BRANCH   1  16
ATOM     16  O   UNL     1      71.836  32.932  57.584  1.00  0.00    -0.387 OA
ATOM     17  H   UNL     1      72.130  33.845  57.329  1.00  0.00     0.211 HD
ENDBRANCH   1  16
TORSDOF 10
ENDMDL
MODEL 5
REMARK VINA RESULT:    -3.458      1.251      4.766
REMARK INTER + INTRA:          -5.708
REMARK INTER:                  -4.761
REMARK INTRA:                  -0.948
REMARK UNBOUND:                -0.735
REMARK SMILES O=C(CO)[C@@H](O)[C@H](O)[C@H](O)CO
REMARK SMILES IDX 7 1 9 2 11 3 12 4 10 6 5 8 2 9 1 10 3 11 4 12 6 14 8 16
REMARK H PARENT 12 5 10 7 4 13 6 15 8 17
REMARK Flexibility Score: inf
ROOT
ATOM      1  C   UNL     1      57.718  18.737  50.173  1.00  0.00     0.181 C 
ENDROOT
BRANCH   1   2
ATOM      2  C   UNL     1      59.133  18.096  50.114  1.00  0.00     0.171 C 
BRANCH   2   3
ATOM      3  C   UNL     1      59.200  16.928  49.113  1.00  0.00     0.190 C 
BRANCH   3   4
ATOM      4  O   UNL     1      58.857  17.352  47.820  1.00  0.00    -0.394 OA
ATOM      5  H   UNL     1      59.573  17.030  47.212  1.00  0.00     0.210 HD
ENDBRANCH   3   4
ENDBRANCH   2   3
BRANCH   2   6
ATOM      6  O   UNL     1      60.082  19.066  49.752  1.00  0.00    -0.388 OA
ATOM      7  H   UNL     1      60.973  18.634  49.805  1.00  0.00     0.211 HD
ENDBRANCH   2   6
ENDBRANCH   1   2
BRANCH   1   8
ATOM      8  C   UNL     1      57.495  19.581  51.461  1.00  0.00     0.214 C 
BRANCH   8   9
ATOM      9  C   UNL     1      56.204  19.244  52.182  1.00  0.00     0.189 C 
ATOM     10  O   UNL     1      56.204  18.346  53.012  1.00  0.00    -0.294 OA
BRANCH   9  11
ATOM     11  C   UNL     1      54.921  19.986  51.915  1.00  0.00     0.234 C 
BRANCH  11  12
ATOM     12  O   UNL     1      54.375  19.579  50.690  1.00  0.00    -0.388 OA
ATOM     13  H   UNL     1      53.431  19.889  50.679  1.00  0.00     0.211 HD
ENDBRANCH  11  12
ENDBRANCH   9  11
ENDBRANCH   8   9
BRANCH   8  14
ATOM     14  O   UNL     1      58.582  19.460  52.345  1.00  0.00    -0.382 OA
ATOM     15  H   UNL     1      58.398  18.698  52.954  1.00  0.00     0.211 HD
ENDBRANCH   8  14
ENDBRANCH   1   8
BRANCH   1  16
ATOM     16  O   UNL     1      56.726  17.743  50.084  1.00  0.00    -0.387 OA
ATOM     17  H   UNL     1      56.390  17.573  51.002  1.00  0.00     0.211 HD
ENDBRANCH   1  16
TORSDOF 10
ENDMDL
MODEL 6
REMARK VINA RESULT:    -3.450      1.355      2.232
REMARK INTER + INTRA:          -5.697
REMARK INTER:                  -5.161
REMARK INTRA:                  -0.536
REMARK UNBOUND:                -0.735
REMARK SMILES O=C(CO)[C@@H](O)[C@H](O)[C@H](O)CO
REMARK SMILES IDX 7 1 9 2 11 3 12 4 10 6 5 8 2 9 1 10 3 11 4 12 6 14 8 16
REMARK H PARENT 12 5 10 7 4 13 6 15 8 17
REMARK Flexibility Score: inf
ROOT
ATOM      1  C   UNL     1      54.217  20.148  52.472  1.00  0.00     0.181 C 
ENDROOT
BRANCH   1   2
ATOM      2  C   UNL     1      53.843  21.646  52.645  1.00  0.00     0.171 C 
BRANCH   2   3
ATOM      3  C   UNL     1      54.837  22.391  53.555  1.00  0.00     0.190 C 
BRANCH   3   4
ATOM      4  O   UNL     1      55.531  23.379  52.839  1.00  0.00    -0.394 OA
ATOM      5  H   UNL     1      54.856  23.877  52.307  1.00  0.00     0.210 HD
ENDBRANCH   3   4
ENDBRANCH   2   3
BRANCH   2   6
ATOM      6  O   UNL     1      53.805  22.277  51.391  1.00  0.00    -0.388 OA
ATOM      7  H   UNL     1      53.551  21.585  50.726  1.00  0.00     0.211 HD
ENDBRANCH   2   6
ENDBRANCH   1   2
BRANCH   1   8
ATOM      8  C   UNL     1      55.155  19.901  51.254  1.00  0.00     0.214 C 
BRANCH   8   9
ATOM      9  C   UNL     1      56.351  19.031  51.586  1.00  0.00     0.189 C 
ATOM     10  O   UNL     1      56.456  18.569  52.714  1.00  0.00    -0.294 OA
BRANCH   9  11
ATOM     11  C   UNL     1      57.414  18.707  50.567  1.00  0.00     0.234 C 
BRANCH  11  12
ATOM     12  O   UNL     1      56.975  17.675  49.727  1.00  0.00    -0.388 OA
ATOM     13  H   UNL     1      56.265  17.186  50.221  1.00  0.00     0.211 HD
ENDBRANCH  11  12
ENDBRANCH   9  11
ENDBRANCH   8   9
BRANCH   8  14
ATOM     14  O   UNL     1      54.450  19.350  50.170  1.00  0.00    -0.382 OA
ATOM     15  H   UNL     1      54.856  19.695  49.333  1.00  0.00     0.211 HD
ENDBRANCH   8  14
ENDBRANCH   1   8
BRANCH   1  16
ATOM     16  O   UNL     1      53.056  19.364  52.337  1.00  0.00    -0.387 OA
ATOM     17  H   UNL     1      52.276  19.977  52.372  1.00  0.00     0.211 HD
ENDBRANCH   1  16
TORSDOF 10
ENDMDL
MODEL 7
REMARK VINA RESULT:    -3.426     12.595     13.966
REMARK INTER + INTRA:          -5.662
REMARK INTER:                  -4.894
REMARK INTRA:                  -0.768
REMARK UNBOUND:                -0.735
REMARK SMILES O=C(CO)[C@@H](O)[C@H](O)[C@H](O)CO
REMARK SMILES IDX 7 1 9 2 11 3 12 4 10 6 5 8 2 9 1 10 3 11 4 12 6 14 8 16
REMARK H PARENT 12 5 10 7 4 13 6 15 8 17
REMARK Flexibility Score: inf
ROOT
ATOM      1  C   UNL     1      56.433  26.096  61.775  1.00  0.00     0.181 C 
ENDROOT
BRANCH   1   2
ATOM      2  C   UNL     1      57.004  27.541  61.830  1.00  0.00     0.171 C 
BRANCH   2   3
ATOM      3  C   UNL     1      58.060  27.789  60.737  1.00  0.00     0.190 C 
BRANCH   3   4
ATOM      4  O   UNL     1      58.943  28.812  61.114  1.00  0.00    -0.394 OA
ATOM      5  H   UNL     1      59.592  28.921  60.370  1.00  0.00     0.210 HD
ENDBRANCH   3   4
ENDBRANCH   2   3
BRANCH   2   6
ATOM      6  O   UNL     1      55.963  28.471  61.683  1.00  0.00    -0.388 OA
ATOM      7  H   UNL     1      56.151  29.218  62.309  1.00  0.00     0.211 HD
ENDBRANCH   2   6
ENDBRANCH   1   2
BRANCH   1   8
ATOM      8  C   UNL     1      55.139  25.931  62.625  1.00  0.00     0.214 C 
BRANCH   8   9
ATOM      9  C   UNL     1      54.899  24.504  63.078  1.00  0.00     0.189 C 
ATOM     10  O   UNL     1      54.848  23.615  62.241  1.00  0.00    -0.294 OA
BRANCH   9  11
ATOM     11  C   UNL     1      54.732  24.143  64.532  1.00  0.00     0.234 C 
BRANCH  11  12
ATOM     12  O   UNL     1      53.548  24.701  65.033  1.00  0.00    -0.388 OA
ATOM     13  H   UNL     1      52.867  23.978  65.028  1.00  0.00     0.211 HD
ENDBRANCH  11  12
ENDBRANCH   9  11
ENDBRANCH   8   9
BRANCH   8  14
ATOM     14  O   UNL     1      55.145  26.791  63.737  1.00  0.00    -0.382 OA
ATOM     15  H   UNL     1      55.077  26.235  64.555  1.00  0.00     0.211 HD
ENDBRANCH   8  14
ENDBRANCH   1   8
BRANCH   1  16
ATOM     16  O   UNL     1      57.400  25.169  62.207  1.00  0.00    -0.387 OA
ATOM     17  H   UNL     1      58.003  24.987  61.440  1.00  0.00     0.211 HD
ENDBRANCH   1  16
TORSDOF 10
ENDMDL
MODEL 8
REMARK VINA RESULT:    -3.358     13.132     14.442
REMARK INTER + INTRA:          -5.564
REMARK INTER:                  -4.512
REMARK INTRA:                  -1.053
REMARK UNBOUND:                -0.735
REMARK SMILES O=C(CO)[C@@H](O)[C@H](O)[C@H](O)CO
REMARK SMILES IDX 7 1 9 2 11 3 12 4 10 6 5 8 2 9 1 10 3 11 4 12 6 14 8 16
REMARK H PARENT 12 5 10 7 4 13 6 15 8 17
REMARK Flexibility Score: inf
ROOT
ATOM      1  C   UNL     1      61.211  28.545  60.725  1.00  0.00     0.181 C 
ENDROOT
BRANCH   1   2
ATOM      2  C   UNL     1      61.322  30.022  61.192  1.00  0.00     0.171 C 
BRANCH   2   3
ATOM      3  C   UNL     1      62.712  30.620  60.904  1.00  0.00     0.190 C 
BRANCH   3   4
ATOM      4  O   UNL     1      63.688  30.043  61.732  1.00  0.00    -0.394 OA
ATOM      5  H   UNL     1      64.556  30.457  61.485  1.00  0.00     0.210 HD
ENDBRANCH   3   4
ENDBRANCH   2   3
BRANCH   2   6
ATOM      6  O   UNL     1      60.345  30.801  60.550  1.00  0.00    -0.388 OA
ATOM      7  H   UNL     1      59.462  30.441  60.824  1.00  0.00     0.211 HD
ENDBRANCH   2   6
ENDBRANCH   1   2
BRANCH   1   8
ATOM      8  C   UNL     1      59.754  28.139  60.359  1.00  0.00     0.214 C 
BRANCH   8   9
ATOM      9  C   UNL     1      59.554  26.639  60.269  1.00  0.00     0.189 C 
ATOM     10  O   UNL     1      60.143  26.012  59.400  1.00  0.00    -0.294 OA
BRANCH   9  11
ATOM     11  C   UNL     1      58.660  25.891  61.225  1.00  0.00     0.234 C 
BRANCH  11  12
ATOM     12  O   UNL     1      59.195  25.937  62.519  1.00  0.00    -0.388 OA
ATOM     13  H   UNL     1      59.334  24.996  62.805  1.00  0.00     0.211 HD
ENDBRANCH  11  12
ENDBRANCH   9  11
ENDBRANCH   8   9
BRANCH   8  14
ATOM     14  O   UNL     1      58.828  28.692  61.261  1.00  0.00    -0.382 OA
ATOM     15  H   UNL     1      58.962  29.675  61.274  1.00  0.00     0.211 HD
ENDBRANCH   8  14
ENDBRANCH   1   8
BRANCH   1  16
ATOM     16  O   UNL     1      61.705  27.677  61.717  1.00  0.00    -0.387 OA
ATOM     17  H   UNL     1      61.293  26.787  61.568  1.00  0.00     0.211 HD
ENDBRANCH   1  16
TORSDOF 10
ENDMDL
MODEL 9
REMARK VINA RESULT:    -3.330      1.592      4.379
REMARK INTER + INTRA:          -5.524
REMARK INTER:                  -4.117
REMARK INTRA:                  -1.407
REMARK UNBOUND:                -0.735
REMARK SMILES O=C(CO)[C@@H](O)[C@H](O)[C@H](O)CO
REMARK SMILES IDX 7 1 9 2 11 3 12 4 10 6 5 8 2 9 1 10 3 11 4 12 6 14 8 16
REMARK H PARENT 12 5 10 7 4 13 6 15 8 17
REMARK Flexibility Score: inf
ROOT
ATOM      1  C   UNL     1      57.281  19.404  52.754  1.00  0.00     0.181 C 
ENDROOT
BRANCH   1   2
ATOM      2  C   UNL     1      57.455  18.110  51.912  1.00  0.00     0.171 C 
BRANCH   2   3
ATOM      3  C   UNL     1      57.208  18.356  50.412  1.00  0.00     0.190 C 
BRANCH   3   4
ATOM      4  O   UNL     1      55.836  18.322  50.117  1.00  0.00    -0.394 OA
ATOM      5  H   UNL     1      55.521  17.402  50.318  1.00  0.00     0.210 HD
ENDBRANCH   3   4
ENDBRANCH   2   3
BRANCH   2   6
ATOM      6  O   UNL     1      58.751  17.599  52.086  1.00  0.00    -0.388 OA
ATOM      7  H   UNL     1      58.742  16.664  51.751  1.00  0.00     0.211 HD
ENDBRANCH   2   6
ENDBRANCH   1   2
BRANCH   1   8
ATOM      8  C   UNL     1      55.911  19.460  53.492  1.00  0.00     0.214 C 
BRANCH   8   9
ATOM      9  C   UNL     1      55.204  20.792  53.343  1.00  0.00     0.189 C 
ATOM     10  O   UNL     1      55.614  21.756  53.974  1.00  0.00    -0.294 OA
BRANCH   9  11
ATOM     11  C   UNL     1      54.016  20.971  52.434  1.00  0.00     0.234 C 
BRANCH  11  12
ATOM     12  O   UNL     1      54.378  20.691  51.109  1.00  0.00    -0.388 OA
ATOM     13  H   UNL     1      55.208  20.146  51.148  1.00  0.00     0.211 HD
ENDBRANCH  11  12
ENDBRANCH   9  11
ENDBRANCH   8   9
BRANCH   8  14
ATOM     14  O   UNL     1      55.064  18.419  53.074  1.00  0.00    -0.382 OA
ATOM     15  H   UNL     1      54.334  18.331  53.741  1.00  0.00     0.211 HD
ENDBRANCH   8  14
ENDBRANCH   1   8
BRANCH   1  16
ATOM     16  O   UNL     1      57.421  20.543  51.939  1.00  0.00    -0.387 OA
ATOM     17  H   UNL     1      58.267  20.443  51.429  1.00  0.00     0.211 HD
ENDBRANCH   1  16
TORSDOF 10
ENDMDL
