MODEL 1
REMARK VINA RESULT:    -4.223      0.000      0.000
REMARK INTER + INTRA:          -5.774
REMARK INTER:                  -5.580
REMARK INTRA:                  -0.193
REMARK UNBOUND:                -0.193
REMARK SMILES CCCCCCCO
REMARK SMILES IDX 5 1 4 2 3 3 2 4 1 5 6 6 7 7 8 8
REMARK H PARENT 8 9
REMARK Flexibility Score: inf
ROOT
ATOM      1  C   UNL     1      18.028  13.011  22.967  1.00  0.00     0.002 C 
ENDROOT
BRANCH   1   2
ATOM      2  C   UNL     1      19.257  12.130  23.246  1.00  0.00     0.000 C 
BRANCH   2   3
ATOM      3  C   UNL     1      19.980  12.589  24.521  1.00  0.00    -0.000 C 
BRANCH   3   4
ATOM      4  C   UNL     1      19.990  14.118  24.677  1.00  0.00    -0.003 C 
ATOM      5  C   UNL     1      19.868  14.564  26.134  1.00  0.00     0.004 C 
ENDBRANCH   3   4
ENDBRANCH   2   3
ENDBRANCH   1   2
BRANCH   1   6
ATOM      6  C   UNL     1      17.984  13.521  21.518  1.00  0.00     0.028 C 
BRANCH   6   7
ATOM      7  C   UNL     1      16.884  12.852  20.685  1.00  0.00     0.156 C 
BRANCH   7   8
ATOM      8  O   UNL     1      16.318  11.787  21.400  1.00  0.00    -0.396 OA
ATOM      9  H   UNL     1      15.393  11.675  21.056  1.00  0.00     0.210 HD
ENDBRANCH   7   8
ENDBRANCH   6   7
ENDBRANCH   1   6
TORSDOF 6
ENDMDL
MODEL 2
REMARK VINA RESULT:    -4.050      8.392      9.709
REMARK INTER + INTRA:          -5.546
REMARK INTER:                  -5.147
REMARK INTRA:                  -0.399
REMARK UNBOUND:                -0.193
REMARK SMILES CCCCCCCO
REMARK SMILES IDX 5 1 4 2 3 3 2 4 1 5 6 6 7 7 8 8
REMARK H PARENT 8 9
REMARK Flexibility Score: inf
ROOT
ATOM      1  C   UNL     1      13.608  14.358  31.499  1.00  0.00     0.002 C 
ENDROOT
BRANCH   1   2
ATOM      2  C   UNL     1      12.909  13.497  30.435  1.00  0.00     0.000 C 
BRANCH   2   3
ATOM      3  C   UNL     1      13.840  13.236  29.242  1.00  0.00    -0.000 C 
BRANCH   3   4
ATOM      4  C   UNL     1      13.849  14.398  28.235  1.00  0.00    -0.003 C 
ATOM      5  C   UNL     1      12.443  14.863  27.857  1.00  0.00     0.004 C 
ENDBRANCH   3   4
ENDBRANCH   2   3
ENDBRANCH   1   2
BRANCH   1   6
ATOM      6  C   UNL     1      12.745  15.542  31.960  1.00  0.00     0.028 C 
BRANCH   6   7
ATOM      7  C   UNL     1      12.909  16.780  31.069  1.00  0.00     0.156 C 
BRANCH   7   8
ATOM      8  O   UNL     1      14.254  16.939  30.707  1.00  0.00    -0.396 OA
ATOM      9  H   UNL     1      14.732  16.133  31.033  1.00  0.00     0.210 HD
ENDBRANCH   7   8
ENDBRANCH   6   7
ENDBRANCH   1   6
TORSDOF 6
ENDMDL
MODEL 3
REMARK VINA RESULT:    -3.873      7.449      8.063
REMARK INTER + INTRA:          -5.312
REMARK INTER:                  -5.142
REMARK INTRA:                  -0.170
REMARK UNBOUND:                -0.193
REMARK SMILES CCCCCCCO
REMARK SMILES IDX 5 1 4 2 3 3 2 4 1 5 6 6 7 7 8 8
REMARK H PARENT 8 9
REMARK Flexibility Score: inf
ROOT
ATOM      1  C   UNL     1      12.941  18.254  24.528  1.00  0.00     0.002 C 
ENDROOT
BRANCH   1   2
ATOM      2  C   UNL     1      11.916  17.403  25.293  1.00  0.00     0.000 C 
BRANCH   2   3
ATOM      3  C   UNL     1      12.570  16.707  26.495  1.00  0.00    -0.000 C 
BRANCH   3   4
ATOM      4  C   UNL     1      12.144  15.237  26.630  1.00  0.00    -0.003 C 
ATOM      5  C   UNL     1      12.350  14.441  25.341  1.00  0.00     0.004 C 
ENDBRANCH   3   4
ENDBRANCH   2   3
ENDBRANCH   1   2
BRANCH   1   6
ATOM      6  C   UNL     1      12.811  18.109  23.004  1.00  0.00     0.028 C 
BRANCH   6   7
ATOM      7  C   UNL     1      13.356  19.324  22.242  1.00  0.00     0.156 C 
BRANCH   7   8
ATOM      8  O   UNL     1      14.411  19.908  22.957  1.00  0.00    -0.396 OA
ATOM      9  H   UNL     1      14.065  20.098  23.868  1.00  0.00     0.210 HD
ENDBRANCH   7   8
ENDBRANCH   6   7
ENDBRANCH   1   6
TORSDOF 6
ENDMDL
MODEL 4
REMARK VINA RESULT:    -3.811      8.115      9.002
REMARK INTER + INTRA:          -5.230
REMARK INTER:                  -4.880
REMARK INTRA:                  -0.351
REMARK UNBOUND:                -0.193
REMARK SMILES CCCCCCCO
REMARK SMILES IDX 5 1 4 2 3 3 2 4 1 5 6 6 7 7 8 8
REMARK H PARENT 8 9
REMARK Flexibility Score: inf
ROOT
ATOM      1  C   UNL     1      13.984  13.571  28.970  1.00  0.00     0.002 C 
ENDROOT
BRANCH   1   2
ATOM      2  C   UNL     1      13.190  13.184  30.228  1.00  0.00     0.000 C 
BRANCH   2   3
ATOM      3  C   UNL     1      13.702  13.951  31.456  1.00  0.00    -0.000 C 
BRANCH   3   4
ATOM      4  C   UNL     1      12.582  14.708  32.187  1.00  0.00    -0.003 C 
ATOM      5  C   UNL     1      12.497  16.178  31.777  1.00  0.00     0.004 C 
ENDBRANCH   3   4
ENDBRANCH   2   3
ENDBRANCH   1   2
BRANCH   1   6
ATOM      6  C   UNL     1      13.129  14.326  27.941  1.00  0.00     0.028 C 
BRANCH   6   7
ATOM      7  C   UNL     1      13.172  15.847  28.134  1.00  0.00     0.156 C 
BRANCH   7   8
ATOM      8  O   UNL     1      14.430  16.238  28.613  1.00  0.00    -0.396 OA
ATOM      9  H   UNL     1      14.975  15.410  28.685  1.00  0.00     0.210 HD
ENDBRANCH   7   8
ENDBRANCH   6   7
ENDBRANCH   1   6
TORSDOF 6
ENDMDL
MODEL 5
REMARK VINA RESULT:    -3.789      7.732      8.653
REMARK INTER + INTRA:          -5.200
REMARK INTER:                  -4.914
REMARK INTRA:                  -0.286
REMARK UNBOUND:                -0.193
REMARK SMILES CCCCCCCO
REMARK SMILES IDX 5 1 4 2 3 3 2 4 1 5 6 6 7 7 8 8
REMARK H PARENT 8 9
REMARK Flexibility Score: inf
ROOT
ATOM      1  C   UNL     1      13.915  13.208  29.274  1.00  0.00     0.002 C 
ENDROOT
BRANCH   1   2
ATOM      2  C   UNL     1      12.934  13.504  30.419  1.00  0.00     0.000 C 
BRANCH   2   3
ATOM      3  C   UNL     1      13.669  14.095  31.631  1.00  0.00    -0.000 C 
BRANCH   3   4
ATOM      4  C   UNL     1      13.064  15.430  32.094  1.00  0.00    -0.003 C 
ATOM      5  C   UNL     1      13.401  16.590  31.157  1.00  0.00     0.004 C 
ENDBRANCH   3   4
ENDBRANCH   2   3
ENDBRANCH   1   2
BRANCH   1   6
ATOM      6  C   UNL     1      13.995  14.353  28.253  1.00  0.00     0.028 C 
BRANCH   6   7
ATOM      7  C   UNL     1      12.617  14.790  27.741  1.00  0.00     0.156 C 
BRANCH   7   8
ATOM      8  O   UNL     1      12.465  14.432  26.395  1.00  0.00    -0.396 OA
ATOM      9  H   UNL     1      12.793  13.498  26.312  1.00  0.00     0.210 HD
ENDBRANCH   7   8
ENDBRANCH   6   7
ENDBRANCH   1   6
TORSDOF 6
ENDMDL
MODEL 6
REMARK VINA RESULT:    -3.772      8.355      9.436
REMARK INTER + INTRA:          -5.177
REMARK INTER:                  -4.798
REMARK INTRA:                  -0.379
REMARK UNBOUND:                -0.193
REMARK SMILES CCCCCCCO
REMARK SMILES IDX 5 1 4 2 3 3 2 4 1 5 6 6 7 7 8 8
REMARK H PARENT 8 9
REMARK Flexibility Score: inf
ROOT
ATOM      1  C   UNL     1      13.073  13.245  30.358  1.00  0.00     0.002 C 
ENDROOT
BRANCH   1   2
ATOM      2  C   UNL     1      13.648  14.030  31.547  1.00  0.00     0.000 C 
BRANCH   2   3
ATOM      3  C   UNL     1      12.595  14.979  32.138  1.00  0.00    -0.000 C 
BRANCH   3   4
ATOM      4  C   UNL     1      12.684  16.397  31.552  1.00  0.00    -0.003 C 
ATOM      5  C   UNL     1      11.584  16.685  30.530  1.00  0.00     0.004 C 
ENDBRANCH   3   4
ENDBRANCH   2   3
ENDBRANCH   1   2
BRANCH   1   6
ATOM      6  C   UNL     1      13.953  13.345  29.103  1.00  0.00     0.028 C 
BRANCH   6   7
ATOM      7  C   UNL     1      13.519  14.475  28.161  1.00  0.00     0.156 C 
BRANCH   7   8
ATOM      8  O   UNL     1      14.236  15.645  28.448  1.00  0.00    -0.396 OA
ATOM      9  H   UNL     1      13.674  16.175  29.072  1.00  0.00     0.210 HD
ENDBRANCH   7   8
ENDBRANCH   6   7
ENDBRANCH   1   6
TORSDOF 6
ENDMDL
MODEL 7
REMARK VINA RESULT:    -3.701      2.575      4.503
REMARK INTER + INTRA:          -5.084
REMARK INTER:                  -4.850
REMARK INTRA:                  -0.234
REMARK UNBOUND:                -0.193
REMARK SMILES CCCCCCCO
REMARK SMILES IDX 5 1 4 2 3 3 2 4 1 5 6 6 7 7 8 8
REMARK H PARENT 8 9
REMARK Flexibility Score: inf
ROOT
ATOM      1  C   UNL     1      19.338  12.092  23.490  1.00  0.00     0.002 C 
ENDROOT
BRANCH   1   2
ATOM      2  C   UNL     1      19.522  12.625  22.060  1.00  0.00     0.000 C 
BRANCH   2   3
ATOM      3  C   UNL     1      18.303  13.448  21.621  1.00  0.00    -0.000 C 
BRANCH   3   4
ATOM      4  C   UNL     1      17.066  13.184  22.495  1.00  0.00    -0.003 C 
ATOM      5  C   UNL     1      15.975  12.408  21.757  1.00  0.00     0.004 C 
ENDBRANCH   3   4
ENDBRANCH   2   3
ENDBRANCH   1   2
BRANCH   1   6
ATOM      6  C   UNL     1      20.375  12.662  24.471  1.00  0.00     0.028 C 
BRANCH   6   7
ATOM      7  C   UNL     1      19.949  14.008  25.069  1.00  0.00     0.156 C 
BRANCH   7   8
ATOM      8  O   UNL     1      20.469  14.147  26.363  1.00  0.00    -0.396 OA
ATOM      9  H   UNL     1      19.982  14.903  26.785  1.00  0.00     0.210 HD
ENDBRANCH   7   8
ENDBRANCH   6   7
ENDBRANCH   1   6
TORSDOF 6
ENDMDL
MODEL 8
REMARK VINA RESULT:    -3.697      7.662      8.358
REMARK INTER + INTRA:          -5.079
REMARK INTER:                  -4.814
REMARK INTRA:                  -0.265
REMARK UNBOUND:                -0.193
REMARK SMILES CCCCCCCO
REMARK SMILES IDX 5 1 4 2 3 3 2 4 1 5 6 6 7 7 8 8
REMARK H PARENT 8 9
REMARK Flexibility Score: inf
ROOT
ATOM      1  C   UNL     1      13.640  14.905  28.557  1.00  0.00     0.002 C 
ENDROOT
BRANCH   1   2
ATOM      2  C   UNL     1      13.978  13.474  29.006  1.00  0.00     0.000 C 
BRANCH   2   3
ATOM      3  C   UNL     1      13.232  13.116  30.300  1.00  0.00    -0.000 C 
BRANCH   3   4
ATOM      4  C   UNL     1      13.661  13.989  31.490  1.00  0.00    -0.003 C 
ATOM      5  C   UNL     1      12.486  14.710  32.149  1.00  0.00     0.004 C 
ENDBRANCH   3   4
ENDBRANCH   2   3
ENDBRANCH   1   2
BRANCH   1   6
ATOM      6  C   UNL     1      12.180  15.053  28.103  1.00  0.00     0.028 C 
BRANCH   6   7
ATOM      7  C   UNL     1      12.052  15.374  26.609  1.00  0.00     0.156 C 
BRANCH   7   8
ATOM      8  O   UNL     1      12.380  14.246  25.843  1.00  0.00    -0.396 OA
ATOM      9  H   UNL     1      13.337  14.050  26.023  1.00  0.00     0.210 HD
ENDBRANCH   7   8
ENDBRANCH   6   7
ENDBRANCH   1   6
TORSDOF 6
ENDMDL
MODEL 9
REMARK VINA RESULT:    -3.681      9.137     10.335
REMARK INTER + INTRA:          -5.058
REMARK INTER:                  -4.641
REMARK INTRA:                  -0.417
REMARK UNBOUND:                -0.193
REMARK SMILES CCCCCCCO
REMARK SMILES IDX 5 1 4 2 3 3 2 4 1 5 6 6 7 7 8 8
REMARK H PARENT 8 9
REMARK Flexibility Score: inf
ROOT
ATOM      1  C   UNL     1      12.610  16.264  31.698  1.00  0.00     0.002 C 
ENDROOT
BRANCH   1   2
ATOM      2  C   UNL     1      12.558  14.794  32.142  1.00  0.00     0.000 C 
BRANCH   2   3
ATOM      3  C   UNL     1      13.713  13.994  31.523  1.00  0.00    -0.000 C 
BRANCH   3   4
ATOM      4  C   UNL     1      13.273  13.172  30.301  1.00  0.00    -0.003 C 
ATOM      5  C   UNL     1      13.718  13.795  28.977  1.00  0.00     0.004 C 
ENDBRANCH   3   4
ENDBRANCH   2   3
ENDBRANCH   1   2
BRANCH   1   6
ATOM      6  C   UNL     1      11.638  16.569  30.548  1.00  0.00     0.028 C 
BRANCH   6   7
ATOM      7  C   UNL     1      10.354  15.733  30.619  1.00  0.00     0.156 C 
BRANCH   7   8
ATOM      8  O   UNL     1      10.243  14.920  29.483  1.00  0.00    -0.396 OA
ATOM      9  H   UNL     1      11.169  14.682  29.214  1.00  0.00     0.210 HD
ENDBRANCH   7   8
ENDBRANCH   6   7
ENDBRANCH   1   6
TORSDOF 6
ENDMDL
