MODEL 1
REMARK VINA RESULT:    -2.054      0.000      0.000
REMARK INTER + INTRA:          -2.054
REMARK INTER:                  -2.054
REMARK INTRA:                   0.000
REMARK UNBOUND:                 0.000
REMARK SMILES CC(=O)[O-]
REMARK SMILES IDX 1 1 2 2 3 3 4 4
REMARK H PARENT
REMARK Flexibility Score: inf
ROOT
ATOM      1  C   UNL     1      31.952  11.129  23.250  1.00  0.00     0.063 C 
ATOM      2  C   UNL     1      31.834   9.785  22.616  1.00  0.00     0.038 C 
ATOM      3  O   UNL     1      30.885   9.019  22.929  1.00  0.00    -0.550 OA
ATOM      4  O   UNL     1      32.801   9.352  21.716  1.00  0.00    -0.550 OA
ENDROOT
TORSDOF 0
ENDMDL
MODEL 2
REMARK VINA RESULT:    -2.044      1.370      1.938
REMARK INTER + INTRA:          -2.044
REMARK INTER:                  -2.044
REMARK INTRA:                   0.000
REMARK UNBOUND:                 0.000
REMARK SMILES CC(=O)[O-]
REMARK SMILES IDX 1 1 2 2 3 3 4 4
REMARK H PARENT
REMARK Flexibility Score: inf
ROOT
ATOM      1  C   UNL     1      33.063   9.875  21.846  1.00  0.00     0.063 C 
ATOM      2  C   UNL     1      31.991   9.939  22.881  1.00  0.00     0.038 C 
ATOM      3  O   UNL     1      32.082  10.755  23.836  1.00  0.00    -0.550 OA
ATOM      4  O   UNL     1      30.916   9.060  22.825  1.00  0.00    -0.550 OA
ENDROOT
TORSDOF 0
ENDMDL
MODEL 3
REMARK VINA RESULT:    -1.981      1.555      1.854
REMARK INTER + INTRA:          -1.981
REMARK INTER:                  -1.981
REMARK INTRA:                   0.000
REMARK UNBOUND:                 0.000
REMARK SMILES CC(=O)[O-]
REMARK SMILES IDX 1 1 2 2 3 3 4 4
REMARK H PARENT
REMARK Flexibility Score: inf
ROOT
ATOM      1  C   UNL     1      31.227   9.152  22.569  1.00  0.00     0.063 C 
ATOM      2  C   UNL     1      32.111  10.307  22.899  1.00  0.00     0.038 C 
ATOM      3  O   UNL     1      31.614  11.381  23.329  1.00  0.00    -0.550 OA
ATOM      4  O   UNL     1      33.481  10.220  22.683  1.00  0.00    -0.550 OA
ENDROOT
TORSDOF 0
ENDMDL
MODEL 4
REMARK VINA RESULT:    -1.832      1.856      2.396
REMARK INTER + INTRA:          -1.832
REMARK INTER:                  -1.832
REMARK INTRA:                   0.000
REMARK UNBOUND:                 0.000
REMARK SMILES CC(=O)[O-]
REMARK SMILES IDX 1 1 2 2 3 3 4 4
REMARK H PARENT
REMARK Flexibility Score: inf
ROOT
ATOM      1  C   UNL     1      32.017  10.910  23.352  1.00  0.00     0.063 C 
ATOM      2  C   UNL     1      33.430  10.641  22.958  1.00  0.00     0.038 C 
ATOM      3  O   UNL     1      33.682   9.864  21.999  1.00  0.00    -0.550 OA
ATOM      4  O   UNL     1      34.474  11.203  23.682  1.00  0.00    -0.550 OA
ENDROOT
TORSDOF 0
ENDMDL
MODEL 5
REMARK VINA RESULT:    -1.825      1.969      2.463
REMARK INTER + INTRA:          -1.825
REMARK INTER:                  -1.825
REMARK INTRA:                   0.000
REMARK UNBOUND:                 0.000
REMARK SMILES CC(=O)[O-]
REMARK SMILES IDX 1 1 2 2 3 3 4 4
REMARK H PARENT
REMARK Flexibility Score: inf
ROOT
ATOM      1  C   UNL     1      34.296  11.065  23.227  1.00  0.00     0.063 C 
ATOM      2  C   UNL     1      32.845  11.036  22.884  1.00  0.00     0.038 C 
ATOM      3  O   UNL     1      32.417  11.682  21.892  1.00  0.00    -0.550 OA
ATOM      4  O   UNL     1      31.952  10.340  23.691  1.00  0.00    -0.550 OA
ENDROOT
TORSDOF 0
ENDMDL
MODEL 6
REMARK VINA RESULT:    -1.377      3.283      3.800
REMARK INTER + INTRA:          -1.377
REMARK INTER:                  -1.377
REMARK INTRA:                   0.000
REMARK UNBOUND:                 0.000
REMARK SMILES CC(=O)[O-]
REMARK SMILES IDX 1 1 2 2 3 3 4 4
REMARK H PARENT
REMARK Flexibility Score: inf
ROOT
ATOM      1  C   UNL     1      34.278  11.209  23.236  1.00  0.00     0.063 C 
ATOM      2  C   UNL     1      35.418  10.444  22.655  1.00  0.00     0.038 C 
ATOM      3  O   UNL     1      35.202   9.497  21.853  1.00  0.00    -0.550 OA
ATOM      4  O   UNL     1      36.722  10.737  23.039  1.00  0.00    -0.550 OA
ENDROOT
TORSDOF 0
ENDMDL
MODEL 7
REMARK VINA RESULT:    -1.298     17.322     17.537
REMARK INTER + INTRA:          -1.298
REMARK INTER:                  -1.298
REMARK INTRA:                   0.000
REMARK UNBOUND:                 0.000
REMARK SMILES CC(=O)[O-]
REMARK SMILES IDX 1 1 2 2 3 3 4 4
REMARK H PARENT
REMARK Flexibility Score: inf
ROOT
ATOM      1  C   UNL     1      32.895  -7.254  22.447  1.00  0.00     0.063 C 
ATOM      2  C   UNL     1      32.638  -7.607  23.872  1.00  0.00     0.038 C 
ATOM      3  O   UNL     1      31.474  -7.521  24.345  1.00  0.00    -0.550 OA
ATOM      4  O   UNL     1      33.691  -7.981  24.699  1.00  0.00    -0.550 OA
ENDROOT
TORSDOF 0
ENDMDL
MODEL 8
REMARK VINA RESULT:    -1.289     15.223     15.605
REMARK INTER + INTRA:          -1.289
REMARK INTER:                  -1.289
REMARK INTRA:                   0.000
REMARK UNBOUND:                 0.000
REMARK SMILES CC(=O)[O-]
REMARK SMILES IDX 1 1 2 2 3 3 4 4
REMARK H PARENT
REMARK Flexibility Score: inf
ROOT
ATOM      1  C   UNL     1      32.497  -4.374  23.835  1.00  0.00     0.063 C 
ATOM      2  C   UNL     1      32.402  -5.559  24.735  1.00  0.00     0.038 C 
ATOM      3  O   UNL     1      33.447  -6.143  25.125  1.00  0.00    -0.550 OA
ATOM      4  O   UNL     1      31.157  -6.055  25.103  1.00  0.00    -0.550 OA
ENDROOT
TORSDOF 0
ENDMDL
MODEL 9
REMARK VINA RESULT:    -1.268     16.593     17.029
REMARK INTER + INTRA:          -1.268
REMARK INTER:                  -1.268
REMARK INTRA:                   0.000
REMARK UNBOUND:                 0.000
REMARK SMILES CC(=O)[O-]
REMARK SMILES IDX 1 1 2 2 3 3 4 4
REMARK H PARENT
REMARK Flexibility Score: inf
ROOT
ATOM      1  C   UNL     1      32.917  -8.125  24.433  1.00  0.00     0.063 C 
ATOM      2  C   UNL     1      31.981  -6.989  24.196  1.00  0.00     0.038 C 
ATOM      3  O   UNL     1      31.764  -6.147  25.108  1.00  0.00    -0.550 OA
ATOM      4  O   UNL     1      31.304  -6.885  22.987  1.00  0.00    -0.550 OA
ENDROOT
TORSDOF 0
ENDMDL
