MODEL 1
REMARK VINA RESULT:    -1.633      0.000      0.000
REMARK INTER + INTRA:          -2.444
REMARK INTER:                  -2.253
REMARK INTRA:                  -0.191
REMARK UNBOUND:                -0.191
REMARK SMILES O=C([O-])[C@H]1O[C@@H](Oc2cc3oc(-c4ccccc4)cc(=O)c3c(O)c2O)[C@H](O)[C@@H](O)[C@@H]1O
REMARK SMILES IDX 7 1 6 2 4 3 31 4 5 5 29 6 27 7 2 8 1 9 3 10 32 11 30 13
REMARK SMILES IDX 28 15 8 17 25 18 9 19 23 20 10 21 22 22 11 23 20 24 12 25
REMARK SMILES IDX 19 26 21 27 26 28 24 30 13 32 14 33 18 34 15 35 17 36 16 37
REMARK H PARENT 32 12 30 14 28 16 26 29 24 31
REMARK Flexibility Score: inf
ROOT
ATOM      1  O   UNL     1      12.314  15.385  71.171  1.00  0.00    -0.458 OA
ENDROOT
BRANCH   1   2
ATOM      2  C   UNL     1      12.434  13.960  71.235  1.00  0.00     0.339 C 
ATOM      3  C   UNL     1      13.221  13.740  68.996  1.00  0.00     0.199 C 
ATOM      4  C   UNL     1      11.893  13.087  68.518  1.00  0.00     0.180 C 
ATOM      5  O   UNL     1      13.477  13.510  70.378  1.00  0.00    -0.328 OA
ATOM      6  C   UNL     1      10.709  13.422  69.448  1.00  0.00     0.181 C 
ATOM      7  C   UNL     1      11.093  13.255  70.925  1.00  0.00     0.214 C 
BRANCH   3   8
ATOM      8  C   UNL     1      13.380  15.196  68.623  1.00  0.00     0.073 C 
ATOM      9  O   UNL     1      12.621  15.702  67.754  1.00  0.00    -0.547 OA
ATOM     10  O   UNL     1      14.304  16.010  69.268  1.00  0.00    -0.547 OA
ENDBRANCH   3   8
BRANCH   4  11
ATOM     11  O   UNL     1      12.032  11.692  68.386  1.00  0.00    -0.387 OA
ATOM     12  H   UNL     1      11.140  11.273  68.506  1.00  0.00     0.211 HD
ENDBRANCH   4  11
BRANCH   6  13
ATOM     13  O   UNL     1      10.277  14.742  69.230  1.00  0.00    -0.387 OA
ATOM     14  H   UNL     1      10.447  15.245  70.069  1.00  0.00     0.211 HD
ENDBRANCH   6  13
BRANCH   7  15
ATOM     15  O   UNL     1      11.183  11.889  71.240  1.00  0.00    -0.384 OA
ATOM     16  H   UNL     1      12.147  11.651  71.219  1.00  0.00     0.211 HD
ENDBRANCH   7  15
ENDBRANCH   1   2
BRANCH   1  17
ATOM     17  C   UNL     1      11.178  16.173  71.436  1.00  0.00     0.172 A 
ATOM     18  C   UNL     1      10.725  17.227  70.610  1.00  0.00     0.201 A 
ATOM     19  C   UNL     1      10.468  15.865  72.595  1.00  0.00     0.098 A 
ATOM     20  C   UNL     1       9.593  17.987  70.980  1.00  0.00     0.176 A 
ATOM     21  C   UNL     1       9.321  16.569  72.951  1.00  0.00     0.146 A 
ATOM     22  C   UNL     1       8.848  17.629  72.142  1.00  0.00     0.111 A 
ATOM     23  O   UNL     1       8.682  16.219  74.062  1.00  0.00    -0.456 OA
ATOM     24  C   UNL     1       7.631  18.238  72.536  1.00  0.00     0.197 A 
ATOM     25  C   UNL     1       7.562  16.801  74.478  1.00  0.00     0.138 A 
ATOM     26  C   UNL     1       7.004  17.837  73.716  1.00  0.00     0.100 A 
ATOM     27  O   UNL     1       7.070  19.122  71.838  1.00  0.00    -0.289 OA
BRANCH  18  28
ATOM     28  O   UNL     1      11.394  17.527  69.423  1.00  0.00    -0.502 OA
ATOM     29  H   UNL     1      11.179  17.080  68.540  1.00  0.00     0.293 HD
ENDBRANCH  18  28
BRANCH  20  30
ATOM     30  O   UNL     1       9.274  19.087  70.179  1.00  0.00    -0.504 OA
ATOM     31  H   UNL     1       9.899  19.855  69.981  1.00  0.00     0.293 HD
ENDBRANCH  20  30
BRANCH  25  32
ATOM     32  C   UNL     1       6.942  16.335  75.744  1.00  0.00     0.017 A 
ATOM     33  C   UNL     1       7.703  16.125  76.912  1.00  0.00     0.012 A 
ATOM     34  C   UNL     1       5.550  16.125  75.796  1.00  0.00     0.012 A 
ATOM     35  C   UNL     1       7.088  15.695  78.091  1.00  0.00     0.001 A 
ATOM     36  C   UNL     1       4.940  15.694  76.978  1.00  0.00     0.001 A 
ATOM     37  C   UNL     1       5.709  15.477  78.123  1.00  0.00     0.000 A 
ENDBRANCH  25  32
ENDBRANCH   1  17
TORSDOF 9
ENDMDL
MODEL 2
REMARK VINA RESULT:     0.214      2.275      8.152
REMARK INTER + INTRA:           0.104
REMARK INTER:                   0.181
REMARK INTRA:                  -0.077
REMARK UNBOUND:                -0.191
REMARK SMILES O=C([O-])[C@H]1O[C@@H](Oc2cc3oc(-c4ccccc4)cc(=O)c3c(O)c2O)[C@H](O)[C@@H](O)[C@@H]1O
REMARK SMILES IDX 7 1 6 2 4 3 31 4 5 5 29 6 27 7 2 8 1 9 3 10 32 11 30 13
REMARK SMILES IDX 28 15 8 17 25 18 9 19 23 20 10 21 22 22 11 23 20 24 12 25
REMARK SMILES IDX 19 26 21 27 26 28 24 30 13 32 14 33 18 34 15 35 17 36 16 37
REMARK H PARENT 32 12 30 14 28 16 26 29 24 31
REMARK Flexibility Score: inf
ROOT
ATOM      1  O   UNL     1       8.648  16.706  72.208  1.00  0.00    -0.458 OA
ENDROOT
BRANCH   1   2
ATOM      2  C   UNL     1       7.964  17.929  72.499  1.00  0.00     0.339 C 
ATOM      3  C   UNL     1       7.590  17.392  74.791  1.00  0.00     0.199 C 
ATOM      4  C   UNL     1       6.063  17.196  74.569  1.00  0.00     0.180 C 
ATOM      5  O   UNL     1       8.166  18.301  73.858  1.00  0.00    -0.328 OA
ATOM      6  C   UNL     1       5.720  16.896  73.096  1.00  0.00     0.181 C 
ATOM      7  C   UNL     1       6.461  17.847  72.144  1.00  0.00     0.214 C 
BRANCH   3   8
ATOM      8  C   UNL     1       8.383  16.110  74.899  1.00  0.00     0.073 C 
ATOM      9  O   UNL     1       7.832  15.074  75.358  1.00  0.00    -0.547 OA
ATOM     10  O   UNL     1       9.692  16.029  74.438  1.00  0.00    -0.547 OA
ENDBRANCH   3   8
BRANCH   4  11
ATOM     11  O   UNL     1       5.337  18.314  75.023  1.00  0.00    -0.387 OA
ATOM     12  H   UNL     1       4.413  18.256  74.665  1.00  0.00     0.211 HD
ENDBRANCH   4  11
BRANCH   6  13
ATOM     13  O   UNL     1       6.057  15.569  72.777  1.00  0.00    -0.387 OA
ATOM     14  H   UNL     1       6.242  15.543  71.802  1.00  0.00     0.211 HD
ENDBRANCH   6  13
BRANCH   7  15
ATOM     15  O   UNL     1       5.881  19.124  72.204  1.00  0.00    -0.384 OA
ATOM     16  H   UNL     1       4.929  19.022  71.939  1.00  0.00     0.211 HD
ENDBRANCH   7  15
ENDBRANCH   1   2
BRANCH   1  17
ATOM     17  C   UNL     1       9.335  16.354  71.031  1.00  0.00     0.172 A 
ATOM     18  C   UNL     1       8.751  16.323  69.744  1.00  0.00     0.201 A 
ATOM     19  C   UNL     1      10.682  16.027  71.175  1.00  0.00     0.098 A 
ATOM     20  C   UNL     1       9.515  15.921  68.625  1.00  0.00     0.176 A 
ATOM     21  C   UNL     1      11.464  15.676  70.077  1.00  0.00     0.146 A 
ATOM     22  C   UNL     1      10.903  15.637  68.778  1.00  0.00     0.111 A 
ATOM     23  O   UNL     1      12.745  15.387  70.278  1.00  0.00    -0.456 OA
ATOM     24  C   UNL     1      11.788  15.348  67.710  1.00  0.00     0.197 A 
ATOM     25  C   UNL     1      13.587  15.072  69.300  1.00  0.00     0.138 A 
ATOM     26  C   UNL     1      13.123  15.044  67.977  1.00  0.00     0.100 A 
ATOM     27  O   UNL     1      11.418  15.383  66.508  1.00  0.00    -0.289 OA
BRANCH  18  28
ATOM     28  O   UNL     1       7.416  16.688  69.569  1.00  0.00    -0.502 OA
ATOM     29  H   UNL     1       6.958  16.686  68.667  1.00  0.00     0.293 HD
ENDBRANCH  18  28
BRANCH  20  30
ATOM     30  O   UNL     1       8.842  15.799  67.405  1.00  0.00    -0.504 OA
ATOM     31  H   UNL     1       8.948  16.431  66.625  1.00  0.00     0.293 HD
ENDBRANCH  20  30
BRANCH  25  32
ATOM     32  C   UNL     1      14.997  14.754  69.645  1.00  0.00     0.017 A 
ATOM     33  C   UNL     1      15.325  13.900  70.718  1.00  0.00     0.012 A 
ATOM     34  C   UNL     1      16.038  15.290  68.863  1.00  0.00     0.012 A 
ATOM     35  C   UNL     1      16.661  13.612  71.011  1.00  0.00     0.001 A 
ATOM     36  C   UNL     1      17.372  14.999  69.162  1.00  0.00     0.001 A 
ATOM     37  C   UNL     1      17.683  14.163  70.236  1.00  0.00     0.000 A 
ENDBRANCH  25  32
ENDBRANCH   1  17
TORSDOF 9
ENDMDL
MODEL 3
REMARK VINA RESULT:     0.963      2.319      8.274
REMARK INTER + INTRA:           1.137
REMARK INTER:                   0.445
REMARK INTRA:                   0.693
REMARK UNBOUND:                -0.191
REMARK SMILES O=C([O-])[C@H]1O[C@@H](Oc2cc3oc(-c4ccccc4)cc(=O)c3c(O)c2O)[C@H](O)[C@@H](O)[C@@H]1O
REMARK SMILES IDX 7 1 6 2 4 3 31 4 5 5 29 6 27 7 2 8 1 9 3 10 32 11 30 13
REMARK SMILES IDX 28 15 8 17 25 18 9 19 23 20 10 21 22 22 11 23 20 24 12 25
REMARK SMILES IDX 19 26 21 27 26 28 24 30 13 32 14 33 18 34 15 35 17 36 16 37
REMARK H PARENT 32 12 30 14 28 16 26 29 24 31
REMARK Flexibility Score: inf
ROOT
ATOM      1  O   UNL     1       9.154  16.557  73.642  1.00  0.00    -0.458 OA
ENDROOT
BRANCH   1   2
ATOM      2  C   UNL     1       7.916  16.144  74.230  1.00  0.00     0.339 C 
ATOM      3  C   UNL     1       6.569  17.448  72.758  1.00  0.00     0.199 C 
ATOM      4  C   UNL     1       6.175  18.444  73.887  1.00  0.00     0.180 C 
ATOM      5  O   UNL     1       6.877  16.150  73.258  1.00  0.00    -0.328 OA
ATOM      6  C   UNL     1       7.184  18.435  75.052  1.00  0.00     0.181 C 
ATOM      7  C   UNL     1       7.551  17.002  75.465  1.00  0.00     0.214 C 
BRANCH   3   8
ATOM      8  C   UNL     1       7.626  17.956  71.806  1.00  0.00     0.073 C 
ATOM      9  O   UNL     1       7.832  17.347  70.722  1.00  0.00    -0.547 OA
ATOM     10  O   UNL     1       8.332  19.125  72.068  1.00  0.00    -0.547 OA
ENDBRANCH   3   8
BRANCH   4  11
ATOM     11  O   UNL     1       4.875  18.184  74.362  1.00  0.00    -0.387 OA
ATOM     12  H   UNL     1       4.947  17.686  75.218  1.00  0.00     0.211 HD
ENDBRANCH   4  11
BRANCH   6  13
ATOM     13  O   UNL     1       8.354  19.125  74.689  1.00  0.00    -0.387 OA
ATOM     14  H   UNL     1       8.583  18.840  73.766  1.00  0.00     0.211 HD
ENDBRANCH   6  13
BRANCH   7  15
ATOM     15  O   UNL     1       6.477  16.419  76.157  1.00  0.00    -0.384 OA
ATOM     16  H   UNL     1       5.658  16.912  75.888  1.00  0.00     0.211 HD
ENDBRANCH   7  15
ENDBRANCH   1   2
BRANCH   1  17
ATOM     17  C   UNL     1       9.942  15.864  72.703  1.00  0.00     0.172 A 
ATOM     18  C   UNL     1      10.439  14.554  72.888  1.00  0.00     0.201 A 
ATOM     19  C   UNL     1      10.229  16.539  71.518  1.00  0.00     0.098 A 
ATOM     20  C   UNL     1      11.254  13.955  71.902  1.00  0.00     0.176 A 
ATOM     21  C   UNL     1      10.989  15.947  70.513  1.00  0.00     0.146 A 
ATOM     22  C   UNL     1      11.499  14.637  70.674  1.00  0.00     0.111 A 
ATOM     23  O   UNL     1      11.218  16.638  69.401  1.00  0.00    -0.456 OA
ATOM     24  C   UNL     1      12.193  14.082  69.570  1.00  0.00     0.197 A 
ATOM     25  C   UNL     1      11.901  16.159  68.368  1.00  0.00     0.138 A 
ATOM     26  C   UNL     1      12.411  14.854  68.429  1.00  0.00     0.100 A 
ATOM     27  O   UNL     1      12.602  12.893  69.568  1.00  0.00    -0.289 OA
BRANCH  18  28
ATOM     28  O   UNL     1      10.129  13.842  74.047  1.00  0.00    -0.502 OA
ATOM     29  H   UNL     1      10.462  14.109  74.964  1.00  0.00     0.293 HD
ENDBRANCH  18  28
BRANCH  20  30
ATOM     30  O   UNL     1      11.807  12.706  72.203  1.00  0.00    -0.504 OA
ATOM     31  H   UNL     1      12.168  12.441  73.107  1.00  0.00     0.293 HD
ENDBRANCH  20  30
BRANCH  25  32
ATOM     32  C   UNL     1      12.106  17.028  67.181  1.00  0.00     0.017 A 
ATOM     33  C   UNL     1      11.499  18.296  67.075  1.00  0.00     0.012 A 
ATOM     34  C   UNL     1      12.954  16.594  66.144  1.00  0.00     0.012 A 
ATOM     35  C   UNL     1      11.720  19.095  65.949  1.00  0.00     0.001 A 
ATOM     36  C   UNL     1      13.170  17.396  65.020  1.00  0.00     0.001 A 
ATOM     37  C   UNL     1      12.552  18.644  64.921  1.00  0.00     0.000 A 
ENDBRANCH  25  32
ENDBRANCH   1  17
TORSDOF 9
ENDMDL
