MODEL 1
REMARK VINA RESULT:    -5.127      0.000      0.000
REMARK INTER + INTRA:          -5.847
REMARK INTER:                  -5.726
REMARK INTRA:                  -0.121
REMARK UNBOUND:                -0.121
REMARK SMILES COc1cc2ccc(=O)oc2cc1OC
REMARK SMILES IDX 3 1 13 2 12 3 11 4 5 5 4 6 6 7 7 8 8 9 9 10 10 11 2 12 1 13
REMARK SMILES IDX 14 14 15 15
REMARK H PARENT
REMARK Flexibility Score: inf
ROOT
ATOM      1  C   UNL     1     -14.018   6.058   4.391  1.00  0.00     0.161 A 
ATOM      2  C   UNL     1     -13.832   7.135   5.273  1.00  0.00     0.164 A 
ATOM      3  C   UNL     1     -13.000   6.981   6.400  1.00  0.00     0.098 A 
ATOM      4  C   UNL     1     -12.358   5.763   6.643  1.00  0.00     0.142 A 
ATOM      5  C   UNL     1     -12.544   4.683   5.759  1.00  0.00     0.022 A 
ATOM      6  C   UNL     1     -13.371   4.831   4.637  1.00  0.00     0.062 A 
ATOM      7  C   UNL     1     -11.888   3.478   6.029  1.00  0.00     0.019 A 
ATOM      8  C   UNL     1     -11.076   3.380   7.159  1.00  0.00     0.094 A 
ATOM      9  C   UNL     1     -10.938   4.494   7.993  1.00  0.00     0.336 A 
ATOM     10  O   UNL     1     -10.210   4.426   9.017  1.00  0.00    -0.246 OA
ATOM     11  O   UNL     1     -11.574   5.628   7.710  1.00  0.00    -0.423 OA
ENDROOT
BRANCH   1  12
ATOM     12  O   UNL     1     -14.855   6.248   3.279  1.00  0.00    -0.493 OA
ATOM     13  C   UNL     1     -14.422   6.753   2.019  1.00  0.00     0.278 C 
ENDBRANCH   1  12
BRANCH   2  14
ATOM     14  O   UNL     1     -14.493   8.343   4.997  1.00  0.00    -0.493 OA
ATOM     15  C   UNL     1     -13.847   9.535   4.562  1.00  0.00     0.278 C 
ENDBRANCH   2  14
TORSDOF 2
ENDMDL
MODEL 2
REMARK VINA RESULT:    -4.888     17.003     18.099
REMARK INTER + INTRA:          -5.580
REMARK INTER:                  -5.470
REMARK INTRA:                  -0.110
REMARK UNBOUND:                -0.121
REMARK SMILES COc1cc2ccc(=O)oc2cc1OC
REMARK SMILES IDX 3 1 13 2 12 3 11 4 5 5 4 6 6 7 7 8 8 9 9 10 10 11 2 12 1 13
REMARK SMILES IDX 14 14 15 15
REMARK H PARENT
REMARK Flexibility Score: inf
ROOT
ATOM      1  C   UNL     1     -12.967  -6.618  -7.783  1.00  0.00     0.161 A 
ATOM      2  C   UNL     1     -12.373  -6.608  -6.510  1.00  0.00     0.164 A 
ATOM      3  C   UNL     1     -11.224  -5.825  -6.281  1.00  0.00     0.098 A 
ATOM      4  C   UNL     1     -10.672  -5.060  -7.312  1.00  0.00     0.142 A 
ATOM      5  C   UNL     1     -11.267  -5.070  -8.589  1.00  0.00     0.022 A 
ATOM      6  C   UNL     1     -12.411  -5.846  -8.822  1.00  0.00     0.062 A 
ATOM      7  C   UNL     1     -10.692  -4.293  -9.600  1.00  0.00     0.019 A 
ATOM      8  C   UNL     1      -9.554  -3.538  -9.318  1.00  0.00     0.094 A 
ATOM      9  C   UNL     1      -9.017  -3.577  -8.027  1.00  0.00     0.336 A 
ATOM     10  O   UNL     1      -7.990  -2.903  -7.752  1.00  0.00    -0.246 OA
ATOM     11  O   UNL     1      -9.586  -4.325  -7.085  1.00  0.00    -0.423 OA
ENDROOT
BRANCH   1  12
ATOM     12  O   UNL     1     -14.112  -7.409  -7.975  1.00  0.00    -0.493 OA
ATOM     13  C   UNL     1     -14.409  -8.121  -9.173  1.00  0.00     0.278 C 
ENDBRANCH   1  12
BRANCH   2  14
ATOM     14  O   UNL     1     -12.954  -7.389  -5.498  1.00  0.00    -0.493 OA
ATOM     15  C   UNL     1     -12.220  -8.125  -4.525  1.00  0.00     0.278 C 
ENDBRANCH   2  14
TORSDOF 2
ENDMDL
MODEL 3
REMARK VINA RESULT:    -4.537      3.424      4.610
REMARK INTER + INTRA:          -5.189
REMARK INTER:                  -5.036
REMARK INTRA:                  -0.153
REMARK UNBOUND:                -0.121
REMARK SMILES COc1cc2ccc(=O)oc2cc1OC
REMARK SMILES IDX 3 1 13 2 12 3 11 4 5 5 4 6 6 7 7 8 8 9 9 10 10 11 2 12 1 13
REMARK SMILES IDX 14 14 15 15
REMARK H PARENT
REMARK Flexibility Score: inf
ROOT
ATOM      1  C   UNL     1     -10.348   8.917   6.251  1.00  0.00     0.161 A 
ATOM      2  C   UNL     1      -9.156   8.212   6.022  1.00  0.00     0.164 A 
ATOM      3  C   UNL     1      -9.121   6.816   6.211  1.00  0.00     0.098 A 
ATOM      4  C   UNL     1     -10.266   6.130   6.625  1.00  0.00     0.142 A 
ATOM      5  C   UNL     1     -11.463   6.837   6.856  1.00  0.00     0.022 A 
ATOM      6  C   UNL     1     -11.503   8.225   6.669  1.00  0.00     0.062 A 
ATOM      7  C   UNL     1     -12.592   6.123   7.269  1.00  0.00     0.019 A 
ATOM      8  C   UNL     1     -12.502   4.741   7.441  1.00  0.00     0.094 A 
ATOM      9  C   UNL     1     -11.281   4.106   7.194  1.00  0.00     0.336 A 
ATOM     10  O   UNL     1     -11.179   2.860   7.344  1.00  0.00    -0.246 OA
ATOM     11  O   UNL     1     -10.223   4.812   6.801  1.00  0.00    -0.423 OA
ENDROOT
BRANCH   1  12
ATOM     12  O   UNL     1     -10.346  10.308   6.053  1.00  0.00    -0.493 OA
ATOM     13  C   UNL     1     -10.272  11.272   7.099  1.00  0.00     0.278 C 
ENDBRANCH   1  12
BRANCH   2  14
ATOM     14  O   UNL     1      -8.025   8.934   5.607  1.00  0.00    -0.493 OA
ATOM     15  C   UNL     1      -7.017   9.429   6.483  1.00  0.00     0.278 C 
ENDBRANCH   2  14
TORSDOF 2
ENDMDL
MODEL 4
REMARK VINA RESULT:    -4.534      3.625      4.609
REMARK INTER + INTRA:          -5.185
REMARK INTER:                  -5.060
REMARK INTRA:                  -0.125
REMARK UNBOUND:                -0.121
REMARK SMILES COc1cc2ccc(=O)oc2cc1OC
REMARK SMILES IDX 3 1 13 2 12 3 11 4 5 5 4 6 6 7 7 8 8 9 9 10 10 11 2 12 1 13
REMARK SMILES IDX 14 14 15 15
REMARK H PARENT
REMARK Flexibility Score: inf
ROOT
ATOM      1  C   UNL     1      -9.008   8.997   5.945  1.00  0.00     0.161 A 
ATOM      2  C   UNL     1     -10.304   9.499   6.146  1.00  0.00     0.164 A 
ATOM      3  C   UNL     1     -11.347   8.621   6.503  1.00  0.00     0.098 A 
ATOM      4  C   UNL     1     -11.099   7.255   6.658  1.00  0.00     0.142 A 
ATOM      5  C   UNL     1      -9.799   6.750   6.456  1.00  0.00     0.022 A 
ATOM      6  C   UNL     1      -8.758   7.619   6.101  1.00  0.00     0.062 A 
ATOM      7  C   UNL     1      -9.583   5.378   6.619  1.00  0.00     0.019 A 
ATOM      8  C   UNL     1     -10.651   4.554   6.973  1.00  0.00     0.094 A 
ATOM      9  C   UNL     1     -11.915   5.125   7.157  1.00  0.00     0.336 A 
ATOM     10  O   UNL     1     -12.892   4.399   7.476  1.00  0.00    -0.246 OA
ATOM     11  O   UNL     1     -12.091   6.434   6.995  1.00  0.00    -0.423 OA
ENDROOT
BRANCH   1  12
ATOM     12  O   UNL     1      -7.993   9.900   5.590  1.00  0.00    -0.493 OA
ATOM     13  C   UNL     1      -6.679   9.896   6.139  1.00  0.00     0.278 C 
ENDBRANCH   1  12
BRANCH   2  14
ATOM     14  O   UNL     1     -10.517  10.877   5.981  1.00  0.00    -0.493 OA
ATOM     15  C   UNL     1     -11.125  11.469   4.838  1.00  0.00     0.278 C 
ENDBRANCH   2  14
TORSDOF 2
ENDMDL
MODEL 5
REMARK VINA RESULT:    -4.519      3.259      5.140
REMARK INTER + INTRA:          -5.168
REMARK INTER:                  -5.087
REMARK INTRA:                  -0.081
REMARK UNBOUND:                -0.121
REMARK SMILES COc1cc2ccc(=O)oc2cc1OC
REMARK SMILES IDX 3 1 13 2 12 3 11 4 5 5 4 6 6 7 7 8 8 9 9 10 10 11 2 12 1 13
REMARK SMILES IDX 14 14 15 15
REMARK H PARENT
REMARK Flexibility Score: inf
ROOT
ATOM      1  C   UNL     1     -10.765   5.543   7.180  1.00  0.00     0.161 A 
ATOM      2  C   UNL     1     -11.896   6.354   7.369  1.00  0.00     0.164 A 
ATOM      3  C   UNL     1     -11.845   7.718   7.020  1.00  0.00     0.098 A 
ATOM      4  C   UNL     1     -10.677   8.268   6.487  1.00  0.00     0.142 A 
ATOM      5  C   UNL     1      -9.542   7.455   6.297  1.00  0.00     0.022 A 
ATOM      6  C   UNL     1      -9.587   6.098   6.642  1.00  0.00     0.062 A 
ATOM      7  C   UNL     1      -8.387   8.035   5.760  1.00  0.00     0.019 A 
ATOM      8  C   UNL     1      -8.392   9.391   5.433  1.00  0.00     0.094 A 
ATOM      9  C   UNL     1      -9.555  10.136   5.649  1.00  0.00     0.336 A 
ATOM     10  O   UNL     1      -9.580  11.362   5.360  1.00  0.00    -0.246 OA
ATOM     11  O   UNL     1     -10.639   9.558   6.161  1.00  0.00    -0.423 OA
ENDROOT
BRANCH   1  12
ATOM     12  O   UNL     1     -10.852   4.188   7.539  1.00  0.00    -0.493 OA
ATOM     13  C   UNL     1     -11.393   3.165   6.708  1.00  0.00     0.278 C 
ENDBRANCH   1  12
BRANCH   2  14
ATOM     14  O   UNL     1     -13.053   5.767   7.908  1.00  0.00    -0.493 OA
ATOM     15  C   UNL     1     -14.330   5.776   7.279  1.00  0.00     0.278 C 
ENDBRANCH   2  14
TORSDOF 2
ENDMDL
MODEL 6
REMARK VINA RESULT:    -4.516      1.040      2.530
REMARK INTER + INTRA:          -5.165
REMARK INTER:                  -5.020
REMARK INTRA:                  -0.146
REMARK UNBOUND:                -0.121
REMARK SMILES COc1cc2ccc(=O)oc2cc1OC
REMARK SMILES IDX 3 1 13 2 12 3 11 4 5 5 4 6 6 7 7 8 8 9 9 10 10 11 2 12 1 13
REMARK SMILES IDX 14 14 15 15
REMARK H PARENT
REMARK Flexibility Score: inf
ROOT
ATOM      1  C   UNL     1     -14.058   7.554   5.272  1.00  0.00     0.161 A 
ATOM      2  C   UNL     1     -14.214   6.421   4.457  1.00  0.00     0.164 A 
ATOM      3  C   UNL     1     -13.622   5.199   4.837  1.00  0.00     0.098 A 
ATOM      4  C   UNL     1     -12.881   5.110   6.018  1.00  0.00     0.142 A 
ATOM      5  C   UNL     1     -12.724   6.246   6.835  1.00  0.00     0.022 A 
ATOM      6  C   UNL     1     -13.310   7.463   6.463  1.00  0.00     0.062 A 
ATOM      7  C   UNL     1     -11.977   6.124   8.012  1.00  0.00     0.019 A 
ATOM      8  C   UNL     1     -11.412   4.891   8.339  1.00  0.00     0.094 A 
ATOM      9  C   UNL     1     -11.611   3.806   7.479  1.00  0.00     0.336 A 
ATOM     10  O   UNL     1     -11.109   2.685   7.756  1.00  0.00    -0.246 OA
ATOM     11  O   UNL     1     -12.326   3.951   6.367  1.00  0.00    -0.423 OA
ENDROOT
BRANCH   1  12
ATOM     12  O   UNL     1     -14.661   8.754   4.863  1.00  0.00    -0.493 OA
ATOM     13  C   UNL     1     -13.965   9.846   4.269  1.00  0.00     0.278 C 
ENDBRANCH   1  12
BRANCH   2  14
ATOM     14  O   UNL     1     -14.965   6.548   3.277  1.00  0.00    -0.493 OA
ATOM     15  C   UNL     1     -14.415   6.853   2.000  1.00  0.00     0.278 C 
ENDBRANCH   2  14
TORSDOF 2
ENDMDL
MODEL 7
REMARK VINA RESULT:    -4.466      4.131      5.993
REMARK INTER + INTRA:          -5.110
REMARK INTER:                  -4.965
REMARK INTRA:                  -0.145
REMARK UNBOUND:                -0.121
REMARK SMILES COc1cc2ccc(=O)oc2cc1OC
REMARK SMILES IDX 3 1 13 2 12 3 11 4 5 5 4 6 6 7 7 8 8 9 9 10 10 11 2 12 1 13
REMARK SMILES IDX 14 14 15 15
REMARK H PARENT
REMARK Flexibility Score: inf
ROOT
ATOM      1  C   UNL     1     -11.446   7.551   6.676  1.00  0.00     0.161 A 
ATOM      2  C   UNL     1     -10.342   6.699   6.513  1.00  0.00     0.164 A 
ATOM      3  C   UNL     1      -9.088   7.238   6.162  1.00  0.00     0.098 A 
ATOM      4  C   UNL     1      -8.938   8.614   5.974  1.00  0.00     0.142 A 
ATOM      5  C   UNL     1     -10.045   9.469   6.136  1.00  0.00     0.022 A 
ATOM      6  C   UNL     1     -11.294   8.939   6.486  1.00  0.00     0.062 A 
ATOM      7  C   UNL     1      -9.862  10.843   5.942  1.00  0.00     0.019 A 
ATOM      8  C   UNL     1      -8.600  11.322   5.594  1.00  0.00     0.094 A 
ATOM      9  C   UNL     1      -7.546  10.413   5.450  1.00  0.00     0.336 A 
ATOM     10  O   UNL     1      -6.399  10.826   5.137  1.00  0.00    -0.246 OA
ATOM     11  O   UNL     1      -7.749   9.113   5.642  1.00  0.00    -0.423 OA
ENDROOT
BRANCH   1  12
ATOM     12  O   UNL     1     -12.680   6.979   7.026  1.00  0.00    -0.493 OA
ATOM     13  C   UNL     1     -13.220   6.969   8.344  1.00  0.00     0.278 C 
ENDBRANCH   1  12
BRANCH   2  14
ATOM     14  O   UNL     1     -10.530   5.321   6.710  1.00  0.00    -0.493 OA
ATOM     15  C   UNL     1     -10.305   4.643   7.942  1.00  0.00     0.278 C 
ENDBRANCH   2  14
TORSDOF 2
ENDMDL
MODEL 8
REMARK VINA RESULT:    -4.172      6.183      6.978
REMARK INTER + INTRA:          -4.781
REMARK INTER:                  -4.615
REMARK INTRA:                  -0.167
REMARK UNBOUND:                -0.121
REMARK SMILES COc1cc2ccc(=O)oc2cc1OC
REMARK SMILES IDX 3 1 13 2 12 3 11 4 5 5 4 6 6 7 7 8 8 9 9 10 10 11 2 12 1 13
REMARK SMILES IDX 14 14 15 15
REMARK H PARENT
REMARK Flexibility Score: inf
ROOT
ATOM      1  C   UNL     1     -10.403   9.982   6.445  1.00  0.00     0.161 A 
ATOM      2  C   UNL     1     -10.434  11.204   7.138  1.00  0.00     0.164 A 
ATOM      3  C   UNL     1      -9.229  11.868   7.440  1.00  0.00     0.098 A 
ATOM      4  C   UNL     1      -8.003  11.318   7.056  1.00  0.00     0.142 A 
ATOM      5  C   UNL     1      -7.971  10.093   6.361  1.00  0.00     0.022 A 
ATOM      6  C   UNL     1      -9.166   9.429   6.057  1.00  0.00     0.062 A 
ATOM      7  C   UNL     1      -6.728   9.569   5.989  1.00  0.00     0.019 A 
ATOM      8  C   UNL     1      -5.566  10.268   6.315  1.00  0.00     0.094 A 
ATOM      9  C   UNL     1      -5.675  11.479   7.006  1.00  0.00     0.336 A 
ATOM     10  O   UNL     1      -4.638  12.125   7.310  1.00  0.00    -0.246 OA
ATOM     11  O   UNL     1      -6.870  11.953   7.347  1.00  0.00    -0.423 OA
ENDROOT
BRANCH   1  12
ATOM     12  O   UNL     1     -11.623   9.349   6.160  1.00  0.00    -0.493 OA
ATOM     13  C   UNL     1     -12.138   8.230   6.876  1.00  0.00     0.278 C 
ENDBRANCH   1  12
BRANCH   2  14
ATOM     14  O   UNL     1     -11.684  11.726   7.509  1.00  0.00    -0.493 OA
ATOM     15  C   UNL     1     -12.223  11.671   8.826  1.00  0.00     0.278 C 
ENDBRANCH   2  14
TORSDOF 2
ENDMDL
MODEL 9
REMARK VINA RESULT:    -2.799     16.903     18.301
REMARK INTER + INTRA:          -3.247
REMARK INTER:                  -3.116
REMARK INTRA:                  -0.131
REMARK UNBOUND:                -0.121
REMARK SMILES COc1cc2ccc(=O)oc2cc1OC
REMARK SMILES IDX 3 1 13 2 12 3 11 4 5 5 4 6 6 7 7 8 8 9 9 10 10 11 2 12 1 13
REMARK SMILES IDX 14 14 15 15
REMARK H PARENT
REMARK Flexibility Score: inf
ROOT
ATOM      1  C   UNL     1     -12.067  -6.519  -6.327  1.00  0.00     0.161 A 
ATOM      2  C   UNL     1     -12.636  -6.759  -7.589  1.00  0.00     0.164 A 
ATOM      3  C   UNL     1     -12.168  -6.049  -8.714  1.00  0.00     0.098 A 
ATOM      4  C   UNL     1     -11.144  -5.109  -8.580  1.00  0.00     0.142 A 
ATOM      5  C   UNL     1     -10.573  -4.867  -7.315  1.00  0.00     0.022 A 
ATOM      6  C   UNL     1     -11.033  -5.570  -6.194  1.00  0.00     0.062 A 
ATOM      7  C   UNL     1      -9.548  -3.921  -7.214  1.00  0.00     0.019 A 
ATOM      8  C   UNL     1      -9.125  -3.246  -8.359  1.00  0.00     0.094 A 
ATOM      9  C   UNL     1      -9.738  -3.538  -9.582  1.00  0.00     0.336 A 
ATOM     10  O   UNL     1      -9.370  -2.941 -10.628  1.00  0.00    -0.246 OA
ATOM     11  O   UNL     1     -10.710  -4.444  -9.648  1.00  0.00    -0.423 OA
ENDROOT
BRANCH   1  12
ATOM     12  O   UNL     1     -12.558  -7.244  -5.229  1.00  0.00    -0.493 OA
ATOM     13  C   UNL     1     -11.775  -8.125  -4.429  1.00  0.00     0.278 C 
ENDBRANCH   1  12
BRANCH   2  14
ATOM     14  O   UNL     1     -13.664  -7.710  -7.685  1.00  0.00    -0.493 OA
ATOM     15  C   UNL     1     -15.007  -7.413  -8.056  1.00  0.00     0.278 C 
ENDBRANCH   2  14
TORSDOF 2
ENDMDL
