MODEL 1
REMARK VINA RESULT:    -5.830      0.000      0.000
REMARK INTER + INTRA:          -9.737
REMARK INTER:                  -8.727
REMARK INTRA:                  -1.010
REMARK UNBOUND:                -1.010
REMARK SMILES C=C(CC[C@H](C(=O)[O-])[C@@H]1[C@H](O)C[C@]2(C)C3=C(CC[C@@]12C)[C@]1(C)CC[C@H](OC(C)=O)C(C)(C)[C@H]1CC3)C(C)C
REMARK SMILES IDX 4 1 5 2 6 3 7 4 8 5 9 6 10 7 19 8 12 9 13 10 18 11 20 12
REMARK SMILES IDX 14 13 15 14 17 15 16 16 35 17 21 18 34 19 33 20 23 21 22 22
REMARK SMILES IDX 30 23 24 24 25 25 31 26 32 27 11 28 26 30 27 31 29 32 28 33
REMARK SMILES IDX 3 34 2 35 1 36 36 37 37 38 38 39
REMARK H PARENT 11 29
REMARK Flexibility Score: inf
ROOT
ATOM      1  C   UNL     1       8.978 -30.811  -0.050  1.00  0.00     0.014 C 
ENDROOT
BRANCH   1   2
ATOM      2  C   UNL     1       7.770 -30.046   0.560  1.00  0.00     0.042 C 
BRANCH   2   3
ATOM      3  C   UNL     1       7.922 -28.566   0.316  1.00  0.00     0.045 C 
ATOM      4  O   UNL     1       7.045 -27.924  -0.322  1.00  0.00    -0.550 OA
ATOM      5  O   UNL     1       9.016 -27.888   0.839  1.00  0.00    -0.550 OA
ENDBRANCH   2   3
BRANCH   2   6
ATOM      6  C   UNL     1       7.512 -30.380   2.072  1.00  0.00     0.033 C 
ATOM      7  C   UNL     1       7.350 -31.903   2.380  1.00  0.00     0.119 C 
ATOM      8  C   UNL     1       6.267 -29.739   2.760  1.00  0.00    -0.017 C 
ATOM      9  C   UNL     1       6.320 -32.021   3.526  1.00  0.00     0.043 C 
ATOM     10  C   UNL     1       6.137 -30.590   4.061  1.00  0.00    -0.003 C 
ATOM     11  C   UNL     1       6.398 -28.256   3.164  1.00  0.00     0.012 C 
ATOM     12  C   UNL     1       5.016 -29.872   1.821  1.00  0.00     0.013 C 
ATOM     13  C   UNL     1       7.261 -30.353   5.124  1.00  0.00     0.017 C 
ATOM     14  C   UNL     1       4.814 -30.257   4.743  1.00  0.00    -0.064 C 
ATOM     15  C   UNL     1       5.369 -27.831   4.253  1.00  0.00     0.032 C 
ATOM     16  C   UNL     1       4.461 -28.933   4.857  1.00  0.00    -0.064 C 
ATOM     17  C   UNL     1       4.081 -31.355   5.495  1.00  0.00     0.032 C 
ATOM     18  C   UNL     1       3.100 -28.507   5.469  1.00  0.00    -0.008 C 
ATOM     19  C   UNL     1       2.645 -31.000   5.853  1.00  0.00     0.009 C 
ATOM     20  C   UNL     1       2.586 -29.594   6.478  1.00  0.00     0.009 C 
ATOM     21  C   UNL     1       3.260 -27.150   6.244  1.00  0.00     0.015 C 
ATOM     22  C   UNL     1       2.141 -28.307   4.262  1.00  0.00     0.016 C 
ATOM     23  C   UNL     1       1.218 -29.262   7.216  1.00  0.00     0.005 C 
ATOM     24  C   UNL     1       2.372 -26.988   7.494  1.00  0.00     0.047 C 
ATOM     25  C   UNL     1       1.026 -27.706   7.371  1.00  0.00     0.182 C 
ATOM     26  C   UNL     1      -0.009 -29.852   6.473  1.00  0.00     0.015 C 
ATOM     27  C   UNL     1       1.252 -29.923   8.624  1.00  0.00     0.015 C 
BRANCH   7  28
ATOM     28  O   UNL     1       6.883 -32.614   1.260  1.00  0.00    -0.393 OA
ATOM     29  H   UNL     1       6.027 -32.188   0.992  1.00  0.00     0.210 HD
ENDBRANCH   7  28
BRANCH  25  30
ATOM     30  O   UNL     1       0.246 -27.380   8.528  1.00  0.00    -0.462 OA
BRANCH  30  31
ATOM     31  C   UNL     1      -1.050 -26.852   8.487  1.00  0.00     0.302 C 
ATOM     32  O   UNL     1      -1.247 -25.630   8.249  1.00  0.00    -0.253 OA
ATOM     33  C   UNL     1      -2.213 -27.764   8.687  1.00  0.00     0.139 C 
ENDBRANCH  30  31
ENDBRANCH  25  30
ENDBRANCH   2   6
ENDBRANCH   1   2
BRANCH   1  34
ATOM     34  C   UNL     1       8.639 -31.749  -1.226  1.00  0.00     0.031 C 
BRANCH  34  35
ATOM     35  C   UNL     1       8.141 -30.958  -2.416  1.00  0.00    -0.075 C 
ATOM     36  C   UNL     1       8.910 -29.976  -2.924  1.00  0.00     0.008 C 
BRANCH  35  37
ATOM     37  C   UNL     1       6.777 -31.278  -3.013  1.00  0.00     0.008 C 
ATOM     38  C   UNL     1       6.837 -32.530  -3.897  1.00  0.00     0.012 C 
ATOM     39  C   UNL     1       5.710 -31.417  -1.923  1.00  0.00     0.012 C 
ENDBRANCH  35  37
ENDBRANCH  34  35
ENDBRANCH   1  34
TORSDOF 9
ENDMDL
MODEL 2
REMARK VINA RESULT:    -5.243      4.787      6.862
REMARK INTER + INTRA:          -8.859
REMARK INTER:                  -8.447
REMARK INTRA:                  -0.412
REMARK UNBOUND:                -1.010
REMARK SMILES C=C(CC[C@H](C(=O)[O-])[C@@H]1[C@H](O)C[C@]2(C)C3=C(CC[C@@]12C)[C@]1(C)CC[C@H](OC(C)=O)C(C)(C)[C@H]1CC3)C(C)C
REMARK SMILES IDX 4 1 5 2 6 3 7 4 8 5 9 6 10 7 19 8 12 9 13 10 18 11 20 12
REMARK SMILES IDX 14 13 15 14 17 15 16 16 35 17 21 18 34 19 33 20 23 21 22 22
REMARK SMILES IDX 30 23 24 24 25 25 31 26 32 27 11 28 26 30 27 31 29 32 28 33
REMARK SMILES IDX 3 34 2 35 1 36 36 37 37 38 38 39
REMARK H PARENT 11 29
REMARK Flexibility Score: inf
ROOT
ATOM      1  C   UNL     1       6.594 -23.404   4.375  1.00  0.00     0.014 C 
ENDROOT
BRANCH   1   2
ATOM      2  C   UNL     1       6.102 -24.877   4.422  1.00  0.00     0.042 C 
BRANCH   2   3
ATOM      3  C   UNL     1       5.980 -25.423   3.022  1.00  0.00     0.045 C 
ATOM      4  O   UNL     1       5.245 -24.856   2.170  1.00  0.00    -0.550 OA
ATOM      5  O   UNL     1       6.720 -26.537   2.648  1.00  0.00    -0.550 OA
ENDBRANCH   2   3
BRANCH   2   6
ATOM      6  C   UNL     1       4.789 -25.077   5.260  1.00  0.00     0.033 C 
ATOM      7  C   UNL     1       4.902 -24.638   6.755  1.00  0.00     0.119 C 
ATOM      8  C   UNL     1       4.192 -26.515   5.351  1.00  0.00    -0.017 C 
ATOM      9  C   UNL     1       4.018 -25.606   7.573  1.00  0.00     0.043 C 
ATOM     10  C   UNL     1       3.186 -26.378   6.536  1.00  0.00    -0.003 C 
ATOM     11  C   UNL     1       3.415 -27.012   4.114  1.00  0.00     0.012 C 
ATOM     12  C   UNL     1       5.338 -27.546   5.645  1.00  0.00     0.013 C 
ATOM     13  C   UNL     1       1.919 -25.512   6.232  1.00  0.00     0.017 C 
ATOM     14  C   UNL     1       2.684 -27.764   6.925  1.00  0.00    -0.064 C 
ATOM     15  C   UNL     1       2.452 -28.193   4.436  1.00  0.00     0.032 C 
ATOM     16  C   UNL     1       2.309 -28.622   5.919  1.00  0.00    -0.064 C 
ATOM     17  C   UNL     1       2.368 -28.045   8.385  1.00  0.00     0.032 C 
ATOM     18  C   UNL     1       1.857 -30.076   6.219  1.00  0.00    -0.008 C 
ATOM     19  C   UNL     1       2.189 -29.523   8.700  1.00  0.00     0.009 C 
ATOM     20  C   UNL     1       1.255 -30.177   7.665  1.00  0.00     0.009 C 
ATOM     21  C   UNL     1       0.754 -30.520   5.193  1.00  0.00     0.015 C 
ATOM     22  C   UNL     1       3.125 -30.957   6.034  1.00  0.00     0.016 C 
ATOM     23  C   UNL     1       0.707 -31.609   8.089  1.00  0.00     0.005 C 
ATOM     24  C   UNL     1      -0.323 -31.476   5.744  1.00  0.00     0.047 C 
ATOM     25  C   UNL     1       0.207 -32.414   6.831  1.00  0.00     0.182 C 
ATOM     26  C   UNL     1       1.777 -32.448   8.836  1.00  0.00     0.015 C 
ATOM     27  C   UNL     1      -0.476 -31.403   9.077  1.00  0.00     0.015 C 
BRANCH   7  28
ATOM     28  O   UNL     1       6.227 -24.710   7.220  1.00  0.00    -0.393 OA
ATOM     29  H   UNL     1       6.792 -24.925   6.432  1.00  0.00     0.210 HD
ENDBRANCH   7  28
BRANCH  25  30
ATOM     30  O   UNL     1      -0.841 -33.331   7.170  1.00  0.00    -0.462 OA
BRANCH  30  31
ATOM     31  C   UNL     1      -2.007 -33.514   6.417  1.00  0.00     0.302 C 
ATOM     32  O   UNL     1      -3.128 -33.141   6.853  1.00  0.00    -0.253 OA
ATOM     33  C   UNL     1      -1.907 -34.123   5.059  1.00  0.00     0.139 C 
ENDBRANCH  30  31
ENDBRANCH  25  30
ENDBRANCH   2   6
ENDBRANCH   1   2
BRANCH   1  34
ATOM     34  C   UNL     1       8.125 -23.219   4.355  1.00  0.00     0.031 C 
BRANCH  34  35
ATOM     35  C   UNL     1       8.545 -22.367   3.178  1.00  0.00    -0.075 C 
ATOM     36  C   UNL     1       8.408 -22.852   1.929  1.00  0.00     0.008 C 
BRANCH  35  37
ATOM     37  C   UNL     1       9.124 -20.979   3.423  1.00  0.00     0.008 C 
ATOM     38  C   UNL     1       9.119 -20.140   2.140  1.00  0.00     0.012 C 
ATOM     39  C   UNL     1       8.389 -20.262   4.560  1.00  0.00     0.012 C 
ENDBRANCH  35  37
ENDBRANCH  34  35
ENDBRANCH   1  34
TORSDOF 9
ENDMDL
MODEL 3
REMARK VINA RESULT:    -5.151      5.120      7.197
REMARK INTER + INTRA:          -8.721
REMARK INTER:                  -8.170
REMARK INTRA:                  -0.552
REMARK UNBOUND:                -1.010
REMARK SMILES C=C(CC[C@H](C(=O)[O-])[C@@H]1[C@H](O)C[C@]2(C)C3=C(CC[C@@]12C)[C@]1(C)CC[C@H](OC(C)=O)C(C)(C)[C@H]1CC3)C(C)C
REMARK SMILES IDX 4 1 5 2 6 3 7 4 8 5 9 6 10 7 19 8 12 9 13 10 18 11 20 12
REMARK SMILES IDX 14 13 15 14 17 15 16 16 35 17 21 18 34 19 33 20 23 21 22 22
REMARK SMILES IDX 30 23 24 24 25 25 31 26 32 27 11 28 26 30 27 31 29 32 28 33
REMARK SMILES IDX 3 34 2 35 1 36 36 37 37 38 38 39
REMARK H PARENT 11 29
REMARK Flexibility Score: inf
ROOT
ATOM      1  C   UNL     1       6.170 -21.956   5.248  1.00  0.00     0.014 C 
ENDROOT
BRANCH   1   2
ATOM      2  C   UNL     1       5.216 -22.910   6.020  1.00  0.00     0.042 C 
BRANCH   2   3
ATOM      3  C   UNL     1       5.437 -22.768   7.504  1.00  0.00     0.045 C 
ATOM      4  O   UNL     1       4.636 -22.104   8.215  1.00  0.00    -0.550 OA
ATOM      5  O   UNL     1       6.508 -23.413   8.108  1.00  0.00    -0.550 OA
ENDBRANCH   2   3
BRANCH   2   6
ATOM      6  C   UNL     1       5.296 -24.402   5.541  1.00  0.00     0.033 C 
ATOM      7  C   UNL     1       5.226 -24.591   3.993  1.00  0.00     0.119 C 
ATOM      8  C   UNL     1       4.220 -25.399   6.074  1.00  0.00    -0.017 C 
ATOM      9  C   UNL     1       4.471 -25.915   3.736  1.00  0.00     0.043 C 
ATOM     10  C   UNL     1       4.387 -26.610   5.106  1.00  0.00    -0.003 C 
ATOM     11  C   UNL     1       4.414 -25.905   7.519  1.00  0.00     0.012 C 
ATOM     12  C   UNL     1       2.798 -24.741   5.983  1.00  0.00     0.013 C 
ATOM     13  C   UNL     1       5.710 -27.425   5.285  1.00  0.00     0.017 C 
ATOM     14  C   UNL     1       3.238 -27.588   5.330  1.00  0.00    -0.064 C 
ATOM     15  C   UNL     1       3.638 -27.225   7.808  1.00  0.00     0.032 C 
ATOM     16  C   UNL     1       2.898 -27.901   6.625  1.00  0.00    -0.064 C 
ATOM     17  C   UNL     1       2.701 -28.371   4.143  1.00  0.00     0.032 C 
ATOM     18  C   UNL     1       1.696 -28.827   6.947  1.00  0.00    -0.008 C 
ATOM     19  C   UNL     1       1.372 -29.060   4.415  1.00  0.00     0.009 C 
ATOM     20  C   UNL     1       1.429 -29.815   5.756  1.00  0.00     0.009 C 
ATOM     21  C   UNL     1       2.000 -29.676   8.233  1.00  0.00     0.015 C 
ATOM     22  C   UNL     1       0.495 -27.878   7.221  1.00  0.00     0.016 C 
ATOM     23  C   UNL     1       0.248 -30.857   5.973  1.00  0.00     0.005 C 
ATOM     24  C   UNL     1       1.401 -31.097   8.251  1.00  0.00     0.047 C 
ATOM     25  C   UNL     1       0.071 -31.198   7.500  1.00  0.00     0.182 C 
ATOM     26  C   UNL     1      -1.102 -30.340   5.409  1.00  0.00     0.015 C 
ATOM     27  C   UNL     1       0.596 -32.155   5.189  1.00  0.00     0.015 C 
BRANCH   7  28
ATOM     28  O   UNL     1       4.539 -23.535   3.370  1.00  0.00    -0.393 OA
ATOM     29  H   UNL     1       4.624 -22.749   3.970  1.00  0.00     0.210 HD
ENDBRANCH   7  28
BRANCH  25  30
ATOM     30  O   UNL     1      -0.444 -32.520   7.694  1.00  0.00    -0.462 OA
BRANCH  30  31
ATOM     31  C   UNL     1      -0.873 -33.031   8.925  1.00  0.00     0.302 C 
ATOM     32  O   UNL     1      -1.976 -32.684   9.425  1.00  0.00    -0.253 OA
ATOM     33  C   UNL     1      -0.024 -34.034   9.631  1.00  0.00     0.139 C 
ENDBRANCH  30  31
ENDBRANCH  25  30
ENDBRANCH   2   6
ENDBRANCH   1   2
BRANCH   1  34
ATOM     34  C   UNL     1       7.634 -22.430   5.143  1.00  0.00     0.031 C 
BRANCH  34  35
ATOM     35  C   UNL     1       8.422 -21.531   4.215  1.00  0.00    -0.075 C 
ATOM     36  C   UNL     1       8.517 -20.217   4.492  1.00  0.00     0.008 C 
BRANCH  35  37
ATOM     37  C   UNL     1       9.088 -22.124   2.980  1.00  0.00     0.008 C 
ATOM     38  C   UNL     1       8.498 -23.497   2.635  1.00  0.00     0.012 C 
ATOM     39  C   UNL     1       9.003 -21.167   1.786  1.00  0.00     0.012 C 
ENDBRANCH  35  37
ENDBRANCH  34  35
ENDBRANCH   1  34
TORSDOF 9
ENDMDL
MODEL 4
REMARK VINA RESULT:    -5.038      4.086      6.120
REMARK INTER + INTRA:          -8.552
REMARK INTER:                  -8.250
REMARK INTRA:                  -0.303
REMARK UNBOUND:                -1.010
REMARK SMILES C=C(CC[C@H](C(=O)[O-])[C@@H]1[C@H](O)C[C@]2(C)C3=C(CC[C@@]12C)[C@]1(C)CC[C@H](OC(C)=O)C(C)(C)[C@H]1CC3)C(C)C
REMARK SMILES IDX 4 1 5 2 6 3 7 4 8 5 9 6 10 7 19 8 12 9 13 10 18 11 20 12
REMARK SMILES IDX 14 13 15 14 17 15 16 16 35 17 21 18 34 19 33 20 23 21 22 22
REMARK SMILES IDX 30 23 24 24 25 25 31 26 32 27 11 28 26 30 27 31 29 32 28 33
REMARK SMILES IDX 3 34 2 35 1 36 36 37 37 38 38 39
REMARK H PARENT 11 29
REMARK Flexibility Score: inf
ROOT
ATOM      1  C   UNL     1       8.079 -23.976   2.522  1.00  0.00     0.014 C 
ENDROOT
BRANCH   1   2
ATOM      2  C   UNL     1       6.762 -24.387   3.236  1.00  0.00     0.042 C 
BRANCH   2   3
ATOM      3  C   UNL     1       6.558 -23.540   4.466  1.00  0.00     0.045 C 
ATOM      4  O   UNL     1       5.631 -22.687   4.517  1.00  0.00    -0.550 OA
ATOM      5  O   UNL     1       7.369 -23.729   5.578  1.00  0.00    -0.550 OA
ENDBRANCH   2   3
BRANCH   2   6
ATOM      6  C   UNL     1       6.665 -25.923   3.544  1.00  0.00     0.033 C 
ATOM      7  C   UNL     1       6.895 -26.847   2.306  1.00  0.00     0.119 C 
ATOM      8  C   UNL     1       5.334 -26.464   4.154  1.00  0.00    -0.017 C 
ATOM      9  C   UNL     1       5.981 -28.079   2.491  1.00  0.00     0.043 C 
ATOM     10  C   UNL     1       5.478 -28.003   3.942  1.00  0.00    -0.003 C 
ATOM     11  C   UNL     1       5.117 -26.202   5.659  1.00  0.00     0.012 C 
ATOM     12  C   UNL     1       4.112 -25.856   3.380  1.00  0.00     0.013 C 
ATOM     13  C   UNL     1       6.558 -28.697   4.836  1.00  0.00     0.017 C 
ATOM     14  C   UNL     1       4.147 -28.675   4.263  1.00  0.00    -0.064 C 
ATOM     15  C   UNL     1       4.067 -27.160   6.296  1.00  0.00     0.032 C 
ATOM     16  C   UNL     1       3.486 -28.288   5.405  1.00  0.00    -0.064 C 
ATOM     17  C   UNL     1       3.742 -29.909   3.475  1.00  0.00     0.032 C 
ATOM     18  C   UNL     1       2.093 -28.864   5.770  1.00  0.00    -0.008 C 
ATOM     19  C   UNL     1       2.281 -30.298   3.653  1.00  0.00     0.009 C 
ATOM     20  C   UNL     1       1.909 -30.294   5.148  1.00  0.00     0.009 C 
ATOM     21  C   UNL     1       1.951 -28.984   7.330  1.00  0.00     0.015 C 
ATOM     22  C   UNL     1       1.058 -27.837   5.231  1.00  0.00     0.016 C 
ATOM     23  C   UNL     1       0.537 -31.024   5.483  1.00  0.00     0.005 C 
ATOM     24  C   UNL     1       1.111 -30.174   7.834  1.00  0.00     0.047 C 
ATOM     25  C   UNL     1      -0.023 -30.556   6.879  1.00  0.00     0.182 C 
ATOM     26  C   UNL     1      -0.541 -30.777   4.396  1.00  0.00     0.015 C 
ATOM     27  C   UNL     1       0.798 -32.558   5.518  1.00  0.00     0.015 C 
BRANCH   7  28
ATOM     28  O   UNL     1       6.564 -26.199   1.103  1.00  0.00    -0.393 OA
ATOM     29  H   UNL     1       5.735 -26.630   0.768  1.00  0.00     0.210 HD
ENDBRANCH   7  28
BRANCH  25  30
ATOM     30  O   UNL     1      -0.803 -31.579   7.509  1.00  0.00    -0.462 OA
BRANCH  30  31
ATOM     31  C   UNL     1      -1.659 -31.366   8.596  1.00  0.00     0.302 C 
ATOM     32  O   UNL     1      -2.121 -30.220   8.845  1.00  0.00    -0.253 OA
ATOM     33  C   UNL     1      -2.060 -32.525   9.444  1.00  0.00     0.139 C 
ENDBRANCH  30  31
ENDBRANCH  25  30
ENDBRANCH   2   6
ENDBRANCH   1   2
BRANCH   1  34
ATOM     34  C   UNL     1       8.915 -22.900   3.244  1.00  0.00     0.031 C 
BRANCH  34  35
ATOM     35  C   UNL     1       8.920 -21.608   2.457  1.00  0.00    -0.075 C 
ATOM     36  C   UNL     1       8.760 -21.649   1.120  1.00  0.00     0.008 C 
BRANCH  35  37
ATOM     37  C   UNL     1       9.113 -20.285   3.186  1.00  0.00     0.008 C 
ATOM     38  C   UNL     1       8.713 -19.098   2.301  1.00  0.00     0.012 C 
ATOM     39  C   UNL     1       8.355 -20.266   4.517  1.00  0.00     0.012 C 
ENDBRANCH  35  37
ENDBRANCH  34  35
ENDBRANCH   1  34
TORSDOF 9
ENDMDL
MODEL 5
REMARK VINA RESULT:    -5.015      3.209      5.594
REMARK INTER + INTRA:          -8.518
REMARK INTER:                  -8.129
REMARK INTRA:                  -0.388
REMARK UNBOUND:                -1.010
REMARK SMILES C=C(CC[C@H](C(=O)[O-])[C@@H]1[C@H](O)C[C@]2(C)C3=C(CC[C@@]12C)[C@]1(C)CC[C@H](OC(C)=O)C(C)(C)[C@H]1CC3)C(C)C
REMARK SMILES IDX 4 1 5 2 6 3 7 4 8 5 9 6 10 7 19 8 12 9 13 10 18 11 20 12
REMARK SMILES IDX 14 13 15 14 17 15 16 16 35 17 21 18 34 19 33 20 23 21 22 22
REMARK SMILES IDX 30 23 24 24 25 25 31 26 32 27 11 28 26 30 27 31 29 32 28 33
REMARK SMILES IDX 3 34 2 35 1 36 36 37 37 38 38 39
REMARK H PARENT 11 29
REMARK Flexibility Score: inf
ROOT
ATOM      1  C   UNL     1       5.644 -24.752   2.377  1.00  0.00     0.014 C 
ENDROOT
BRANCH   1   2
ATOM      2  C   UNL     1       6.939 -25.509   2.785  1.00  0.00     0.042 C 
BRANCH   2   3
ATOM      3  C   UNL     1       7.953 -25.429   1.673  1.00  0.00     0.045 C 
ATOM      4  O   UNL     1       9.125 -25.862   1.836  1.00  0.00    -0.550 OA
ATOM      5  O   UNL     1       7.583 -24.915   0.436  1.00  0.00    -0.550 OA
ENDBRANCH   2   3
BRANCH   2   6
ATOM      6  C   UNL     1       6.684 -26.983   3.260  1.00  0.00     0.033 C 
ATOM      7  C   UNL     1       6.832 -28.059   2.138  1.00  0.00     0.119 C 
ATOM      8  C   UNL     1       5.301 -27.316   3.898  1.00  0.00    -0.017 C 
ATOM      9  C   UNL     1       5.797 -29.166   2.440  1.00  0.00     0.043 C 
ATOM     10  C   UNL     1       5.290 -28.876   3.863  1.00  0.00    -0.003 C 
ATOM     11  C   UNL     1       5.096 -26.866   5.360  1.00  0.00     0.012 C 
ATOM     12  C   UNL     1       4.153 -26.682   3.035  1.00  0.00     0.013 C 
ATOM     13  C   UNL     1       6.286 -29.568   4.851  1.00  0.00     0.017 C 
ATOM     14  C   UNL     1       3.895 -29.372   4.229  1.00  0.00    -0.064 C 
ATOM     15  C   UNL     1       3.948 -27.637   6.077  1.00  0.00     0.032 C 
ATOM     16  C   UNL     1       3.266 -28.795   5.306  1.00  0.00    -0.064 C 
ATOM     17  C   UNL     1       3.375 -30.642   3.575  1.00  0.00     0.032 C 
ATOM     18  C   UNL     1       1.818 -29.186   5.704  1.00  0.00    -0.008 C 
ATOM     19  C   UNL     1       1.881 -30.861   3.764  1.00  0.00     0.009 C 
ATOM     20  C   UNL     1       1.496 -30.651   5.241  1.00  0.00     0.009 C 
ATOM     21  C   UNL     1       1.650 -29.113   7.264  1.00  0.00     0.015 C 
ATOM     22  C   UNL     1       0.897 -28.129   5.032  1.00  0.00     0.016 C 
ATOM     23  C   UNL     1       0.055 -31.199   5.627  1.00  0.00     0.005 C 
ATOM     24  C   UNL     1       0.689 -30.150   7.880  1.00  0.00     0.047 C 
ATOM     25  C   UNL     1      -0.468 -30.523   6.950  1.00  0.00     0.182 C 
ATOM     26  C   UNL     1      -0.982 -30.971   4.496  1.00  0.00     0.015 C 
ATOM     27  C   UNL     1       0.160 -32.737   5.838  1.00  0.00     0.015 C 
BRANCH   7  28
ATOM     28  O   UNL     1       6.580 -27.521   0.864  1.00  0.00    -0.393 OA
ATOM     29  H   UNL     1       5.595 -27.526   0.744  1.00  0.00     0.210 HD
ENDBRANCH   7  28
BRANCH  25  30
ATOM     30  O   UNL     1      -1.354 -31.386   7.673  1.00  0.00    -0.462 OA
BRANCH  30  31
ATOM     31  C   UNL     1      -2.520 -30.960   8.322  1.00  0.00     0.302 C 
ATOM     32  O   UNL     1      -2.512 -30.671   9.549  1.00  0.00    -0.253 OA
ATOM     33  C   UNL     1      -3.776 -30.808   7.534  1.00  0.00     0.139 C 
ENDBRANCH  30  31
ENDBRANCH  25  30
ENDBRANCH   2   6
ENDBRANCH   1   2
BRANCH   1  34
ATOM     34  C   UNL     1       5.519 -23.315   2.922  1.00  0.00     0.031 C 
BRANCH  34  35
ATOM     35  C   UNL     1       5.102 -23.328   4.376  1.00  0.00    -0.075 C 
ATOM     36  C   UNL     1       3.791 -23.339   4.686  1.00  0.00     0.008 C 
BRANCH  35  37
ATOM     37  C   UNL     1       6.168 -23.319   5.464  1.00  0.00     0.008 C 
ATOM     38  C   UNL     1       7.396 -22.510   5.033  1.00  0.00     0.012 C 
ATOM     39  C   UNL     1       5.604 -22.808   6.794  1.00  0.00     0.012 C 
ENDBRANCH  35  37
ENDBRANCH  34  35
ENDBRANCH   1  34
TORSDOF 9
ENDMDL
MODEL 6
REMARK VINA RESULT:    -4.972      5.080      7.241
REMARK INTER + INTRA:          -8.452
REMARK INTER:                  -8.549
REMARK INTRA:                   0.097
REMARK UNBOUND:                -1.010
REMARK SMILES C=C(CC[C@H](C(=O)[O-])[C@@H]1[C@H](O)C[C@]2(C)C3=C(CC[C@@]12C)[C@]1(C)CC[C@H](OC(C)=O)C(C)(C)[C@H]1CC3)C(C)C
REMARK SMILES IDX 4 1 5 2 6 3 7 4 8 5 9 6 10 7 19 8 12 9 13 10 18 11 20 12
REMARK SMILES IDX 14 13 15 14 17 15 16 16 35 17 21 18 34 19 33 20 23 21 22 22
REMARK SMILES IDX 30 23 24 24 25 25 31 26 32 27 11 28 26 30 27 31 29 32 28 33
REMARK SMILES IDX 3 34 2 35 1 36 36 37 37 38 38 39
REMARK H PARENT 11 29
REMARK Flexibility Score: inf
ROOT
ATOM      1  C   UNL     1       5.519 -25.977   5.871  1.00  0.00     0.014 C 
ENDROOT
BRANCH   1   2
ATOM      2  C   UNL     1       4.638 -25.077   6.782  1.00  0.00     0.042 C 
BRANCH   2   3
ATOM      3  C   UNL     1       5.510 -24.298   7.733  1.00  0.00     0.045 C 
ATOM      4  O   UNL     1       6.727 -24.592   7.880  1.00  0.00    -0.550 OA
ATOM      5  O   UNL     1       4.984 -23.214   8.423  1.00  0.00    -0.550 OA
ENDBRANCH   2   3
BRANCH   2   6
ATOM      6  C   UNL     1       3.494 -25.858   7.521  1.00  0.00     0.033 C 
ATOM      7  C   UNL     1       3.892 -26.419   8.922  1.00  0.00     0.119 C 
ATOM      8  C   UNL     1       2.870 -27.094   6.802  1.00  0.00    -0.017 C 
ATOM      9  C   UNL     1       3.137 -27.756   9.101  1.00  0.00     0.043 C 
ATOM     10  C   UNL     1       2.102 -27.797   7.964  1.00  0.00    -0.003 C 
ATOM     11  C   UNL     1       1.864 -26.792   5.671  1.00  0.00     0.012 C 
ATOM     12  C   UNL     1       4.012 -27.988   6.201  1.00  0.00     0.013 C 
ATOM     13  C   UNL     1       0.834 -27.037   8.474  1.00  0.00     0.017 C 
ATOM     14  C   UNL     1       1.629 -29.167   7.490  1.00  0.00    -0.064 C 
ATOM     15  C   UNL     1       0.933 -27.998   5.350  1.00  0.00     0.032 C 
ATOM     16  C   UNL     1       1.046 -29.257   6.248  1.00  0.00    -0.064 C 
ATOM     17  C   UNL     1       1.574 -30.309   8.492  1.00  0.00     0.032 C 
ATOM     18  C   UNL     1       0.604 -30.621   5.656  1.00  0.00    -0.008 C 
ATOM     19  C   UNL     1       1.402 -31.678   7.851  1.00  0.00     0.009 C 
ATOM     20  C   UNL     1       0.271 -31.637   6.806  1.00  0.00     0.009 C 
ATOM     21  C   UNL     1      -0.683 -30.434   4.775  1.00  0.00     0.015 C 
ATOM     22  C   UNL     1       1.784 -31.093   4.761  1.00  0.00     0.016 C 
ATOM     23  C   UNL     1      -0.242 -33.068   6.338  1.00  0.00     0.005 C 
ATOM     24  C   UNL     1      -1.675 -31.614   4.787  1.00  0.00     0.047 C 
ATOM     25  C   UNL     1      -0.992 -32.972   4.957  1.00  0.00     0.182 C 
ATOM     26  C   UNL     1       0.914 -34.095   6.218  1.00  0.00     0.015 C 
ATOM     27  C   UNL     1      -1.217 -33.612   7.421  1.00  0.00     0.015 C 
BRANCH   7  28
ATOM     28  O   UNL     1       5.276 -26.650   9.017  1.00  0.00    -0.393 OA
ATOM     29  H   UNL     1       5.417 -27.187   9.840  1.00  0.00     0.210 HD
ENDBRANCH   7  28
BRANCH  25  30
ATOM     30  O   UNL     1      -1.993 -33.988   4.824  1.00  0.00    -0.462 OA
BRANCH  30  31
ATOM     31  C   UNL     1      -3.174 -33.845   4.085  1.00  0.00     0.302 C 
ATOM     32  O   UNL     1      -3.157 -33.841   2.826  1.00  0.00    -0.253 OA
ATOM     33  C   UNL     1      -4.475 -33.738   4.808  1.00  0.00     0.139 C 
ENDBRANCH  30  31
ENDBRANCH  25  30
ENDBRANCH   2   6
ENDBRANCH   1   2
BRANCH   1  34
ATOM     34  C   UNL     1       6.034 -25.307   4.581  1.00  0.00     0.031 C 
BRANCH  34  35
ATOM     35  C   UNL     1       5.045 -25.490   3.451  1.00  0.00    -0.075 C 
ATOM     36  C   UNL     1       4.617 -26.728   3.143  1.00  0.00     0.008 C 
BRANCH  35  37
ATOM     37  C   UNL     1       4.556 -24.272   2.677  1.00  0.00     0.008 C 
ATOM     38  C   UNL     1       4.099 -23.157   3.624  1.00  0.00     0.012 C 
ATOM     39  C   UNL     1       5.622 -23.769   1.698  1.00  0.00     0.012 C 
ENDBRANCH  35  37
ENDBRANCH  34  35
ENDBRANCH   1  34
TORSDOF 9
ENDMDL
MODEL 7
REMARK VINA RESULT:    -4.946      2.229      9.783
REMARK INTER + INTRA:          -8.414
REMARK INTER:                  -7.863
REMARK INTRA:                  -0.551
REMARK UNBOUND:                -1.010
REMARK SMILES C=C(CC[C@H](C(=O)[O-])[C@@H]1[C@H](O)C[C@]2(C)C3=C(CC[C@@]12C)[C@]1(C)CC[C@H](OC(C)=O)C(C)(C)[C@H]1CC3)C(C)C
REMARK SMILES IDX 4 1 5 2 6 3 7 4 8 5 9 6 10 7 19 8 12 9 13 10 18 11 20 12
REMARK SMILES IDX 14 13 15 14 17 15 16 16 35 17 21 18 34 19 33 20 23 21 22 22
REMARK SMILES IDX 30 23 24 24 25 25 31 26 32 27 11 28 26 30 27 31 29 32 28 33
REMARK SMILES IDX 3 34 2 35 1 36 36 37 37 38 38 39
REMARK H PARENT 11 29
REMARK Flexibility Score: inf
ROOT
ATOM      1  C   UNL     1      -1.622 -30.481   8.396  1.00  0.00     0.014 C 
ENDROOT
BRANCH   1   2
ATOM      2  C   UNL     1      -0.418 -29.598   7.965  1.00  0.00     0.042 C 
BRANCH   2   3
ATOM      3  C   UNL     1      -0.564 -28.213   8.543  1.00  0.00     0.045 C 
ATOM      4  O   UNL     1      -1.634 -27.564   8.399  1.00  0.00    -0.550 OA
ATOM      5  O   UNL     1       0.473 -27.661   9.283  1.00  0.00    -0.550 OA
ENDBRANCH   2   3
BRANCH   2   6
ATOM      6  C   UNL     1      -0.175 -29.579   6.415  1.00  0.00     0.033 C 
ATOM      7  C   UNL     1      -0.657 -30.862   5.667  1.00  0.00     0.119 C 
ATOM      8  C   UNL     1       1.289 -29.396   5.907  1.00  0.00    -0.017 C 
ATOM      9  C   UNL     1       0.333 -31.102   4.505  1.00  0.00     0.043 C 
ATOM     10  C   UNL     1       1.172 -29.817   4.410  1.00  0.00    -0.003 C 
ATOM     11  C   UNL     1       1.857 -27.962   5.962  1.00  0.00     0.012 C 
ATOM     12  C   UNL     1       2.253 -30.325   6.726  1.00  0.00     0.013 C 
ATOM     13  C   UNL     1       0.380 -28.821   3.500  1.00  0.00     0.017 C 
ATOM     14  C   UNL     1       2.572 -29.933   3.815  1.00  0.00    -0.064 C 
ATOM     15  C   UNL     1       3.076 -27.756   5.015  1.00  0.00     0.032 C 
ATOM     16  C   UNL     1       3.474 -28.931   4.085  1.00  0.00    -0.064 C 
ATOM     17  C   UNL     1       2.830 -30.985   2.750  1.00  0.00     0.032 C 
ATOM     18  C   UNL     1       4.940 -29.003   3.584  1.00  0.00    -0.008 C 
ATOM     19  C   UNL     1       4.307 -31.222   2.468  1.00  0.00     0.009 C 
ATOM     20  C   UNL     1       5.035 -29.877   2.283  1.00  0.00     0.009 C 
ATOM     21  C   UNL     1       5.467 -27.561   3.248  1.00  0.00     0.015 C 
ATOM     22  C   UNL     1       5.760 -29.594   4.765  1.00  0.00     0.016 C 
ATOM     23  C   UNL     1       6.481 -29.998   1.633  1.00  0.00     0.005 C 
ATOM     24  C   UNL     1       6.462 -27.472   2.074  1.00  0.00     0.047 C 
ATOM     25  C   UNL     1       7.343 -28.716   1.937  1.00  0.00     0.182 C 
ATOM     26  C   UNL     1       7.245 -31.253   2.130  1.00  0.00     0.015 C 
ATOM     27  C   UNL     1       6.310 -30.155   0.095  1.00  0.00     0.015 C 
BRANCH   7  28
ATOM     28  O   UNL     1      -0.664 -31.986   6.512  1.00  0.00    -0.393 OA
ATOM     29  H   UNL     1      -1.318 -32.625   6.126  1.00  0.00     0.210 HD
ENDBRANCH   7  28
BRANCH  25  30
ATOM     30  O   UNL     1       8.302 -28.464   0.903  1.00  0.00    -0.462 OA
BRANCH  30  31
ATOM     31  C   UNL     1       8.521 -27.212   0.314  1.00  0.00     0.302 C 
ATOM     32  O   UNL     1       9.118 -26.295   0.938  1.00  0.00    -0.253 OA
ATOM     33  C   UNL     1       8.075 -26.983  -1.091  1.00  0.00     0.139 C 
ENDBRANCH  30  31
ENDBRANCH  25  30
ENDBRANCH   2   6
ENDBRANCH   1   2
BRANCH   1  34
ATOM     34  C   UNL     1      -1.543 -31.055   9.825  1.00  0.00     0.031 C 
BRANCH  34  35
ATOM     35  C   UNL     1      -1.317 -32.550   9.790  1.00  0.00    -0.075 C 
ATOM     36  C   UNL     1      -2.360 -33.370   9.562  1.00  0.00     0.008 C 
BRANCH  35  37
ATOM     37  C   UNL     1       0.083 -33.104  10.022  1.00  0.00     0.008 C 
ATOM     38  C   UNL     1       0.468 -34.116   8.936  1.00  0.00     0.012 C 
ATOM     39  C   UNL     1       1.118 -31.978  10.125  1.00  0.00     0.012 C 
ENDBRANCH  35  37
ENDBRANCH  34  35
ENDBRANCH   1  34
TORSDOF 9
ENDMDL
MODEL 8
REMARK VINA RESULT:    -4.821      2.817      9.146
REMARK INTER + INTRA:          -8.227
REMARK INTER:                  -7.067
REMARK INTRA:                  -1.160
REMARK UNBOUND:                -1.010
REMARK SMILES C=C(CC[C@H](C(=O)[O-])[C@@H]1[C@H](O)C[C@]2(C)C3=C(CC[C@@]12C)[C@]1(C)CC[C@H](OC(C)=O)C(C)(C)[C@H]1CC3)C(C)C
REMARK SMILES IDX 4 1 5 2 6 3 7 4 8 5 9 6 10 7 19 8 12 9 13 10 18 11 20 12
REMARK SMILES IDX 14 13 15 14 17 15 16 16 35 17 21 18 34 19 33 20 23 21 22 22
REMARK SMILES IDX 30 23 24 24 25 25 31 26 32 27 11 28 26 30 27 31 29 32 28 33
REMARK SMILES IDX 3 34 2 35 1 36 36 37 37 38 38 39
REMARK H PARENT 11 29
REMARK Flexibility Score: inf
ROOT
ATOM      1  C   UNL     1      -1.282 -31.885   8.100  1.00  0.00     0.014 C 
ENDROOT
BRANCH   1   2
ATOM      2  C   UNL     1      -0.057 -30.978   7.797  1.00  0.00     0.042 C 
BRANCH   2   3
ATOM      3  C   UNL     1      -0.247 -29.627   8.438  1.00  0.00     0.045 C 
ATOM      4  O   UNL     1       0.529 -29.230   9.349  1.00  0.00    -0.550 OA
ATOM      5  O   UNL     1      -1.257 -28.786   7.990  1.00  0.00    -0.550 OA
ENDBRANCH   2   3
BRANCH   2   6
ATOM      6  C   UNL     1       0.287 -30.874   6.269  1.00  0.00     0.033 C 
ATOM      7  C   UNL     1       0.548 -32.246   5.569  1.00  0.00     0.119 C 
ATOM      8  C   UNL     1       1.523 -30.018   5.855  1.00  0.00    -0.017 C 
ATOM      9  C   UNL     1       1.632 -32.002   4.495  1.00  0.00     0.043 C 
ATOM     10  C   UNL     1       1.759 -30.473   4.381  1.00  0.00    -0.003 C 
ATOM     11  C   UNL     1       1.328 -28.487   5.862  1.00  0.00     0.012 C 
ATOM     12  C   UNL     1       2.736 -30.351   6.794  1.00  0.00     0.013 C 
ATOM     13  C   UNL     1       0.672 -30.000   3.360  1.00  0.00     0.017 C 
ATOM     14  C   UNL     1       3.090 -29.911   3.894  1.00  0.00    -0.064 C 
ATOM     15  C   UNL     1       2.380 -27.737   4.991  1.00  0.00     0.032 C 
ATOM     16  C   UNL     1       3.373 -28.593   4.164  1.00  0.00    -0.064 C 
ATOM     17  C   UNL     1       3.916 -30.730   2.916  1.00  0.00     0.032 C 
ATOM     18  C   UNL     1       4.734 -27.959   3.772  1.00  0.00    -0.008 C 
ATOM     19  C   UNL     1       5.344 -30.230   2.752  1.00  0.00     0.009 C 
ATOM     20  C   UNL     1       5.353 -28.705   2.537  1.00  0.00     0.009 C 
ATOM     21  C   UNL     1       4.534 -26.449   3.387  1.00  0.00     0.015 C 
ATOM     22  C   UNL     1       5.626 -28.058   5.041  1.00  0.00     0.016 C 
ATOM     23  C   UNL     1       6.732 -28.127   1.997  1.00  0.00     0.005 C 
ATOM     24  C   UNL     1       5.466 -25.914   2.281  1.00  0.00     0.047 C 
ATOM     25  C   UNL     1       6.843 -26.582   2.282  1.00  0.00     0.182 C 
ATOM     26  C   UNL     1       7.955 -28.847   2.622  1.00  0.00     0.015 C 
ATOM     27  C   UNL     1       6.797 -28.377   0.463  1.00  0.00     0.015 C 
BRANCH   7  28
ATOM     28  O   UNL     1       1.003 -33.216   6.478  1.00  0.00    -0.393 OA
ATOM     29  H   UNL     1       1.981 -33.306   6.330  1.00  0.00     0.210 HD
ENDBRANCH   7  28
BRANCH  25  30
ATOM     30  O   UNL     1       7.654 -25.918   1.305  1.00  0.00    -0.462 OA
BRANCH  30  31
ATOM     31  C   UNL     1       8.144 -24.613   1.436  1.00  0.00     0.302 C 
ATOM     32  O   UNL     1       8.283 -23.866   0.431  1.00  0.00    -0.253 OA
ATOM     33  C   UNL     1       8.466 -24.091   2.796  1.00  0.00     0.139 C 
ENDBRANCH  30  31
ENDBRANCH  25  30
ENDBRANCH   2   6
ENDBRANCH   1   2
BRANCH   1  34
ATOM     34  C   UNL     1      -2.500 -31.681   7.177  1.00  0.00     0.031 C 
BRANCH  34  35
ATOM     35  C   UNL     1      -2.845 -32.964   6.453  1.00  0.00    -0.075 C 
ATOM     36  C   UNL     1      -2.851 -34.125   7.135  1.00  0.00     0.008 C 
BRANCH  35  37
ATOM     37  C   UNL     1      -3.170 -32.924   4.965  1.00  0.00     0.008 C 
ATOM     38  C   UNL     1      -2.845 -31.553   4.362  1.00  0.00     0.012 C 
ATOM     39  C   UNL     1      -2.457 -34.049   4.208  1.00  0.00     0.012 C 
ENDBRANCH  35  37
ENDBRANCH  34  35
ENDBRANCH   1  34
TORSDOF 9
ENDMDL
MODEL 9
REMARK VINA RESULT:    -4.796      3.347      5.657
REMARK INTER + INTRA:          -8.190
REMARK INTER:                  -7.919
REMARK INTRA:                  -0.271
REMARK UNBOUND:                -1.010
REMARK SMILES C=C(CC[C@H](C(=O)[O-])[C@@H]1[C@H](O)C[C@]2(C)C3=C(CC[C@@]12C)[C@]1(C)CC[C@H](OC(C)=O)C(C)(C)[C@H]1CC3)C(C)C
REMARK SMILES IDX 4 1 5 2 6 3 7 4 8 5 9 6 10 7 19 8 12 9 13 10 18 11 20 12
REMARK SMILES IDX 14 13 15 14 17 15 16 16 35 17 21 18 34 19 33 20 23 21 22 22
REMARK SMILES IDX 30 23 24 24 25 25 31 26 32 27 11 28 26 30 27 31 29 32 28 33
REMARK SMILES IDX 3 34 2 35 1 36 36 37 37 38 38 39
REMARK H PARENT 11 29
REMARK Flexibility Score: inf
ROOT
ATOM      1  C   UNL     1       6.055 -27.607   4.107  1.00  0.00     0.014 C 
ENDROOT
BRANCH   1   2
ATOM      2  C   UNL     1       4.852 -26.696   3.735  1.00  0.00     0.042 C 
BRANCH   2   3
ATOM      3  C   UNL     1       5.349 -25.343   3.295  1.00  0.00     0.045 C 
ATOM      4  O   UNL     1       4.722 -24.676   2.429  1.00  0.00    -0.550 OA
ATOM      5  O   UNL     1       6.484 -24.799   3.881  1.00  0.00    -0.550 OA
ENDBRANCH   2   3
BRANCH   2   6
ATOM      6  C   UNL     1       3.764 -26.598   4.863  1.00  0.00     0.033 C 
ATOM      7  C   UNL     1       4.320 -26.195   6.265  1.00  0.00     0.119 C 
ATOM      8  C   UNL     1       2.909 -27.867   5.166  1.00  0.00    -0.017 C 
ATOM      9  C   UNL     1       3.468 -26.941   7.316  1.00  0.00     0.043 C 
ATOM     10  C   UNL     1       2.267 -27.509   6.541  1.00  0.00    -0.003 C 
ATOM     11  C   UNL     1       1.773 -28.179   4.169  1.00  0.00     0.012 C 
ATOM     12  C   UNL     1       3.841 -29.128   5.241  1.00  0.00     0.013 C 
ATOM     13  C   UNL     1       1.182 -26.383   6.493  1.00  0.00     0.017 C 
ATOM     14  C   UNL     1       1.584 -28.749   7.110  1.00  0.00    -0.064 C 
ATOM     15  C   UNL     1       0.682 -29.116   4.768  1.00  0.00     0.032 C 
ATOM     16  C   UNL     1       0.804 -29.502   6.264  1.00  0.00    -0.064 C 
ATOM     17  C   UNL     1       1.570 -28.951   8.615  1.00  0.00     0.032 C 
ATOM     18  C   UNL     1       0.134 -30.819   6.737  1.00  0.00    -0.008 C 
ATOM     19  C   UNL     1       1.155 -30.352   9.042  1.00  0.00     0.009 C 
ATOM     20  C   UNL     1      -0.116 -30.783   8.287  1.00  0.00     0.009 C 
ATOM     21  C   UNL     1      -1.250 -31.007   6.019  1.00  0.00     0.015 C 
ATOM     22  C   UNL     1       1.100 -31.960   6.312  1.00  0.00     0.016 C 
ATOM     23  C   UNL     1      -0.844 -32.056   8.901  1.00  0.00     0.005 C 
ATOM     24  C   UNL     1      -2.346 -31.699   6.853  1.00  0.00     0.047 C 
ATOM     25  C   UNL     1      -1.790 -32.731   7.838  1.00  0.00     0.182 C 
ATOM     26  C   UNL     1       0.165 -33.112   9.425  1.00  0.00     0.015 C 
ATOM     27  C   UNL     1      -1.686 -31.592  10.124  1.00  0.00     0.015 C 
BRANCH   7  28
ATOM     28  O   UNL     1       5.669 -26.560   6.416  1.00  0.00    -0.393 OA
ATOM     29  H   UNL     1       6.144 -25.755   6.752  1.00  0.00     0.210 HD
ENDBRANCH   7  28
BRANCH  25  30
ATOM     30  O   UNL     1      -2.900 -33.391   8.457  1.00  0.00    -0.462 OA
BRANCH  30  31
ATOM     31  C   UNL     1      -4.210 -33.371   7.963  1.00  0.00     0.302 C 
ATOM     32  O   UNL     1      -4.551 -34.102   6.996  1.00  0.00    -0.253 OA
ATOM     33  C   UNL     1      -5.223 -32.498   8.625  1.00  0.00     0.139 C 
ENDBRANCH  30  31
ENDBRANCH  25  30
ENDBRANCH   2   6
ENDBRANCH   1   2
BRANCH   1  34
ATOM     34  C   UNL     1       6.681 -28.387   2.932  1.00  0.00     0.031 C 
BRANCH  34  35
ATOM     35  C   UNL     1       6.944 -29.824   3.324  1.00  0.00    -0.075 C 
ATOM     36  C   UNL     1       7.989 -30.110   4.124  1.00  0.00     0.008 C 
BRANCH  35  37
ATOM     37  C   UNL     1       6.030 -30.925   2.801  1.00  0.00     0.008 C 
ATOM     38  C   UNL     1       4.896 -30.348   1.946  1.00  0.00     0.012 C 
ATOM     39  C   UNL     1       6.821 -31.988   2.032  1.00  0.00     0.012 C 
ENDBRANCH  35  37
ENDBRANCH  34  35
ENDBRANCH   1  34
TORSDOF 9
ENDMDL
