MODEL 1
REMARK VINA RESULT:    -3.632      0.000      0.000
REMARK INTER + INTRA:          -4.378
REMARK INTER:                  -4.269
REMARK INTRA:                  -0.109
REMARK UNBOUND:                -0.109
REMARK SMILES O=C([O-])CCC(=O)[O-]
REMARK SMILES IDX 4 1 2 2 1 3 3 4 5 5 6 6 7 7 8 8
REMARK H PARENT
REMARK Flexibility Score: inf
ROOT
ATOM      1  C   UNL     1     -10.132  37.371   5.412  1.00  0.00     0.059 C 
ENDROOT
BRANCH   1   2
ATOM      2  C   UNL     1      -8.690  37.122   5.735  1.00  0.00     0.042 C 
ATOM      3  O   UNL     1      -8.229  35.950   5.712  1.00  0.00    -0.550 OA
ATOM      4  O   UNL     1      -7.867  38.179   6.100  1.00  0.00    -0.550 OA
ENDBRANCH   1   2
BRANCH   1   5
ATOM      5  C   UNL     1     -10.459  38.868   5.411  1.00  0.00     0.059 C 
BRANCH   5   6
ATOM      6  C   UNL     1     -11.407  39.227   6.514  1.00  0.00     0.042 C 
ATOM      7  O   UNL     1     -11.204  38.808   7.684  1.00  0.00    -0.550 OA
ATOM      8  O   UNL     1     -12.492  40.057   6.258  1.00  0.00    -0.550 OA
ENDBRANCH   5   6
ENDBRANCH   1   5
TORSDOF 3
ENDMDL
MODEL 2
REMARK VINA RESULT:    -3.622      0.149      3.921
REMARK INTER + INTRA:          -4.366
REMARK INTER:                  -4.278
REMARK INTRA:                  -0.088
REMARK UNBOUND:                -0.109
REMARK SMILES O=C([O-])CCC(=O)[O-]
REMARK SMILES IDX 4 1 2 2 1 3 3 4 5 5 6 6 7 7 8 8
REMARK H PARENT
REMARK Flexibility Score: inf
ROOT
ATOM      1  C   UNL     1     -10.435  38.841   5.427  1.00  0.00     0.059 C 
ENDROOT
BRANCH   1   2
ATOM      2  C   UNL     1     -11.464  39.228   6.445  1.00  0.00     0.042 C 
ATOM      3  O   UNL     1     -11.479  38.673   7.574  1.00  0.00    -0.550 OA
ATOM      4  O   UNL     1     -12.432  40.174   6.130  1.00  0.00    -0.550 OA
ENDBRANCH   1   2
BRANCH   1   5
ATOM      5  C   UNL     1     -10.107  37.346   5.498  1.00  0.00     0.059 C 
BRANCH   5   6
ATOM      6  C   UNL     1      -8.649  37.113   5.757  1.00  0.00     0.042 C 
ATOM      7  O   UNL     1      -8.178  35.947   5.720  1.00  0.00    -0.550 OA
ATOM      8  O   UNL     1      -7.804  38.190   5.999  1.00  0.00    -0.550 OA
ENDBRANCH   5   6
ENDBRANCH   1   5
TORSDOF 3
ENDMDL
MODEL 3
REMARK VINA RESULT:    -3.600      1.520      4.168
REMARK INTER + INTRA:          -4.341
REMARK INTER:                  -4.290
REMARK INTRA:                  -0.051
REMARK UNBOUND:                -0.109
REMARK SMILES O=C([O-])CCC(=O)[O-]
REMARK SMILES IDX 4 1 2 2 1 3 3 4 5 5 6 6 7 7 8 8
REMARK H PARENT
REMARK Flexibility Score: inf
ROOT
ATOM      1  C   UNL     1      -9.855  37.142   5.492  1.00  0.00     0.059 C 
ENDROOT
BRANCH   1   2
ATOM      2  C   UNL     1      -9.845  38.602   5.830  1.00  0.00     0.042 C 
ATOM      3  O   UNL     1     -10.856  39.314   5.594  1.00  0.00    -0.550 OA
ATOM      4  O   UNL     1      -8.704  39.184   6.367  1.00  0.00    -0.550 OA
ENDBRANCH   1   2
BRANCH   1   5
ATOM      5  C   UNL     1      -8.451  36.534   5.576  1.00  0.00     0.059 C 
BRANCH   5   6
ATOM      6  C   UNL     1      -8.495  35.102   6.012  1.00  0.00     0.042 C 
ATOM      7  O   UNL     1      -9.389  34.709   6.807  1.00  0.00    -0.550 OA
ATOM      8  O   UNL     1      -7.573  34.192   5.509  1.00  0.00    -0.550 OA
ENDBRANCH   5   6
ENDBRANCH   1   5
TORSDOF 3
ENDMDL
MODEL 4
REMARK VINA RESULT:    -3.589      1.487      2.567
REMARK INTER + INTRA:          -4.327
REMARK INTER:                  -4.264
REMARK INTRA:                  -0.063
REMARK UNBOUND:                -0.109
REMARK SMILES O=C([O-])CCC(=O)[O-]
REMARK SMILES IDX 4 1 2 2 1 3 3 4 5 5 6 6 7 7 8 8
REMARK H PARENT
REMARK Flexibility Score: inf
ROOT
ATOM      1  C   UNL     1      -8.535  36.555   5.505  1.00  0.00     0.059 C 
ENDROOT
BRANCH   1   2
ATOM      2  C   UNL     1      -8.596  35.195   6.130  1.00  0.00     0.042 C 
ATOM      3  O   UNL     1      -9.521  34.906   6.933  1.00  0.00    -0.550 OA
ATOM      4  O   UNL     1      -7.606  34.259   5.855  1.00  0.00    -0.550 OA
ENDBRANCH   1   2
BRANCH   1   5
ATOM      5  C   UNL     1      -9.918  37.213   5.450  1.00  0.00     0.059 C 
BRANCH   5   6
ATOM      6  C   UNL     1      -9.857  38.659   5.835  1.00  0.00     0.042 C 
ATOM      7  O   UNL     1     -10.862  39.400   5.674  1.00  0.00    -0.550 OA
ATOM      8  O   UNL     1      -8.704  39.179   6.410  1.00  0.00    -0.550 OA
ENDBRANCH   5   6
ENDBRANCH   1   5
TORSDOF 3
ENDMDL
MODEL 5
REMARK VINA RESULT:    -3.572      1.512      4.134
REMARK INTER + INTRA:          -4.307
REMARK INTER:                  -4.241
REMARK INTRA:                  -0.066
REMARK UNBOUND:                -0.109
REMARK SMILES O=C([O-])CCC(=O)[O-]
REMARK SMILES IDX 4 1 2 2 1 3 3 4 5 5 6 6 7 7 8 8
REMARK H PARENT
REMARK Flexibility Score: inf
ROOT
ATOM      1  C   UNL     1      -9.898  37.158   5.465  1.00  0.00     0.059 C 
ENDROOT
BRANCH   1   2
ATOM      2  C   UNL     1      -9.826  38.600   5.867  1.00  0.00     0.042 C 
ATOM      3  O   UNL     1      -8.761  39.073   6.342  1.00  0.00    -0.550 OA
ATOM      4  O   UNL     1     -10.949  39.410   5.754  1.00  0.00    -0.550 OA
ENDBRANCH   1   2
BRANCH   1   5
ATOM      5  C   UNL     1      -8.527  36.480   5.547  1.00  0.00     0.059 C 
BRANCH   5   6
ATOM      6  C   UNL     1      -8.620  35.119   6.165  1.00  0.00     0.042 C 
ATOM      7  O   UNL     1      -9.592  34.827   6.909  1.00  0.00    -0.550 OA
ATOM      8  O   UNL     1      -7.654  34.159   5.886  1.00  0.00    -0.550 OA
ENDBRANCH   5   6
ENDBRANCH   1   5
TORSDOF 3
ENDMDL
MODEL 6
REMARK VINA RESULT:    -3.470      1.454      2.051
REMARK INTER + INTRA:          -4.188
REMARK INTER:                  -4.094
REMARK INTRA:                  -0.094
REMARK UNBOUND:                -0.109
REMARK SMILES O=C([O-])CCC(=O)[O-]
REMARK SMILES IDX 4 1 2 2 1 3 3 4 5 5 6 6 7 7 8 8
REMARK H PARENT
REMARK Flexibility Score: inf
ROOT
ATOM      1  C   UNL     1      -8.582  36.719   5.517  1.00  0.00     0.059 C 
ENDROOT
BRANCH   1   2
ATOM      2  C   UNL     1      -8.575  35.353   6.133  1.00  0.00     0.042 C 
ATOM      3  O   UNL     1      -7.701  34.511   5.798  1.00  0.00    -0.550 OA
ATOM      4  O   UNL     1      -9.558  34.998   7.048  1.00  0.00    -0.550 OA
ENDBRANCH   1   2
BRANCH   1   5
ATOM      5  C   UNL     1     -10.006  37.266   5.375  1.00  0.00     0.059 C 
BRANCH   5   6
ATOM      6  C   UNL     1     -10.162  38.585   6.068  1.00  0.00     0.042 C 
ATOM      7  O   UNL     1      -9.354  38.925   6.971  1.00  0.00    -0.550 OA
ATOM      8  O   UNL     1     -11.176  39.456   5.688  1.00  0.00    -0.550 OA
ENDBRANCH   5   6
ENDBRANCH   1   5
TORSDOF 3
ENDMDL
MODEL 7
REMARK VINA RESULT:    -3.454      2.010      2.980
REMARK INTER + INTRA:          -4.168
REMARK INTER:                  -4.040
REMARK INTRA:                  -0.129
REMARK UNBOUND:                -0.109
REMARK SMILES O=C([O-])CCC(=O)[O-]
REMARK SMILES IDX 4 1 2 2 1 3 3 4 5 5 6 6 7 7 8 8
REMARK H PARENT
REMARK Flexibility Score: inf
ROOT
ATOM      1  C   UNL     1      -8.675  37.118   5.855  1.00  0.00     0.059 C 
ENDROOT
BRANCH   1   2
ATOM      2  C   UNL     1      -8.881  38.583   6.093  1.00  0.00     0.042 C 
ATOM      3  O   UNL     1      -7.987  39.265   6.659  1.00  0.00    -0.550 OA
ATOM      4  O   UNL     1     -10.077  39.186   5.725  1.00  0.00    -0.550 OA
ENDBRANCH   1   2
BRANCH   1   5
ATOM      5  C   UNL     1     -10.006  36.388   5.649  1.00  0.00     0.059 C 
BRANCH   5   6
ATOM      6  C   UNL     1     -10.592  35.932   6.950  1.00  0.00     0.042 C 
ATOM      7  O   UNL     1     -10.115  34.929   7.543  1.00  0.00    -0.550 OA
ATOM      8  O   UNL     1     -11.639  36.639   7.529  1.00  0.00    -0.550 OA
ENDBRANCH   5   6
ENDBRANCH   1   5
TORSDOF 3
ENDMDL
MODEL 8
REMARK VINA RESULT:    -3.434      1.998      3.055
REMARK INTER + INTRA:          -4.145
REMARK INTER:                  -3.968
REMARK INTRA:                  -0.177
REMARK UNBOUND:                -0.109
REMARK SMILES O=C([O-])CCC(=O)[O-]
REMARK SMILES IDX 4 1 2 2 1 3 3 4 5 5 6 6 7 7 8 8
REMARK H PARENT
REMARK Flexibility Score: inf
ROOT
ATOM      1  C   UNL     1      -9.318  36.201   6.807  1.00  0.00     0.059 C 
ENDROOT
BRANCH   1   2
ATOM      2  C   UNL     1     -10.456  36.321   7.775  1.00  0.00     0.042 C 
ATOM      3  O   UNL     1     -11.638  36.116   7.394  1.00  0.00    -0.550 OA
ATOM      4  O   UNL     1     -10.213  36.698   9.090  1.00  0.00    -0.550 OA
ENDBRANCH   1   2
BRANCH   1   5
ATOM      5  C   UNL     1      -9.538  37.073   5.567  1.00  0.00     0.059 C 
BRANCH   5   6
ATOM      6  C   UNL     1      -9.483  38.532   5.902  1.00  0.00     0.042 C 
ATOM      7  O   UNL     1     -10.470  39.275   5.660  1.00  0.00    -0.550 OA
ATOM      8  O   UNL     1      -8.357  39.063   6.519  1.00  0.00    -0.550 OA
ENDBRANCH   5   6
ENDBRANCH   1   5
TORSDOF 3
ENDMDL
MODEL 9
REMARK VINA RESULT:    -3.236      3.720      5.364
REMARK INTER + INTRA:          -3.912
REMARK INTER:                  -3.803
REMARK INTRA:                  -0.109
REMARK UNBOUND:                -0.109
REMARK SMILES O=C([O-])CCC(=O)[O-]
REMARK SMILES IDX 4 1 2 2 1 3 3 4 5 5 6 6 7 7 8 8
REMARK H PARENT
REMARK Flexibility Score: inf
ROOT
ATOM      1  C   UNL     1      -6.489  33.713   5.730  1.00  0.00     0.059 C 
ENDROOT
BRANCH   1   2
ATOM      2  C   UNL     1      -6.387  32.392   6.429  1.00  0.00     0.042 C 
ATOM      3  O   UNL     1      -7.411  31.861   6.933  1.00  0.00    -0.550 OA
ATOM      4  O   UNL     1      -5.153  31.768   6.561  1.00  0.00    -0.550 OA
ENDBRANCH   1   2
BRANCH   1   5
ATOM      5  C   UNL     1      -7.909  33.972   5.217  1.00  0.00     0.059 C 
BRANCH   5   6
ATOM      6  C   UNL     1      -8.586  35.060   5.993  1.00  0.00     0.042 C 
ATOM      7  O   UNL     1      -9.405  34.772   6.904  1.00  0.00    -0.550 OA
ATOM      8  O   UNL     1      -8.281  36.392   5.737  1.00  0.00    -0.550 OA
ENDBRANCH   5   6
ENDBRANCH   1   5
TORSDOF 3
ENDMDL
