MODEL 1
REMARK VINA RESULT:    -3.432      0.000      0.000
REMARK INTER + INTRA:          -7.286
REMARK INTER:                  -6.641
REMARK INTRA:                  -0.645
REMARK UNBOUND:                -0.645
REMARK SMILES CCCCCCCCCCCCCCCCCC(=O)[O-]
REMARK SMILES IDX 10 1 11 2 12 3 13 4 14 5 15 6 16 7 17 8 18 9 19 10 20 11
REMARK SMILES IDX 9 12 8 13 7 14 6 15 5 16 4 17 3 18 2 19 1 20
REMARK H PARENT
REMARK Flexibility Score: inf
ROOT
ATOM      1  C   UNL     1      -4.536  20.426  16.256  1.00  0.00     0.000 C 
ENDROOT
BRANCH   1   2
ATOM      2  C   UNL     1      -5.137  20.898  14.917  1.00  0.00     0.000 C 
BRANCH   2   3
ATOM      3  C   UNL     1      -6.589  21.404  15.000  1.00  0.00     0.000 C 
BRANCH   3   4
ATOM      4  C   UNL     1      -7.579  20.307  15.422  1.00  0.00     0.000 C 
BRANCH   4   5
ATOM      5  C   UNL     1      -8.559  20.831  16.481  1.00  0.00     0.000 C 
BRANCH   5   6
ATOM      6  C   UNL     1      -7.944  20.896  17.891  1.00  0.00     0.000 C 
BRANCH   6   7
ATOM      7  C   UNL     1      -8.544  21.973  18.813  1.00  0.00     0.006 C 
BRANCH   7   8
ATOM      8  C   UNL     1      -8.462  21.599  20.299  1.00  0.00     0.053 C 
BRANCH   8   9
ATOM      9  C   UNL     1      -8.168  22.810  21.126  1.00  0.00     0.041 C 
ATOM     10  O   UNL     1      -8.444  22.821  22.354  1.00  0.00    -0.550 OA
ATOM     11  O   UNL     1      -7.546  23.910  20.552  1.00  0.00    -0.550 OA
ENDBRANCH   8   9
ENDBRANCH   7   8
ENDBRANCH   6   7
ENDBRANCH   5   6
ENDBRANCH   4   5
ENDBRANCH   3   4
ENDBRANCH   2   3
ENDBRANCH   1   2
BRANCH   1  12
ATOM     12  C   UNL     1      -3.098  19.875  16.169  1.00  0.00     0.000 C 
BRANCH  12  13
ATOM     13  C   UNL     1      -2.054  20.658  16.986  1.00  0.00    -0.000 C 
BRANCH  13  14
ATOM     14  C   UNL     1      -0.666  20.003  16.961  1.00  0.00    -0.000 C 
BRANCH  14  15
ATOM     15  C   UNL     1       0.342  20.880  16.202  1.00  0.00    -0.000 C 
BRANCH  15  16
ATOM     16  C   UNL     1       1.678  20.164  15.933  1.00  0.00    -0.000 C 
BRANCH  16  17
ATOM     17  C   UNL     1       2.872  20.691  16.748  1.00  0.00    -0.000 C 
BRANCH  17  18
ATOM     18  C   UNL     1       4.230  20.332  16.122  1.00  0.00    -0.000 C 
BRANCH  18  19
ATOM     19  C   UNL     1       5.334  21.332  16.497  1.00  0.00    -0.003 C 
ATOM     20  C   UNL     1       6.732  20.827  16.143  1.00  0.00     0.004 C 
ENDBRANCH  18  19
ENDBRANCH  17  18
ENDBRANCH  16  17
ENDBRANCH  15  16
ENDBRANCH  14  15
ENDBRANCH  13  14
ENDBRANCH  12  13
ENDBRANCH   1  12
TORSDOF 16
ENDMDL
MODEL 2
REMARK VINA RESULT:    -3.248      5.049     10.766
REMARK INTER + INTRA:          -6.931
REMARK INTER:                  -6.275
REMARK INTRA:                  -0.656
REMARK UNBOUND:                -0.645
REMARK SMILES CCCCCCCCCCCCCCCCCC(=O)[O-]
REMARK SMILES IDX 10 1 11 2 12 3 13 4 14 5 15 6 16 7 17 8 18 9 19 10 20 11
REMARK SMILES IDX 9 12 8 13 7 14 6 15 5 16 4 17 3 18 2 19 1 20
REMARK H PARENT
REMARK Flexibility Score: inf
ROOT
ATOM      1  C   UNL     1      -3.368  20.639  16.322  1.00  0.00     0.000 C 
ENDROOT
BRANCH   1   2
ATOM      2  C   UNL     1      -2.806  19.970  17.593  1.00  0.00     0.000 C 
BRANCH   2   3
ATOM      3  C   UNL     1      -1.269  19.916  17.672  1.00  0.00     0.000 C 
BRANCH   3   4
ATOM      4  C   UNL     1      -0.587  20.553  16.452  1.00  0.00     0.000 C 
BRANCH   4   5
ATOM      5  C   UNL     1       0.760  19.875  16.161  1.00  0.00     0.000 C 
BRANCH   5   6
ATOM      6  C   UNL     1       1.964  20.688  16.669  1.00  0.00     0.000 C 
BRANCH   6   7
ATOM      7  C   UNL     1       3.339  20.169  16.209  1.00  0.00     0.006 C 
BRANCH   7   8
ATOM      8  C   UNL     1       4.483  21.136  16.540  1.00  0.00     0.053 C 
BRANCH   8   9
ATOM      9  C   UNL     1       5.765  20.655  15.937  1.00  0.00     0.041 C 
ATOM     10  O   UNL     1       6.824  20.652  16.618  1.00  0.00    -0.550 OA
ATOM     11  O   UNL     1       5.781  20.167  14.637  1.00  0.00    -0.550 OA
ENDBRANCH   8   9
ENDBRANCH   7   8
ENDBRANCH   6   7
ENDBRANCH   5   6
ENDBRANCH   4   5
ENDBRANCH   3   4
ENDBRANCH   2   3
ENDBRANCH   1   2
BRANCH   1  12
ATOM     12  C   UNL     1      -4.806  20.228  15.948  1.00  0.00     0.000 C 
BRANCH  12  13
ATOM     13  C   UNL     1      -5.383  20.940  14.711  1.00  0.00    -0.000 C 
BRANCH  13  14
ATOM     14  C   UNL     1      -6.911  21.082  14.764  1.00  0.00    -0.000 C 
BRANCH  14  15
ATOM     15  C   UNL     1      -7.445  20.745  16.165  1.00  0.00    -0.000 C 
BRANCH  15  16
ATOM     16  C   UNL     1      -8.025  21.969  16.897  1.00  0.00    -0.000 C 
BRANCH  16  17
ATOM     17  C   UNL     1      -8.610  21.674  18.290  1.00  0.00    -0.000 C 
BRANCH  17  18
ATOM     18  C   UNL     1      -7.663  22.072  19.434  1.00  0.00    -0.000 C 
BRANCH  18  19
ATOM     19  C   UNL     1      -8.216  23.229  20.280  1.00  0.00    -0.003 C 
ATOM     20  C   UNL     1      -8.089  22.976  21.781  1.00  0.00     0.004 C 
ENDBRANCH  18  19
ENDBRANCH  17  18
ENDBRANCH  16  17
ENDBRANCH  15  16
ENDBRANCH  14  15
ENDBRANCH  13  14
ENDBRANCH  12  13
ENDBRANCH   1  12
TORSDOF 16
ENDMDL
MODEL 3
REMARK VINA RESULT:    -3.055      1.235      2.605
REMARK INTER + INTRA:          -6.558
REMARK INTER:                  -5.807
REMARK INTRA:                  -0.751
REMARK UNBOUND:                -0.645
REMARK SMILES CCCCCCCCCCCCCCCCCC(=O)[O-]
REMARK SMILES IDX 10 1 11 2 12 3 13 4 14 5 15 6 16 7 17 8 18 9 19 10 20 11
REMARK SMILES IDX 9 12 8 13 7 14 6 15 5 16 4 17 3 18 2 19 1 20
REMARK H PARENT
REMARK Flexibility Score: inf
ROOT
ATOM      1  C   UNL     1      -2.002  19.914  16.288  1.00  0.00     0.000 C 
ENDROOT
BRANCH   1   2
ATOM      2  C   UNL     1      -3.149  19.902  17.319  1.00  0.00     0.000 C 
BRANCH   2   3
ATOM      3  C   UNL     1      -4.565  19.916  16.715  1.00  0.00     0.000 C 
BRANCH   3   4
ATOM      4  C   UNL     1      -4.649  20.724  15.411  1.00  0.00     0.000 C 
BRANCH   4   5
ATOM      5  C   UNL     1      -6.111  20.994  15.027  1.00  0.00     0.000 C 
BRANCH   5   6
ATOM      6  C   UNL     1      -7.104  20.638  16.148  1.00  0.00     0.000 C 
BRANCH   6   7
ATOM      7  C   UNL     1      -7.686  21.844  16.907  1.00  0.00     0.006 C 
BRANCH   7   8
ATOM      8  C   UNL     1      -8.388  21.446  18.212  1.00  0.00     0.053 C 
BRANCH   8   9
ATOM      9  C   UNL     1      -7.523  21.767  19.389  1.00  0.00     0.041 C 
ATOM     10  O   UNL     1      -6.401  21.211  19.521  1.00  0.00    -0.550 OA
ATOM     11  O   UNL     1      -7.935  22.715  20.317  1.00  0.00    -0.550 OA
ENDBRANCH   8   9
ENDBRANCH   7   8
ENDBRANCH   6   7
ENDBRANCH   5   6
ENDBRANCH   4   5
ENDBRANCH   3   4
ENDBRANCH   2   3
ENDBRANCH   1   2
BRANCH   1  12
ATOM     12  C   UNL     1      -0.594  20.124  16.878  1.00  0.00     0.000 C 
BRANCH  12  13
ATOM     13  C   UNL     1       0.478  20.556  15.860  1.00  0.00    -0.000 C 
BRANCH  13  14
ATOM     14  C   UNL     1       1.764  21.062  16.529  1.00  0.00    -0.000 C 
BRANCH  14  15
ATOM     15  C   UNL     1       2.833  19.959  16.568  1.00  0.00    -0.000 C 
BRANCH  15  16
ATOM     16  C   UNL     1       4.235  20.468  16.183  1.00  0.00    -0.000 C 
BRANCH  16  17
ATOM     17  C   UNL     1       4.802  19.881  14.878  1.00  0.00    -0.000 C 
BRANCH  17  18
ATOM     18  C   UNL     1       6.215  20.393  14.556  1.00  0.00    -0.000 C 
BRANCH  18  19
ATOM     19  C   UNL     1       7.269  19.875  15.546  1.00  0.00    -0.003 C 
ATOM     20  C   UNL     1       8.144  20.992  16.114  1.00  0.00     0.004 C 
ENDBRANCH  18  19
ENDBRANCH  17  18
ENDBRANCH  16  17
ENDBRANCH  15  16
ENDBRANCH  14  15
ENDBRANCH  13  14
ENDBRANCH  12  13
ENDBRANCH   1  12
TORSDOF 16
ENDMDL
MODEL 4
REMARK VINA RESULT:    -2.899      2.960      5.980
REMARK INTER + INTRA:          -6.256
REMARK INTER:                  -5.836
REMARK INTRA:                  -0.420
REMARK UNBOUND:                -0.645
REMARK SMILES CCCCCCCCCCCCCCCCCC(=O)[O-]
REMARK SMILES IDX 10 1 11 2 12 3 13 4 14 5 15 6 16 7 17 8 18 9 19 10 20 11
REMARK SMILES IDX 9 12 8 13 7 14 6 15 5 16 4 17 3 18 2 19 1 20
REMARK H PARENT
REMARK Flexibility Score: inf
ROOT
ATOM      1  C   UNL     1       1.340  20.771  16.230  1.00  0.00     0.000 C 
ENDROOT
BRANCH   1   2
ATOM      2  C   UNL     1       0.274  19.875  16.893  1.00  0.00     0.000 C 
BRANCH   2   3
ATOM      3  C   UNL     1      -1.182  20.228  16.537  1.00  0.00     0.000 C 
BRANCH   3   4
ATOM      4  C   UNL     1      -2.070  20.414  17.777  1.00  0.00     0.000 C 
BRANCH   4   5
ATOM      5  C   UNL     1      -3.505  19.944  17.499  1.00  0.00     0.000 C 
BRANCH   5   6
ATOM      6  C   UNL     1      -3.858  19.943  16.001  1.00  0.00     0.000 C 
BRANCH   6   7
ATOM      7  C   UNL     1      -4.632  21.183  15.515  1.00  0.00     0.006 C 
BRANCH   7   8
ATOM      8  C   UNL     1      -5.781  20.833  14.561  1.00  0.00     0.053 C 
BRANCH   8   9
ATOM      9  C   UNL     1      -7.072  20.736  15.311  1.00  0.00     0.041 C 
ATOM     10  O   UNL     1      -8.141  21.145  14.787  1.00  0.00    -0.550 OA
ATOM     11  O   UNL     1      -7.102  20.153  16.571  1.00  0.00    -0.550 OA
ENDBRANCH   8   9
ENDBRANCH   7   8
ENDBRANCH   6   7
ENDBRANCH   5   6
ENDBRANCH   4   5
ENDBRANCH   3   4
ENDBRANCH   2   3
ENDBRANCH   1   2
BRANCH   1  12
ATOM     12  C   UNL     1       2.761  20.638  16.814  1.00  0.00     0.000 C 
BRANCH  12  13
ATOM     13  C   UNL     1       3.809  20.062  15.845  1.00  0.00    -0.000 C 
BRANCH  13  14
ATOM     14  C   UNL     1       5.209  20.654  16.061  1.00  0.00    -0.000 C 
BRANCH  14  15
ATOM     15  C   UNL     1       6.059  20.536  14.786  1.00  0.00    -0.000 C 
BRANCH  15  16
ATOM     16  C   UNL     1       7.556  20.792  15.037  1.00  0.00    -0.000 C 
BRANCH  16  17
ATOM     17  C   UNL     1       8.393  21.034  13.768  1.00  0.00    -0.000 C 
BRANCH  17  18
ATOM     18  C   UNL     1       9.685  21.821  14.045  1.00  0.00    -0.000 C 
BRANCH  18  19
ATOM     19  C   UNL     1      10.587  21.926  12.806  1.00  0.00    -0.003 C 
ATOM     20  C   UNL     1      10.606  23.332  12.208  1.00  0.00     0.004 C 
ENDBRANCH  18  19
ENDBRANCH  17  18
ENDBRANCH  16  17
ENDBRANCH  15  16
ENDBRANCH  14  15
ENDBRANCH  13  14
ENDBRANCH  12  13
ENDBRANCH   1  12
TORSDOF 16
ENDMDL
MODEL 5
REMARK VINA RESULT:    -2.888      2.443      4.720
REMARK INTER + INTRA:          -6.235
REMARK INTER:                  -5.717
REMARK INTRA:                  -0.517
REMARK UNBOUND:                -0.645
REMARK SMILES CCCCCCCCCCCCCCCCCC(=O)[O-]
REMARK SMILES IDX 10 1 11 2 12 3 13 4 14 5 15 6 16 7 17 8 18 9 19 10 20 11
REMARK SMILES IDX 9 12 8 13 7 14 6 15 5 16 4 17 3 18 2 19 1 20
REMARK H PARENT
REMARK Flexibility Score: inf
ROOT
ATOM      1  C   UNL     1      -0.144  20.022  16.055  1.00  0.00     0.000 C 
ENDROOT
BRANCH   1   2
ATOM      2  C   UNL     1      -1.449  20.786  16.357  1.00  0.00     0.000 C 
BRANCH   2   3
ATOM      3  C   UNL     1      -2.215  20.298  17.600  1.00  0.00     0.000 C 
BRANCH   3   4
ATOM      4  C   UNL     1      -3.661  19.886  17.286  1.00  0.00     0.000 C 
BRANCH   4   5
ATOM      5  C   UNL     1      -3.964  20.044  15.789  1.00  0.00     0.000 C 
BRANCH   5   6
ATOM      6  C   UNL     1      -4.937  21.198  15.491  1.00  0.00     0.000 C 
BRANCH   6   7
ATOM      7  C   UNL     1      -5.969  20.910  14.384  1.00  0.00     0.006 C 
BRANCH   7   8
ATOM      8  C   UNL     1      -7.337  20.493  14.937  1.00  0.00     0.053 C 
BRANCH   8   9
ATOM      9  C   UNL     1      -7.469  20.903  16.370  1.00  0.00     0.041 C 
ATOM     10  O   UNL     1      -7.808  22.080  16.663  1.00  0.00    -0.550 OA
ATOM     11  O   UNL     1      -7.262  19.974  17.381  1.00  0.00    -0.550 OA
ENDBRANCH   8   9
ENDBRANCH   7   8
ENDBRANCH   6   7
ENDBRANCH   5   6
ENDBRANCH   4   5
ENDBRANCH   3   4
ENDBRANCH   2   3
ENDBRANCH   1   2
BRANCH   1  12
ATOM     12  C   UNL     1       1.153  20.806  16.337  1.00  0.00     0.000 C 
BRANCH  12  13
ATOM     13  C   UNL     1       2.417  19.938  16.478  1.00  0.00    -0.000 C 
BRANCH  13  14
ATOM     14  C   UNL     1       3.714  20.750  16.346  1.00  0.00    -0.000 C 
BRANCH  14  15
ATOM     15  C   UNL     1       4.856  19.876  15.806  1.00  0.00    -0.000 C 
BRANCH  15  16
ATOM     16  C   UNL     1       5.710  20.593  14.744  1.00  0.00    -0.000 C 
BRANCH  16  17
ATOM     17  C   UNL     1       7.131  20.969  15.200  1.00  0.00    -0.000 C 
BRANCH  17  18
ATOM     18  C   UNL     1       8.207  20.608  14.163  1.00  0.00    -0.000 C 
BRANCH  18  19
ATOM     19  C   UNL     1       7.627  19.876  12.943  1.00  0.00    -0.003 C 
ATOM     20  C   UNL     1       8.377  20.197  11.651  1.00  0.00     0.004 C 
ENDBRANCH  18  19
ENDBRANCH  17  18
ENDBRANCH  16  17
ENDBRANCH  15  16
ENDBRANCH  14  15
ENDBRANCH  13  14
ENDBRANCH  12  13
ENDBRANCH   1  12
TORSDOF 16
ENDMDL
MODEL 6
REMARK VINA RESULT:    -2.766      6.557     13.060
REMARK INTER + INTRA:          -5.998
REMARK INTER:                  -5.535
REMARK INTRA:                  -0.463
REMARK UNBOUND:                -0.645
REMARK SMILES CCCCCCCCCCCCCCCCCC(=O)[O-]
REMARK SMILES IDX 10 1 11 2 12 3 13 4 14 5 15 6 16 7 17 8 18 9 19 10 20 11
REMARK SMILES IDX 9 12 8 13 7 14 6 15 5 16 4 17 3 18 2 19 1 20
REMARK H PARENT
REMARK Flexibility Score: inf
ROOT
ATOM      1  C   UNL     1       1.634  20.918  16.155  1.00  0.00     0.000 C 
ENDROOT
BRANCH   1   2
ATOM      2  C   UNL     1       3.059  20.625  16.668  1.00  0.00     0.000 C 
BRANCH   2   3
ATOM      3  C   UNL     1       4.153  20.638  15.585  1.00  0.00     0.000 C 
BRANCH   3   4
ATOM      4  C   UNL     1       5.572  20.560  16.171  1.00  0.00     0.000 C 
BRANCH   4   5
ATOM      5  C   UNL     1       6.625  20.531  15.054  1.00  0.00     0.000 C 
BRANCH   5   6
ATOM      6  C   UNL     1       7.947  19.875  15.492  1.00  0.00     0.000 C 
BRANCH   6   7
ATOM      7  C   UNL     1       9.159  20.196  14.598  1.00  0.00     0.006 C 
BRANCH   7   8
ATOM      8  C   UNL     1       9.431  21.701  14.479  1.00  0.00     0.053 C 
BRANCH   8   9
ATOM      9  C   UNL     1       9.609  22.087  13.045  1.00  0.00     0.041 C 
ATOM     10  O   UNL     1      10.032  23.234  12.746  1.00  0.00    -0.550 OA
ATOM     11  O   UNL     1       9.352  21.165  12.039  1.00  0.00    -0.550 OA
ENDBRANCH   8   9
ENDBRANCH   7   8
ENDBRANCH   6   7
ENDBRANCH   5   6
ENDBRANCH   4   5
ENDBRANCH   3   4
ENDBRANCH   2   3
ENDBRANCH   1   2
BRANCH   1  12
ATOM     12  C   UNL     1       0.547  19.945  16.654  1.00  0.00     0.000 C 
BRANCH  12  13
ATOM     13  C   UNL     1      -0.850  20.167  16.045  1.00  0.00    -0.000 C 
BRANCH  13  14
ATOM     14  C   UNL     1      -1.953  20.270  17.108  1.00  0.00    -0.000 C 
BRANCH  14  15
ATOM     15  C   UNL     1      -3.323  19.903  16.516  1.00  0.00    -0.000 C 
BRANCH  15  16
ATOM     16  C   UNL     1      -3.965  21.059  15.727  1.00  0.00    -0.000 C 
BRANCH  16  17
ATOM     17  C   UNL     1      -5.194  20.666  14.887  1.00  0.00    -0.000 C 
BRANCH  17  18
ATOM     18  C   UNL     1      -6.378  21.629  15.072  1.00  0.00    -0.000 C 
BRANCH  18  19
ATOM     19  C   UNL     1      -7.735  20.941  14.861  1.00  0.00    -0.003 C 
ATOM     20  C   UNL     1      -8.379  20.491  16.171  1.00  0.00     0.004 C 
ENDBRANCH  18  19
ENDBRANCH  17  18
ENDBRANCH  16  17
ENDBRANCH  15  16
ENDBRANCH  14  15
ENDBRANCH  13  14
ENDBRANCH  12  13
ENDBRANCH   1  12
TORSDOF 16
ENDMDL
MODEL 7
REMARK VINA RESULT:    -2.540      1.689      3.049
REMARK INTER + INTRA:          -5.561
REMARK INTER:                  -4.707
REMARK INTRA:                  -0.853
REMARK UNBOUND:                -0.645
REMARK SMILES CCCCCCCCCCCCCCCCCC(=O)[O-]
REMARK SMILES IDX 10 1 11 2 12 3 13 4 14 5 15 6 16 7 17 8 18 9 19 10 20 11
REMARK SMILES IDX 9 12 8 13 7 14 6 15 5 16 4 17 3 18 2 19 1 20
REMARK H PARENT
REMARK Flexibility Score: inf
ROOT
ATOM      1  C   UNL     1      -6.647  21.552  15.289  1.00  0.00     0.000 C 
ENDROOT
BRANCH   1   2
ATOM      2  C   UNL     1      -8.020  20.852  15.351  1.00  0.00     0.000 C 
BRANCH   2   3
ATOM      3  C   UNL     1      -8.943  21.333  16.485  1.00  0.00     0.000 C 
BRANCH   3   4
ATOM      4  C   UNL     1      -8.167  21.893  17.688  1.00  0.00     0.000 C 
BRANCH   4   5
ATOM      5  C   UNL     1      -9.031  21.868  18.957  1.00  0.00     0.000 C 
BRANCH   5   6
ATOM      6  C   UNL     1      -8.868  20.572  19.770  1.00  0.00     0.000 C 
BRANCH   6   7
ATOM      7  C   UNL     1      -9.104  20.721  21.285  1.00  0.00     0.006 C 
BRANCH   7   8
ATOM      8  C   UNL     1      -8.040  21.585  21.973  1.00  0.00     0.053 C 
BRANCH   8   9
ATOM      9  C   UNL     1      -7.997  21.291  23.439  1.00  0.00     0.041 C 
ATOM     10  O   UNL     1      -7.178  20.451  23.893  1.00  0.00    -0.550 OA
ATOM     11  O   UNL     1      -8.831  21.979  24.311  1.00  0.00    -0.550 OA
ENDBRANCH   8   9
ENDBRANCH   7   8
ENDBRANCH   6   7
ENDBRANCH   5   6
ENDBRANCH   4   5
ENDBRANCH   3   4
ENDBRANCH   2   3
ENDBRANCH   1   2
BRANCH   1  12
ATOM     12  C   UNL     1      -5.430  20.606  15.282  1.00  0.00     0.000 C 
BRANCH  12  13
ATOM     13  C   UNL     1      -5.161  19.885  16.616  1.00  0.00    -0.000 C 
BRANCH  13  14
ATOM     14  C   UNL     1      -3.852  20.334  17.281  1.00  0.00    -0.000 C 
BRANCH  14  15
ATOM     15  C   UNL     1      -2.725  20.462  16.244  1.00  0.00    -0.000 C 
BRANCH  15  16
ATOM     16  C   UNL     1      -1.398  20.949  16.856  1.00  0.00    -0.000 C 
BRANCH  16  17
ATOM     17  C   UNL     1      -0.257  19.916  16.835  1.00  0.00    -0.000 C 
BRANCH  17  18
ATOM     18  C   UNL     1       0.918  20.341  15.938  1.00  0.00    -0.000 C 
BRANCH  18  19
ATOM     19  C   UNL     1       2.275  19.875  16.486  1.00  0.00    -0.003 C 
ATOM     20  C   UNL     1       3.073  21.009  17.128  1.00  0.00     0.004 C 
ENDBRANCH  18  19
ENDBRANCH  17  18
ENDBRANCH  16  17
ENDBRANCH  15  16
ENDBRANCH  14  15
ENDBRANCH  13  14
ENDBRANCH  12  13
ENDBRANCH   1  12
TORSDOF 16
ENDMDL
MODEL 8
REMARK VINA RESULT:    -2.419      5.650     11.589
REMARK INTER + INTRA:          -5.327
REMARK INTER:                  -4.639
REMARK INTRA:                  -0.688
REMARK UNBOUND:                -0.645
REMARK SMILES CCCCCCCCCCCCCCCCCC(=O)[O-]
REMARK SMILES IDX 10 1 11 2 12 3 13 4 14 5 15 6 16 7 17 8 18 9 19 10 20 11
REMARK SMILES IDX 9 12 8 13 7 14 6 15 5 16 4 17 3 18 2 19 1 20
REMARK H PARENT
REMARK Flexibility Score: inf
ROOT
ATOM      1  C   UNL     1      -2.100  20.794  16.403  1.00  0.00     0.000 C 
ENDROOT
BRANCH   1   2
ATOM      2  C   UNL     1      -0.766  20.068  16.135  1.00  0.00     0.000 C 
BRANCH   2   3
ATOM      3  C   UNL     1       0.375  20.972  15.632  1.00  0.00     0.000 C 
BRANCH   3   4
ATOM      4  C   UNL     1       1.570  21.016  16.596  1.00  0.00     0.000 C 
BRANCH   4   5
ATOM      5  C   UNL     1       2.589  19.919  16.257  1.00  0.00     0.000 C 
BRANCH   5   6
ATOM      6  C   UNL     1       4.045  20.358  16.490  1.00  0.00     0.000 C 
BRANCH   6   7
ATOM      7  C   UNL     1       5.018  20.018  15.346  1.00  0.00     0.006 C 
BRANCH   7   8
ATOM      8  C   UNL     1       6.260  20.918  15.331  1.00  0.00     0.053 C 
BRANCH   8   9
ATOM      9  C   UNL     1       7.331  20.317  14.477  1.00  0.00     0.041 C 
ATOM     10  O   UNL     1       8.495  20.166  14.933  1.00  0.00    -0.550 OA
ATOM     11  O   UNL     1       7.033  19.879  13.193  1.00  0.00    -0.550 OA
ENDBRANCH   8   9
ENDBRANCH   7   8
ENDBRANCH   6   7
ENDBRANCH   5   6
ENDBRANCH   4   5
ENDBRANCH   3   4
ENDBRANCH   2   3
ENDBRANCH   1   2
BRANCH   1  12
ATOM     12  C   UNL     1      -3.281  19.875  16.773  1.00  0.00     0.000 C 
BRANCH  12  13
ATOM     13  C   UNL     1      -3.868  20.108  18.178  1.00  0.00    -0.000 C 
BRANCH  13  14
ATOM     14  C   UNL     1      -5.402  20.170  18.179  1.00  0.00    -0.000 C 
BRANCH  14  15
ATOM     15  C   UNL     1      -5.947  20.309  16.750  1.00  0.00    -0.000 C 
BRANCH  15  16
ATOM     16  C   UNL     1      -7.481  20.432  16.701  1.00  0.00    -0.000 C 
BRANCH  16  17
ATOM     17  C   UNL     1      -8.180  20.373  18.072  1.00  0.00    -0.000 C 
BRANCH  17  18
ATOM     18  C   UNL     1      -8.640  21.753  18.569  1.00  0.00    -0.000 C 
BRANCH  18  19
ATOM     19  C   UNL     1      -8.210  22.030  20.018  1.00  0.00    -0.003 C 
ATOM     20  C   UNL     1      -7.971  23.515  20.288  1.00  0.00     0.004 C 
ENDBRANCH  18  19
ENDBRANCH  17  18
ENDBRANCH  16  17
ENDBRANCH  15  16
ENDBRANCH  14  15
ENDBRANCH  13  14
ENDBRANCH  12  13
ENDBRANCH   1  12
TORSDOF 16
ENDMDL
