MODEL 1
REMARK VINA RESULT:    -6.180      0.000      0.000
REMARK INTER + INTRA:         -10.304
REMARK INTER:                  -9.793
REMARK INTRA:                  -0.511
REMARK UNBOUND:                -0.511
REMARK SMILES CCCCCCCCCCCC(=O)[O-]
REMARK SMILES IDX 7 1 8 2 9 3 10 4 11 5 12 6 13 7 14 8 6 9 5 10 4 11 3 12 2 13
REMARK SMILES IDX 1 14
REMARK H PARENT
REMARK Flexibility Score: inf
ROOT
ATOM      1  C   UNL     1      93.100 122.071 122.416  1.00  0.00     0.000 C 
ENDROOT
BRANCH   1   2
ATOM      2  C   UNL     1      93.192 123.255 123.392  1.00  0.00     0.000 C 
BRANCH   2   3
ATOM      3  C   UNL     1      93.333 122.807 124.858  1.00  0.00     0.000 C 
BRANCH   3   4
ATOM      4  C   UNL     1      94.784 122.889 125.366  1.00  0.00     0.006 C 
BRANCH   4   5
ATOM      5  C   UNL     1      95.662 123.895 124.604  1.00  0.00     0.053 C 
BRANCH   5   6
ATOM      6  C   UNL     1      96.885 124.274 125.383  1.00  0.00     0.041 C 
ATOM      7  O   UNL     1      97.291 125.466 125.385  1.00  0.00    -0.550 OA
ATOM      8  O   UNL     1      97.595 123.304 126.078  1.00  0.00    -0.550 OA
ENDBRANCH   5   6
ENDBRANCH   4   5
ENDBRANCH   3   4
ENDBRANCH   2   3
ENDBRANCH   1   2
BRANCH   1   9
ATOM      9  C   UNL     1      93.135 122.516 120.944  1.00  0.00     0.000 C 
BRANCH   9  10
ATOM     10  C   UNL     1      94.384 122.011 120.204  1.00  0.00    -0.000 C 
BRANCH  10  11
ATOM     11  C   UNL     1      94.206 122.000 118.678  1.00  0.00    -0.000 C 
BRANCH  11  12
ATOM     12  C   UNL     1      93.050 122.913 118.254  1.00  0.00    -0.000 C 
BRANCH  12  13
ATOM     13  C   UNL     1      92.099 122.188 117.293  1.00  0.00    -0.003 C 
ATOM     14  C   UNL     1      92.841 121.136 116.474  1.00  0.00     0.004 C 
ENDBRANCH  12  13
ENDBRANCH  11  12
ENDBRANCH  10  11
ENDBRANCH   9  10
ENDBRANCH   1   9
TORSDOF 10
ENDMDL
MODEL 2
REMARK VINA RESULT:    -6.026      4.069      7.384
REMARK INTER + INTRA:         -10.061
REMARK INTER:                  -9.503
REMARK INTRA:                  -0.557
REMARK UNBOUND:                -0.511
REMARK SMILES CCCCCCCCCCCC(=O)[O-]
REMARK SMILES IDX 7 1 8 2 9 3 10 4 11 5 12 6 13 7 14 8 6 9 5 10 4 11 3 12 2 13
REMARK SMILES IDX 1 14
REMARK H PARENT
REMARK Flexibility Score: inf
ROOT
ATOM      1  C   UNL     1      92.736 121.910 121.854  1.00  0.00     0.000 C 
ENDROOT
BRANCH   1   2
ATOM      2  C   UNL     1      93.617 121.257 120.777  1.00  0.00     0.000 C 
BRANCH   2   3
ATOM      3  C   UNL     1      94.697 122.212 120.235  1.00  0.00     0.000 C 
BRANCH   3   4
ATOM      4  C   UNL     1      94.415 122.668 118.792  1.00  0.00     0.006 C 
BRANCH   4   5
ATOM      5  C   UNL     1      92.941 122.998 118.512  1.00  0.00     0.053 C 
BRANCH   5   6
ATOM      6  C   UNL     1      92.395 122.199 117.368  1.00  0.00     0.041 C 
ATOM      7  O   UNL     1      92.035 122.775 116.307  1.00  0.00    -0.550 OA
ATOM      8  O   UNL     1      92.253 120.822 117.485  1.00  0.00    -0.550 OA
ENDBRANCH   5   6
ENDBRANCH   4   5
ENDBRANCH   3   4
ENDBRANCH   2   3
ENDBRANCH   1   2
BRANCH   1   9
ATOM      9  C   UNL     1      93.495 122.968 122.675  1.00  0.00     0.000 C 
BRANCH   9  10
ATOM     10  C   UNL     1      93.050 123.004 124.145  1.00  0.00    -0.000 C 
BRANCH  10  11
ATOM     11  C   UNL     1      94.226 122.862 125.125  1.00  0.00    -0.000 C 
BRANCH  11  12
ATOM     12  C   UNL     1      95.424 123.702 124.668  1.00  0.00    -0.000 C 
BRANCH  12  13
ATOM     13  C   UNL     1      96.526 123.715 125.735  1.00  0.00    -0.003 C 
ATOM     14  C   UNL     1      97.288 125.037 125.724  1.00  0.00     0.004 C 
ENDBRANCH  12  13
ENDBRANCH  11  12
ENDBRANCH  10  11
ENDBRANCH   9  10
ENDBRANCH   1   9
TORSDOF 10
ENDMDL
MODEL 3
REMARK VINA RESULT:    -5.985      4.075      7.550
REMARK INTER + INTRA:          -9.995
REMARK INTER:                  -9.524
REMARK INTRA:                  -0.471
REMARK UNBOUND:                -0.511
REMARK SMILES CCCCCCCCCCCC(=O)[O-]
REMARK SMILES IDX 7 1 8 2 9 3 10 4 11 5 12 6 13 7 14 8 6 9 5 10 4 11 3 12 2 13
REMARK SMILES IDX 1 14
REMARK H PARENT
REMARK Flexibility Score: inf
ROOT
ATOM      1  C   UNL     1      93.043 122.166 122.589  1.00  0.00     0.000 C 
ENDROOT
BRANCH   1   2
ATOM      2  C   UNL     1      93.095 122.597 121.114  1.00  0.00     0.000 C 
BRANCH   2   3
ATOM      3  C   UNL     1      94.449 122.283 120.452  1.00  0.00     0.000 C 
BRANCH   3   4
ATOM      4  C   UNL     1      94.412 122.441 118.921  1.00  0.00     0.006 C 
BRANCH   4   5
ATOM      5  C   UNL     1      94.017 121.163 118.165  1.00  0.00     0.053 C 
BRANCH   5   6
ATOM      6  C   UNL     1      92.758 121.346 117.373  1.00  0.00     0.041 C 
ATOM      7  O   UNL     1      92.768 121.191 116.123  1.00  0.00    -0.550 OA
ATOM      8  O   UNL     1      91.583 121.722 118.010  1.00  0.00    -0.550 OA
ENDBRANCH   5   6
ENDBRANCH   4   5
ENDBRANCH   3   4
ENDBRANCH   2   3
ENDBRANCH   1   2
BRANCH   1   9
ATOM      9  C   UNL     1      93.091 123.363 123.555  1.00  0.00     0.000 C 
BRANCH   9  10
ATOM     10  C   UNL     1      94.001 123.107 124.767  1.00  0.00    -0.000 C 
BRANCH  10  11
ATOM     11  C   UNL     1      95.291 123.941 124.728  1.00  0.00    -0.000 C 
BRANCH  11  12
ATOM     12  C   UNL     1      96.440 123.207 125.428  1.00  0.00    -0.000 C 
BRANCH  12  13
ATOM     13  C   UNL     1      97.483 124.197 125.960  1.00  0.00    -0.003 C 
ATOM     14  C   UNL     1      97.342 125.560 125.288  1.00  0.00     0.004 C 
ENDBRANCH  12  13
ENDBRANCH  11  12
ENDBRANCH  10  11
ENDBRANCH   9  10
ENDBRANCH   1   9
TORSDOF 10
ENDMDL
MODEL 4
REMARK VINA RESULT:    -5.484      1.192      2.426
REMARK INTER + INTRA:          -9.202
REMARK INTER:                  -8.529
REMARK INTRA:                  -0.673
REMARK UNBOUND:                -0.511
REMARK SMILES CCCCCCCCCCCC(=O)[O-]
REMARK SMILES IDX 7 1 8 2 9 3 10 4 11 5 12 6 13 7 14 8 6 9 5 10 4 11 3 12 2 13
REMARK SMILES IDX 1 14
REMARK H PARENT
REMARK Flexibility Score: inf
ROOT
ATOM      1  C   UNL     1      94.726 122.222 120.343  1.00  0.00     0.000 C 
ENDROOT
BRANCH   1   2
ATOM      2  C   UNL     1      93.447 121.743 121.048  1.00  0.00     0.000 C 
BRANCH   2   3
ATOM      3  C   UNL     1      92.843 122.814 121.974  1.00  0.00     0.000 C 
BRANCH   3   4
ATOM      4  C   UNL     1      93.242 122.617 123.448  1.00  0.00     0.006 C 
BRANCH   4   5
ATOM      5  C   UNL     1      93.999 123.805 124.061  1.00  0.00     0.053 C 
BRANCH   5   6
ATOM      6  C   UNL     1      95.199 123.362 124.841  1.00  0.00     0.041 C 
ATOM      7  O   UNL     1      95.055 122.702 125.905  1.00  0.00    -0.550 OA
ATOM      8  O   UNL     1      96.474 123.707 124.413  1.00  0.00    -0.550 OA
ENDBRANCH   5   6
ENDBRANCH   4   5
ENDBRANCH   3   4
ENDBRANCH   2   3
ENDBRANCH   1   2
BRANCH   1   9
ATOM      9  C   UNL     1      94.550 122.339 118.818  1.00  0.00     0.000 C 
BRANCH   9  10
ATOM     10  C   UNL     1      93.366 123.238 118.428  1.00  0.00    -0.000 C 
BRANCH  10  11
ATOM     11  C   UNL     1      92.453 122.593 117.374  1.00  0.00    -0.000 C 
BRANCH  11  12
ATOM     12  C   UNL     1      92.409 121.070 117.545  1.00  0.00    -0.000 C 
BRANCH  12  13
ATOM     13  C   UNL     1      92.932 120.360 116.290  1.00  0.00    -0.003 C 
ATOM     14  C   UNL     1      92.840 121.265 115.065  1.00  0.00     0.004 C 
ENDBRANCH  12  13
ENDBRANCH  11  12
ENDBRANCH  10  11
ENDBRANCH   9  10
ENDBRANCH   1   9
TORSDOF 10
ENDMDL
MODEL 5
REMARK VINA RESULT:    -5.330      1.743      3.388
REMARK INTER + INTRA:          -8.957
REMARK INTER:                  -8.015
REMARK INTRA:                  -0.942
REMARK UNBOUND:                -0.511
REMARK SMILES CCCCCCCCCCCC(=O)[O-]
REMARK SMILES IDX 7 1 8 2 9 3 10 4 11 5 12 6 13 7 14 8 6 9 5 10 4 11 3 12 2 13
REMARK SMILES IDX 1 14
REMARK H PARENT
REMARK Flexibility Score: inf
ROOT
ATOM      1  C   UNL     1      94.702 121.237 119.078  1.00  0.00     0.000 C 
ENDROOT
BRANCH   1   2
ATOM      2  C   UNL     1      94.655 122.373 120.113  1.00  0.00     0.000 C 
BRANCH   2   3
ATOM      3  C   UNL     1      93.257 122.553 120.732  1.00  0.00     0.000 C 
BRANCH   3   4
ATOM      4  C   UNL     1      93.235 122.255 122.242  1.00  0.00     0.006 C 
BRANCH   4   5
ATOM      5  C   UNL     1      93.068 123.500 123.128  1.00  0.00     0.053 C 
BRANCH   5   6
ATOM      6  C   UNL     1      93.795 123.363 124.431  1.00  0.00     0.041 C 
ATOM      7  O   UNL     1      94.883 123.970 124.617  1.00  0.00    -0.550 OA
ATOM      8  O   UNL     1      93.289 122.537 125.426  1.00  0.00    -0.550 OA
ENDBRANCH   5   6
ENDBRANCH   4   5
ENDBRANCH   3   4
ENDBRANCH   2   3
ENDBRANCH   1   2
BRANCH   1   9
ATOM      9  C   UNL     1      93.346 121.015 118.385  1.00  0.00     0.000 C 
BRANCH   9  10
ATOM     10  C   UNL     1      93.490 120.743 116.879  1.00  0.00    -0.000 C 
BRANCH  10  11
ATOM     11  C   UNL     1      92.517 121.576 116.030  1.00  0.00    -0.000 C 
BRANCH  11  12
ATOM     12  C   UNL     1      91.897 122.707 116.858  1.00  0.00    -0.000 C 
BRANCH  12  13
ATOM     13  C   UNL     1      92.388 124.077 116.374  1.00  0.00    -0.003 C 
ATOM     14  C   UNL     1      93.223 124.773 117.446  1.00  0.00     0.004 C 
ENDBRANCH  12  13
ENDBRANCH  11  12
ENDBRANCH  10  11
ENDBRANCH   9  10
ENDBRANCH   1   9
TORSDOF 10
ENDMDL
MODEL 6
REMARK VINA RESULT:    -5.167      1.201      1.866
REMARK INTER + INTRA:          -8.698
REMARK INTER:                  -8.319
REMARK INTRA:                  -0.379
REMARK UNBOUND:                -0.511
REMARK SMILES CCCCCCCCCCCC(=O)[O-]
REMARK SMILES IDX 7 1 8 2 9 3 10 4 11 5 12 6 13 7 14 8 6 9 5 10 4 11 3 12 2 13
REMARK SMILES IDX 1 14
REMARK H PARENT
REMARK Flexibility Score: inf
ROOT
ATOM      1  C   UNL     1      93.727 122.441 122.115  1.00  0.00     0.000 C 
ENDROOT
BRANCH   1   2
ATOM      2  C   UNL     1      93.153 122.793 123.498  1.00  0.00     0.000 C 
BRANCH   2   3
ATOM      3  C   UNL     1      94.070 123.736 124.298  1.00  0.00     0.000 C 
BRANCH   3   4
ATOM      4  C   UNL     1      95.559 123.365 124.169  1.00  0.00     0.006 C 
BRANCH   4   5
ATOM      5  C   UNL     1      96.346 123.452 125.486  1.00  0.00     0.053 C 
BRANCH   5   6
ATOM      6  C   UNL     1      96.974 124.799 125.676  1.00  0.00     0.041 C 
ATOM      7  O   UNL     1      97.395 125.148 126.811  1.00  0.00    -0.550 OA
ATOM      8  O   UNL     1      97.064 125.682 124.608  1.00  0.00    -0.550 OA
ENDBRANCH   5   6
ENDBRANCH   4   5
ENDBRANCH   3   4
ENDBRANCH   2   3
ENDBRANCH   1   2
BRANCH   1   9
ATOM      9  C   UNL     1      92.634 122.031 121.112  1.00  0.00     0.000 C 
BRANCH   9  10
ATOM     10  C   UNL     1      92.731 122.802 119.787  1.00  0.00    -0.000 C 
BRANCH  10  11
ATOM     11  C   UNL     1      92.107 122.038 118.608  1.00  0.00    -0.000 C 
BRANCH  11  12
ATOM     12  C   UNL     1      93.182 121.294 117.807  1.00  0.00    -0.000 C 
BRANCH  12  13
ATOM     13  C   UNL     1      94.564 121.463 118.451  1.00  0.00    -0.003 C 
ATOM     14  C   UNL     1      95.034 120.163 119.098  1.00  0.00     0.004 C 
ENDBRANCH  12  13
ENDBRANCH  11  12
ENDBRANCH  10  11
ENDBRANCH   9  10
ENDBRANCH   1   9
TORSDOF 10
ENDMDL
MODEL 7
REMARK VINA RESULT:    -4.891      3.780      7.378
REMARK INTER + INTRA:          -8.262
REMARK INTER:                  -8.246
REMARK INTRA:                  -0.016
REMARK UNBOUND:                -0.511
REMARK SMILES CCCCCCCCCCCC(=O)[O-]
REMARK SMILES IDX 7 1 8 2 9 3 10 4 11 5 12 6 13 7 14 8 6 9 5 10 4 11 3 12 2 13
REMARK SMILES IDX 1 14
REMARK H PARENT
REMARK Flexibility Score: inf
ROOT
ATOM      1  C   UNL     1      94.722 122.204 120.397  1.00  0.00     0.000 C 
ENDROOT
BRANCH   1   2
ATOM      2  C   UNL     1      94.483 121.384 119.118  1.00  0.00     0.000 C 
BRANCH   2   3
ATOM      3  C   UNL     1      93.028 121.470 118.622  1.00  0.00     0.000 C 
BRANCH   3   4
ATOM      4  C   UNL     1      92.926 121.498 117.086  1.00  0.00     0.006 C 
BRANCH   4   5
ATOM      5  C   UNL     1      91.982 122.580 116.537  1.00  0.00     0.053 C 
BRANCH   5   6
ATOM      6  C   UNL     1      92.516 123.960 116.770  1.00  0.00     0.041 C 
ATOM      7  O   UNL     1      92.205 124.900 115.990  1.00  0.00    -0.550 OA
ATOM      8  O   UNL     1      93.384 124.202 117.827  1.00  0.00    -0.550 OA
ENDBRANCH   5   6
ENDBRANCH   4   5
ENDBRANCH   3   4
ENDBRANCH   2   3
ENDBRANCH   1   2
BRANCH   1   9
ATOM      9  C   UNL     1      93.623 121.983 121.452  1.00  0.00     0.000 C 
BRANCH   9  10
ATOM     10  C   UNL     1      93.587 123.099 122.508  1.00  0.00    -0.000 C 
BRANCH  10  11
ATOM     11  C   UNL     1      92.935 122.648 123.825  1.00  0.00    -0.000 C 
BRANCH  11  12
ATOM     12  C   UNL     1      93.926 122.753 124.990  1.00  0.00    -0.000 C 
BRANCH  12  13
ATOM     13  C   UNL     1      94.973 123.842 124.726  1.00  0.00    -0.003 C 
ATOM     14  C   UNL     1      96.356 123.404 125.199  1.00  0.00     0.004 C 
ENDBRANCH  12  13
ENDBRANCH  11  12
ENDBRANCH  10  11
ENDBRANCH   9  10
ENDBRANCH   1   9
TORSDOF 10
ENDMDL
MODEL 8
REMARK VINA RESULT:    -4.537     11.151     13.177
REMARK INTER + INTRA:          -7.700
REMARK INTER:                  -6.411
REMARK INTRA:                  -1.289
REMARK UNBOUND:                -0.511
REMARK SMILES CCCCCCCCCCCC(=O)[O-]
REMARK SMILES IDX 7 1 8 2 9 3 10 4 11 5 12 6 13 7 14 8 6 9 5 10 4 11 3 12 2 13
REMARK SMILES IDX 1 14
REMARK H PARENT
REMARK Flexibility Score: inf
ROOT
ATOM      1  C   UNL     1      84.155 126.821 129.988  1.00  0.00     0.000 C 
ENDROOT
BRANCH   1   2
ATOM      2  C   UNL     1      85.473 127.102 129.247  1.00  0.00     0.000 C 
BRANCH   2   3
ATOM      3  C   UNL     1      85.781 126.051 128.166  1.00  0.00     0.000 C 
BRANCH   3   4
ATOM      4  C   UNL     1      84.550 125.202 127.796  1.00  0.00     0.006 C 
BRANCH   4   5
ATOM      5  C   UNL     1      84.888 123.814 127.230  1.00  0.00     0.053 C 
BRANCH   5   6
ATOM      6  C   UNL     1      84.294 123.603 125.871  1.00  0.00     0.041 C 
ATOM      7  O   UNL     1      83.481 124.442 125.397  1.00  0.00    -0.550 OA
ATOM      8  O   UNL     1      84.611 122.464 125.142  1.00  0.00    -0.550 OA
ENDBRANCH   5   6
ENDBRANCH   4   5
ENDBRANCH   3   4
ENDBRANCH   2   3
ENDBRANCH   1   2
BRANCH   1   9
ATOM      9  C   UNL     1      84.382 126.356 131.438  1.00  0.00     0.000 C 
BRANCH   9  10
ATOM     10  C   UNL     1      84.866 124.901 131.522  1.00  0.00    -0.000 C 
BRANCH  10  11
ATOM     11  C   UNL     1      86.225 124.767 132.227  1.00  0.00    -0.000 C 
BRANCH  11  12
ATOM     12  C   UNL     1      87.330 124.413 131.225  1.00  0.00    -0.000 C 
BRANCH  12  13
ATOM     13  C   UNL     1      86.891 123.268 130.304  1.00  0.00    -0.003 C 
ATOM     14  C   UNL     1      87.270 121.911 130.891  1.00  0.00     0.004 C 
ENDBRANCH  12  13
ENDBRANCH  11  12
ENDBRANCH  10  11
ENDBRANCH   9  10
ENDBRANCH   1   9
TORSDOF 10
ENDMDL
MODEL 9
REMARK VINA RESULT:    -4.395     10.978     13.143
REMARK INTER + INTRA:          -7.476
REMARK INTER:                  -6.602
REMARK INTRA:                  -0.873
REMARK UNBOUND:                -0.511
REMARK SMILES CCCCCCCCCCCC(=O)[O-]
REMARK SMILES IDX 7 1 8 2 9 3 10 4 11 5 12 6 13 7 14 8 6 9 5 10 4 11 3 12 2 13
REMARK SMILES IDX 1 14
REMARK H PARENT
REMARK Flexibility Score: inf
ROOT
ATOM      1  C   UNL     1      85.405 126.417 128.975  1.00  0.00     0.000 C 
ENDROOT
BRANCH   1   2
ATOM      2  C   UNL     1      85.105 125.400 127.861  1.00  0.00     0.000 C 
BRANCH   2   3
ATOM      3  C   UNL     1      83.805 124.614 128.110  1.00  0.00     0.000 C 
BRANCH   3   4
ATOM      4  C   UNL     1      82.961 124.444 126.834  1.00  0.00     0.006 C 
BRANCH   4   5
ATOM      5  C   UNL     1      83.788 124.218 125.558  1.00  0.00     0.053 C 
BRANCH   5   6
ATOM      6  C   UNL     1      83.587 122.844 124.997  1.00  0.00     0.041 C 
ATOM      7  O   UNL     1      84.576 122.087 124.804  1.00  0.00    -0.550 OA
ATOM      8  O   UNL     1      82.313 122.411 124.654  1.00  0.00    -0.550 OA
ENDBRANCH   5   6
ENDBRANCH   4   5
ENDBRANCH   3   4
ENDBRANCH   2   3
ENDBRANCH   1   2
BRANCH   1   9
ATOM      9  C   UNL     1      84.584 126.153 130.250  1.00  0.00     0.000 C 
BRANCH   9  10
ATOM     10  C   UNL     1      85.452 125.655 131.417  1.00  0.00    -0.000 C 
BRANCH  10  11
ATOM     11  C   UNL     1      85.784 124.158 131.312  1.00  0.00    -0.000 C 
BRANCH  11  12
ATOM     12  C   UNL     1      87.252 123.949 130.922  1.00  0.00    -0.000 C 
BRANCH  12  13
ATOM     13  C   UNL     1      87.394 122.812 129.902  1.00  0.00    -0.003 C 
ATOM     14  C   UNL     1      87.853 121.522 130.575  1.00  0.00     0.004 C 
ENDBRANCH  12  13
ENDBRANCH  11  12
ENDBRANCH  10  11
ENDBRANCH   9  10
ENDBRANCH   1   9
TORSDOF 10
ENDMDL
