MODEL 1
REMARK VINA RESULT:    -4.506      0.000      0.000
REMARK INTER + INTRA:         -16.205
REMARK INTER:                 -11.882
REMARK INTRA:                  -4.324
REMARK UNBOUND:                -4.324
REMARK SMILES CCCCCCCCCCCCCCCCCCCCCCCCCCCCCC(=O)[O-]
REMARK SMILES IDX 16 1 17 2 18 3 19 4 20 5 21 6 22 7 23 8 24 9 25 10 26 11
REMARK SMILES IDX 27 12 28 13 29 14 30 15 31 16 32 17 15 18 14 19 13 20 12 21
REMARK SMILES IDX 11 22 10 23 9 24 8 25 7 26 6 27 5 28 4 29 3 30 2 31 1 32
REMARK H PARENT
REMARK Flexibility Score: inf
ROOT
ATOM      1  C   UNL     1      -7.221 -13.878   5.033  1.00  0.00     0.000 C 
ENDROOT
BRANCH   1   2
ATOM      2  C   UNL     1      -8.747 -13.695   5.124  1.00  0.00     0.000 C 
BRANCH   2   3
ATOM      3  C   UNL     1      -9.179 -12.839   6.327  1.00  0.00     0.000 C 
BRANCH   3   4
ATOM      4  C   UNL     1     -10.602 -12.273   6.178  1.00  0.00     0.000 C 
BRANCH   4   5
ATOM      5  C   UNL     1     -10.701 -10.734   6.157  1.00  0.00     0.000 C 
BRANCH   5   6
ATOM      6  C   UNL     1     -12.127 -10.172   6.015  1.00  0.00     0.000 C 
BRANCH   6   7
ATOM      7  C   UNL     1     -13.156 -10.936   6.863  1.00  0.00     0.000 C 
BRANCH   7   8
ATOM      8  C   UNL     1     -13.972  -9.971   7.734  1.00  0.00     0.000 C 
BRANCH   8   9
ATOM      9  C   UNL     1     -13.660 -10.110   9.235  1.00  0.00     0.000 C 
BRANCH   9  10
ATOM     10  C   UNL     1     -12.668  -9.071   9.796  1.00  0.00     0.000 C 
BRANCH  10  11
ATOM     11  C   UNL     1     -11.181  -9.428   9.620  1.00  0.00     0.000 C 
BRANCH  11  12
ATOM     12  C   UNL     1     -10.799 -10.745  10.312  1.00  0.00     0.000 C 
BRANCH  12  13
ATOM     13  C   UNL     1      -9.587 -11.390   9.629  1.00  0.00     0.006 C 
BRANCH  13  14
ATOM     14  C   UNL     1      -8.548 -10.333   9.240  1.00  0.00     0.053 C 
BRANCH  14  15
ATOM     15  C   UNL     1      -7.483 -10.237  10.287  1.00  0.00     0.041 C 
ATOM     16  O   UNL     1      -7.289  -9.153  10.896  1.00  0.00    -0.550 OA
ATOM     17  O   UNL     1      -6.672 -11.332  10.555  1.00  0.00    -0.550 OA
ENDBRANCH  14  15
ENDBRANCH  13  14
ENDBRANCH  12  13
ENDBRANCH  11  12
ENDBRANCH  10  11
ENDBRANCH   9  10
ENDBRANCH   8   9
ENDBRANCH   7   8
ENDBRANCH   6   7
ENDBRANCH   5   6
ENDBRANCH   4   5
ENDBRANCH   3   4
ENDBRANCH   2   3
ENDBRANCH   1   2
BRANCH   1  18
ATOM     18  C   UNL     1      -6.614 -14.844   6.068  1.00  0.00     0.000 C 
BRANCH  18  19
ATOM     19  C   UNL     1      -6.457 -16.275   5.536  1.00  0.00     0.000 C 
BRANCH  19  20
ATOM     20  C   UNL     1      -5.314 -16.361   4.513  1.00  0.00     0.000 C 
BRANCH  20  21
ATOM     21  C   UNL     1      -4.633 -17.744   4.503  1.00  0.00     0.000 C 
BRANCH  21  22
ATOM     22  C   UNL     1      -3.366 -17.814   3.630  1.00  0.00     0.000 C 
BRANCH  22  23
ATOM     23  C   UNL     1      -2.410 -16.615   3.810  1.00  0.00     0.000 C 
BRANCH  23  24
ATOM     24  C   UNL     1      -1.575 -16.685   5.101  1.00  0.00    -0.000 C 
BRANCH  24  25
ATOM     25  C   UNL     1      -1.565 -15.348   5.860  1.00  0.00    -0.000 C 
BRANCH  25  26
ATOM     26  C   UNL     1      -2.797 -15.220   6.765  1.00  0.00    -0.000 C 
BRANCH  26  27
ATOM     27  C   UNL     1      -2.674 -16.135   7.993  1.00  0.00    -0.000 C 
BRANCH  27  28
ATOM     28  C   UNL     1      -3.796 -17.183   8.065  1.00  0.00    -0.000 C 
BRANCH  28  29
ATOM     29  C   UNL     1      -3.298 -18.602   7.741  1.00  0.00    -0.000 C 
BRANCH  29  30
ATOM     30  C   UNL     1      -4.388 -19.668   7.928  1.00  0.00    -0.000 C 
BRANCH  30  31
ATOM     31  C   UNL     1      -5.805 -19.075   7.926  1.00  0.00    -0.003 C 
ATOM     32  C   UNL     1      -6.664 -19.712   6.837  1.00  0.00     0.004 C 
ENDBRANCH  30  31
ENDBRANCH  29  30
ENDBRANCH  28  29
ENDBRANCH  27  28
ENDBRANCH  26  27
ENDBRANCH  25  26
ENDBRANCH  24  25
ENDBRANCH  23  24
ENDBRANCH  22  23
ENDBRANCH  21  22
ENDBRANCH  20  21
ENDBRANCH  19  20
ENDBRANCH  18  19
ENDBRANCH   1  18
TORSDOF 28
ENDMDL
MODEL 2
REMARK VINA RESULT:    -4.255      3.416     10.171
REMARK INTER + INTRA:         -15.542
REMARK INTER:                 -11.955
REMARK INTRA:                  -3.588
REMARK UNBOUND:                -4.324
REMARK SMILES CCCCCCCCCCCCCCCCCCCCCCCCCCCCCC(=O)[O-]
REMARK SMILES IDX 16 1 17 2 18 3 19 4 20 5 21 6 22 7 23 8 24 9 25 10 26 11
REMARK SMILES IDX 27 12 28 13 29 14 30 15 31 16 32 17 15 18 14 19 13 20 12 21
REMARK SMILES IDX 11 22 10 23 9 24 8 25 7 26 6 27 5 28 4 29 3 30 2 31 1 32
REMARK H PARENT
REMARK Flexibility Score: inf
ROOT
ATOM      1  C   UNL     1      -6.114 -15.775   7.527  1.00  0.00     0.000 C 
ENDROOT
BRANCH   1   2
ATOM      2  C   UNL     1      -4.653 -15.832   8.010  1.00  0.00     0.000 C 
BRANCH   2   3
ATOM      3  C   UNL     1      -3.912 -14.495   7.840  1.00  0.00     0.000 C 
BRANCH   3   4
ATOM      4  C   UNL     1      -2.486 -14.669   7.286  1.00  0.00     0.000 C 
BRANCH   4   5
ATOM      5  C   UNL     1      -1.922 -16.103   7.351  1.00  0.00     0.000 C 
BRANCH   5   6
ATOM      6  C   UNL     1      -1.613 -16.746   5.988  1.00  0.00     0.000 C 
BRANCH   6   7
ATOM      7  C   UNL     1      -1.951 -15.827   4.804  1.00  0.00     0.000 C 
BRANCH   7   8
ATOM      8  C   UNL     1      -2.863 -16.544   3.798  1.00  0.00     0.000 C 
BRANCH   8   9
ATOM      9  C   UNL     1      -4.190 -17.013   4.420  1.00  0.00     0.000 C 
BRANCH   9  10
ATOM     10  C   UNL     1      -4.495 -18.515   4.254  1.00  0.00     0.000 C 
BRANCH  10  11
ATOM     11  C   UNL     1      -5.265 -19.158   5.422  1.00  0.00     0.000 C 
BRANCH  11  12
ATOM     12  C   UNL     1      -6.563 -18.411   5.763  1.00  0.00     0.000 C 
BRANCH  12  13
ATOM     13  C   UNL     1      -7.566 -18.501   4.608  1.00  0.00     0.006 C 
BRANCH  13  14
ATOM     14  C   UNL     1      -7.712 -19.945   4.118  1.00  0.00     0.053 C 
BRANCH  14  15
ATOM     15  C   UNL     1      -9.133 -20.231   3.748  1.00  0.00     0.041 C 
ATOM     16  O   UNL     1      -9.789 -21.102   4.378  1.00  0.00    -0.550 OA
ATOM     17  O   UNL     1      -9.718 -19.572   2.675  1.00  0.00    -0.550 OA
ENDBRANCH  14  15
ENDBRANCH  13  14
ENDBRANCH  12  13
ENDBRANCH  11  12
ENDBRANCH  10  11
ENDBRANCH   9  10
ENDBRANCH   8   9
ENDBRANCH   7   8
ENDBRANCH   6   7
ENDBRANCH   5   6
ENDBRANCH   4   5
ENDBRANCH   3   4
ENDBRANCH   2   3
ENDBRANCH   1   2
BRANCH   1  18
ATOM     18  C   UNL     1      -6.511 -14.482   6.789  1.00  0.00     0.000 C 
BRANCH  18  19
ATOM     19  C   UNL     1      -6.963 -14.730   5.343  1.00  0.00     0.000 C 
BRANCH  19  20
ATOM     20  C   UNL     1      -8.145 -13.823   4.972  1.00  0.00     0.000 C 
BRANCH  20  21
ATOM     21  C   UNL     1      -8.651 -12.993   6.169  1.00  0.00     0.000 C 
BRANCH  21  22
ATOM     22  C   UNL     1     -10.183 -12.839   6.224  1.00  0.00     0.000 C 
BRANCH  22  23
ATOM     23  C   UNL     1     -10.680 -11.395   5.998  1.00  0.00     0.000 C 
BRANCH  23  24
ATOM     24  C   UNL     1     -12.090 -11.135   6.560  1.00  0.00    -0.000 C 
BRANCH  24  25
ATOM     25  C   UNL     1     -12.405  -9.635   6.666  1.00  0.00    -0.000 C 
BRANCH  25  26
ATOM     26  C   UNL     1     -11.877  -9.053   7.984  1.00  0.00    -0.000 C 
BRANCH  26  27
ATOM     27  C   UNL     1     -12.158 -10.006   9.156  1.00  0.00    -0.000 C 
BRANCH  27  28
ATOM     28  C   UNL     1     -10.956 -10.147  10.105  1.00  0.00    -0.000 C 
BRANCH  28  29
ATOM     29  C   UNL     1      -9.880 -11.098   9.553  1.00  0.00    -0.000 C 
BRANCH  29  30
ATOM     30  C   UNL     1      -8.578 -10.367   9.186  1.00  0.00    -0.000 C 
BRANCH  30  31
ATOM     31  C   UNL     1      -7.500 -10.495  10.273  1.00  0.00    -0.003 C 
ATOM     32  C   UNL     1      -6.604  -9.260  10.304  1.00  0.00     0.004 C 
ENDBRANCH  30  31
ENDBRANCH  29  30
ENDBRANCH  28  29
ENDBRANCH  27  28
ENDBRANCH  26  27
ENDBRANCH  25  26
ENDBRANCH  24  25
ENDBRANCH  23  24
ENDBRANCH  22  23
ENDBRANCH  21  22
ENDBRANCH  20  21
ENDBRANCH  19  20
ENDBRANCH  18  19
ENDBRANCH   1  18
TORSDOF 28
ENDMDL
MODEL 3
REMARK VINA RESULT:    -4.215      1.858      3.521
REMARK INTER + INTRA:         -15.438
REMARK INTER:                 -11.844
REMARK INTRA:                  -3.594
REMARK UNBOUND:                -4.324
REMARK SMILES CCCCCCCCCCCCCCCCCCCCCCCCCCCCCC(=O)[O-]
REMARK SMILES IDX 16 1 17 2 18 3 19 4 20 5 21 6 22 7 23 8 24 9 25 10 26 11
REMARK SMILES IDX 27 12 28 13 29 14 30 15 31 16 32 17 15 18 14 19 13 20 12 21
REMARK SMILES IDX 11 22 10 23 9 24 8 25 7 26 6 27 5 28 4 29 3 30 2 31 1 32
REMARK H PARENT
REMARK Flexibility Score: inf
ROOT
ATOM      1  C   UNL     1      -5.848 -14.912   6.641  1.00  0.00     0.000 C 
ENDROOT
BRANCH   1   2
ATOM      2  C   UNL     1      -6.858 -14.986   5.481  1.00  0.00     0.000 C 
BRANCH   2   3
ATOM      3  C   UNL     1      -7.457 -13.617   5.118  1.00  0.00     0.000 C 
BRANCH   3   4
ATOM      4  C   UNL     1      -8.997 -13.610   5.151  1.00  0.00     0.000 C 
BRANCH   4   5
ATOM      5  C   UNL     1      -9.628 -12.885   6.356  1.00  0.00     0.000 C 
BRANCH   5   6
ATOM      6  C   UNL     1      -9.119 -11.453   6.598  1.00  0.00     0.000 C 
BRANCH   6   7
ATOM      7  C   UNL     1     -10.250 -10.414   6.627  1.00  0.00     0.000 C 
BRANCH   7   8
ATOM      8  C   UNL     1     -11.503 -10.949   5.917  1.00  0.00     0.000 C 
BRANCH   8   9
ATOM      9  C   UNL     1     -12.707  -9.997   6.029  1.00  0.00     0.000 C 
BRANCH   9  10
ATOM     10  C   UNL     1     -13.817 -10.458   6.995  1.00  0.00     0.000 C 
BRANCH  10  11
ATOM     11  C   UNL     1     -13.928  -9.646   8.297  1.00  0.00     0.000 C 
BRANCH  11  12
ATOM     12  C   UNL     1     -13.238 -10.330   9.487  1.00  0.00     0.000 C 
BRANCH  12  13
ATOM     13  C   UNL     1     -11.896  -9.660   9.801  1.00  0.00     0.006 C 
BRANCH  13  14
ATOM     14  C   UNL     1     -10.852 -10.696  10.231  1.00  0.00     0.053 C 
BRANCH  14  15
ATOM     15  C   UNL     1      -9.478 -10.108  10.174  1.00  0.00     0.041 C 
ATOM     16  O   UNL     1      -9.319  -8.895   9.877  1.00  0.00    -0.550 OA
ATOM     17  O   UNL     1      -8.368 -10.912  10.400  1.00  0.00    -0.550 OA
ENDBRANCH  14  15
ENDBRANCH  13  14
ENDBRANCH  12  13
ENDBRANCH  11  12
ENDBRANCH  10  11
ENDBRANCH   9  10
ENDBRANCH   8   9
ENDBRANCH   7   8
ENDBRANCH   6   7
ENDBRANCH   5   6
ENDBRANCH   4   5
ENDBRANCH   3   4
ENDBRANCH   2   3
ENDBRANCH   1   2
BRANCH   1  18
ATOM     18  C   UNL     1      -6.017 -15.989   7.728  1.00  0.00     0.000 C 
BRANCH  18  19
ATOM     19  C   UNL     1      -4.881 -15.986   8.761  1.00  0.00     0.000 C 
BRANCH  19  20
ATOM     20  C   UNL     1      -3.627 -15.301   8.198  1.00  0.00     0.000 C 
BRANCH  20  21
ATOM     21  C   UNL     1      -2.554 -16.312   7.747  1.00  0.00     0.000 C 
BRANCH  21  22
ATOM     22  C   UNL     1      -1.453 -15.705   6.855  1.00  0.00     0.000 C 
BRANCH  22  23
ATOM     23  C   UNL     1      -1.426 -16.268   5.418  1.00  0.00     0.000 C 
BRANCH  23  24
ATOM     24  C   UNL     1      -2.793 -16.211   4.710  1.00  0.00    -0.000 C 
BRANCH  24  25
ATOM     25  C   UNL     1      -3.298 -17.605   4.308  1.00  0.00    -0.000 C 
BRANCH  25  26
ATOM     26  C   UNL     1      -4.821 -17.704   4.458  1.00  0.00    -0.000 C 
BRANCH  26  27
ATOM     27  C   UNL     1      -5.203 -18.805   5.459  1.00  0.00    -0.000 C 
BRANCH  27  28
ATOM     28  C   UNL     1      -6.723 -18.919   5.663  1.00  0.00    -0.000 C 
BRANCH  28  29
ATOM     29  C   UNL     1      -7.519 -18.410   4.450  1.00  0.00    -0.000 C 
BRANCH  29  30
ATOM     30  C   UNL     1      -8.559 -19.428   3.956  1.00  0.00    -0.000 C 
BRANCH  30  31
ATOM     31  C   UNL     1      -9.767 -18.761   3.280  1.00  0.00    -0.003 C 
ATOM     32  C   UNL     1     -10.328 -19.643   2.168  1.00  0.00     0.004 C 
ENDBRANCH  30  31
ENDBRANCH  29  30
ENDBRANCH  28  29
ENDBRANCH  27  28
ENDBRANCH  26  27
ENDBRANCH  25  26
ENDBRANCH  24  25
ENDBRANCH  23  24
ENDBRANCH  22  23
ENDBRANCH  21  22
ENDBRANCH  20  21
ENDBRANCH  19  20
ENDBRANCH  18  19
ENDBRANCH   1  18
TORSDOF 28
ENDMDL
MODEL 4
REMARK VINA RESULT:    -4.207      3.594      9.786
REMARK INTER + INTRA:         -15.418
REMARK INTER:                 -11.325
REMARK INTRA:                  -4.093
REMARK UNBOUND:                -4.324
REMARK SMILES CCCCCCCCCCCCCCCCCCCCCCCCCCCCCC(=O)[O-]
REMARK SMILES IDX 16 1 17 2 18 3 19 4 20 5 21 6 22 7 23 8 24 9 25 10 26 11
REMARK SMILES IDX 27 12 28 13 29 14 30 15 31 16 32 17 15 18 14 19 13 20 12 21
REMARK SMILES IDX 11 22 10 23 9 24 8 25 7 26 6 27 5 28 4 29 3 30 2 31 1 32
REMARK H PARENT
REMARK Flexibility Score: inf
ROOT
ATOM      1  C   UNL     1      -6.866 -14.561   5.854  1.00  0.00     0.000 C 
ENDROOT
BRANCH   1   2
ATOM      2  C   UNL     1      -6.385 -15.831   5.128  1.00  0.00     0.000 C 
BRANCH   2   3
ATOM      3  C   UNL     1      -4.858 -16.004   5.168  1.00  0.00     0.000 C 
BRANCH   3   4
ATOM      4  C   UNL     1      -4.320 -16.843   3.994  1.00  0.00     0.000 C 
BRANCH   4   5
ATOM      5  C   UNL     1      -2.807 -16.711   3.728  1.00  0.00     0.000 C 
BRANCH   5   6
ATOM      6  C   UNL     1      -1.930 -16.581   4.986  1.00  0.00     0.000 C 
BRANCH   6   7
ATOM      7  C   UNL     1      -1.270 -17.908   5.392  1.00  0.00     0.000 C 
BRANCH   7   8
ATOM      8  C   UNL     1      -2.179 -18.705   6.339  1.00  0.00     0.000 C 
BRANCH   8   9
ATOM      9  C   UNL     1      -2.742 -19.983   5.694  1.00  0.00     0.000 C 
BRANCH   9  10
ATOM     10  C   UNL     1      -4.266 -19.980   5.459  1.00  0.00     0.000 C 
BRANCH  10  11
ATOM     11  C   UNL     1      -5.116 -19.624   6.691  1.00  0.00     0.000 C 
BRANCH  11  12
ATOM     12  C   UNL     1      -6.568 -19.274   6.333  1.00  0.00     0.000 C 
BRANCH  12  13
ATOM     13  C   UNL     1      -6.870 -19.620   4.871  1.00  0.00     0.006 C 
BRANCH  13  14
ATOM     14  C   UNL     1      -8.112 -18.873   4.375  1.00  0.00     0.053 C 
BRANCH  14  15
ATOM     15  C   UNL     1      -9.098 -19.832   3.786  1.00  0.00     0.041 C 
ATOM     16  O   UNL     1      -9.554 -19.640   2.628  1.00  0.00    -0.550 OA
ATOM     17  O   UNL     1      -9.551 -20.911   4.534  1.00  0.00    -0.550 OA
ENDBRANCH  14  15
ENDBRANCH  13  14
ENDBRANCH  12  13
ENDBRANCH  11  12
ENDBRANCH  10  11
ENDBRANCH   9  10
ENDBRANCH   8   9
ENDBRANCH   7   8
ENDBRANCH   6   7
ENDBRANCH   5   6
ENDBRANCH   4   5
ENDBRANCH   3   4
ENDBRANCH   2   3
ENDBRANCH   1   2
BRANCH   1  18
ATOM     18  C   UNL     1      -7.952 -13.756   5.117  1.00  0.00     0.000 C 
BRANCH  18  19
ATOM     19  C   UNL     1      -8.730 -12.808   6.042  1.00  0.00     0.000 C 
BRANCH  19  20
ATOM     20  C   UNL     1     -10.245 -12.970   5.849  1.00  0.00     0.000 C 
BRANCH  20  21
ATOM     21  C   UNL     1     -11.053 -11.870   6.565  1.00  0.00     0.000 C 
BRANCH  21  22
ATOM     22  C   UNL     1     -10.987 -10.493   5.877  1.00  0.00     0.000 C 
BRANCH  22  23
ATOM     23  C   UNL     1     -10.470  -9.359   6.787  1.00  0.00     0.000 C 
BRANCH  23  24
ATOM     24  C   UNL     1      -8.946  -9.393   7.005  1.00  0.00    -0.000 C 
BRANCH  24  25
ATOM     25  C   UNL     1      -8.573  -9.521   8.490  1.00  0.00    -0.000 C 
BRANCH  25  26
ATOM     26  C   UNL     1      -9.776  -9.984   9.321  1.00  0.00    -0.000 C 
BRANCH  26  27
ATOM     27  C   UNL     1      -9.529 -11.380   9.914  1.00  0.00    -0.000 C 
BRANCH  27  28
ATOM     28  C   UNL     1      -8.107 -11.897   9.639  1.00  0.00    -0.000 C 
BRANCH  28  29
ATOM     29  C   UNL     1      -8.053 -13.429   9.511  1.00  0.00    -0.000 C 
BRANCH  29  30
ATOM     30  C   UNL     1      -7.072 -14.070  10.505  1.00  0.00    -0.000 C 
BRANCH  30  31
ATOM     31  C   UNL     1      -5.607 -13.717  10.205  1.00  0.00    -0.003 C 
ATOM     32  C   UNL     1      -5.090 -14.503   9.004  1.00  0.00     0.004 C 
ENDBRANCH  30  31
ENDBRANCH  29  30
ENDBRANCH  28  29
ENDBRANCH  27  28
ENDBRANCH  26  27
ENDBRANCH  25  26
ENDBRANCH  24  25
ENDBRANCH  23  24
ENDBRANCH  22  23
ENDBRANCH  21  22
ENDBRANCH  20  21
ENDBRANCH  19  20
ENDBRANCH  18  19
ENDBRANCH   1  18
TORSDOF 28
ENDMDL
MODEL 5
REMARK VINA RESULT:    -4.190      1.535      3.514
REMARK INTER + INTRA:         -15.372
REMARK INTER:                 -11.822
REMARK INTRA:                  -3.550
REMARK UNBOUND:                -4.324
REMARK SMILES CCCCCCCCCCCCCCCCCCCCCCCCCCCCCC(=O)[O-]
REMARK SMILES IDX 16 1 17 2 18 3 19 4 20 5 21 6 22 7 23 8 24 9 25 10 26 11
REMARK SMILES IDX 27 12 28 13 29 14 30 15 31 16 32 17 15 18 14 19 13 20 12 21
REMARK SMILES IDX 11 22 10 23 9 24 8 25 7 26 6 27 5 28 4 29 3 30 2 31 1 32
REMARK H PARENT
REMARK Flexibility Score: inf
ROOT
ATOM      1  C   UNL     1      -4.970 -16.024   5.275  1.00  0.00     0.000 C 
ENDROOT
BRANCH   1   2
ATOM      2  C   UNL     1      -6.473 -15.723   5.129  1.00  0.00     0.000 C 
BRANCH   2   3
ATOM      3  C   UNL     1      -6.779 -14.218   5.056  1.00  0.00     0.000 C 
BRANCH   3   4
ATOM      4  C   UNL     1      -8.288 -13.912   5.103  1.00  0.00     0.000 C 
BRANCH   4   5
ATOM      5  C   UNL     1      -8.741 -13.005   6.266  1.00  0.00     0.000 C 
BRANCH   5   6
ATOM      6  C   UNL     1     -10.223 -12.590   6.232  1.00  0.00     0.000 C 
BRANCH   6   7
ATOM      7  C   UNL     1     -10.415 -11.066   6.245  1.00  0.00     0.000 C 
BRANCH   7   8
ATOM      8  C   UNL     1     -11.821 -10.687   5.757  1.00  0.00     0.000 C 
BRANCH   8   9
ATOM      9  C   UNL     1     -12.531  -9.691   6.691  1.00  0.00     0.000 C 
BRANCH   9  10
ATOM     10  C   UNL     1     -13.396 -10.331   7.795  1.00  0.00     0.000 C 
BRANCH  10  11
ATOM     11  C   UNL     1     -12.960 -10.010   9.235  1.00  0.00     0.000 C 
BRANCH  11  12
ATOM     12  C   UNL     1     -11.659  -9.195   9.296  1.00  0.00     0.000 C 
BRANCH  12  13
ATOM     13  C   UNL     1     -10.700  -9.772  10.343  1.00  0.00     0.006 C 
BRANCH  13  14
ATOM     14  C   UNL     1     -10.220 -11.169   9.937  1.00  0.00     0.053 C 
BRANCH  14  15
ATOM     15  C   UNL     1      -8.760 -11.145   9.607  1.00  0.00     0.041 C 
ATOM     16  O   UNL     1      -8.102 -12.217   9.571  1.00  0.00    -0.550 OA
ATOM     17  O   UNL     1      -8.116  -9.934   9.389  1.00  0.00    -0.550 OA
ENDBRANCH  14  15
ENDBRANCH  13  14
ENDBRANCH  12  13
ENDBRANCH  11  12
ENDBRANCH  10  11
ENDBRANCH   9  10
ENDBRANCH   8   9
ENDBRANCH   7   8
ENDBRANCH   6   7
ENDBRANCH   5   6
ENDBRANCH   4   5
ENDBRANCH   3   4
ENDBRANCH   2   3
ENDBRANCH   1   2
BRANCH   1  18
ATOM     18  C   UNL     1      -4.329 -16.759   4.083  1.00  0.00     0.000 C 
BRANCH  18  19
ATOM     19  C   UNL     1      -2.820 -16.502   3.959  1.00  0.00     0.000 C 
BRANCH  19  20
ATOM     20  C   UNL     1      -2.059 -17.809   3.693  1.00  0.00     0.000 C 
BRANCH  20  21
ATOM     21  C   UNL     1      -1.309 -18.320   4.940  1.00  0.00     0.000 C 
BRANCH  21  22
ATOM     22  C   UNL     1      -1.172 -17.274   6.063  1.00  0.00     0.000 C 
BRANCH  22  23
ATOM     23  C   UNL     1      -2.060 -17.553   7.295  1.00  0.00     0.000 C 
BRANCH  23  24
ATOM     24  C   UNL     1      -2.324 -19.052   7.535  1.00  0.00    -0.000 C 
BRANCH  24  25
ATOM     25  C   UNL     1      -3.791 -19.333   7.893  1.00  0.00    -0.000 C 
BRANCH  25  26
ATOM     26  C   UNL     1      -4.663 -19.395   6.632  1.00  0.00    -0.000 C 
BRANCH  26  27
ATOM     27  C   UNL     1      -6.121 -19.031   6.955  1.00  0.00    -0.000 C 
BRANCH  27  28
ATOM     28  C   UNL     1      -7.108 -20.146   6.571  1.00  0.00    -0.000 C 
BRANCH  28  29
ATOM     29  C   UNL     1      -7.054 -20.489   5.073  1.00  0.00    -0.000 C 
BRANCH  29  30
ATOM     30  C   UNL     1      -7.214 -19.251   4.177  1.00  0.00    -0.000 C 
BRANCH  30  31
ATOM     31  C   UNL     1      -8.685 -18.916   3.885  1.00  0.00    -0.003 C 
ATOM     32  C   UNL     1      -9.372 -20.063   3.150  1.00  0.00     0.004 C 
ENDBRANCH  30  31
ENDBRANCH  29  30
ENDBRANCH  28  29
ENDBRANCH  27  28
ENDBRANCH  26  27
ENDBRANCH  25  26
ENDBRANCH  24  25
ENDBRANCH  23  24
ENDBRANCH  22  23
ENDBRANCH  21  22
ENDBRANCH  20  21
ENDBRANCH  19  20
ENDBRANCH  18  19
ENDBRANCH   1  18
TORSDOF 28
ENDMDL
MODEL 6
REMARK VINA RESULT:    -4.131      3.979     10.215
REMARK INTER + INTRA:         -15.217
REMARK INTER:                 -11.149
REMARK INTRA:                  -4.068
REMARK UNBOUND:                -4.324
REMARK SMILES CCCCCCCCCCCCCCCCCCCCCCCCCCCCCC(=O)[O-]
REMARK SMILES IDX 16 1 17 2 18 3 19 4 20 5 21 6 22 7 23 8 24 9 25 10 26 11
REMARK SMILES IDX 27 12 28 13 29 14 30 15 31 16 32 17 15 18 14 19 13 20 12 21
REMARK SMILES IDX 11 22 10 23 9 24 8 25 7 26 6 27 5 28 4 29 3 30 2 31 1 32
REMARK H PARENT
REMARK Flexibility Score: inf
ROOT
ATOM      1  C   UNL     1      -2.439 -15.993   4.615  1.00  0.00     0.000 C 
ENDROOT
BRANCH   1   2
ATOM      2  C   UNL     1      -2.370 -17.271   3.758  1.00  0.00     0.000 C 
BRANCH   2   3
ATOM      3  C   UNL     1      -3.736 -17.958   3.594  1.00  0.00     0.000 C 
BRANCH   3   4
ATOM      4  C   UNL     1      -4.089 -18.878   4.778  1.00  0.00     0.000 C 
BRANCH   4   5
ATOM      5  C   UNL     1      -2.977 -19.858   5.206  1.00  0.00     0.000 C 
BRANCH   5   6
ATOM      6  C   UNL     1      -2.390 -19.609   6.606  1.00  0.00     0.000 C 
BRANCH   6   7
ATOM      7  C   UNL     1      -3.470 -19.460   7.688  1.00  0.00     0.000 C 
BRANCH   7   8
ATOM      8  C   UNL     1      -3.854 -20.829   8.270  1.00  0.00     0.000 C 
BRANCH   8   9
ATOM      9  C   UNL     1      -5.376 -21.047   8.331  1.00  0.00     0.000 C 
BRANCH   9  10
ATOM     10  C   UNL     1      -6.067 -21.225   6.965  1.00  0.00     0.000 C 
BRANCH  10  11
ATOM     11  C   UNL     1      -7.351 -20.398   6.770  1.00  0.00     0.000 C 
BRANCH  11  12
ATOM     12  C   UNL     1      -7.455 -19.779   5.368  1.00  0.00     0.000 C 
BRANCH  12  13
ATOM     13  C   UNL     1      -8.718 -20.264   4.648  1.00  0.00     0.006 C 
BRANCH  13  14
ATOM     14  C   UNL     1      -8.406 -20.666   3.203  1.00  0.00     0.053 C 
BRANCH  14  15
ATOM     15  C   UNL     1      -8.341 -22.156   3.077  1.00  0.00     0.041 C 
ATOM     16  O   UNL     1      -8.471 -22.884   4.095  1.00  0.00    -0.550 OA
ATOM     17  O   UNL     1      -8.088 -22.738   1.842  1.00  0.00    -0.550 OA
ENDBRANCH  14  15
ENDBRANCH  13  14
ENDBRANCH  12  13
ENDBRANCH  11  12
ENDBRANCH  10  11
ENDBRANCH   9  10
ENDBRANCH   8   9
ENDBRANCH   7   8
ENDBRANCH   6   7
ENDBRANCH   5   6
ENDBRANCH   4   5
ENDBRANCH   3   4
ENDBRANCH   2   3
ENDBRANCH   1   2
BRANCH   1  18
ATOM     18  C   UNL     1      -1.389 -15.900   5.738  1.00  0.00     0.000 C 
BRANCH  18  19
ATOM     19  C   UNL     1      -1.983 -15.456   7.082  1.00  0.00     0.000 C 
BRANCH  19  20
ATOM     20  C   UNL     1      -3.426 -15.958   7.239  1.00  0.00     0.000 C 
BRANCH  20  21
ATOM     21  C   UNL     1      -4.399 -14.838   7.658  1.00  0.00     0.000 C 
BRANCH  21  22
ATOM     22  C   UNL     1      -5.887 -15.201   7.488  1.00  0.00     0.000 C 
BRANCH  22  23
ATOM     23  C   UNL     1      -6.147 -16.323   6.461  1.00  0.00     0.000 C 
BRANCH  23  24
ATOM     24  C   UNL     1      -6.762 -15.818   5.143  1.00  0.00    -0.000 C 
BRANCH  24  25
ATOM     25  C   UNL     1      -6.923 -14.290   5.124  1.00  0.00    -0.000 C 
BRANCH  25  26
ATOM     26  C   UNL     1      -8.400 -13.894   5.003  1.00  0.00    -0.000 C 
BRANCH  26  27
ATOM     27  C   UNL     1      -8.824 -12.993   6.173  1.00  0.00    -0.000 C 
BRANCH  27  28
ATOM     28  C   UNL     1     -10.319 -12.633   6.132  1.00  0.00    -0.000 C 
BRANCH  28  29
ATOM     29  C   UNL     1     -10.575 -11.150   6.453  1.00  0.00    -0.000 C 
BRANCH  29  30
ATOM     30  C   UNL     1     -11.791 -10.586   5.701  1.00  0.00    -0.000 C 
BRANCH  30  31
ATOM     31  C   UNL     1     -12.918 -10.139   6.645  1.00  0.00    -0.003 C 
ATOM     32  C   UNL     1     -12.447 -10.137   8.097  1.00  0.00     0.004 C 
ENDBRANCH  30  31
ENDBRANCH  29  30
ENDBRANCH  28  29
ENDBRANCH  27  28
ENDBRANCH  26  27
ENDBRANCH  25  26
ENDBRANCH  24  25
ENDBRANCH  23  24
ENDBRANCH  22  23
ENDBRANCH  21  22
ENDBRANCH  20  21
ENDBRANCH  19  20
ENDBRANCH  18  19
ENDBRANCH   1  18
TORSDOF 28
ENDMDL
MODEL 7
REMARK VINA RESULT:    -4.100      1.159      2.758
REMARK INTER + INTRA:         -15.134
REMARK INTER:                 -11.191
REMARK INTRA:                  -3.944
REMARK UNBOUND:                -4.324
REMARK SMILES CCCCCCCCCCCCCCCCCCCCCCCCCCCCCC(=O)[O-]
REMARK SMILES IDX 16 1 17 2 18 3 19 4 20 5 21 6 22 7 23 8 24 9 25 10 26 11
REMARK SMILES IDX 27 12 28 13 29 14 30 15 31 16 32 17 15 18 14 19 13 20 12 21
REMARK SMILES IDX 11 22 10 23 9 24 8 25 7 26 6 27 5 28 4 29 3 30 2 31 1 32
REMARK H PARENT
REMARK Flexibility Score: inf
ROOT
ATOM      1  C   UNL     1      -6.592 -14.504   6.993  1.00  0.00     0.000 C 
ENDROOT
BRANCH   1   2
ATOM      2  C   UNL     1      -6.895 -14.770   5.507  1.00  0.00     0.000 C 
BRANCH   2   3
ATOM      3  C   UNL     1      -7.950 -13.812   4.928  1.00  0.00     0.000 C 
BRANCH   3   4
ATOM      4  C   UNL     1      -8.728 -13.052   6.018  1.00  0.00     0.000 C 
BRANCH   4   5
ATOM      5  C   UNL     1     -10.255 -12.985   5.813  1.00  0.00     0.000 C 
BRANCH   5   6
ATOM      6  C   UNL     1     -10.968 -11.854   6.575  1.00  0.00     0.000 C 
BRANCH   6   7
ATOM      7  C   UNL     1     -11.122 -10.575   5.737  1.00  0.00     0.000 C 
BRANCH   7   8
ATOM      8  C   UNL     1     -12.434  -9.853   6.075  1.00  0.00     0.000 C 
BRANCH   8   9
ATOM      9  C   UNL     1     -13.424 -10.741   6.849  1.00  0.00     0.000 C 
BRANCH   9  10
ATOM     10  C   UNL     1     -14.345  -9.991   7.832  1.00  0.00     0.000 C 
BRANCH  10  11
ATOM     11  C   UNL     1     -13.618  -9.225   8.952  1.00  0.00     0.000 C 
BRANCH  11  12
ATOM     12  C   UNL     1     -12.504 -10.051   9.613  1.00  0.00     0.000 C 
BRANCH  12  13
ATOM     13  C   UNL     1     -11.147  -9.354   9.469  1.00  0.00     0.006 C 
BRANCH  13  14
ATOM     14  C   UNL     1     -10.057 -10.109  10.237  1.00  0.00     0.053 C 
BRANCH  14  15
ATOM     15  C   UNL     1      -8.965 -10.537   9.309  1.00  0.00     0.041 C 
ATOM     16  O   UNL     1      -8.418  -9.700   8.545  1.00  0.00    -0.550 OA
ATOM     17  O   UNL     1      -8.584 -11.872   9.252  1.00  0.00    -0.550 OA
ENDBRANCH  14  15
ENDBRANCH  13  14
ENDBRANCH  12  13
ENDBRANCH  11  12
ENDBRANCH  10  11
ENDBRANCH   9  10
ENDBRANCH   8   9
ENDBRANCH   7   8
ENDBRANCH   6   7
ENDBRANCH   5   6
ENDBRANCH   4   5
ENDBRANCH   3   4
ENDBRANCH   2   3
ENDBRANCH   1   2
BRANCH   1  18
ATOM     18  C   UNL     1      -6.008 -15.700   7.767  1.00  0.00     0.000 C 
BRANCH  18  19
ATOM     19  C   UNL     1      -4.665 -15.383   8.441  1.00  0.00     0.000 C 
BRANCH  19  20
ATOM     20  C   UNL     1      -3.575 -15.109   7.395  1.00  0.00     0.000 C 
BRANCH  20  21
ATOM     21  C   UNL     1      -2.334 -16.003   7.587  1.00  0.00     0.000 C 
BRANCH  21  22
ATOM     22  C   UNL     1      -1.850 -16.691   6.295  1.00  0.00     0.000 C 
BRANCH  22  23
ATOM     23  C   UNL     1      -1.969 -15.813   5.032  1.00  0.00     0.000 C 
BRANCH  23  24
ATOM     24  C   UNL     1      -2.503 -16.573   3.804  1.00  0.00    -0.000 C 
BRANCH  24  25
ATOM     25  C   UNL     1      -2.678 -18.074   4.080  1.00  0.00    -0.000 C 
BRANCH  25  26
ATOM     26  C   UNL     1      -4.136 -18.505   3.881  1.00  0.00    -0.000 C 
BRANCH  26  27
ATOM     27  C   UNL     1      -5.066 -17.760   4.851  1.00  0.00    -0.000 C 
BRANCH  27  28
ATOM     28  C   UNL     1      -6.401 -18.491   5.071  1.00  0.00    -0.000 C 
BRANCH  28  29
ATOM     29  C   UNL     1      -6.514 -19.097   6.481  1.00  0.00    -0.000 C 
BRANCH  29  30
ATOM     30  C   UNL     1      -5.233 -19.828   6.914  1.00  0.00    -0.000 C 
BRANCH  30  31
ATOM     31  C   UNL     1      -4.504 -19.116   8.064  1.00  0.00    -0.003 C 
ATOM     32  C   UNL     1      -5.379 -19.056   9.313  1.00  0.00     0.004 C 
ENDBRANCH  30  31
ENDBRANCH  29  30
ENDBRANCH  28  29
ENDBRANCH  27  28
ENDBRANCH  26  27
ENDBRANCH  25  26
ENDBRANCH  24  25
ENDBRANCH  23  24
ENDBRANCH  22  23
ENDBRANCH  21  22
ENDBRANCH  20  21
ENDBRANCH  19  20
ENDBRANCH  18  19
ENDBRANCH   1  18
TORSDOF 28
ENDMDL
MODEL 8
REMARK VINA RESULT:    -4.082      3.300      7.045
REMARK INTER + INTRA:         -15.089
REMARK INTER:                 -10.381
REMARK INTRA:                  -4.707
REMARK UNBOUND:                -4.324
REMARK SMILES CCCCCCCCCCCCCCCCCCCCCCCCCCCCCC(=O)[O-]
REMARK SMILES IDX 16 1 17 2 18 3 19 4 20 5 21 6 22 7 23 8 24 9 25 10 26 11
REMARK SMILES IDX 27 12 28 13 29 14 30 15 31 16 32 17 15 18 14 19 13 20 12 21
REMARK SMILES IDX 11 22 10 23 9 24 8 25 7 26 6 27 5 28 4 29 3 30 2 31 1 32
REMARK H PARENT
REMARK Flexibility Score: inf
ROOT
ATOM      1  C   UNL     1      -2.759 -16.779   3.918  1.00  0.00     0.000 C 
ENDROOT
BRANCH   1   2
ATOM      2  C   UNL     1      -1.646 -16.620   4.971  1.00  0.00     0.000 C 
BRANCH   2   3
ATOM      3  C   UNL     1      -1.630 -15.227   5.622  1.00  0.00     0.000 C 
BRANCH   3   4
ATOM      4  C   UNL     1      -1.119 -15.251   7.074  1.00  0.00     0.000 C 
BRANCH   4   5
ATOM      5  C   UNL     1      -1.771 -14.222   8.020  1.00  0.00     0.000 C 
BRANCH   5   6
ATOM      6  C   UNL     1      -2.292 -14.794   9.350  1.00  0.00     0.000 C 
BRANCH   6   7
ATOM      7  C   UNL     1      -3.570 -14.097   9.840  1.00  0.00     0.000 C 
BRANCH   7   8
ATOM      8  C   UNL     1      -4.715 -14.283   8.833  1.00  0.00     0.000 C 
BRANCH   8   9
ATOM      9  C   UNL     1      -5.172 -15.747   8.709  1.00  0.00     0.000 C 
BRANCH   9  10
ATOM     10  C   UNL     1      -6.082 -16.048   7.502  1.00  0.00     0.000 C 
BRANCH  10  11
ATOM     11  C   UNL     1      -5.434 -15.823   6.124  1.00  0.00     0.000 C 
BRANCH  11  12
ATOM     12  C   UNL     1      -6.426 -15.292   5.079  1.00  0.00     0.000 C 
BRANCH  12  13
ATOM     13  C   UNL     1      -6.985 -13.928   5.498  1.00  0.00     0.006 C 
BRANCH  13  14
ATOM     14  C   UNL     1      -8.427 -13.752   5.011  1.00  0.00     0.053 C 
BRANCH  14  15
ATOM     15  C   UNL     1      -9.255 -13.077   6.059  1.00  0.00     0.041 C 
ATOM     16  O   UNL     1      -8.740 -12.754   7.161  1.00  0.00    -0.550 OA
ATOM     17  O   UNL     1     -10.607 -12.850   5.838  1.00  0.00    -0.550 OA
ENDBRANCH  14  15
ENDBRANCH  13  14
ENDBRANCH  12  13
ENDBRANCH  11  12
ENDBRANCH  10  11
ENDBRANCH   9  10
ENDBRANCH   8   9
ENDBRANCH   7   8
ENDBRANCH   6   7
ENDBRANCH   5   6
ENDBRANCH   4   5
ENDBRANCH   3   4
ENDBRANCH   2   3
ENDBRANCH   1   2
BRANCH   1  18
ATOM     18  C   UNL     1      -2.756 -18.118   3.158  1.00  0.00     0.000 C 
BRANCH  18  19
ATOM     19  C   UNL     1      -1.342 -18.641   2.867  1.00  0.00     0.000 C 
BRANCH  19  20
ATOM     20  C   UNL     1      -1.229 -20.137   3.196  1.00  0.00     0.000 C 
BRANCH  20  21
ATOM     21  C   UNL     1      -0.974 -20.394   4.694  1.00  0.00     0.000 C 
BRANCH  21  22
ATOM     22  C   UNL     1      -2.257 -20.580   5.527  1.00  0.00     0.000 C 
BRANCH  22  23
ATOM     23  C   UNL     1      -2.257 -19.809   6.864  1.00  0.00     0.000 C 
BRANCH  23  24
ATOM     24  C   UNL     1      -3.546 -19.003   7.109  1.00  0.00    -0.000 C 
BRANCH  24  25
ATOM     25  C   UNL     1      -4.203 -19.353   8.453  1.00  0.00    -0.000 C 
BRANCH  25  26
ATOM     26  C   UNL     1      -5.718 -19.534   8.296  1.00  0.00    -0.000 C 
BRANCH  26  27
ATOM     27  C   UNL     1      -6.037 -20.545   7.184  1.00  0.00    -0.000 C 
BRANCH  27  28
ATOM     28  C   UNL     1      -7.211 -20.099   6.297  1.00  0.00    -0.000 C 
BRANCH  28  29
ATOM     29  C   UNL     1      -6.801 -19.026   5.275  1.00  0.00    -0.000 C 
BRANCH  29  30
ATOM     30  C   UNL     1      -7.967 -18.595   4.370  1.00  0.00    -0.000 C 
BRANCH  30  31
ATOM     31  C   UNL     1      -8.647 -19.784   3.674  1.00  0.00    -0.003 C 
ATOM     32  C   UNL     1      -9.823 -19.318   2.820  1.00  0.00     0.004 C 
ENDBRANCH  30  31
ENDBRANCH  29  30
ENDBRANCH  28  29
ENDBRANCH  27  28
ENDBRANCH  26  27
ENDBRANCH  25  26
ENDBRANCH  24  25
ENDBRANCH  23  24
ENDBRANCH  22  23
ENDBRANCH  21  22
ENDBRANCH  20  21
ENDBRANCH  19  20
ENDBRANCH  18  19
ENDBRANCH   1  18
TORSDOF 28
ENDMDL
MODEL 9
REMARK VINA RESULT:    -4.077      1.863      9.460
REMARK INTER + INTRA:         -15.075
REMARK INTER:                 -10.991
REMARK INTRA:                  -4.083
REMARK UNBOUND:                -4.324
REMARK SMILES CCCCCCCCCCCCCCCCCCCCCCCCCCCCCC(=O)[O-]
REMARK SMILES IDX 16 1 17 2 18 3 19 4 20 5 21 6 22 7 23 8 24 9 25 10 26 11
REMARK SMILES IDX 27 12 28 13 29 14 30 15 31 16 32 17 15 18 14 19 13 20 12 21
REMARK SMILES IDX 11 22 10 23 9 24 8 25 7 26 6 27 5 28 4 29 3 30 2 31 1 32
REMARK H PARENT
REMARK Flexibility Score: inf
ROOT
ATOM      1  C   UNL     1      -6.771 -15.670   5.088  1.00  0.00     0.000 C 
ENDROOT
BRANCH   1   2
ATOM      2  C   UNL     1      -5.371 -16.283   4.895  1.00  0.00     0.000 C 
BRANCH   2   3
ATOM      3  C   UNL     1      -5.246 -17.695   5.490  1.00  0.00     0.000 C 
BRANCH   3   4
ATOM      4  C   UNL     1      -4.121 -18.521   4.840  1.00  0.00     0.000 C 
BRANCH   4   5
ATOM      5  C   UNL     1      -3.534 -17.929   3.542  1.00  0.00     0.000 C 
BRANCH   5   6
ATOM      6  C   UNL     1      -2.040 -17.564   3.607  1.00  0.00     0.000 C 
BRANCH   6   7
ATOM      7  C   UNL     1      -1.611 -17.053   4.991  1.00  0.00     0.000 C 
BRANCH   7   8
ATOM      8  C   UNL     1      -1.650 -15.519   5.044  1.00  0.00     0.000 C 
BRANCH   8   9
ATOM      9  C   UNL     1      -1.792 -14.973   6.476  1.00  0.00     0.000 C 
BRANCH   9  10
ATOM     10  C   UNL     1      -2.666 -15.825   7.418  1.00  0.00     0.000 C 
BRANCH  10  11
ATOM     11  C   UNL     1      -3.835 -15.074   8.080  1.00  0.00     0.000 C 
BRANCH  11  12
ATOM     12  C   UNL     1      -4.772 -16.004   8.865  1.00  0.00     0.000 C 
BRANCH  12  13
ATOM     13  C   UNL     1      -5.811 -15.197   9.652  1.00  0.00     0.006 C 
BRANCH  13  14
ATOM     14  C   UNL     1      -6.529 -16.079  10.679  1.00  0.00     0.053 C 
BRANCH  14  15
ATOM     15  C   UNL     1      -7.568 -15.290  11.410  1.00  0.00     0.041 C 
ATOM     16  O   UNL     1      -7.514 -15.179  12.663  1.00  0.00    -0.550 OA
ATOM     17  O   UNL     1      -8.625 -14.717  10.714  1.00  0.00    -0.550 OA
ENDBRANCH  14  15
ENDBRANCH  13  14
ENDBRANCH  12  13
ENDBRANCH  11  12
ENDBRANCH  10  11
ENDBRANCH   9  10
ENDBRANCH   8   9
ENDBRANCH   7   8
ENDBRANCH   6   7
ENDBRANCH   5   6
ENDBRANCH   4   5
ENDBRANCH   3   4
ENDBRANCH   2   3
ENDBRANCH   1   2
BRANCH   1  18
ATOM     18  C   UNL     1      -6.844 -14.506   6.093  1.00  0.00     0.000 C 
BRANCH  18  19
ATOM     19  C   UNL     1      -7.643 -13.306   5.566  1.00  0.00     0.000 C 
BRANCH  19  20
ATOM     20  C   UNL     1      -9.051 -13.732   5.124  1.00  0.00     0.000 C 
BRANCH  20  21
ATOM     21  C   UNL     1     -10.162 -12.990   5.894  1.00  0.00     0.000 C 
BRANCH  21  22
ATOM     22  C   UNL     1      -9.639 -11.999   6.953  1.00  0.00     0.000 C 
BRANCH  22  23
ATOM     23  C   UNL     1     -10.037 -10.531   6.692  1.00  0.00     0.000 C 
BRANCH  23  24
ATOM     24  C   UNL     1     -11.317 -10.383   5.849  1.00  0.00    -0.000 C 
BRANCH  24  25
ATOM     25  C   UNL     1     -12.374  -9.512   6.546  1.00  0.00    -0.000 C 
BRANCH  25  26
ATOM     26  C   UNL     1     -13.390 -10.378   7.302  1.00  0.00    -0.000 C 
BRANCH  26  27
ATOM     27  C   UNL     1     -13.534  -9.910   8.758  1.00  0.00    -0.000 C 
BRANCH  27  28
ATOM     28  C   UNL     1     -12.390 -10.407   9.657  1.00  0.00    -0.000 C 
BRANCH  28  29
ATOM     29  C   UNL     1     -11.420  -9.280  10.051  1.00  0.00    -0.000 C 
BRANCH  29  30
ATOM     30  C   UNL     1     -10.014  -9.802  10.389  1.00  0.00    -0.000 C 
BRANCH  30  31
ATOM     31  C   UNL     1      -9.979 -11.325  10.589  1.00  0.00    -0.003 C 
ATOM     32  C   UNL     1      -9.854 -11.680  12.068  1.00  0.00     0.004 C 
ENDBRANCH  30  31
ENDBRANCH  29  30
ENDBRANCH  28  29
ENDBRANCH  27  28
ENDBRANCH  26  27
ENDBRANCH  25  26
ENDBRANCH  24  25
ENDBRANCH  23  24
ENDBRANCH  22  23
ENDBRANCH  21  22
ENDBRANCH  20  21
ENDBRANCH  19  20
ENDBRANCH  18  19
ENDBRANCH   1  18
TORSDOF 28
ENDMDL
