MODEL 1
REMARK VINA RESULT:    -3.587      0.000      0.000
REMARK INTER + INTRA:          -6.843
REMARK INTER:                  -6.103
REMARK INTRA:                  -0.740
REMARK UNBOUND:                -0.740
REMARK SMILES CCCCCCCCCCCCCC(=O)[O-]
REMARK SMILES IDX 8 1 9 2 10 3 11 4 12 5 13 6 14 7 15 8 16 9 7 10 6 11 5 12
REMARK SMILES IDX 4 13 3 14 2 15 1 16
REMARK H PARENT
REMARK Flexibility Score: inf
ROOT
ATOM      1  C   UNL     1      -5.357  15.965  21.763  1.00  0.00     0.000 C 
ENDROOT
BRANCH   1   2
ATOM      2  C   UNL     1      -6.089  14.632  21.523  1.00  0.00     0.000 C 
BRANCH   2   3
ATOM      3  C   UNL     1      -7.619  14.762  21.633  1.00  0.00     0.000 C 
BRANCH   3   4
ATOM      4  C   UNL     1      -8.049  16.144  22.169  1.00  0.00     0.000 C 
BRANCH   4   5
ATOM      5  C   UNL     1      -9.067  16.864  21.268  1.00  0.00     0.006 C 
BRANCH   5   6
ATOM      6  C   UNL     1      -8.419  17.531  20.050  1.00  0.00     0.053 C 
BRANCH   6   7
ATOM      7  C   UNL     1      -8.552  19.018  20.135  1.00  0.00     0.041 C 
ATOM      8  O   UNL     1      -8.524  19.594  21.253  1.00  0.00    -0.550 OA
ATOM      9  O   UNL     1      -8.757  19.766  18.981  1.00  0.00    -0.550 OA
ENDBRANCH   6   7
ENDBRANCH   5   6
ENDBRANCH   4   5
ENDBRANCH   3   4
ENDBRANCH   2   3
ENDBRANCH   1   2
BRANCH   1  10
ATOM     10  C   UNL     1      -4.477  16.004  23.024  1.00  0.00     0.000 C 
BRANCH  10  11
ATOM     11  C   UNL     1      -3.028  16.425  22.731  1.00  0.00    -0.000 C 
BRANCH  11  12
ATOM     12  C   UNL     1      -2.616  16.013  21.310  1.00  0.00    -0.000 C 
BRANCH  12  13
ATOM     13  C   UNL     1      -1.195  15.427  21.249  1.00  0.00    -0.000 C 
BRANCH  13  14
ATOM     14  C   UNL     1      -0.133  16.391  21.808  1.00  0.00    -0.000 C 
BRANCH  14  15
ATOM     15  C   UNL     1       1.123  15.659  22.303  1.00  0.00    -0.003 C 
ATOM     16  C   UNL     1       2.412  16.421  22.001  1.00  0.00     0.004 C 
ENDBRANCH  14  15
ENDBRANCH  13  14
ENDBRANCH  12  13
ENDBRANCH  11  12
ENDBRANCH  10  11
ENDBRANCH   1  10
TORSDOF 12
ENDMDL
MODEL 2
REMARK VINA RESULT:    -3.509      3.944      7.549
REMARK INTER + INTRA:          -6.711
REMARK INTER:                  -6.348
REMARK INTRA:                  -0.363
REMARK UNBOUND:                -0.740
REMARK SMILES CCCCCCCCCCCCCC(=O)[O-]
REMARK SMILES IDX 8 1 9 2 10 3 11 4 12 5 13 6 14 7 15 8 16 9 7 10 6 11 5 12
REMARK SMILES IDX 4 13 3 14 2 15 1 16
REMARK H PARENT
REMARK Flexibility Score: inf
ROOT
ATOM      1  C   UNL     1       2.890  16.264  22.091  1.00  0.00     0.000 C 
ENDROOT
BRANCH   1   2
ATOM      2  C   UNL     1       1.552  16.013  22.809  1.00  0.00     0.000 C 
BRANCH   2   3
ATOM      3  C   UNL     1       0.345  16.041  21.854  1.00  0.00     0.000 C 
BRANCH   3   4
ATOM      4  C   UNL     1      -0.911  16.639  22.523  1.00  0.00     0.000 C 
BRANCH   4   5
ATOM      5  C   UNL     1      -2.209  16.371  21.742  1.00  0.00     0.006 C 
BRANCH   5   6
ATOM      6  C   UNL     1      -3.411  16.106  22.655  1.00  0.00     0.053 C 
BRANCH   6   7
ATOM      7  C   UNL     1      -4.691  16.365  21.924  1.00  0.00     0.041 C 
ATOM      8  O   UNL     1      -5.107  17.542  21.771  1.00  0.00    -0.550 OA
ATOM      9  O   UNL     1      -5.451  15.300  21.454  1.00  0.00    -0.550 OA
ENDBRANCH   6   7
ENDBRANCH   5   6
ENDBRANCH   4   5
ENDBRANCH   3   4
ENDBRANCH   2   3
ENDBRANCH   1   2
BRANCH   1  10
ATOM     10  C   UNL     1       4.086  15.477  22.654  1.00  0.00     0.000 C 
BRANCH  10  11
ATOM     11  C   UNL     1       5.433  15.937  22.075  1.00  0.00    -0.000 C 
BRANCH  11  12
ATOM     12  C   UNL     1       6.404  14.755  21.940  1.00  0.00    -0.000 C 
BRANCH  12  13
ATOM     13  C   UNL     1       7.845  15.199  21.639  1.00  0.00    -0.000 C 
BRANCH  13  14
ATOM     14  C   UNL     1       8.058  16.707  21.866  1.00  0.00    -0.000 C 
BRANCH  14  15
ATOM     15  C   UNL     1       8.956  17.341  20.794  1.00  0.00    -0.003 C 
ATOM     16  C   UNL     1      10.001  16.371  20.244  1.00  0.00     0.004 C 
ENDBRANCH  14  15
ENDBRANCH  13  14
ENDBRANCH  12  13
ENDBRANCH  11  12
ENDBRANCH  10  11
ENDBRANCH   1  10
TORSDOF 12
ENDMDL
MODEL 3
REMARK VINA RESULT:    -3.497      5.301      9.453
REMARK INTER + INTRA:          -6.689
REMARK INTER:                  -6.186
REMARK INTRA:                  -0.503
REMARK UNBOUND:                -0.740
REMARK SMILES CCCCCCCCCCCCCC(=O)[O-]
REMARK SMILES IDX 8 1 9 2 10 3 11 4 12 5 13 6 14 7 15 8 16 9 7 10 6 11 5 12
REMARK SMILES IDX 4 13 3 14 2 15 1 16
REMARK H PARENT
REMARK Flexibility Score: inf
ROOT
ATOM      1  C   UNL     1      -2.338  16.468  21.315  1.00  0.00     0.000 C 
ENDROOT
BRANCH   1   2
ATOM      2  C   UNL     1      -1.090  15.571  21.397  1.00  0.00     0.000 C 
BRANCH   2   3
ATOM      3  C   UNL     1       0.030  16.181  22.258  1.00  0.00     0.000 C 
BRANCH   3   4
ATOM      4  C   UNL     1       1.421  16.005  21.613  1.00  0.00     0.000 C 
BRANCH   4   5
ATOM      5  C   UNL     1       2.586  16.204  22.598  1.00  0.00     0.006 C 
BRANCH   5   6
ATOM      6  C   UNL     1       3.922  16.470  21.896  1.00  0.00     0.053 C 
BRANCH   6   7
ATOM      7  C   UNL     1       4.965  15.510  22.377  1.00  0.00     0.041 C 
ATOM      8  O   UNL     1       4.729  14.275  22.396  1.00  0.00    -0.550 OA
ATOM      9  O   UNL     1       6.182  15.986  22.850  1.00  0.00    -0.550 OA
ENDBRANCH   6   7
ENDBRANCH   5   6
ENDBRANCH   4   5
ENDBRANCH   3   4
ENDBRANCH   2   3
ENDBRANCH   1   2
BRANCH   1  10
ATOM     10  C   UNL     1      -2.995  16.790  22.668  1.00  0.00     0.000 C 
BRANCH  10  11
ATOM     11  C   UNL     1      -4.258  15.957  22.935  1.00  0.00    -0.000 C 
BRANCH  11  12
ATOM     12  C   UNL     1      -5.177  15.947  21.704  1.00  0.00    -0.000 C 
BRANCH  12  13
ATOM     13  C   UNL     1      -6.041  14.678  21.618  1.00  0.00    -0.000 C 
BRANCH  13  14
ATOM     14  C   UNL     1      -7.540  14.992  21.463  1.00  0.00    -0.000 C 
BRANCH  14  15
ATOM     15  C   UNL     1      -7.850  16.485  21.653  1.00  0.00    -0.003 C 
ATOM     16  C   UNL     1      -8.236  17.181  20.349  1.00  0.00     0.004 C 
ENDBRANCH  14  15
ENDBRANCH  13  14
ENDBRANCH  12  13
ENDBRANCH  11  12
ENDBRANCH  10  11
ENDBRANCH   1  10
TORSDOF 12
ENDMDL
MODEL 4
REMARK VINA RESULT:    -3.433      6.453     10.928
REMARK INTER + INTRA:          -6.580
REMARK INTER:                  -6.316
REMARK INTRA:                  -0.264
REMARK UNBOUND:                -0.740
REMARK SMILES CCCCCCCCCCCCCC(=O)[O-]
REMARK SMILES IDX 8 1 9 2 10 3 11 4 12 5 13 6 14 7 15 8 16 9 7 10 6 11 5 12
REMARK SMILES IDX 4 13 3 14 2 15 1 16
REMARK H PARENT
REMARK Flexibility Score: inf
ROOT
ATOM      1  C   UNL     1       0.222  16.070  22.056  1.00  0.00     0.000 C 
ENDROOT
BRANCH   1   2
ATOM      2  C   UNL     1       1.534  16.061  22.860  1.00  0.00     0.000 C 
BRANCH   2   3
ATOM      3  C   UNL     1       2.774  16.319  21.985  1.00  0.00     0.000 C 
BRANCH   3   4
ATOM      4  C   UNL     1       4.040  15.649  22.559  1.00  0.00     0.000 C 
BRANCH   4   5
ATOM      5  C   UNL     1       5.330  16.028  21.811  1.00  0.00     0.006 C 
BRANCH   5   6
ATOM      6  C   UNL     1       6.581  15.927  22.690  1.00  0.00     0.053 C 
BRANCH   6   7
ATOM      7  C   UNL     1       7.816  15.937  21.845  1.00  0.00     0.041 C 
ATOM      8  O   UNL     1       8.205  17.004  21.303  1.00  0.00    -0.550 OA
ATOM      9  O   UNL     1       8.511  14.756  21.616  1.00  0.00    -0.550 OA
ENDBRANCH   6   7
ENDBRANCH   5   6
ENDBRANCH   4   5
ENDBRANCH   3   4
ENDBRANCH   2   3
ENDBRANCH   1   2
BRANCH   1  10
ATOM     10  C   UNL     1      -1.030  16.462  22.861  1.00  0.00     0.000 C 
BRANCH  10  11
ATOM     11  C   UNL     1      -2.317  16.424  22.023  1.00  0.00    -0.000 C 
BRANCH  11  12
ATOM     12  C   UNL     1      -3.559  16.435  22.928  1.00  0.00    -0.000 C 
BRANCH  12  13
ATOM     13  C   UNL     1      -4.873  16.511  22.133  1.00  0.00    -0.000 C 
BRANCH  13  14
ATOM     14  C   UNL     1      -5.110  15.264  21.261  1.00  0.00    -0.000 C 
BRANCH  14  15
ATOM     15  C   UNL     1      -6.439  14.564  21.586  1.00  0.00    -0.003 C 
ATOM     16  C   UNL     1      -7.658  15.433  21.279  1.00  0.00     0.004 C 
ENDBRANCH  14  15
ENDBRANCH  13  14
ENDBRANCH  12  13
ENDBRANCH  11  12
ENDBRANCH  10  11
ENDBRANCH   1  10
TORSDOF 12
ENDMDL
MODEL 5
REMARK VINA RESULT:    -3.399      1.718      3.511
REMARK INTER + INTRA:          -6.523
REMARK INTER:                  -6.001
REMARK INTRA:                  -0.522
REMARK UNBOUND:                -0.740
REMARK SMILES CCCCCCCCCCCCCC(=O)[O-]
REMARK SMILES IDX 8 1 9 2 10 3 11 4 12 5 13 6 14 7 15 8 16 9 7 10 6 11 5 12
REMARK SMILES IDX 4 13 3 14 2 15 1 16
REMARK H PARENT
REMARK Flexibility Score: inf
ROOT
ATOM      1  C   UNL     1      -1.826  17.257  22.869  1.00  0.00     0.000 C 
ENDROOT
BRANCH   1   2
ATOM      2  C   UNL     1      -3.324  17.011  23.122  1.00  0.00     0.000 C 
BRANCH   2   3
ATOM      3  C   UNL     1      -3.970  16.105  22.059  1.00  0.00     0.000 C 
BRANCH   3   4
ATOM      4  C   UNL     1      -5.409  15.697  22.439  1.00  0.00     0.000 C 
BRANCH   4   5
ATOM      5  C   UNL     1      -6.087  14.790  21.398  1.00  0.00     0.006 C 
BRANCH   5   6
ATOM      6  C   UNL     1      -7.614  14.768  21.530  1.00  0.00     0.053 C 
BRANCH   6   7
ATOM      7  C   UNL     1      -8.169  16.152  21.419  1.00  0.00     0.041 C 
ATOM      8  O   UNL     1      -8.842  16.643  22.362  1.00  0.00    -0.550 OA
ATOM      9  O   UNL     1      -7.985  16.884  20.252  1.00  0.00    -0.550 OA
ENDBRANCH   6   7
ENDBRANCH   5   6
ENDBRANCH   4   5
ENDBRANCH   3   4
ENDBRANCH   2   3
ENDBRANCH   1   2
BRANCH   1  10
ATOM     10  C   UNL     1      -1.315  16.789  21.495  1.00  0.00     0.000 C 
BRANCH  10  11
ATOM     11  C   UNL     1      -0.255  15.682  21.595  1.00  0.00    -0.000 C 
BRANCH  11  12
ATOM     12  C   UNL     1       0.844  16.065  22.597  1.00  0.00    -0.000 C 
BRANCH  12  13
ATOM     13  C   UNL     1       2.182  16.395  21.915  1.00  0.00    -0.000 C 
BRANCH  13  14
ATOM     14  C   UNL     1       3.389  15.792  22.657  1.00  0.00    -0.000 C 
BRANCH  14  15
ATOM     15  C   UNL     1       4.720  16.082  21.948  1.00  0.00    -0.003 C 
ATOM     16  C   UNL     1       5.936  15.650  22.767  1.00  0.00     0.004 C 
ENDBRANCH  14  15
ENDBRANCH  13  14
ENDBRANCH  12  13
ENDBRANCH  11  12
ENDBRANCH  10  11
ENDBRANCH   1  10
TORSDOF 12
ENDMDL
MODEL 6
REMARK VINA RESULT:    -3.387      7.228     11.963
REMARK INTER + INTRA:          -6.503
REMARK INTER:                  -6.220
REMARK INTRA:                  -0.283
REMARK UNBOUND:                -0.740
REMARK SMILES CCCCCCCCCCCCCC(=O)[O-]
REMARK SMILES IDX 8 1 9 2 10 3 11 4 12 5 13 6 14 7 15 8 16 9 7 10 6 11 5 12
REMARK SMILES IDX 4 13 3 14 2 15 1 16
REMARK H PARENT
REMARK Flexibility Score: inf
ROOT
ATOM      1  C   UNL     1       2.742  16.352  22.081  1.00  0.00     0.000 C 
ENDROOT
BRANCH   1   2
ATOM      2  C   UNL     1       3.956  15.625  22.687  1.00  0.00     0.000 C 
BRANCH   2   3
ATOM      3  C   UNL     1       5.275  15.962  21.969  1.00  0.00     0.000 C 
BRANCH   3   4
ATOM      4  C   UNL     1       6.269  14.782  21.997  1.00  0.00     0.000 C 
BRANCH   4   5
ATOM      5  C   UNL     1       7.743  15.218  21.928  1.00  0.00     0.006 C 
BRANCH   5   6
ATOM      6  C   UNL     1       7.922  16.627  21.353  1.00  0.00     0.053 C 
BRANCH   6   7
ATOM      7  C   UNL     1       9.246  16.748  20.667  1.00  0.00     0.041 C 
ATOM      8  O   UNL     1       9.801  17.871  20.553  1.00  0.00    -0.550 OA
ATOM      9  O   UNL     1       9.845  15.625  20.108  1.00  0.00    -0.550 OA
ENDBRANCH   6   7
ENDBRANCH   5   6
ENDBRANCH   4   5
ENDBRANCH   3   4
ENDBRANCH   2   3
ENDBRANCH   1   2
BRANCH   1  10
ATOM     10  C   UNL     1       1.388  15.998  22.721  1.00  0.00     0.000 C 
BRANCH  10  11
ATOM     11  C   UNL     1       0.270  15.800  21.686  1.00  0.00    -0.000 C 
BRANCH  11  12
ATOM     12  C   UNL     1      -0.990  16.585  22.084  1.00  0.00    -0.000 C 
BRANCH  12  13
ATOM     13  C   UNL     1      -2.283  15.938  21.561  1.00  0.00    -0.000 C 
BRANCH  13  14
ATOM     14  C   UNL     1      -3.549  16.654  22.067  1.00  0.00    -0.000 C 
BRANCH  14  15
ATOM     15  C   UNL     1      -4.613  15.673  22.583  1.00  0.00    -0.003 C 
ATOM     16  C   UNL     1      -5.769  15.481  21.603  1.00  0.00     0.004 C 
ENDBRANCH  14  15
ENDBRANCH  13  14
ENDBRANCH  12  13
ENDBRANCH  11  12
ENDBRANCH  10  11
ENDBRANCH   1  10
TORSDOF 12
ENDMDL
MODEL 7
REMARK VINA RESULT:    -3.246      8.085     13.253
REMARK INTER + INTRA:          -6.263
REMARK INTER:                  -5.607
REMARK INTRA:                  -0.657
REMARK UNBOUND:                -0.740
REMARK SMILES CCCCCCCCCCCCCC(=O)[O-]
REMARK SMILES IDX 8 1 9 2 10 3 11 4 12 5 13 6 14 7 15 8 16 9 7 10 6 11 5 12
REMARK SMILES IDX 4 13 3 14 2 15 1 16
REMARK H PARENT
REMARK Flexibility Score: inf
ROOT
ATOM      1  C   UNL     1       5.549  16.293  21.237  1.00  0.00     0.000 C 
ENDROOT
BRANCH   1   2
ATOM      2  C   UNL     1       6.451  15.815  22.390  1.00  0.00     0.000 C 
BRANCH   2   3
ATOM      3  C   UNL     1       7.826  16.507  22.401  1.00  0.00     0.000 C 
BRANCH   3   4
ATOM      4  C   UNL     1       8.120  17.237  21.073  1.00  0.00     0.000 C 
BRANCH   4   5
ATOM      5  C   UNL     1       9.512  16.928  20.496  1.00  0.00     0.006 C 
BRANCH   5   6
ATOM      6  C   UNL     1      10.161  15.694  21.134  1.00  0.00     0.053 C 
BRANCH   6   7
ATOM      7  C   UNL     1      10.172  14.551  20.169  1.00  0.00     0.041 C 
ATOM      8  O   UNL     1      10.884  14.604  19.133  1.00  0.00    -0.550 OA
ATOM      9  O   UNL     1       9.357  13.447  20.389  1.00  0.00    -0.550 OA
ENDBRANCH   6   7
ENDBRANCH   5   6
ENDBRANCH   4   5
ENDBRANCH   3   4
ENDBRANCH   2   3
ENDBRANCH   1   2
BRANCH   1  10
ATOM     10  C   UNL     1       4.117  16.675  21.650  1.00  0.00     0.000 C 
BRANCH  10  11
ATOM     11  C   UNL     1       3.552  15.775  22.759  1.00  0.00    -0.000 C 
BRANCH  11  12
ATOM     12  C   UNL     1       2.058  16.052  22.982  1.00  0.00    -0.000 C 
BRANCH  12  13
ATOM     13  C   UNL     1       1.272  16.169  21.666  1.00  0.00    -0.000 C 
BRANCH  13  14
ATOM     14  C   UNL     1      -0.189  15.707  21.807  1.00  0.00    -0.000 C 
BRANCH  14  15
ATOM     15  C   UNL     1      -1.171  16.884  21.918  1.00  0.00    -0.003 C 
ATOM     16  C   UNL     1      -2.554  16.459  22.408  1.00  0.00     0.004 C 
ENDBRANCH  14  15
ENDBRANCH  13  14
ENDBRANCH  12  13
ENDBRANCH  11  12
ENDBRANCH  10  11
ENDBRANCH   1  10
TORSDOF 12
ENDMDL
MODEL 8
REMARK VINA RESULT:    -3.190      5.669     10.215
REMARK INTER + INTRA:          -6.168
REMARK INTER:                  -5.563
REMARK INTRA:                  -0.604
REMARK UNBOUND:                -0.740
REMARK SMILES CCCCCCCCCCCCCC(=O)[O-]
REMARK SMILES IDX 8 1 9 2 10 3 11 4 12 5 13 6 14 7 15 8 16 9 7 10 6 11 5 12
REMARK SMILES IDX 4 13 3 14 2 15 1 16
REMARK H PARENT
REMARK Flexibility Score: inf
ROOT
ATOM      1  C   UNL     1       6.183  15.184  22.146  1.00  0.00     0.000 C 
ENDROOT
BRANCH   1   2
ATOM      2  C   UNL     1       4.832  15.231  22.881  1.00  0.00     0.000 C 
BRANCH   2   3
ATOM      3  C   UNL     1       3.762  16.031  22.117  1.00  0.00     0.000 C 
BRANCH   3   4
ATOM      4  C   UNL     1       2.415  16.066  22.869  1.00  0.00     0.000 C 
BRANCH   4   5
ATOM      5  C   UNL     1       1.191  15.941  21.945  1.00  0.00     0.006 C 
BRANCH   5   6
ATOM      6  C   UNL     1      -0.114  16.371  22.622  1.00  0.00     0.053 C 
BRANCH   6   7
ATOM      7  C   UNL     1      -1.253  16.304  21.654  1.00  0.00     0.041 C 
ATOM      8  O   UNL     1      -1.472  15.248  21.004  1.00  0.00    -0.550 OA
ATOM      9  O   UNL     1      -2.044  17.425  21.431  1.00  0.00    -0.550 OA
ENDBRANCH   6   7
ENDBRANCH   5   6
ENDBRANCH   4   5
ENDBRANCH   3   4
ENDBRANCH   2   3
ENDBRANCH   1   2
BRANCH   1  10
ATOM     10  C   UNL     1       6.877  13.810  22.151  1.00  0.00     0.000 C 
BRANCH  10  11
ATOM     11  C   UNL     1       8.404  13.910  22.293  1.00  0.00    -0.000 C 
BRANCH  11  12
ATOM     12  C   UNL     1       9.081  13.941  20.915  1.00  0.00    -0.000 C 
BRANCH  12  13
ATOM     13  C   UNL     1      10.574  14.302  20.994  1.00  0.00    -0.000 C 
BRANCH  13  14
ATOM     14  C   UNL     1      10.835  15.796  20.732  1.00  0.00    -0.000 C 
BRANCH  14  15
ATOM     15  C   UNL     1       9.658  16.484  20.023  1.00  0.00    -0.003 C 
ATOM     16  C   UNL     1       9.116  17.683  20.800  1.00  0.00     0.004 C 
ENDBRANCH  14  15
ENDBRANCH  13  14
ENDBRANCH  12  13
ENDBRANCH  11  12
ENDBRANCH  10  11
ENDBRANCH   1  10
TORSDOF 12
ENDMDL
MODEL 9
REMARK VINA RESULT:    -3.170      2.755      5.572
REMARK INTER + INTRA:          -6.134
REMARK INTER:                  -5.552
REMARK INTRA:                  -0.582
REMARK UNBOUND:                -0.740
REMARK SMILES CCCCCCCCCCCCCC(=O)[O-]
REMARK SMILES IDX 8 1 9 2 10 3 11 4 12 5 13 6 14 7 15 8 16 9 7 10 6 11 5 12
REMARK SMILES IDX 4 13 3 14 2 15 1 16
REMARK H PARENT
REMARK Flexibility Score: inf
ROOT
ATOM      1  C   UNL     1       0.612  16.010  21.673  1.00  0.00     0.000 C 
ENDROOT
BRANCH   1   2
ATOM      2  C   UNL     1      -0.924  15.911  21.648  1.00  0.00     0.000 C 
BRANCH   2   3
ATOM      3  C   UNL     1      -1.605  17.250  21.312  1.00  0.00     0.000 C 
BRANCH   3   4
ATOM      4  C   UNL     1      -2.839  17.513  22.201  1.00  0.00     0.000 C 
BRANCH   4   5
ATOM      5  C   UNL     1      -3.739  16.279  22.385  1.00  0.00     0.006 C 
BRANCH   5   6
ATOM      6  C   UNL     1      -5.138  16.633  22.899  1.00  0.00     0.053 C 
BRANCH   6   7
ATOM      7  C   UNL     1      -6.165  15.734  22.285  1.00  0.00     0.041 C 
ATOM      8  O   UNL     1      -5.831  14.903  21.400  1.00  0.00    -0.550 OA
ATOM      9  O   UNL     1      -7.500  15.849  22.654  1.00  0.00    -0.550 OA
ENDBRANCH   6   7
ENDBRANCH   5   6
ENDBRANCH   4   5
ENDBRANCH   3   4
ENDBRANCH   2   3
ENDBRANCH   1   2
BRANCH   1  10
ATOM     10  C   UNL     1       1.240  16.007  23.078  1.00  0.00     0.000 C 
BRANCH  10  11
ATOM     11  C   UNL     1       2.775  16.048  23.049  1.00  0.00    -0.000 C 
BRANCH  11  12
ATOM     12  C   UNL     1       3.280  16.760  21.784  1.00  0.00    -0.000 C 
BRANCH  12  13
ATOM     13  C   UNL     1       4.742  16.417  21.452  1.00  0.00    -0.000 C 
BRANCH  13  14
ATOM     14  C   UNL     1       5.402  15.538  22.529  1.00  0.00    -0.000 C 
BRANCH  14  15
ATOM     15  C   UNL     1       6.878  15.242  22.223  1.00  0.00    -0.003 C 
ATOM     16  C   UNL     1       7.623  16.453  21.663  1.00  0.00     0.004 C 
ENDBRANCH  14  15
ENDBRANCH  13  14
ENDBRANCH  12  13
ENDBRANCH  11  12
ENDBRANCH  10  11
ENDBRANCH   1  10
TORSDOF 12
ENDMDL
