MODEL 1
REMARK VINA RESULT:    -4.777      0.000      0.000
REMARK INTER + INTRA:          -6.520
REMARK INTER:                  -6.452
REMARK INTRA:                  -0.068
REMARK UNBOUND:                -0.068
REMARK SMILES [NH3+]CCCC[C@@H]([NH3+])C(=O)[O-]
REMARK SMILES IDX 4 1 3 2 2 3 1 4 5 8 6 9 7 10 8 14 9 15 10 16
REMARK H PARENT 1 5 1 6 1 7 7 11 7 12 7 13
REMARK Flexibility Score: inf
ROOT
ATOM      1  C   UNL     1      12.870  -9.892 -45.599  1.00  0.00     0.012 C 
ENDROOT
BRANCH   1   2
ATOM      2  C   UNL     1      11.635  -9.914 -46.514  1.00  0.00     0.061 C 
BRANCH   2   3
ATOM      3  C   UNL     1      11.298 -11.324 -47.024  1.00  0.00     0.258 C 
BRANCH   3   4
ATOM      4  N   UNL     1      12.220 -11.729 -48.086  1.00  0.00    -0.358 N 
ATOM      5  H   UNL     1      12.578 -12.689 -47.880  1.00  0.00     0.344 HD
ATOM      6  H   UNL     1      11.725 -11.742 -49.006  1.00  0.00     0.344 HD
ATOM      7  H   UNL     1      13.030 -11.068 -48.128  1.00  0.00     0.344 HD
ENDBRANCH   3   4
ENDBRANCH   2   3
ENDBRANCH   1   2
BRANCH   1   8
ATOM      8  C   UNL     1      14.040  -9.093 -46.206  1.00  0.00     0.072 C 
BRANCH   8   9
ATOM      9  C   UNL     1      15.255  -8.940 -45.262  1.00  0.00     0.227 C 
BRANCH   9  10
ATOM     10  N   UNL     1      16.463  -8.514 -45.984  1.00  0.00    -0.350 N 
ATOM     11  H   UNL     1      16.447  -8.895 -46.958  1.00  0.00     0.345 HD
ATOM     12  H   UNL     1      17.310  -8.891 -45.500  1.00  0.00     0.345 HD
ATOM     13  H   UNL     1      16.536  -7.472 -46.024  1.00  0.00     0.345 HD
ENDBRANCH   9  10
BRANCH   9  14
ATOM     14  C   UNL     1      14.951  -8.017 -44.109  1.00  0.00     0.099 C 
ATOM     15  O   UNL     1      15.296  -6.807 -44.167  1.00  0.00    -0.544 OA
ATOM     16  O   UNL     1      14.334  -8.494 -42.958  1.00  0.00    -0.544 OA
ENDBRANCH   9  14
ENDBRANCH   8   9
ENDBRANCH   1   8
TORSDOF 7
ENDMDL
MODEL 2
REMARK VINA RESULT:    -4.768     16.522     17.692
REMARK INTER + INTRA:          -6.509
REMARK INTER:                  -6.005
REMARK INTRA:                  -0.503
REMARK UNBOUND:                -0.068
REMARK SMILES [NH3+]CCCC[C@@H]([NH3+])C(=O)[O-]
REMARK SMILES IDX 4 1 3 2 2 3 1 4 5 8 6 9 7 10 8 14 9 15 10 16
REMARK H PARENT 1 5 1 6 1 7 7 11 7 12 7 13
REMARK Flexibility Score: inf
ROOT
ATOM      1  C   UNL     1      23.567  -1.247 -32.058  1.00  0.00     0.012 C 
ENDROOT
BRANCH   1   2
ATOM      2  C   UNL     1      22.543  -1.301 -33.204  1.00  0.00     0.061 C 
BRANCH   2   3
ATOM      3  C   UNL     1      21.197  -1.901 -32.770  1.00  0.00     0.258 C 
BRANCH   3   4
ATOM      4  N   UNL     1      21.073  -3.287 -33.221  1.00  0.00    -0.358 N 
ATOM      5  H   UNL     1      20.071  -3.490 -33.436  1.00  0.00     0.344 HD
ATOM      6  H   UNL     1      21.641  -3.436 -34.086  1.00  0.00     0.344 HD
ATOM      7  H   UNL     1      21.396  -3.939 -32.469  1.00  0.00     0.344 HD
ENDBRANCH   3   4
ENDBRANCH   2   3
ENDBRANCH   1   2
BRANCH   1   8
ATOM      8  C   UNL     1      24.936  -1.827 -32.462  1.00  0.00     0.072 C 
BRANCH   8   9
ATOM      9  C   UNL     1      25.154  -3.294 -32.025  1.00  0.00     0.227 C 
BRANCH   9  10
ATOM     10  N   UNL     1      24.338  -3.646 -30.854  1.00  0.00    -0.350 N 
ATOM     11  H   UNL     1      24.643  -3.084 -30.027  1.00  0.00     0.345 HD
ATOM     12  H   UNL     1      24.470  -4.659 -30.628  1.00  0.00     0.345 HD
ATOM     13  H   UNL     1      23.322  -3.473 -31.032  1.00  0.00     0.345 HD
ENDBRANCH   9  10
BRANCH   9  14
ATOM     14  C   UNL     1      24.923  -4.254 -33.164  1.00  0.00     0.099 C 
ATOM     15  O   UNL     1      25.826  -4.435 -34.024  1.00  0.00    -0.544 OA
ATOM     16  O   UNL     1      23.706  -4.910 -33.308  1.00  0.00    -0.544 OA
ENDBRANCH   9  14
ENDBRANCH   8   9
ENDBRANCH   1   8
TORSDOF 7
ENDMDL
MODEL 3
REMARK VINA RESULT:    -4.766      3.163      3.654
REMARK INTER + INTRA:          -6.505
REMARK INTER:                  -6.319
REMARK INTRA:                  -0.186
REMARK UNBOUND:                -0.068
REMARK SMILES [NH3+]CCCC[C@@H]([NH3+])C(=O)[O-]
REMARK SMILES IDX 4 1 3 2 2 3 1 4 5 8 6 9 7 10 8 14 9 15 10 16
REMARK H PARENT 1 5 1 6 1 7 7 11 7 12 7 13
REMARK Flexibility Score: inf
ROOT
ATOM      1  C   UNL     1      13.952  -9.851 -43.615  1.00  0.00     0.012 C 
ENDROOT
BRANCH   1   2
ATOM      2  C   UNL     1      14.571 -10.807 -42.581  1.00  0.00     0.061 C 
BRANCH   2   3
ATOM      3  C   UNL     1      15.320 -11.980 -43.231  1.00  0.00     0.258 C 
BRANCH   3   4
ATOM      4  N   UNL     1      16.165 -11.515 -44.332  1.00  0.00    -0.358 N 
ATOM      5  H   UNL     1      15.620 -10.845 -44.921  1.00  0.00     0.344 HD
ATOM      6  H   UNL     1      17.008 -11.025 -43.955  1.00  0.00     0.344 HD
ATOM      7  H   UNL     1      16.460 -12.324 -44.924  1.00  0.00     0.344 HD
ENDBRANCH   3   4
ENDBRANCH   2   3
ENDBRANCH   1   2
BRANCH   1   8
ATOM      8  C   UNL     1      14.278  -8.374 -43.322  1.00  0.00     0.072 C 
BRANCH   8   9
ATOM      9  C   UNL     1      14.753  -7.576 -44.559  1.00  0.00     0.227 C 
BRANCH   9  10
ATOM     10  N   UNL     1      15.705  -6.516 -44.198  1.00  0.00    -0.350 N 
ATOM     11  H   UNL     1      16.680  -6.894 -44.211  1.00  0.00     0.345 HD
ATOM     12  H   UNL     1      15.499  -6.176 -43.230  1.00  0.00     0.345 HD
ATOM     13  H   UNL     1      15.642  -5.706 -44.857  1.00  0.00     0.345 HD
ENDBRANCH   9  10
BRANCH   9  14
ATOM     14  C   UNL     1      15.319  -8.484 -45.622  1.00  0.00     0.099 C 
ATOM     15  O   UNL     1      16.559  -8.696 -45.669  1.00  0.00    -0.544 OA
ATOM     16  O   UNL     1      14.493  -9.053 -46.585  1.00  0.00    -0.544 OA
ENDBRANCH   9  14
ENDBRANCH   8   9
ENDBRANCH   1   8
TORSDOF 7
ENDMDL
MODEL 4
REMARK VINA RESULT:    -4.725      3.107      5.113
REMARK INTER + INTRA:          -6.450
REMARK INTER:                  -6.370
REMARK INTRA:                  -0.080
REMARK UNBOUND:                -0.068
REMARK SMILES [NH3+]CCCC[C@@H]([NH3+])C(=O)[O-]
REMARK SMILES IDX 4 1 3 2 2 3 1 4 5 8 6 9 7 10 8 14 9 15 10 16
REMARK H PARENT 1 5 1 6 1 7 7 11 7 12 7 13
REMARK Flexibility Score: inf
ROOT
ATOM      1  C   UNL     1      13.673  -9.120 -46.021  1.00  0.00     0.012 C 
ENDROOT
BRANCH   1   2
ATOM      2  C   UNL     1      14.914  -9.424 -45.164  1.00  0.00     0.061 C 
BRANCH   2   3
ATOM      3  C   UNL     1      16.152  -8.632 -45.611  1.00  0.00     0.258 C 
BRANCH   3   4
ATOM      4  N   UNL     1      16.168  -8.465 -47.065  1.00  0.00    -0.358 N 
ATOM      5  H   UNL     1      16.858  -7.722 -47.317  1.00  0.00     0.344 HD
ATOM      6  H   UNL     1      16.450  -9.359 -47.527  1.00  0.00     0.344 HD
ATOM      7  H   UNL     1      15.221  -8.175 -47.402  1.00  0.00     0.344 HD
ENDBRANCH   3   4
ENDBRANCH   2   3
ENDBRANCH   1   2
BRANCH   1   8
ATOM      8  C   UNL     1      12.490 -10.053 -45.698  1.00  0.00     0.072 C 
BRANCH   8   9
ATOM      9  C   UNL     1      11.590 -10.373 -46.913  1.00  0.00     0.227 C 
BRANCH   9  10
ATOM     10  N   UNL     1      12.197 -11.376 -47.800  1.00  0.00    -0.350 N 
ATOM     11  H   UNL     1      12.324 -10.973 -48.756  1.00  0.00     0.345 HD
ATOM     12  H   UNL     1      11.564 -12.205 -47.876  1.00  0.00     0.345 HD
ATOM     13  H   UNL     1      13.124 -11.695 -47.436  1.00  0.00     0.345 HD
ENDBRANCH   9  10
BRANCH   9  14
ATOM     14  C   UNL     1      10.204 -10.787 -46.484  1.00  0.00     0.099 C 
ATOM     15  O   UNL     1       9.929 -12.008 -46.347  1.00  0.00    -0.544 OA
ATOM     16  O   UNL     1       9.208  -9.838 -46.284  1.00  0.00    -0.544 OA
ENDBRANCH   9  14
ENDBRANCH   8   9
ENDBRANCH   1   8
TORSDOF 7
ENDMDL
MODEL 5
REMARK VINA RESULT:    -4.715      1.675      1.848
REMARK INTER + INTRA:          -6.437
REMARK INTER:                  -6.318
REMARK INTRA:                  -0.119
REMARK UNBOUND:                -0.068
REMARK SMILES [NH3+]CCCC[C@@H]([NH3+])C(=O)[O-]
REMARK SMILES IDX 4 1 3 2 2 3 1 4 5 8 6 9 7 10 8 14 9 15 10 16
REMARK H PARENT 1 5 1 6 1 7 7 11 7 12 7 13
REMARK Flexibility Score: inf
ROOT
ATOM      1  C   UNL     1      12.271  -9.489 -46.275  1.00  0.00     0.012 C 
ENDROOT
BRANCH   1   2
ATOM      2  C   UNL     1      11.140 -10.530 -46.306  1.00  0.00     0.061 C 
BRANCH   2   3
ATOM      3  C   UNL     1      10.945 -11.154 -47.697  1.00  0.00     0.258 C 
BRANCH   3   4
ATOM      4  N   UNL     1      12.173 -11.807 -48.152  1.00  0.00    -0.358 N 
ATOM      5  H   UNL     1      12.804 -11.958 -47.333  1.00  0.00     0.344 HD
ATOM      6  H   UNL     1      11.949 -12.733 -48.582  1.00  0.00     0.344 HD
ATOM      7  H   UNL     1      12.663 -11.202 -48.850  1.00  0.00     0.344 HD
ENDBRANCH   3   4
ENDBRANCH   2   3
ENDBRANCH   1   2
BRANCH   1   8
ATOM      8  C   UNL     1      13.412  -9.885 -45.318  1.00  0.00     0.072 C 
BRANCH   8   9
ATOM      9  C   UNL     1      13.748  -8.811 -44.258  1.00  0.00     0.227 C 
BRANCH   9  10
ATOM     10  N   UNL     1      13.729  -9.358 -42.894  1.00  0.00    -0.350 N 
ATOM     11  H   UNL     1      13.759 -10.402 -42.930  1.00  0.00     0.345 HD
ATOM     12  H   UNL     1      12.844  -9.072 -42.415  1.00  0.00     0.345 HD
ATOM     13  H   UNL     1      14.541  -9.010 -42.333  1.00  0.00     0.345 HD
ENDBRANCH   9  10
BRANCH   9  14
ATOM     14  C   UNL     1      15.058  -8.125 -44.558  1.00  0.00     0.099 C 
ATOM     15  O   UNL     1      15.295  -6.988 -44.070  1.00  0.00    -0.544 OA
ATOM     16  O   UNL     1      15.991  -8.711 -45.405  1.00  0.00    -0.544 OA
ENDBRANCH   9  14
ENDBRANCH   8   9
ENDBRANCH   1   8
TORSDOF 7
ENDMDL
MODEL 6
REMARK VINA RESULT:    -4.644     16.366     17.583
REMARK INTER + INTRA:          -6.341
REMARK INTER:                  -5.902
REMARK INTRA:                  -0.438
REMARK UNBOUND:                -0.068
REMARK SMILES [NH3+]CCCC[C@@H]([NH3+])C(=O)[O-]
REMARK SMILES IDX 4 1 3 2 2 3 1 4 5 8 6 9 7 10 8 14 9 15 10 16
REMARK H PARENT 1 5 1 6 1 7 7 11 7 12 7 13
REMARK Flexibility Score: inf
ROOT
ATOM      1  C   UNL     1      23.203  -1.303 -32.078  1.00  0.00     0.012 C 
ENDROOT
BRANCH   1   2
ATOM      2  C   UNL     1      22.119  -1.139 -33.156  1.00  0.00     0.061 C 
BRANCH   2   3
ATOM      3  C   UNL     1      20.854  -1.958 -32.855  1.00  0.00     0.258 C 
BRANCH   3   4
ATOM      4  N   UNL     1      21.026  -3.353 -33.260  1.00  0.00    -0.358 N 
ATOM      5  H   UNL     1      21.837  -3.421 -33.917  1.00  0.00     0.344 HD
ATOM      6  H   UNL     1      21.219  -3.949 -32.423  1.00  0.00     0.344 HD
ATOM      7  H   UNL     1      20.166  -3.694 -33.748  1.00  0.00     0.344 HD
ENDBRANCH   3   4
ENDBRANCH   2   3
ENDBRANCH   1   2
BRANCH   1   8
ATOM      8  C   UNL     1      24.551  -1.769 -32.661  1.00  0.00     0.072 C 
BRANCH   8   9
ATOM      9  C   UNL     1      25.010  -3.157 -32.158  1.00  0.00     0.227 C 
BRANCH   9  10
ATOM     10  N   UNL     1      24.303  -3.561 -30.934  1.00  0.00    -0.350 N 
ATOM     11  H   UNL     1      23.325  -3.193 -30.952  1.00  0.00     0.345 HD
ATOM     12  H   UNL     1      24.789  -3.157 -30.101  1.00  0.00     0.345 HD
ATOM     13  H   UNL     1      24.277  -4.601 -30.835  1.00  0.00     0.345 HD
ENDBRANCH   9  10
BRANCH   9  14
ATOM     14  C   UNL     1      24.889  -4.206 -33.234  1.00  0.00     0.099 C 
ATOM     15  O   UNL     1      23.833  -4.886 -33.330  1.00  0.00    -0.544 OA
ATOM     16  O   UNL     1      25.949  -4.468 -34.096  1.00  0.00    -0.544 OA
ENDBRANCH   9  14
ENDBRANCH   8   9
ENDBRANCH   1   8
TORSDOF 7
ENDMDL
MODEL 7
REMARK VINA RESULT:    -4.603     17.363     18.499
REMARK INTER + INTRA:          -6.286
REMARK INTER:                  -5.773
REMARK INTRA:                  -0.512
REMARK UNBOUND:                -0.068
REMARK SMILES [NH3+]CCCC[C@@H]([NH3+])C(=O)[O-]
REMARK SMILES IDX 4 1 3 2 2 3 1 4 5 8 6 9 7 10 8 14 9 15 10 16
REMARK H PARENT 1 5 1 6 1 7 7 11 7 12 7 13
REMARK Flexibility Score: inf
ROOT
ATOM      1  C   UNL     1      24.467  -3.600 -33.098  1.00  0.00     0.012 C 
ENDROOT
BRANCH   1   2
ATOM      2  C   UNL     1      25.622  -3.509 -32.087  1.00  0.00     0.061 C 
BRANCH   2   3
ATOM      3  C   UNL     1      26.643  -2.419 -32.449  1.00  0.00     0.258 C 
BRANCH   3   4
ATOM      4  N   UNL     1      25.968  -1.185 -32.851  1.00  0.00    -0.358 N 
ATOM      5  H   UNL     1      26.319  -0.895 -33.792  1.00  0.00     0.344 HD
ATOM      6  H   UNL     1      24.936  -1.342 -32.908  1.00  0.00     0.344 HD
ATOM      7  H   UNL     1      26.174  -0.424 -32.164  1.00  0.00     0.344 HD
ENDBRANCH   3   4
ENDBRANCH   2   3
ENDBRANCH   1   2
BRANCH   1   8
ATOM      8  C   UNL     1      23.083  -3.536 -32.421  1.00  0.00     0.072 C 
BRANCH   8   9
ATOM      9  C   UNL     1      22.364  -2.177 -32.583  1.00  0.00     0.227 C 
BRANCH   9  10
ATOM     10  N   UNL     1      20.961  -2.342 -32.991  1.00  0.00    -0.350 N 
ATOM     11  H   UNL     1      20.433  -2.851 -32.246  1.00  0.00     0.345 HD
ATOM     12  H   UNL     1      20.917  -2.909 -33.869  1.00  0.00     0.345 HD
ATOM     13  H   UNL     1      20.505  -1.417 -33.166  1.00  0.00     0.345 HD
ENDBRANCH   9  10
BRANCH   9  14
ATOM     14  C   UNL     1      22.479  -1.335 -31.337  1.00  0.00     0.099 C 
ATOM     15  O   UNL     1      23.584  -0.811 -31.035  1.00  0.00    -0.544 OA
ATOM     16  O   UNL     1      21.391  -1.167 -30.488  1.00  0.00    -0.544 OA
ENDBRANCH   9  14
ENDBRANCH   8   9
ENDBRANCH   1   8
TORSDOF 7
ENDMDL
MODEL 8
REMARK VINA RESULT:    -4.582     16.383     17.873
REMARK INTER + INTRA:          -6.257
REMARK INTER:                  -6.052
REMARK INTRA:                  -0.206
REMARK UNBOUND:                -0.068
REMARK SMILES [NH3+]CCCC[C@@H]([NH3+])C(=O)[O-]
REMARK SMILES IDX 4 1 3 2 2 3 1 4 5 8 6 9 7 10 8 14 9 15 10 16
REMARK H PARENT 1 5 1 6 1 7 7 11 7 12 7 13
REMARK Flexibility Score: inf
ROOT
ATOM      1  C   UNL     1      24.898  -4.357 -33.237  1.00  0.00     0.012 C 
ENDROOT
BRANCH   1   2
ATOM      2  C   UNL     1      23.569  -5.130 -33.210  1.00  0.00     0.061 C 
BRANCH   2   3
ATOM      3  C   UNL     1      22.344  -4.204 -33.156  1.00  0.00     0.258 C 
BRANCH   3   4
ATOM      4  N   UNL     1      21.153  -4.884 -33.665  1.00  0.00    -0.358 N 
ATOM      5  H   UNL     1      20.736  -5.462 -32.901  1.00  0.00     0.344 HD
ATOM      6  H   UNL     1      20.447  -4.182 -33.982  1.00  0.00     0.344 HD
ATOM      7  H   UNL     1      21.411  -5.511 -34.461  1.00  0.00     0.344 HD
ENDBRANCH   3   4
ENDBRANCH   2   3
ENDBRANCH   1   2
BRANCH   1   8
ATOM      8  C   UNL     1      25.107  -3.499 -31.974  1.00  0.00     0.072 C 
BRANCH   8   9
ATOM      9  C   UNL     1      25.262  -1.987 -32.257  1.00  0.00     0.227 C 
BRANCH   9  10
ATOM     10  N   UNL     1      25.127  -1.678 -33.688  1.00  0.00    -0.350 N 
ATOM     11  H   UNL     1      24.171  -1.942 -34.020  1.00  0.00     0.345 HD
ATOM     12  H   UNL     1      25.827  -2.233 -34.233  1.00  0.00     0.345 HD
ATOM     13  H   UNL     1      25.287  -0.662 -33.876  1.00  0.00     0.345 HD
ENDBRANCH   9  10
BRANCH   9  14
ATOM     14  C   UNL     1      24.310  -1.165 -31.426  1.00  0.00     0.099 C 
ATOM     15  O   UNL     1      23.168  -1.619 -31.149  1.00  0.00    -0.544 OA
ATOM     16  O   UNL     1      24.657   0.111 -30.998  1.00  0.00    -0.544 OA
ENDBRANCH   9  14
ENDBRANCH   8   9
ENDBRANCH   1   8
TORSDOF 7
ENDMDL
MODEL 9
REMARK VINA RESULT:    -4.494     17.234     18.449
REMARK INTER + INTRA:          -6.139
REMARK INTER:                  -5.590
REMARK INTRA:                  -0.549
REMARK UNBOUND:                -0.068
REMARK SMILES [NH3+]CCCC[C@@H]([NH3+])C(=O)[O-]
REMARK SMILES IDX 4 1 3 2 2 3 1 4 5 8 6 9 7 10 8 14 9 15 10 16
REMARK H PARENT 1 5 1 6 1 7 7 11 7 12 7 13
REMARK Flexibility Score: inf
ROOT
ATOM      1  C   UNL     1      25.789  -2.059 -32.501  1.00  0.00     0.012 C 
ENDROOT
BRANCH   1   2
ATOM      2  C   UNL     1      25.454  -3.500 -32.081  1.00  0.00     0.061 C 
BRANCH   2   3
ATOM      3  C   UNL     1      24.914  -4.347 -33.243  1.00  0.00     0.258 C 
BRANCH   3   4
ATOM      4  N   UNL     1      23.641  -4.974 -32.885  1.00  0.00    -0.358 N 
ATOM      5  H   UNL     1      23.563  -5.018 -31.843  1.00  0.00     0.344 HD
ATOM      6  H   UNL     1      22.845  -4.411 -33.260  1.00  0.00     0.344 HD
ATOM      7  H   UNL     1      23.600  -5.946 -33.268  1.00  0.00     0.344 HD
ENDBRANCH   3   4
ENDBRANCH   2   3
ENDBRANCH   1   2
BRANCH   1   8
ATOM      8  C   UNL     1      24.583  -1.110 -32.367  1.00  0.00     0.072 C 
BRANCH   8   9
ATOM      9  C   UNL     1      23.586  -1.509 -31.255  1.00  0.00     0.227 C 
BRANCH   9  10
ATOM     10  N   UNL     1      23.632  -0.583 -30.115  1.00  0.00    -0.350 N 
ATOM     11  H   UNL     1      23.782  -1.117 -29.229  1.00  0.00     0.345 HD
ATOM     12  H   UNL     1      22.721  -0.075 -30.040  1.00  0.00     0.345 HD
ATOM     13  H   UNL     1      24.399   0.120 -30.226  1.00  0.00     0.345 HD
ENDBRANCH   9  10
BRANCH   9  14
ATOM     14  C   UNL     1      22.183  -1.652 -31.791  1.00  0.00     0.099 C 
ATOM     15  O   UNL     1      21.953  -2.448 -32.740  1.00  0.00    -0.544 OA
ATOM     16  O   UNL     1      21.145  -0.880 -31.282  1.00  0.00    -0.544 OA
ENDBRANCH   9  14
ENDBRANCH   8   9
ENDBRANCH   1   8
TORSDOF 7
ENDMDL
