MODEL 1
REMARK VINA RESULT:    -4.988      0.000      0.000
REMARK INTER + INTRA:         -11.875
REMARK INTER:                  -9.653
REMARK INTRA:                  -2.222
REMARK UNBOUND:                -2.222
REMARK SMILES CCCCCCCCCCCCCCCCCC(=O)[O-]
REMARK SMILES IDX 10 1 11 2 12 3 13 4 14 5 15 6 16 7 17 8 18 9 19 10 20 11
REMARK SMILES IDX 9 12 8 13 7 14 6 15 5 16 4 17 3 18 2 19 1 20
REMARK H PARENT
REMARK Flexibility Score: inf
ROOT
ATOM      1  C   UNL     1      17.714 -21.885 -26.763  1.00  0.00     0.000 C 
ENDROOT
BRANCH   1   2
ATOM      2  C   UNL     1      18.258 -22.809 -25.664  1.00  0.00     0.000 C 
BRANCH   2   3
ATOM      3  C   UNL     1      17.212 -23.860 -25.262  1.00  0.00     0.000 C 
BRANCH   3   4
ATOM      4  C   UNL     1      17.545 -25.267 -25.789  1.00  0.00     0.000 C 
BRANCH   4   5
ATOM      5  C   UNL     1      18.982 -25.445 -26.312  1.00  0.00     0.000 C 
BRANCH   5   6
ATOM      6  C   UNL     1      19.029 -25.887 -27.787  1.00  0.00     0.000 C 
BRANCH   6   7
ATOM      7  C   UNL     1      18.296 -27.216 -28.030  1.00  0.00     0.006 C 
BRANCH   7   8
ATOM      8  C   UNL     1      17.163 -27.093 -29.058  1.00  0.00     0.053 C 
BRANCH   8   9
ATOM      9  C   UNL     1      16.225 -28.254 -28.946  1.00  0.00     0.041 C 
ATOM     10  O   UNL     1      16.284 -29.019 -27.948  1.00  0.00    -0.550 OA
ATOM     11  O   UNL     1      15.316 -28.518 -29.964  1.00  0.00    -0.550 OA
ENDBRANCH   8   9
ENDBRANCH   7   8
ENDBRANCH   6   7
ENDBRANCH   5   6
ENDBRANCH   4   5
ENDBRANCH   3   4
ENDBRANCH   2   3
ENDBRANCH   1   2
BRANCH   1  12
ATOM     12  C   UNL     1      18.477 -22.019 -28.094  1.00  0.00     0.000 C 
BRANCH  12  13
ATOM     13  C   UNL     1      17.688 -22.684 -29.238  1.00  0.00    -0.000 C 
BRANCH  13  14
ATOM     14  C   UNL     1      16.435 -23.431 -28.747  1.00  0.00    -0.000 C 
BRANCH  14  15
ATOM     15  C   UNL     1      15.317 -23.469 -29.803  1.00  0.00    -0.000 C 
BRANCH  15  16
ATOM     16  C   UNL     1      13.956 -23.020 -29.241  1.00  0.00    -0.000 C 
BRANCH  16  17
ATOM     17  C   UNL     1      14.008 -22.736 -27.730  1.00  0.00    -0.000 C 
BRANCH  17  18
ATOM     18  C   UNL     1      12.685 -22.161 -27.191  1.00  0.00    -0.000 C 
BRANCH  18  19
ATOM     19  C   UNL     1      11.764 -23.247 -26.613  1.00  0.00    -0.003 C 
ATOM     20  C   UNL     1      10.748 -23.765 -27.631  1.00  0.00     0.004 C 
ENDBRANCH  18  19
ENDBRANCH  17  18
ENDBRANCH  16  17
ENDBRANCH  15  16
ENDBRANCH  14  15
ENDBRANCH  13  14
ENDBRANCH  12  13
ENDBRANCH   1  12
TORSDOF 16
ENDMDL
MODEL 2
REMARK VINA RESULT:    -4.917      1.266      2.485
REMARK INTER + INTRA:         -11.738
REMARK INTER:                  -9.939
REMARK INTRA:                  -1.798
REMARK UNBOUND:                -2.222
REMARK SMILES CCCCCCCCCCCCCCCCCC(=O)[O-]
REMARK SMILES IDX 10 1 11 2 12 3 13 4 14 5 15 6 16 7 17 8 18 9 19 10 20 11
REMARK SMILES IDX 9 12 8 13 7 14 6 15 5 16 4 17 3 18 2 19 1 20
REMARK H PARENT
REMARK Flexibility Score: inf
ROOT
ATOM      1  C   UNL     1      15.629 -22.827 -27.300  1.00  0.00     0.000 C 
ENDROOT
BRANCH   1   2
ATOM      2  C   UNL     1      17.000 -22.576 -26.653  1.00  0.00     0.000 C 
BRANCH   2   3
ATOM      3  C   UNL     1      17.472 -23.811 -25.871  1.00  0.00     0.000 C 
BRANCH   3   4
ATOM      4  C   UNL     1      18.814 -24.366 -26.383  1.00  0.00     0.000 C 
BRANCH   4   5
ATOM      5  C   UNL     1      18.765 -25.002 -27.784  1.00  0.00     0.000 C 
BRANCH   5   6
ATOM      6  C   UNL     1      18.923 -26.533 -27.750  1.00  0.00     0.000 C 
BRANCH   6   7
ATOM      7  C   UNL     1      17.580 -27.270 -27.882  1.00  0.00     0.006 C 
BRANCH   7   8
ATOM      8  C   UNL     1      16.885 -27.007 -29.225  1.00  0.00     0.053 C 
BRANCH   8   9
ATOM      9  C   UNL     1      15.938 -28.119 -29.552  1.00  0.00     0.041 C 
ATOM     10  O   UNL     1      14.695 -27.927 -29.494  1.00  0.00    -0.550 OA
ATOM     11  O   UNL     1      16.426 -29.379 -29.877  1.00  0.00    -0.550 OA
ENDBRANCH   8   9
ENDBRANCH   7   8
ENDBRANCH   6   7
ENDBRANCH   5   6
ENDBRANCH   4   5
ENDBRANCH   3   4
ENDBRANCH   2   3
ENDBRANCH   1   2
BRANCH   1  12
ATOM     12  C   UNL     1      15.734 -23.402 -28.725  1.00  0.00     0.000 C 
BRANCH  12  13
ATOM     13  C   UNL     1      14.500 -24.189 -29.206  1.00  0.00    -0.000 C 
BRANCH  13  14
ATOM     14  C   UNL     1      13.183 -23.417 -29.012  1.00  0.00    -0.000 C 
BRANCH  14  15
ATOM     15  C   UNL     1      12.078 -24.282 -28.381  1.00  0.00    -0.000 C 
BRANCH  15  16
ATOM     16  C   UNL     1      11.250 -23.512 -27.336  1.00  0.00    -0.000 C 
BRANCH  16  17
ATOM     17  C   UNL     1      12.120 -22.916 -26.217  1.00  0.00    -0.000 C 
BRANCH  17  18
ATOM     18  C   UNL     1      11.849 -21.417 -25.991  1.00  0.00    -0.000 C 
BRANCH  18  19
ATOM     19  C   UNL     1      12.394 -20.542 -27.131  1.00  0.00    -0.003 C 
ATOM     20  C   UNL     1      12.659 -19.100 -26.697  1.00  0.00     0.004 C 
ENDBRANCH  18  19
ENDBRANCH  17  18
ENDBRANCH  16  17
ENDBRANCH  15  16
ENDBRANCH  14  15
ENDBRANCH  13  14
ENDBRANCH  12  13
ENDBRANCH   1  12
TORSDOF 16
ENDMDL
MODEL 3
REMARK VINA RESULT:    -4.858      1.032      2.098
REMARK INTER + INTRA:         -11.623
REMARK INTER:                  -9.207
REMARK INTRA:                  -2.417
REMARK UNBOUND:                -2.222
REMARK SMILES CCCCCCCCCCCCCCCCCC(=O)[O-]
REMARK SMILES IDX 10 1 11 2 12 3 13 4 14 5 15 6 16 7 17 8 18 9 19 10 20 11
REMARK SMILES IDX 9 12 8 13 7 14 6 15 5 16 4 17 3 18 2 19 1 20
REMARK H PARENT
REMARK Flexibility Score: inf
ROOT
ATOM      1  C   UNL     1      18.595 -23.130 -23.886  1.00  0.00     0.000 C 
ENDROOT
BRANCH   1   2
ATOM      2  C   UNL     1      18.809 -24.517 -24.511  1.00  0.00     0.000 C 
BRANCH   2   3
ATOM      3  C   UNL     1      17.477 -25.113 -24.992  1.00  0.00     0.000 C 
BRANCH   3   4
ATOM      4  C   UNL     1      17.627 -25.963 -26.266  1.00  0.00     0.000 C 
BRANCH   4   5
ATOM      5  C   UNL     1      18.978 -25.819 -26.990  1.00  0.00     0.000 C 
BRANCH   5   6
ATOM      6  C   UNL     1      18.903 -26.211 -28.478  1.00  0.00     0.000 C 
BRANCH   6   7
ATOM      7  C   UNL     1      17.461 -26.241 -29.010  1.00  0.00     0.006 C 
BRANCH   7   8
ATOM      8  C   UNL     1      17.113 -27.559 -29.715  1.00  0.00     0.053 C 
BRANCH   8   9
ATOM      9  C   UNL     1      16.026 -28.277 -28.978  1.00  0.00     0.041 C 
ATOM     10  O   UNL     1      14.830 -28.173 -29.358  1.00  0.00    -0.550 OA
ATOM     11  O   UNL     1      16.326 -29.025 -27.846  1.00  0.00    -0.550 OA
ENDBRANCH   8   9
ENDBRANCH   7   8
ENDBRANCH   6   7
ENDBRANCH   5   6
ENDBRANCH   4   5
ENDBRANCH   3   4
ENDBRANCH   2   3
ENDBRANCH   1   2
BRANCH   1  12
ATOM     12  C   UNL     1      19.021 -21.979 -24.817  1.00  0.00     0.000 C 
BRANCH  12  13
ATOM     13  C   UNL     1      18.024 -21.644 -25.943  1.00  0.00    -0.000 C 
BRANCH  13  14
ATOM     14  C   UNL     1      18.558 -21.997 -27.343  1.00  0.00    -0.000 C 
BRANCH  14  15
ATOM     15  C   UNL     1      17.503 -22.690 -28.222  1.00  0.00    -0.000 C 
BRANCH  15  16
ATOM     16  C   UNL     1      16.144 -22.832 -27.513  1.00  0.00    -0.000 C 
BRANCH  16  17
ATOM     17  C   UNL     1      15.032 -23.313 -28.462  1.00  0.00    -0.000 C 
BRANCH  17  18
ATOM     18  C   UNL     1      13.683 -22.624 -28.189  1.00  0.00    -0.000 C 
BRANCH  18  19
ATOM     19  C   UNL     1      13.156 -22.900 -26.772  1.00  0.00    -0.003 C 
ATOM     20  C   UNL     1      11.674 -23.273 -26.753  1.00  0.00     0.004 C 
ENDBRANCH  18  19
ENDBRANCH  17  18
ENDBRANCH  16  17
ENDBRANCH  15  16
ENDBRANCH  14  15
ENDBRANCH  13  14
ENDBRANCH  12  13
ENDBRANCH   1  12
TORSDOF 16
ENDMDL
MODEL 4
REMARK VINA RESULT:    -4.779      4.311      7.388
REMARK INTER + INTRA:         -11.471
REMARK INTER:                  -9.560
REMARK INTRA:                  -1.911
REMARK UNBOUND:                -2.222
REMARK SMILES CCCCCCCCCCCCCCCCCC(=O)[O-]
REMARK SMILES IDX 10 1 11 2 12 3 13 4 14 5 15 6 16 7 17 8 18 9 19 10 20 11
REMARK SMILES IDX 9 12 8 13 7 14 6 15 5 16 4 17 3 18 2 19 1 20
REMARK H PARENT
REMARK Flexibility Score: inf
ROOT
ATOM      1  C   UNL     1      16.989 -22.997 -28.601  1.00  0.00     0.000 C 
ENDROOT
BRANCH   1   2
ATOM      2  C   UNL     1      15.500 -23.371 -28.542  1.00  0.00     0.000 C 
BRANCH   2   3
ATOM      3  C   UNL     1      14.888 -22.977 -27.189  1.00  0.00     0.000 C 
BRANCH   3   4
ATOM      4  C   UNL     1      13.363 -22.776 -27.258  1.00  0.00     0.000 C 
BRANCH   4   5
ATOM      5  C   UNL     1      12.870 -21.930 -28.445  1.00  0.00     0.000 C 
BRANCH   5   6
ATOM      6  C   UNL     1      12.112 -20.664 -28.003  1.00  0.00     0.000 C 
BRANCH   6   7
ATOM      7  C   UNL     1      12.174 -20.438 -26.483  1.00  0.00     0.006 C 
BRANCH   7   8
ATOM      8  C   UNL     1      12.685 -19.040 -26.109  1.00  0.00     0.053 C 
BRANCH   8   9
ATOM      9  C   UNL     1      11.667 -18.313 -25.287  1.00  0.00     0.041 C 
ATOM     10  O   UNL     1      12.007 -17.758 -24.209  1.00  0.00    -0.550 OA
ATOM     11  O   UNL     1      10.337 -18.286 -25.687  1.00  0.00    -0.550 OA
ENDBRANCH   8   9
ENDBRANCH   7   8
ENDBRANCH   6   7
ENDBRANCH   5   6
ENDBRANCH   4   5
ENDBRANCH   3   4
ENDBRANCH   2   3
ENDBRANCH   1   2
BRANCH   1  12
ATOM     12  C   UNL     1      17.841 -23.758 -27.568  1.00  0.00     0.000 C 
BRANCH  12  13
ATOM     13  C   UNL     1      19.129 -24.394 -28.122  1.00  0.00    -0.000 C 
BRANCH  13  14
ATOM     14  C   UNL     1      19.203 -25.912 -27.875  1.00  0.00    -0.000 C 
BRANCH  14  15
ATOM     15  C   UNL     1      17.823 -26.537 -27.614  1.00  0.00    -0.000 C 
BRANCH  15  16
ATOM     16  C   UNL     1      17.695 -27.956 -28.198  1.00  0.00    -0.000 C 
BRANCH  16  17
ATOM     17  C   UNL     1      16.846 -27.991 -29.480  1.00  0.00    -0.000 C 
BRANCH  17  18
ATOM     18  C   UNL     1      16.119 -26.660 -29.745  1.00  0.00    -0.000 C 
BRANCH  18  19
ATOM     19  C   UNL     1      16.562 -25.997 -31.058  1.00  0.00    -0.003 C 
ATOM     20  C   UNL     1      18.018 -26.302 -31.414  1.00  0.00     0.004 C 
ENDBRANCH  18  19
ENDBRANCH  17  18
ENDBRANCH  16  17
ENDBRANCH  15  16
ENDBRANCH  14  15
ENDBRANCH  13  14
ENDBRANCH  12  13
ENDBRANCH   1  12
TORSDOF 16
ENDMDL
MODEL 5
REMARK VINA RESULT:    -4.769      4.219      7.717
REMARK INTER + INTRA:         -11.451
REMARK INTER:                  -9.631
REMARK INTRA:                  -1.821
REMARK UNBOUND:                -2.222
REMARK SMILES CCCCCCCCCCCCCCCCCC(=O)[O-]
REMARK SMILES IDX 10 1 11 2 12 3 13 4 14 5 15 6 16 7 17 8 18 9 19 10 20 11
REMARK SMILES IDX 9 12 8 13 7 14 6 15 5 16 4 17 3 18 2 19 1 20
REMARK H PARENT
REMARK Flexibility Score: inf
ROOT
ATOM      1  C   UNL     1      15.269 -23.745 -29.433  1.00  0.00     0.000 C 
ENDROOT
BRANCH   1   2
ATOM      2  C   UNL     1      13.808 -23.752 -28.958  1.00  0.00     0.000 C 
BRANCH   2   3
ATOM      3  C   UNL     1      13.011 -22.616 -29.616  1.00  0.00     0.000 C 
BRANCH   3   4
ATOM      4  C   UNL     1      11.833 -22.132 -28.752  1.00  0.00     0.000 C 
BRANCH   4   5
ATOM      5  C   UNL     1      12.114 -22.075 -27.239  1.00  0.00     0.000 C 
BRANCH   5   6
ATOM      6  C   UNL     1      12.824 -20.776 -26.813  1.00  0.00     0.000 C 
BRANCH   6   7
ATOM      7  C   UNL     1      11.837 -19.659 -26.436  1.00  0.00     0.006 C 
BRANCH   7   8
ATOM      8  C   UNL     1      11.857 -18.486 -27.426  1.00  0.00     0.053 C 
BRANCH   8   9
ATOM      9  C   UNL     1      10.462 -18.076 -27.781  1.00  0.00     0.041 C 
ATOM     10  O   UNL     1       9.780 -17.393 -26.973  1.00  0.00    -0.550 OA
ATOM     11  O   UNL     1       9.899 -18.486 -28.984  1.00  0.00    -0.550 OA
ENDBRANCH   8   9
ENDBRANCH   7   8
ENDBRANCH   6   7
ENDBRANCH   5   6
ENDBRANCH   4   5
ENDBRANCH   3   4
ENDBRANCH   2   3
ENDBRANCH   1   2
BRANCH   1  12
ATOM     12  C   UNL     1      16.225 -23.076 -28.429  1.00  0.00     0.000 C 
BRANCH  12  13
ATOM     13  C   UNL     1      15.741 -23.073 -26.966  1.00  0.00    -0.000 C 
BRANCH  13  14
ATOM     14  C   UNL     1      16.797 -23.610 -25.984  1.00  0.00    -0.000 C 
BRANCH  14  15
ATOM     15  C   UNL     1      18.126 -23.958 -26.676  1.00  0.00    -0.000 C 
BRANCH  15  16
ATOM     16  C   UNL     1      18.527 -25.432 -26.480  1.00  0.00    -0.000 C 
BRANCH  16  17
ATOM     17  C   UNL     1      19.295 -25.999 -27.687  1.00  0.00    -0.000 C 
BRANCH  17  18
ATOM     18  C   UNL     1      18.360 -26.569 -28.768  1.00  0.00    -0.000 C 
BRANCH  18  19
ATOM     19  C   UNL     1      17.030 -27.077 -28.189  1.00  0.00    -0.003 C 
ATOM     20  C   UNL     1      16.915 -28.601 -28.216  1.00  0.00     0.004 C 
ENDBRANCH  18  19
ENDBRANCH  17  18
ENDBRANCH  16  17
ENDBRANCH  15  16
ENDBRANCH  14  15
ENDBRANCH  13  14
ENDBRANCH  12  13
ENDBRANCH   1  12
TORSDOF 16
ENDMDL
MODEL 6
REMARK VINA RESULT:    -4.763      5.480      9.043
REMARK INTER + INTRA:         -11.441
REMARK INTER:                 -10.329
REMARK INTRA:                  -1.112
REMARK UNBOUND:                -2.222
REMARK SMILES CCCCCCCCCCCCCCCCCC(=O)[O-]
REMARK SMILES IDX 10 1 11 2 12 3 13 4 14 5 15 6 16 7 17 8 18 9 19 10 20 11
REMARK SMILES IDX 9 12 8 13 7 14 6 15 5 16 4 17 3 18 2 19 1 20
REMARK H PARENT
REMARK Flexibility Score: inf
ROOT
ATOM      1  C   UNL     1      13.166 -21.963 -27.400  1.00  0.00     0.000 C 
ENDROOT
BRANCH   1   2
ATOM      2  C   UNL     1      12.180 -20.803 -27.610  1.00  0.00     0.000 C 
BRANCH   2   3
ATOM      3  C   UNL     1      12.516 -19.623 -26.684  1.00  0.00     0.000 C 
BRANCH   3   4
ATOM      4  C   UNL     1      11.305 -19.143 -25.864  1.00  0.00     0.000 C 
BRANCH   4   5
ATOM      5  C   UNL     1      10.778 -17.745 -26.237  1.00  0.00     0.000 C 
BRANCH   5   6
ATOM      6  C   UNL     1       9.412 -17.792 -26.947  1.00  0.00     0.000 C 
BRANCH   6   7
ATOM      7  C   UNL     1       9.538 -17.721 -28.478  1.00  0.00     0.006 C 
BRANCH   7   8
ATOM      8  C   UNL     1       8.385 -16.951 -29.136  1.00  0.00     0.053 C 
BRANCH   8   9
ATOM      9  C   UNL     1       8.681 -16.700 -30.582  1.00  0.00     0.041 C 
ATOM     10  O   UNL     1       9.832 -16.926 -31.039  1.00  0.00    -0.550 OA
ATOM     11  O   UNL     1       7.699 -16.175 -31.414  1.00  0.00    -0.550 OA
ENDBRANCH   8   9
ENDBRANCH   7   8
ENDBRANCH   6   7
ENDBRANCH   5   6
ENDBRANCH   4   5
ENDBRANCH   3   4
ENDBRANCH   2   3
ENDBRANCH   1   2
BRANCH   1  12
ATOM     12  C   UNL     1      13.044 -23.057 -28.476  1.00  0.00     0.000 C 
BRANCH  12  13
ATOM     13  C   UNL     1      14.264 -23.202 -29.405  1.00  0.00    -0.000 C 
BRANCH  13  14
ATOM     14  C   UNL     1      14.981 -24.555 -29.246  1.00  0.00    -0.000 C 
BRANCH  14  15
ATOM     15  C   UNL     1      16.328 -24.429 -28.514  1.00  0.00    -0.000 C 
BRANCH  15  16
ATOM     16  C   UNL     1      16.735 -22.964 -28.273  1.00  0.00    -0.000 C 
BRANCH  16  17
ATOM     17  C   UNL     1      16.776 -22.602 -26.779  1.00  0.00    -0.000 C 
BRANCH  17  18
ATOM     18  C   UNL     1      17.994 -21.736 -26.413  1.00  0.00    -0.000 C 
BRANCH  18  19
ATOM     19  C   UNL     1      18.867 -22.378 -25.322  1.00  0.00    -0.003 C 
ATOM     20  C   UNL     1      18.508 -23.841 -25.061  1.00  0.00     0.004 C 
ENDBRANCH  18  19
ENDBRANCH  17  18
ENDBRANCH  16  17
ENDBRANCH  15  16
ENDBRANCH  14  15
ENDBRANCH  13  14
ENDBRANCH  12  13
ENDBRANCH   1  12
TORSDOF 16
ENDMDL
MODEL 7
REMARK VINA RESULT:    -4.734      1.447      3.127
REMARK INTER + INTRA:         -11.384
REMARK INTER:                  -8.946
REMARK INTRA:                  -2.438
REMARK UNBOUND:                -2.222
REMARK SMILES CCCCCCCCCCCCCCCCCC(=O)[O-]
REMARK SMILES IDX 10 1 11 2 12 3 13 4 14 5 15 6 16 7 17 8 18 9 19 10 20 11
REMARK SMILES IDX 9 12 8 13 7 14 6 15 5 16 4 17 3 18 2 19 1 20
REMARK H PARENT
REMARK Flexibility Score: inf
ROOT
ATOM      1  C   UNL     1      17.914 -26.301 -26.857  1.00  0.00     0.000 C 
ENDROOT
BRANCH   1   2
ATOM      2  C   UNL     1      19.161 -26.379 -27.751  1.00  0.00     0.000 C 
BRANCH   2   3
ATOM      3  C   UNL     1      19.643 -24.974 -28.144  1.00  0.00     0.000 C 
BRANCH   3   4
ATOM      4  C   UNL     1      19.698 -24.765 -29.668  1.00  0.00     0.000 C 
BRANCH   4   5
ATOM      5  C   UNL     1      18.336 -24.818 -30.383  1.00  0.00     0.000 C 
BRANCH   5   6
ATOM      6  C   UNL     1      18.268 -25.922 -31.455  1.00  0.00     0.000 C 
BRANCH   6   7
ATOM      7  C   UNL     1      17.460 -27.146 -30.994  1.00  0.00     0.006 C 
BRANCH   7   8
ATOM      8  C   UNL     1      16.288 -26.774 -30.074  1.00  0.00     0.053 C 
BRANCH   8   9
ATOM      9  C   UNL     1      15.699 -28.003 -29.454  1.00  0.00     0.041 C 
ATOM     10  O   UNL     1      14.451 -28.111 -29.332  1.00  0.00    -0.550 OA
ATOM     11  O   UNL     1      16.529 -29.008 -28.972  1.00  0.00    -0.550 OA
ENDBRANCH   8   9
ENDBRANCH   7   8
ENDBRANCH   6   7
ENDBRANCH   5   6
ENDBRANCH   4   5
ENDBRANCH   3   4
ENDBRANCH   2   3
ENDBRANCH   1   2
BRANCH   1  12
ATOM     12  C   UNL     1      18.073 -25.313 -25.687  1.00  0.00     0.000 C 
BRANCH  12  13
ATOM     13  C   UNL     1      16.983 -24.229 -25.592  1.00  0.00    -0.000 C 
BRANCH  13  14
ATOM     14  C   UNL     1      17.435 -22.871 -26.159  1.00  0.00    -0.000 C 
BRANCH  14  15
ATOM     15  C   UNL     1      16.514 -22.362 -27.281  1.00  0.00    -0.000 C 
BRANCH  15  16
ATOM     16  C   UNL     1      15.875 -23.507 -28.087  1.00  0.00    -0.000 C 
BRANCH  16  17
ATOM     17  C   UNL     1      14.390 -23.253 -28.395  1.00  0.00    -0.000 C 
BRANCH  17  18
ATOM     18  C   UNL     1      13.600 -22.788 -27.159  1.00  0.00    -0.000 C 
BRANCH  18  19
ATOM     19  C   UNL     1      12.735 -21.550 -27.443  1.00  0.00    -0.003 C 
ATOM     20  C   UNL     1      12.179 -21.530 -28.868  1.00  0.00     0.004 C 
ENDBRANCH  18  19
ENDBRANCH  17  18
ENDBRANCH  16  17
ENDBRANCH  15  16
ENDBRANCH  14  15
ENDBRANCH  13  14
ENDBRANCH  12  13
ENDBRANCH   1  12
TORSDOF 16
ENDMDL
MODEL 8
REMARK VINA RESULT:    -4.730      4.810      8.239
REMARK INTER + INTRA:         -11.376
REMARK INTER:                 -10.128
REMARK INTRA:                  -1.248
REMARK UNBOUND:                -2.222
REMARK SMILES CCCCCCCCCCCCCCCCCC(=O)[O-]
REMARK SMILES IDX 10 1 11 2 12 3 13 4 14 5 15 6 16 7 17 8 18 9 19 10 20 11
REMARK SMILES IDX 9 12 8 13 7 14 6 15 5 16 4 17 3 18 2 19 1 20
REMARK H PARENT
REMARK Flexibility Score: inf
ROOT
ATOM      1  C   UNL     1      14.174 -23.005 -29.182  1.00  0.00     0.000 C 
ENDROOT
BRANCH   1   2
ATOM      2  C   UNL     1      12.829 -23.415 -28.564  1.00  0.00     0.000 C 
BRANCH   2   3
ATOM      3  C   UNL     1      11.743 -22.374 -28.872  1.00  0.00     0.000 C 
BRANCH   3   4
ATOM      4  C   UNL     1      12.103 -20.965 -28.366  1.00  0.00     0.000 C 
BRANCH   4   5
ATOM      5  C   UNL     1      12.240 -20.836 -26.839  1.00  0.00     0.000 C 
BRANCH   5   6
ATOM      6  C   UNL     1      12.015 -19.397 -26.338  1.00  0.00     0.000 C 
BRANCH   6   7
ATOM      7  C   UNL     1      11.310 -18.512 -27.379  1.00  0.00     0.006 C 
BRANCH   7   8
ATOM      8  C   UNL     1      10.004 -17.900 -26.854  1.00  0.00     0.053 C 
BRANCH   8   9
ATOM      9  C   UNL     1       9.076 -17.593 -27.989  1.00  0.00     0.041 C 
ATOM     10  O   UNL     1       9.195 -18.203 -29.083  1.00  0.00    -0.550 OA
ATOM     11  O   UNL     1       8.110 -16.604 -27.852  1.00  0.00    -0.550 OA
ENDBRANCH   8   9
ENDBRANCH   7   8
ENDBRANCH   6   7
ENDBRANCH   5   6
ENDBRANCH   4   5
ENDBRANCH   3   4
ENDBRANCH   2   3
ENDBRANCH   1   2
BRANCH   1  12
ATOM     12  C   UNL     1      15.380 -23.675 -28.497  1.00  0.00     0.000 C 
BRANCH  12  13
ATOM     13  C   UNL     1      15.627 -23.245 -27.039  1.00  0.00    -0.000 C 
BRANCH  13  14
ATOM     14  C   UNL     1      16.828 -22.294 -26.889  1.00  0.00    -0.000 C 
BRANCH  14  15
ATOM     15  C   UNL     1      18.056 -22.983 -26.270  1.00  0.00    -0.000 C 
BRANCH  15  16
ATOM     16  C   UNL     1      17.982 -24.518 -26.364  1.00  0.00    -0.000 C 
BRANCH  16  17
ATOM     17  C   UNL     1      17.750 -25.181 -24.995  1.00  0.00    -0.000 C 
BRANCH  17  18
ATOM     18  C   UNL     1      18.269 -24.324 -23.827  1.00  0.00    -0.000 C 
BRANCH  18  19
ATOM     19  C   UNL     1      17.145 -23.882 -22.876  1.00  0.00    -0.003 C 
ATOM     20  C   UNL     1      15.914 -24.784 -22.953  1.00  0.00     0.004 C 
ENDBRANCH  18  19
ENDBRANCH  17  18
ENDBRANCH  16  17
ENDBRANCH  15  16
ENDBRANCH  14  15
ENDBRANCH  13  14
ENDBRANCH  12  13
ENDBRANCH   1  12
TORSDOF 16
ENDMDL
MODEL 9
REMARK VINA RESULT:    -4.718      3.070      6.313
REMARK INTER + INTRA:         -11.354
REMARK INTER:                  -9.022
REMARK INTRA:                  -2.332
REMARK UNBOUND:                -2.222
REMARK SMILES CCCCCCCCCCCCCCCCCC(=O)[O-]
REMARK SMILES IDX 10 1 11 2 12 3 13 4 14 5 15 6 16 7 17 8 18 9 19 10 20 11
REMARK SMILES IDX 9 12 8 13 7 14 6 15 5 16 4 17 3 18 2 19 1 20
REMARK H PARENT
REMARK Flexibility Score: inf
ROOT
ATOM      1  C   UNL     1      18.212 -23.105 -29.569  1.00  0.00     0.000 C 
ENDROOT
BRANCH   1   2
ATOM      2  C   UNL     1      17.212 -22.856 -30.707  1.00  0.00     0.000 C 
BRANCH   2   3
ATOM      3  C   UNL     1      15.941 -23.698 -30.515  1.00  0.00     0.000 C 
BRANCH   3   4
ATOM      4  C   UNL     1      15.663 -24.034 -29.039  1.00  0.00     0.000 C 
BRANCH   4   5
ATOM      5  C   UNL     1      14.217 -23.785 -28.574  1.00  0.00     0.000 C 
BRANCH   5   6
ATOM      6  C   UNL     1      14.133 -22.816 -27.380  1.00  0.00     0.000 C 
BRANCH   6   7
ATOM      7  C   UNL     1      12.695 -22.351 -27.095  1.00  0.00     0.006 C 
BRANCH   7   8
ATOM      8  C   UNL     1      12.519 -20.834 -27.242  1.00  0.00     0.053 C 
BRANCH   8   9
ATOM      9  C   UNL     1      11.785 -20.512 -28.507  1.00  0.00     0.041 C 
ATOM     10  O   UNL     1      11.410 -21.439 -29.272  1.00  0.00    -0.550 OA
ATOM     11  O   UNL     1      11.555 -19.188 -28.863  1.00  0.00    -0.550 OA
ENDBRANCH   8   9
ENDBRANCH   7   8
ENDBRANCH   6   7
ENDBRANCH   5   6
ENDBRANCH   4   5
ENDBRANCH   3   4
ENDBRANCH   2   3
ENDBRANCH   1   2
BRANCH   1  12
ATOM     12  C   UNL     1      18.592 -21.820 -28.811  1.00  0.00     0.000 C 
BRANCH  12  13
ATOM     13  C   UNL     1      18.835 -21.998 -27.300  1.00  0.00    -0.000 C 
BRANCH  13  14
ATOM     14  C   UNL     1      17.530 -22.136 -26.495  1.00  0.00    -0.000 C 
BRANCH  14  15
ATOM     15  C   UNL     1      17.434 -23.478 -25.749  1.00  0.00    -0.000 C 
BRANCH  15  16
ATOM     16  C   UNL     1      18.589 -24.434 -26.100  1.00  0.00    -0.000 C 
BRANCH  16  17
ATOM     17  C   UNL     1      18.092 -25.812 -26.567  1.00  0.00    -0.000 C 
BRANCH  17  18
ATOM     18  C   UNL     1      18.766 -26.274 -27.871  1.00  0.00    -0.000 C 
BRANCH  18  19
ATOM     19  C   UNL     1      17.868 -27.204 -28.701  1.00  0.00    -0.003 C 
ATOM     20  C   UNL     1      17.056 -28.170 -27.837  1.00  0.00     0.004 C 
ENDBRANCH  18  19
ENDBRANCH  17  18
ENDBRANCH  16  17
ENDBRANCH  15  16
ENDBRANCH  14  15
ENDBRANCH  13  14
ENDBRANCH  12  13
ENDBRANCH   1  12
TORSDOF 16
ENDMDL
