MODEL 1
REMARK VINA RESULT:    -6.331      0.000      0.000
REMARK INTER + INTRA:          -7.976
REMARK INTER:                  -7.442
REMARK INTRA:                  -0.534
REMARK UNBOUND:                -0.534
REMARK SMILES C=C(C)[C@@H]1CC[C@@]2(CO)CC[C@@]3(C)[C@H](CC[C@@H]4[C@]5(C)CC[C@@H](O)C(C)(C)[C@@H]5CC[C@@]43C)[C@H]12
REMARK SMILES IDX 4 1 5 2 6 3 7 4 32 5 14 6 15 7 16 8 17 9 18 10 20 11 21 12
REMARK SMILES IDX 22 13 24 14 27 15 28 16 29 17 30 18 12 19 11 20 10 21 13 22
REMARK SMILES IDX 31 23 25 24 26 25 19 26 2 27 3 28 1 29 8 30 9 31 23 33
REMARK H PARENT 9 32 23 34
REMARK Flexibility Score: inf
ROOT
ATOM      1  C   UNL     1      25.065   9.263 -56.062  1.00  0.00     0.018 C 
ATOM      2  C   UNL     1      25.164   7.761 -56.437  1.00  0.00     0.009 C 
ATOM      3  C   UNL     1      26.578   7.542 -57.003  1.00  0.00     0.010 C 
ATOM      4  C   UNL     1      27.469   8.547 -56.243  1.00  0.00    -0.003 C 
ATOM      5  C   UNL     1      26.527   9.773 -56.215  1.00  0.00     0.008 C 
ATOM      6  C   UNL     1      27.109  11.080 -55.582  1.00  0.00    -0.000 C 
ATOM      7  C   UNL     1      27.337  10.951 -54.073  1.00  0.00     0.005 C 
ATOM      8  C   UNL     1      27.813  12.253 -53.475  1.00  0.00     0.005 C 
ATOM      9  C   UNL     1      29.210  12.663 -54.025  1.00  0.00     0.002 C 
ATOM     10  C   UNL     1      29.883  13.929 -53.247  1.00  0.00    -0.026 C 
ATOM     11  C   UNL     1      29.260  14.084 -51.814  1.00  0.00     0.010 C 
ATOM     12  C   UNL     1      29.669  15.339 -51.048  1.00  0.00     0.033 C 
ATOM     13  C   UNL     1      29.253  16.587 -51.824  1.00  0.00     0.120 C 
ATOM     14  C   UNL     1      29.931  16.656 -53.221  1.00  0.00    -0.006 C 
ATOM     15  C   UNL     1      29.718  15.299 -54.049  1.00  0.00     0.003 C 
ATOM     16  C   UNL     1      28.403  15.250 -54.861  1.00  0.00     0.005 C 
ATOM     17  C   UNL     1      28.378  14.131 -55.929  1.00  0.00     0.008 C 
ATOM     18  C   UNL     1      29.150  12.800 -55.602  1.00  0.00    -0.024 C 
ATOM     19  C   UNL     1      28.429  11.529 -56.340  1.00  0.00    -0.024 C 
ATOM     20  C   UNL     1      29.390  10.271 -56.449  1.00  0.00     0.008 C 
ATOM     21  C   UNL     1      28.754   8.956 -57.005  1.00  0.00     0.010 C 
ATOM     22  C   UNL     1      28.051  11.957 -57.810  1.00  0.00     0.012 C 
ATOM     23  C   UNL     1      30.614  12.898 -56.162  1.00  0.00     0.012 C 
ATOM     24  C   UNL     1      29.340  17.886 -53.965  1.00  0.00     0.014 C 
ATOM     25  C   UNL     1      31.451  16.971 -53.076  1.00  0.00     0.014 C 
ATOM     26  C   UNL     1      31.399  13.595 -53.059  1.00  0.00     0.012 C 
ENDROOT
BRANCH   1  27
ATOM     27  C   UNL     1      24.315   9.603 -54.769  1.00  0.00    -0.077 C 
ATOM     28  C   UNL     1      23.875  11.012 -54.430  1.00  0.00     0.039 C 
ATOM     29  C   UNL     1      24.287   8.686 -53.783  1.00  0.00     0.008 C 
ENDBRANCH   1  27
BRANCH   4  30
ATOM     30  C   UNL     1      27.886   7.888 -54.884  1.00  0.00     0.163 C 
BRANCH  30  31
ATOM     31  O   UNL     1      28.976   7.026 -55.024  1.00  0.00    -0.396 OA
ATOM     32  H   UNL     1      29.663   7.523 -55.539  1.00  0.00     0.210 HD
ENDBRANCH  30  31
ENDBRANCH   4  30
BRANCH  13  33
ATOM     33  O   UNL     1      29.564  17.734 -51.069  1.00  0.00    -0.393 OA
ATOM     34  H   UNL     1      29.864  18.430 -51.711  1.00  0.00     0.210 HD
ENDBRANCH  13  33
TORSDOF 4
ENDMDL
MODEL 2
REMARK VINA RESULT:    -6.274      1.458      7.816
REMARK INTER + INTRA:          -7.909
REMARK INTER:                  -7.312
REMARK INTRA:                  -0.596
REMARK UNBOUND:                -0.534
REMARK SMILES C=C(C)[C@@H]1CC[C@@]2(CO)CC[C@@]3(C)[C@H](CC[C@@H]4[C@]5(C)CC[C@@H](O)C(C)(C)[C@@H]5CC[C@@]43C)[C@H]12
REMARK SMILES IDX 4 1 5 2 6 3 7 4 32 5 14 6 15 7 16 8 17 9 18 10 20 11 21 12
REMARK SMILES IDX 22 13 24 14 27 15 28 16 29 17 30 18 12 19 11 20 10 21 13 22
REMARK SMILES IDX 31 23 25 24 26 25 19 26 2 27 3 28 1 29 8 30 9 31 23 33
REMARK H PARENT 9 32 23 34
REMARK Flexibility Score: inf
ROOT
ATOM      1  C   UNL     1      31.681  14.336 -53.473  1.00  0.00     0.018 C 
ATOM      2  C   UNL     1      31.855  15.793 -52.973  1.00  0.00     0.009 C 
ATOM      3  C   UNL     1      30.616  16.572 -53.449  1.00  0.00     0.010 C 
ATOM      4  C   UNL     1      29.472  15.537 -53.445  1.00  0.00    -0.003 C 
ATOM      5  C   UNL     1      30.220  14.307 -54.009  1.00  0.00     0.008 C 
ATOM      6  C   UNL     1      29.361  13.023 -54.248  1.00  0.00    -0.000 C 
ATOM      7  C   UNL     1      28.869  12.393 -52.941  1.00  0.00     0.005 C 
ATOM      8  C   UNL     1      28.120  11.107 -53.197  1.00  0.00     0.005 C 
ATOM      9  C   UNL     1      26.810  11.354 -54.003  1.00  0.00     0.002 C 
ATOM     10  C   UNL     1      25.840  10.047 -54.106  1.00  0.00    -0.026 C 
ATOM     11  C   UNL     1      26.153   9.039 -52.943  1.00  0.00     0.010 C 
ATOM     12  C   UNL     1      25.443   7.691 -53.028  1.00  0.00     0.033 C 
ATOM     13  C   UNL     1      25.831   6.974 -54.321  1.00  0.00     0.120 C 
ATOM     14  C   UNL     1      25.427   7.790 -55.581  1.00  0.00    -0.006 C 
ATOM     15  C   UNL     1      25.972   9.297 -55.509  1.00  0.00     0.003 C 
ATOM     16  C   UNL     1      27.412   9.478 -56.043  1.00  0.00     0.005 C 
ATOM     17  C   UNL     1      27.787  10.953 -56.317  1.00  0.00     0.008 C 
ATOM     18  C   UNL     1      27.151  12.049 -55.386  1.00  0.00    -0.024 C 
ATOM     19  C   UNL     1      28.161  13.328 -55.241  1.00  0.00    -0.024 C 
ATOM     20  C   UNL     1      27.414  14.631 -54.728  1.00  0.00     0.008 C 
ATOM     21  C   UNL     1      28.313  15.871 -54.416  1.00  0.00     0.010 C 
ATOM     22  C   UNL     1      28.752  13.659 -56.666  1.00  0.00     0.012 C 
ATOM     23  C   UNL     1      25.820  12.573 -56.034  1.00  0.00     0.012 C 
ATOM     24  C   UNL     1      25.980   7.033 -56.821  1.00  0.00     0.014 C 
ATOM     25  C   UNL     1      23.879   7.779 -55.766  1.00  0.00     0.014 C 
ATOM     26  C   UNL     1      24.374  10.550 -53.901  1.00  0.00     0.012 C 
ENDROOT
BRANCH   1  27
ATOM     27  C   UNL     1      32.120  13.222 -52.517  1.00  0.00    -0.077 C 
ATOM     28  C   UNL     1      32.124  13.395 -51.012  1.00  0.00     0.039 C 
ATOM     29  C   UNL     1      32.778  12.162 -53.025  1.00  0.00     0.008 C 
ENDBRANCH   1  27
BRANCH   4  30
ATOM     30  C   UNL     1      28.895  15.464 -51.989  1.00  0.00     0.163 C 
BRANCH  30  31
ATOM     31  O   UNL     1      29.138  16.632 -51.262  1.00  0.00    -0.396 OA
ATOM     32  H   UNL     1      30.014  16.979 -51.573  1.00  0.00     0.210 HD
ENDBRANCH  30  31
ENDBRANCH   4  30
BRANCH  13  33
ATOM     33  O   UNL     1      25.232   5.700 -54.347  1.00  0.00    -0.393 OA
ATOM     34  H   UNL     1      24.381   5.790 -54.852  1.00  0.00     0.210 HD
ENDBRANCH  13  33
TORSDOF 4
ENDMDL
MODEL 3
REMARK VINA RESULT:    -5.915      4.479      7.199
REMARK INTER + INTRA:          -7.486
REMARK INTER:                  -6.815
REMARK INTRA:                  -0.671
REMARK UNBOUND:                -0.534
REMARK SMILES C=C(C)[C@@H]1CC[C@@]2(CO)CC[C@@]3(C)[C@H](CC[C@@H]4[C@]5(C)CC[C@@H](O)C(C)(C)[C@@H]5CC[C@@]43C)[C@H]12
REMARK SMILES IDX 4 1 5 2 6 3 7 4 32 5 14 6 15 7 16 8 17 9 18 10 20 11 21 12
REMARK SMILES IDX 22 13 24 14 27 15 28 16 29 17 30 18 12 19 11 20 10 21 13 22
REMARK SMILES IDX 31 23 25 24 26 25 19 26 2 27 3 28 1 29 8 30 9 31 23 33
REMARK H PARENT 9 32 23 34
REMARK Flexibility Score: inf
ROOT
ATOM      1  C   UNL     1      29.729  15.158 -54.224  1.00  0.00     0.018 C 
ATOM      2  C   UNL     1      28.392  15.516 -54.923  1.00  0.00     0.009 C 
ATOM      3  C   UNL     1      27.654  14.187 -55.164  1.00  0.00     0.010 C 
ATOM      4  C   UNL     1      28.073  13.282 -53.987  1.00  0.00    -0.003 C 
ATOM      5  C   UNL     1      29.572  13.647 -53.887  1.00  0.00     0.008 C 
ATOM      6  C   UNL     1      30.409  12.856 -52.829  1.00  0.00    -0.000 C 
ATOM      7  C   UNL     1      30.010  13.195 -51.390  1.00  0.00     0.005 C 
ATOM      8  C   UNL     1      30.893  12.486 -50.391  1.00  0.00     0.005 C 
ATOM      9  C   UNL     1      30.722  10.940 -50.467  1.00  0.00     0.002 C 
ATOM     10  C   UNL     1      31.466  10.132 -49.261  1.00  0.00    -0.026 C 
ATOM     11  C   UNL     1      31.698  11.079 -48.030  1.00  0.00     0.010 C 
ATOM     12  C   UNL     1      32.547  10.499 -46.902  1.00  0.00     0.033 C 
ATOM     13  C   UNL     1      33.938  10.140 -47.423  1.00  0.00     0.120 C 
ATOM     14  C   UNL     1      33.877   9.073 -48.552  1.00  0.00    -0.006 C 
ATOM     15  C   UNL     1      32.860   9.501 -49.716  1.00  0.00     0.003 C 
ATOM     16  C   UNL     1      33.485  10.397 -50.809  1.00  0.00     0.005 C 
ATOM     17  C   UNL     1      32.628  10.494 -52.092  1.00  0.00     0.008 C 
ATOM     18  C   UNL     1      31.065  10.430 -51.928  1.00  0.00    -0.024 C 
ATOM     19  C   UNL     1      30.332  11.295 -53.108  1.00  0.00    -0.024 C 
ATOM     20  C   UNL     1      28.807  10.899 -53.287  1.00  0.00     0.008 C 
ATOM     21  C   UNL     1      27.976  11.766 -54.288  1.00  0.00     0.010 C 
ATOM     22  C   UNL     1      31.059  10.987 -54.474  1.00  0.00     0.012 C 
ATOM     23  C   UNL     1      30.587   8.941 -52.072  1.00  0.00     0.012 C 
ATOM     24  C   UNL     1      35.324   8.883 -49.090  1.00  0.00     0.014 C 
ATOM     25  C   UNL     1      33.483   7.683 -47.969  1.00  0.00     0.014 C 
ATOM     26  C   UNL     1      30.488   9.003 -48.799  1.00  0.00     0.012 C 
ENDROOT
BRANCH   1  27
ATOM     27  C   UNL     1      30.199  16.100 -53.110  1.00  0.00    -0.077 C 
ATOM     28  C   UNL     1      29.246  16.699 -52.095  1.00  0.00     0.039 C 
ATOM     29  C   UNL     1      31.434  16.630 -53.194  1.00  0.00     0.008 C 
ENDBRANCH   1  27
BRANCH   4  30
ATOM     30  C   UNL     1      27.137  13.608 -52.773  1.00  0.00     0.163 C 
BRANCH  30  31
ATOM     31  O   UNL     1      25.817  13.205 -52.997  1.00  0.00    -0.396 OA
ATOM     32  H   UNL     1      25.854  12.491 -53.684  1.00  0.00     0.210 HD
ENDBRANCH  30  31
ENDBRANCH   4  30
BRANCH  13  33
ATOM     33  O   UNL     1      34.734   9.684 -46.356  1.00  0.00    -0.393 OA
ATOM     34  H   UNL     1      35.640  10.071 -46.484  1.00  0.00     0.210 HD
ENDBRANCH  13  33
TORSDOF 4
ENDMDL
MODEL 4
REMARK VINA RESULT:    -5.792     11.221     13.455
REMARK INTER + INTRA:          -7.342
REMARK INTER:                  -6.653
REMARK INTRA:                  -0.689
REMARK UNBOUND:                -0.534
REMARK SMILES C=C(C)[C@@H]1CC[C@@]2(CO)CC[C@@]3(C)[C@H](CC[C@@H]4[C@]5(C)CC[C@@H](O)C(C)(C)[C@@H]5CC[C@@]43C)[C@H]12
REMARK SMILES IDX 4 1 5 2 6 3 7 4 32 5 14 6 15 7 16 8 17 9 18 10 20 11 21 12
REMARK SMILES IDX 22 13 24 14 27 15 28 16 29 17 30 18 12 19 11 20 10 21 13 22
REMARK SMILES IDX 31 23 25 24 26 25 19 26 2 27 3 28 1 29 8 30 9 31 23 33
REMARK H PARENT 9 32 23 34
REMARK Flexibility Score: inf
ROOT
ATOM      1  C   UNL     1      35.590   5.186 -48.124  1.00  0.00     0.018 C 
ATOM      2  C   UNL     1      36.017   5.512 -49.578  1.00  0.00     0.009 C 
ATOM      3  C   UNL     1      35.313   6.826 -49.959  1.00  0.00     0.010 C 
ATOM      4  C   UNL     1      35.212   7.618 -48.638  1.00  0.00    -0.003 C 
ATOM      5  C   UNL     1      34.845   6.473 -47.666  1.00  0.00     0.008 C 
ATOM      6  C   UNL     1      34.562   6.886 -46.184  1.00  0.00    -0.000 C 
ATOM      7  C   UNL     1      35.818   7.385 -45.463  1.00  0.00     0.005 C 
ATOM      8  C   UNL     1      35.535   7.691 -44.012  1.00  0.00     0.005 C 
ATOM      9  C   UNL     1      34.528   8.869 -43.857  1.00  0.00     0.002 C 
ATOM     10  C   UNL     1      34.364   9.402 -42.324  1.00  0.00    -0.026 C 
ATOM     11  C   UNL     1      35.622   9.011 -41.471  1.00  0.00     0.010 C 
ATOM     12  C   UNL     1      35.517   9.290 -39.974  1.00  0.00     0.033 C 
ATOM     13  C   UNL     1      34.346   8.513 -39.376  1.00  0.00     0.120 C 
ATOM     14  C   UNL     1      32.990   8.920 -40.018  1.00  0.00    -0.006 C 
ATOM     15  C   UNL     1      33.046   8.840 -41.619  1.00  0.00     0.003 C 
ATOM     16  C   UNL     1      32.724   7.443 -42.197  1.00  0.00     0.005 C 
ATOM     17  C   UNL     1      32.416   7.458 -43.712  1.00  0.00     0.008 C 
ATOM     18  C   UNL     1      33.170   8.519 -44.595  1.00  0.00    -0.024 C 
ATOM     19  C   UNL     1      33.383   7.947 -46.114  1.00  0.00    -0.024 C 
ATOM     20  C   UNL     1      33.694   9.102 -47.155  1.00  0.00     0.008 C 
ATOM     21  C   UNL     1      34.058   8.651 -48.607  1.00  0.00     0.010 C 
ATOM     22  C   UNL     1      32.044   7.250 -46.575  1.00  0.00     0.012 C 
ATOM     23  C   UNL     1      32.298   9.820 -44.702  1.00  0.00     0.012 C 
ATOM     24  C   UNL     1      31.897   7.983 -39.430  1.00  0.00     0.014 C 
ATOM     25  C   UNL     1      32.576  10.351 -39.559  1.00  0.00     0.014 C 
ATOM     26  C   UNL     1      34.315  10.964 -42.388  1.00  0.00     0.012 C 
ENDROOT
BRANCH   1  27
ATOM     27  C   UNL     1      36.670   4.612 -47.200  1.00  0.00    -0.077 C 
ATOM     28  C   UNL     1      38.127   5.016 -47.301  1.00  0.00     0.039 C 
ATOM     29  C   UNL     1      36.375   3.523 -46.465  1.00  0.00     0.008 C 
ENDBRANCH   1  27
BRANCH   4  30
ATOM     30  C   UNL     1      36.566   8.378 -48.428  1.00  0.00     0.163 C 
BRANCH  30  31
ATOM     31  O   UNL     1      36.938   9.119 -49.553  1.00  0.00    -0.396 OA
ATOM     32  H   UNL     1      37.490   8.517 -50.116  1.00  0.00     0.210 HD
ENDBRANCH  30  31
ENDBRANCH   4  30
BRANCH  13  33
ATOM     33  O   UNL     1      34.311   8.716 -37.983  1.00  0.00    -0.393 OA
ATOM     34  H   UNL     1      33.897   9.606 -37.831  1.00  0.00     0.210 HD
ENDBRANCH  13  33
TORSDOF 4
ENDMDL
MODEL 5
REMARK VINA RESULT:    -5.769      3.085      4.759
REMARK INTER + INTRA:          -7.315
REMARK INTER:                  -6.692
REMARK INTRA:                  -0.623
REMARK UNBOUND:                -0.534
REMARK SMILES C=C(C)[C@@H]1CC[C@@]2(CO)CC[C@@]3(C)[C@H](CC[C@@H]4[C@]5(C)CC[C@@H](O)C(C)(C)[C@@H]5CC[C@@]43C)[C@H]12
REMARK SMILES IDX 4 1 5 2 6 3 7 4 32 5 14 6 15 7 16 8 17 9 18 10 20 11 21 12
REMARK SMILES IDX 22 13 24 14 27 15 28 16 29 17 30 18 12 19 11 20 10 21 13 22
REMARK SMILES IDX 31 23 25 24 26 25 19 26 2 27 3 28 1 29 8 30 9 31 23 33
REMARK H PARENT 9 32 23 34
REMARK Flexibility Score: inf
ROOT
ATOM      1  C   UNL     1      27.380  12.289 -56.911  1.00  0.00     0.018 C 
ATOM      2  C   UNL     1      28.453  11.532 -57.736  1.00  0.00     0.009 C 
ATOM      3  C   UNL     1      29.822  12.017 -57.226  1.00  0.00     0.010 C 
ATOM      4  C   UNL     1      29.599  12.326 -55.731  1.00  0.00    -0.003 C 
ATOM      5  C   UNL     1      28.207  12.996 -55.798  1.00  0.00     0.008 C 
ATOM      6  C   UNL     1      27.638  13.551 -54.452  1.00  0.00    -0.000 C 
ATOM      7  C   UNL     1      27.293  12.439 -53.457  1.00  0.00     0.005 C 
ATOM      8  C   UNL     1      26.664  12.998 -52.202  1.00  0.00     0.005 C 
ATOM      9  C   UNL     1      27.655  13.903 -51.414  1.00  0.00     0.002 C 
ATOM     10  C   UNL     1      27.119  14.343 -49.938  1.00  0.00    -0.026 C 
ATOM     11  C   UNL     1      26.025  13.338 -49.431  1.00  0.00     0.010 C 
ATOM     12  C   UNL     1      25.309  13.735 -48.143  1.00  0.00     0.033 C 
ATOM     13  C   UNL     1      24.596  15.073 -48.330  1.00  0.00     0.120 C 
ATOM     14  C   UNL     1      25.589  16.217 -48.679  1.00  0.00    -0.006 C 
ATOM     15  C   UNL     1      26.528  15.826 -49.919  1.00  0.00     0.003 C 
ATOM     16  C   UNL     1      25.918  16.142 -51.303  1.00  0.00     0.005 C 
ATOM     17  C   UNL     1      26.952  16.116 -52.453  1.00  0.00     0.008 C 
ATOM     18  C   UNL     1      28.144  15.097 -52.335  1.00  0.00    -0.024 C 
ATOM     19  C   UNL     1      28.632  14.616 -53.821  1.00  0.00    -0.024 C 
ATOM     20  C   UNL     1      30.087  13.986 -53.803  1.00  0.00     0.008 C 
ATOM     21  C   UNL     1      30.592  13.361 -55.144  1.00  0.00     0.010 C 
ATOM     22  C   UNL     1      28.682  15.882 -54.761  1.00  0.00     0.012 C 
ATOM     23  C   UNL     1      29.365  15.804 -51.646  1.00  0.00     0.012 C 
ATOM     24  C   UNL     1      24.746  17.491 -48.971  1.00  0.00     0.014 C 
ATOM     25  C   UNL     1      26.454  16.588 -47.437  1.00  0.00     0.014 C 
ATOM     26  C   UNL     1      28.335  14.235 -48.961  1.00  0.00     0.012 C 
ENDROOT
BRANCH   1  27
ATOM     27  C   UNL     1      26.142  11.489 -56.491  1.00  0.00    -0.077 C 
ATOM     28  C   UNL     1      26.119   9.974 -56.475  1.00  0.00     0.039 C 
ATOM     29  C   UNL     1      24.963  12.132 -56.398  1.00  0.00     0.008 C 
ENDBRANCH   1  27
BRANCH   4  30
ATOM     30  C   UNL     1      29.751  10.986 -54.934  1.00  0.00     0.163 C 
BRANCH  30  31
ATOM     31  O   UNL     1      31.089  10.625 -54.751  1.00  0.00    -0.396 OA
ATOM     32  H   UNL     1      31.337  10.918 -53.837  1.00  0.00     0.210 HD
ENDBRANCH  30  31
ENDBRANCH   4  30
BRANCH  13  33
ATOM     33  O   UNL     1      23.875  15.386 -47.162  1.00  0.00    -0.393 OA
ATOM     34  H   UNL     1      24.490  15.243 -46.395  1.00  0.00     0.210 HD
ENDBRANCH  13  33
TORSDOF 4
ENDMDL
MODEL 6
REMARK VINA RESULT:    -5.683      3.484      5.432
REMARK INTER + INTRA:          -7.214
REMARK INTER:                  -6.524
REMARK INTRA:                  -0.690
REMARK UNBOUND:                -0.534
REMARK SMILES C=C(C)[C@@H]1CC[C@@]2(CO)CC[C@@]3(C)[C@H](CC[C@@H]4[C@]5(C)CC[C@@H](O)C(C)(C)[C@@H]5CC[C@@]43C)[C@H]12
REMARK SMILES IDX 4 1 5 2 6 3 7 4 32 5 14 6 15 7 16 8 17 9 18 10 20 11 21 12
REMARK SMILES IDX 22 13 24 14 27 15 28 16 29 17 30 18 12 19 11 20 10 21 13 22
REMARK SMILES IDX 31 23 25 24 26 25 19 26 2 27 3 28 1 29 8 30 9 31 23 33
REMARK H PARENT 9 32 23 34
REMARK Flexibility Score: inf
ROOT
ATOM      1  C   UNL     1      33.050   8.188 -54.837  1.00  0.00     0.018 C 
ATOM      2  C   UNL     1      33.545   6.847 -54.235  1.00  0.00     0.009 C 
ATOM      3  C   UNL     1      33.973   7.147 -52.787  1.00  0.00     0.010 C 
ATOM      4  C   UNL     1      33.034   8.280 -52.324  1.00  0.00    -0.003 C 
ATOM      5  C   UNL     1      32.998   9.141 -53.608  1.00  0.00     0.008 C 
ATOM      6  C   UNL     1      32.193  10.479 -53.524  1.00  0.00    -0.000 C 
ATOM      7  C   UNL     1      30.685  10.248 -53.379  1.00  0.00     0.005 C 
ATOM      8  C   UNL     1      29.925  11.553 -53.390  1.00  0.00     0.005 C 
ATOM      9  C   UNL     1      30.282  12.439 -52.161  1.00  0.00     0.002 C 
ATOM     10  C   UNL     1      29.326  13.749 -51.988  1.00  0.00    -0.026 C 
ATOM     11  C   UNL     1      27.960  13.531 -52.732  1.00  0.00     0.010 C 
ATOM     12  C   UNL     1      27.046  14.751 -52.803  1.00  0.00     0.033 C 
ATOM     13  C   UNL     1      27.748  15.891 -53.539  1.00  0.00     0.120 C 
ATOM     14  C   UNL     1      29.051  16.332 -52.817  1.00  0.00    -0.006 C 
ATOM     15  C   UNL     1      30.016  15.085 -52.524  1.00  0.00     0.003 C 
ATOM     16  C   UNL     1      30.966  14.728 -53.689  1.00  0.00     0.005 C 
ATOM     17  C   UNL     1      32.126  13.792 -53.276  1.00  0.00     0.008 C 
ATOM     18  C   UNL     1      31.839  12.737 -52.145  1.00  0.00    -0.024 C 
ATOM     19  C   UNL     1      32.760  11.403 -52.364  1.00  0.00    -0.024 C 
ATOM     20  C   UNL     1      32.877  10.527 -51.047  1.00  0.00     0.008 C 
ATOM     21  C   UNL     1      33.614   9.156 -51.185  1.00  0.00     0.010 C 
ATOM     22  C   UNL     1      34.219  11.864 -52.750  1.00  0.00     0.012 C 
ATOM     23  C   UNL     1      32.226  13.350 -50.752  1.00  0.00     0.012 C 
ATOM     24  C   UNL     1      29.742  17.398 -53.715  1.00  0.00     0.014 C 
ATOM     25  C   UNL     1      28.716  17.084 -51.494  1.00  0.00     0.014 C 
ATOM     26  C   UNL     1      29.006  13.882 -50.463  1.00  0.00     0.012 C 
ENDROOT
BRANCH   1  27
ATOM     27  C   UNL     1      31.821   8.122 -55.750  1.00  0.00    -0.077 C 
ATOM     28  C   UNL     1      30.672   7.166 -55.501  1.00  0.00     0.039 C 
ATOM     29  C   UNL     1      31.880   8.726 -56.952  1.00  0.00     0.008 C 
ENDBRANCH   1  27
BRANCH   4  30
ATOM     30  C   UNL     1      31.703   7.627 -51.820  1.00  0.00     0.163 C 
BRANCH  30  31
ATOM     31  O   UNL     1      31.819   7.118 -50.524  1.00  0.00    -0.396 OA
ATOM     32  H   UNL     1      31.017   6.554 -50.371  1.00  0.00     0.210 HD
ENDBRANCH  30  31
ENDBRANCH   4  30
BRANCH  13  33
ATOM     33  O   UNL     1      26.864  16.979 -53.668  1.00  0.00    -0.393 OA
ATOM     34  H   UNL     1      26.538  16.978 -54.606  1.00  0.00     0.210 HD
ENDBRANCH  13  33
TORSDOF 4
ENDMDL
MODEL 7
REMARK VINA RESULT:    -5.668      4.270      7.287
REMARK INTER + INTRA:          -7.196
REMARK INTER:                  -6.535
REMARK INTRA:                  -0.661
REMARK UNBOUND:                -0.534
REMARK SMILES C=C(C)[C@@H]1CC[C@@]2(CO)CC[C@@]3(C)[C@H](CC[C@@H]4[C@]5(C)CC[C@@H](O)C(C)(C)[C@@H]5CC[C@@]43C)[C@H]12
REMARK SMILES IDX 4 1 5 2 6 3 7 4 32 5 14 6 15 7 16 8 17 9 18 10 20 11 21 12
REMARK SMILES IDX 22 13 24 14 27 15 28 16 29 17 30 18 12 19 11 20 10 21 13 22
REMARK SMILES IDX 31 23 25 24 26 25 19 26 2 27 3 28 1 29 8 30 9 31 23 33
REMARK H PARENT 9 32 23 34
REMARK Flexibility Score: inf
ROOT
ATOM      1  C   UNL     1      35.551   9.789 -50.968  1.00  0.00     0.018 C 
ATOM      2  C   UNL     1      35.959   8.351 -50.553  1.00  0.00     0.009 C 
ATOM      3  C   UNL     1      34.790   7.783 -49.729  1.00  0.00     0.010 C 
ATOM      4  C   UNL     1      33.528   8.439 -50.327  1.00  0.00    -0.003 C 
ATOM      5  C   UNL     1      34.053   9.876 -50.553  1.00  0.00     0.008 C 
ATOM      6  C   UNL     1      33.016  10.916 -51.090  1.00  0.00    -0.000 C 
ATOM      7  C   UNL     1      32.577  10.620 -52.527  1.00  0.00     0.005 C 
ATOM      8  C   UNL     1      31.646  11.688 -53.050  1.00  0.00     0.005 C 
ATOM      9  C   UNL     1      30.308  11.725 -52.256  1.00  0.00     0.002 C 
ATOM     10  C   UNL     1      29.171  12.690 -52.918  1.00  0.00    -0.026 C 
ATOM     11  C   UNL     1      29.464  12.912 -54.445  1.00  0.00     0.010 C 
ATOM     12  C   UNL     1      28.581  13.942 -55.143  1.00  0.00     0.033 C 
ATOM     13  C   UNL     1      28.745  15.309 -54.482  1.00  0.00     0.120 C 
ATOM     14  C   UNL     1      28.329  15.283 -52.984  1.00  0.00    -0.006 C 
ATOM     15  C   UNL     1      29.069  14.105 -52.186  1.00  0.00     0.003 C 
ATOM     16  C   UNL     1      30.461  14.488 -51.633  1.00  0.00     0.005 C 
ATOM     17  C   UNL     1      30.994  13.501 -50.569  1.00  0.00     0.008 C 
ATOM     18  C   UNL     1      30.599  11.987 -50.720  1.00  0.00    -0.024 C 
ATOM     19  C   UNL     1      31.774  11.027 -50.107  1.00  0.00    -0.024 C 
ATOM     20  C   UNL     1      31.255   9.561 -49.797  1.00  0.00     0.008 C 
ATOM     21  C   UNL     1      32.333   8.522 -49.346  1.00  0.00     0.010 C 
ATOM     22  C   UNL     1      32.262  11.649 -48.742  1.00  0.00     0.012 C 
ATOM     23  C   UNL     1      29.290  11.707 -49.899  1.00  0.00     0.012 C 
ATOM     24  C   UNL     1      28.657  16.681 -52.387  1.00  0.00     0.014 C 
ATOM     25  C   UNL     1      26.783  15.145 -52.849  1.00  0.00     0.014 C 
ATOM     26  C   UNL     1      27.810  11.929 -52.813  1.00  0.00     0.012 C 
ENDROOT
BRANCH   1  27
ATOM     27  C   UNL     1      35.933  10.233 -52.384  1.00  0.00    -0.077 C 
ATOM     28  C   UNL     1      35.815   9.316 -53.585  1.00  0.00     0.039 C 
ATOM     29  C   UNL     1      36.648  11.364 -52.531  1.00  0.00     0.008 C 
ENDBRANCH   1  27
BRANCH   4  30
ATOM     30  C   UNL     1      33.091   7.593 -51.572  1.00  0.00     0.163 C 
BRANCH  30  31
ATOM     31  O   UNL     1      33.170   6.218 -51.334  1.00  0.00    -0.396 OA
ATOM     32  H   UNL     1      32.542   5.787 -51.970  1.00  0.00     0.210 HD
ENDBRANCH  30  31
ENDBRANCH   4  30
BRANCH  13  33
ATOM     33  O   UNL     1      27.987  16.264 -55.186  1.00  0.00    -0.393 OA
ATOM     34  H   UNL     1      27.785  15.873 -56.077  1.00  0.00     0.210 HD
ENDBRANCH  13  33
TORSDOF 4
ENDMDL
MODEL 8
REMARK VINA RESULT:    -5.622      4.763      8.154
REMARK INTER + INTRA:          -7.142
REMARK INTER:                  -6.450
REMARK INTRA:                  -0.692
REMARK UNBOUND:                -0.534
REMARK SMILES C=C(C)[C@@H]1CC[C@@]2(CO)CC[C@@]3(C)[C@H](CC[C@@H]4[C@]5(C)CC[C@@H](O)C(C)(C)[C@@H]5CC[C@@]43C)[C@H]12
REMARK SMILES IDX 4 1 5 2 6 3 7 4 32 5 14 6 15 7 16 8 17 9 18 10 20 11 21 12
REMARK SMILES IDX 22 13 24 14 27 15 28 16 29 17 30 18 12 19 11 20 10 21 13 22
REMARK SMILES IDX 31 23 25 24 26 25 19 26 2 27 3 28 1 29 8 30 9 31 23 33
REMARK H PARENT 9 32 23 34
REMARK Flexibility Score: inf
ROOT
ATOM      1  C   UNL     1      27.174  14.616 -53.804  1.00  0.00     0.018 C 
ATOM      2  C   UNL     1      28.156  15.088 -54.907  1.00  0.00     0.009 C 
ATOM      3  C   UNL     1      28.748  16.425 -54.425  1.00  0.00     0.010 C 
ATOM      4  C   UNL     1      28.794  16.306 -52.887  1.00  0.00    -0.003 C 
ATOM      5  C   UNL     1      27.441  15.603 -52.631  1.00  0.00     0.008 C 
ATOM      6  C   UNL     1      27.056  15.367 -51.134  1.00  0.00    -0.000 C 
ATOM      7  C   UNL     1      27.963  14.341 -50.447  1.00  0.00     0.005 C 
ATOM      8  C   UNL     1      27.513  14.067 -49.032  1.00  0.00     0.005 C 
ATOM      9  C   UNL     1      27.639  15.332 -48.132  1.00  0.00     0.002 C 
ATOM     10  C   UNL     1      27.396  15.042 -46.546  1.00  0.00    -0.026 C 
ATOM     11  C   UNL     1      27.641  13.526 -46.222  1.00  0.00     0.010 C 
ATOM     12  C   UNL     1      27.271  13.084 -44.809  1.00  0.00     0.033 C 
ATOM     13  C   UNL     1      25.785  13.332 -44.554  1.00  0.00     0.120 C 
ATOM     14  C   UNL     1      25.418  14.837 -44.678  1.00  0.00    -0.006 C 
ATOM     15  C   UNL     1      25.930  15.458 -46.066  1.00  0.00     0.003 C 
ATOM     16  C   UNL     1      24.946  15.279 -47.244  1.00  0.00     0.005 C 
ATOM     17  C   UNL     1      25.264  16.184 -48.457  1.00  0.00     0.008 C 
ATOM     18  C   UNL     1      26.776  16.514 -48.739  1.00  0.00    -0.024 C 
ATOM     19  C   UNL     1      27.018  16.742 -50.342  1.00  0.00    -0.024 C 
ATOM     20  C   UNL     1      28.366  17.523 -50.642  1.00  0.00     0.008 C 
ATOM     21  C   UNL     1      28.767  17.666 -52.146  1.00  0.00     0.010 C 
ATOM     22  C   UNL     1      25.834  17.620 -50.904  1.00  0.00     0.012 C 
ATOM     23  C   UNL     1      27.160  17.852 -48.012  1.00  0.00     0.012 C 
ATOM     24  C   UNL     1      23.875  14.953 -44.528  1.00  0.00     0.014 C 
ATOM     25  C   UNL     1      25.997  15.642 -43.476  1.00  0.00     0.014 C 
ATOM     26  C   UNL     1      28.471  15.863 -45.762  1.00  0.00     0.012 C 
ENDROOT
BRANCH   1  27
ATOM     27  C   UNL     1      27.156  13.115 -53.493  1.00  0.00    -0.077 C 
ATOM     28  C   UNL     1      28.398  12.251 -53.578  1.00  0.00     0.039 C 
ATOM     29  C   UNL     1      25.966  12.490 -53.411  1.00  0.00     0.008 C 
ENDBRANCH   1  27
BRANCH   4  30
ATOM     30  C   UNL     1      30.116  15.557 -52.503  1.00  0.00     0.163 C 
BRANCH  30  31
ATOM     31  O   UNL     1      31.230  16.401 -52.522  1.00  0.00    -0.396 OA
ATOM     32  H   UNL     1      30.984  17.177 -53.087  1.00  0.00     0.210 HD
ENDBRANCH  30  31
ENDBRANCH   4  30
BRANCH  13  33
ATOM     33  O   UNL     1      25.442  12.846 -43.278  1.00  0.00    -0.393 OA
ATOM     34  H   UNL     1      24.642  13.353 -42.980  1.00  0.00     0.210 HD
ENDBRANCH  13  33
TORSDOF 4
ENDMDL
MODEL 9
REMARK VINA RESULT:    -5.533     11.977     15.143
REMARK INTER + INTRA:          -7.038
REMARK INTER:                  -6.376
REMARK INTRA:                  -0.662
REMARK UNBOUND:                -0.534
REMARK SMILES C=C(C)[C@@H]1CC[C@@]2(CO)CC[C@@]3(C)[C@H](CC[C@@H]4[C@]5(C)CC[C@@H](O)C(C)(C)[C@@H]5CC[C@@]43C)[C@H]12
REMARK SMILES IDX 4 1 5 2 6 3 7 4 32 5 14 6 15 7 16 8 17 9 18 10 20 11 21 12
REMARK SMILES IDX 22 13 24 14 27 15 28 16 29 17 30 18 12 19 11 20 10 21 13 22
REMARK SMILES IDX 31 23 25 24 26 25 19 26 2 27 3 28 1 29 8 30 9 31 23 33
REMARK H PARENT 9 32 23 34
REMARK Flexibility Score: inf
ROOT
ATOM      1  C   UNL     1      34.678   8.456 -40.019  1.00  0.00     0.018 C 
ATOM      2  C   UNL     1      35.965   9.273 -40.302  1.00  0.00     0.009 C 
ATOM      3  C   UNL     1      35.936   9.633 -41.798  1.00  0.00     0.010 C 
ATOM      4  C   UNL     1      34.439   9.785 -42.140  1.00  0.00    -0.003 C 
ATOM      5  C   UNL     1      33.857   8.600 -41.334  1.00  0.00     0.008 C 
ATOM      6  C   UNL     1      32.322   8.346 -41.484  1.00  0.00    -0.000 C 
ATOM      7  C   UNL     1      31.478   9.463 -40.862  1.00  0.00     0.005 C 
ATOM      8  C   UNL     1      30.003   9.149 -40.943  1.00  0.00     0.005 C 
ATOM      9  C   UNL     1      29.506   9.088 -42.417  1.00  0.00     0.002 C 
ATOM     10  C   UNL     1      27.885   8.988 -42.566  1.00  0.00    -0.026 C 
ATOM     11  C   UNL     1      27.182   9.527 -41.269  1.00  0.00     0.010 C 
ATOM     12  C   UNL     1      25.671   9.321 -41.203  1.00  0.00     0.033 C 
ATOM     13  C   UNL     1      25.341   7.831 -41.272  1.00  0.00     0.120 C 
ATOM     14  C   UNL     1      25.837   7.187 -42.596  1.00  0.00    -0.006 C 
ATOM     15  C   UNL     1      27.388   7.500 -42.861  1.00  0.00     0.003 C 
ATOM     16  C   UNL     1      28.361   6.503 -42.191  1.00  0.00     0.005 C 
ATOM     17  C   UNL     1      29.803   6.582 -42.744  1.00  0.00     0.008 C 
ATOM     18  C   UNL     1      30.322   7.990 -43.217  1.00  0.00    -0.024 C 
ATOM     19  C   UNL     1      31.942   8.099 -43.005  1.00  0.00    -0.024 C 
ATOM     20  C   UNL     1      32.585   9.262 -43.871  1.00  0.00     0.008 C 
ATOM     21  C   UNL     1      34.104   9.548 -43.634  1.00  0.00     0.010 C 
ATOM     22  C   UNL     1      32.597   6.745 -43.479  1.00  0.00     0.012 C 
ATOM     23  C   UNL     1      30.037   8.160 -44.751  1.00  0.00     0.012 C 
ATOM     24  C   UNL     1      25.564   5.659 -42.500  1.00  0.00     0.014 C 
ATOM     25  C   UNL     1      24.972   7.671 -43.798  1.00  0.00     0.014 C 
ATOM     26  C   UNL     1      27.476   9.935 -43.741  1.00  0.00     0.012 C 
ENDROOT
BRANCH   1  27
ATOM     27  C   UNL     1      33.964   8.732 -38.691  1.00  0.00    -0.077 C 
ATOM     28  C   UNL     1      33.075   7.707 -38.016  1.00  0.00     0.039 C 
ATOM     29  C   UNL     1      33.898  10.002 -38.249  1.00  0.00     0.008 C 
ENDBRANCH   1  27
BRANCH   4  30
ATOM     30  C   UNL     1      34.003  11.240 -41.758  1.00  0.00     0.163 C 
BRANCH  30  31
ATOM     31  O   UNL     1      34.373  12.177 -42.727  1.00  0.00    -0.396 OA
ATOM     32  H   UNL     1      33.611  12.805 -42.816  1.00  0.00     0.210 HD
ENDBRANCH  30  31
ENDBRANCH   4  30
BRANCH  13  33
ATOM     33  O   UNL     1      23.952   7.653 -41.128  1.00  0.00    -0.393 OA
ATOM     34  H   UNL     1      23.719   7.925 -40.201  1.00  0.00     0.210 HD
ENDBRANCH  13  33
TORSDOF 4
ENDMDL
