MODEL 1
REMARK VINA RESULT:    -4.902      0.000      0.000
REMARK INTER + INTRA:          -5.679
REMARK INTER:                  -5.619
REMARK INTRA:                  -0.060
REMARK UNBOUND:                -0.060
REMARK SMILES COc1cc(C(=O)[O-])ccc1O
REMARK SMILES IDX 5 1 9 2 4 3 10 4 3 5 11 6 6 7 7 8 8 9 2 10 1 11 12 12
REMARK H PARENT 12 13
REMARK Flexibility Score: inf
ROOT
ATOM      1  C   UNL     1      -1.866   7.922 -11.211  1.00  0.00     0.001 A 
ATOM      2  C   UNL     1      -0.944   8.820 -11.773  1.00  0.00     0.014 A 
ATOM      3  C   UNL     1      -2.718   8.369 -10.186  1.00  0.00     0.060 A 
ATOM      4  C   UNL     1      -0.875  10.139 -11.319  1.00  0.00     0.051 A 
ATOM      5  C   UNL     1      -2.653   9.700  -9.725  1.00  0.00     0.161 A 
ATOM      6  C   UNL     1      -1.726  10.580 -10.298  1.00  0.00     0.157 A 
ENDROOT
BRANCH   1   7
ATOM      7  C   UNL     1      -1.934   6.525 -11.696  1.00  0.00     0.072 C 
ATOM      8  O   UNL     1      -2.712   6.209 -12.635  1.00  0.00    -0.545 OA
ATOM      9  O   UNL     1      -1.139   5.541 -11.122  1.00  0.00    -0.545 OA
ENDBRANCH   1   7
BRANCH   5  10
ATOM     10  O   UNL     1      -3.488  10.182  -8.704  1.00  0.00    -0.493 OA
ATOM     11  C   UNL     1      -3.155  10.177  -7.319  1.00  0.00     0.278 C 
ENDBRANCH   5  10
BRANCH   6  12
ATOM     12  O   UNL     1      -1.655  11.898  -9.847  1.00  0.00    -0.504 OA
ATOM     13  H   UNL     1      -1.482  12.668 -10.483  1.00  0.00     0.293 HD
ENDBRANCH   6  12
TORSDOF 3
ENDMDL
MODEL 2
REMARK VINA RESULT:    -4.120      2.436      4.092
REMARK INTER + INTRA:          -4.782
REMARK INTER:                  -4.697
REMARK INTRA:                  -0.085
REMARK UNBOUND:                -0.060
REMARK SMILES COc1cc(C(=O)[O-])ccc1O
REMARK SMILES IDX 5 1 9 2 4 3 10 4 3 5 11 6 6 7 7 8 8 9 2 10 1 11 12 12
REMARK H PARENT 12 13
REMARK Flexibility Score: inf
ROOT
ATOM      1  C   UNL     1      -2.858   7.434  -8.716  1.00  0.00     0.001 A 
ATOM      2  C   UNL     1      -2.598   8.804  -8.555  1.00  0.00     0.014 A 
ATOM      3  C   UNL     1      -2.608   6.832  -9.962  1.00  0.00     0.060 A 
ATOM      4  C   UNL     1      -2.098   9.559  -9.619  1.00  0.00     0.051 A 
ATOM      5  C   UNL     1      -2.104   7.590 -11.039  1.00  0.00     0.161 A 
ATOM      6  C   UNL     1      -1.851   8.956 -10.858  1.00  0.00     0.157 A 
ENDROOT
BRANCH   1   7
ATOM      7  C   UNL     1      -3.388   6.639  -7.585  1.00  0.00     0.072 C 
ATOM      8  O   UNL     1      -2.778   6.605  -6.484  1.00  0.00    -0.545 OA
ATOM      9  O   UNL     1      -4.569   5.918  -7.723  1.00  0.00    -0.545 OA
ENDBRANCH   1   7
BRANCH   5  10
ATOM     10  O   UNL     1      -1.842   7.023 -12.297  1.00  0.00    -0.493 OA
ATOM     11  C   UNL     1      -2.719   6.133 -12.979  1.00  0.00     0.278 C 
ENDBRANCH   5  10
BRANCH   6  12
ATOM     12  O   UNL     1      -1.352   9.711 -11.918  1.00  0.00    -0.504 OA
ATOM     13  H   UNL     1      -1.784  10.585 -12.197  1.00  0.00     0.293 HD
ENDBRANCH   6  12
TORSDOF 3
ENDMDL
MODEL 3
REMARK VINA RESULT:    -4.118     12.292     13.317
REMARK INTER + INTRA:          -4.780
REMARK INTER:                  -4.700
REMARK INTRA:                  -0.080
REMARK UNBOUND:                -0.060
REMARK SMILES COc1cc(C(=O)[O-])ccc1O
REMARK SMILES IDX 5 1 9 2 4 3 10 4 3 5 11 6 6 7 7 8 8 9 2 10 1 11 12 12
REMARK H PARENT 12 13
REMARK Flexibility Score: inf
ROOT
ATOM      1  C   UNL     1      -6.081   1.385 -20.254  1.00  0.00     0.001 A 
ATOM      2  C   UNL     1      -6.000   0.632 -19.071  1.00  0.00     0.014 A 
ATOM      3  C   UNL     1      -4.896   1.732 -20.926  1.00  0.00     0.060 A 
ATOM      4  C   UNL     1      -4.759   0.235 -18.569  1.00  0.00     0.051 A 
ATOM      5  C   UNL     1      -3.640   1.333 -20.424  1.00  0.00     0.161 A 
ATOM      6  C   UNL     1      -3.581   0.582 -19.242  1.00  0.00     0.157 A 
ENDROOT
BRANCH   1   7
ATOM      7  C   UNL     1      -7.400   1.804 -20.780  1.00  0.00     0.072 C 
ATOM      8  O   UNL     1      -8.432   1.125 -20.538  1.00  0.00    -0.545 OA
ATOM      9  O   UNL     1      -7.517   2.956 -21.550  1.00  0.00    -0.545 OA
ENDBRANCH   1   7
BRANCH   5  10
ATOM     10  O   UNL     1      -2.436   1.660 -21.068  1.00  0.00    -0.493 OA
ATOM     11  C   UNL     1      -2.347   2.370 -22.299  1.00  0.00     0.278 C 
ENDBRANCH   5  10
BRANCH   6  12
ATOM     12  O   UNL     1      -2.343   0.183 -18.740  1.00  0.00    -0.504 OA
ATOM     13  H   UNL     1      -2.201  -0.741 -18.349  1.00  0.00     0.293 HD
ENDBRANCH   6  12
TORSDOF 3
ENDMDL
MODEL 4
REMARK VINA RESULT:    -4.110      1.741      4.399
REMARK INTER + INTRA:          -4.771
REMARK INTER:                  -4.693
REMARK INTRA:                  -0.079
REMARK UNBOUND:                -0.060
REMARK SMILES COc1cc(C(=O)[O-])ccc1O
REMARK SMILES IDX 5 1 9 2 4 3 10 4 3 5 11 6 6 7 7 8 8 9 2 10 1 11 12 12
REMARK H PARENT 12 13
REMARK Flexibility Score: inf
ROOT
ATOM      1  C   UNL     1      -2.064   8.858  -9.844  1.00  0.00     0.001 A 
ATOM      2  C   UNL     1      -1.642   8.691 -11.173  1.00  0.00     0.014 A 
ATOM      3  C   UNL     1      -2.084   7.744  -8.987  1.00  0.00     0.060 A 
ATOM      4  C   UNL     1      -1.248   7.433 -11.636  1.00  0.00     0.051 A 
ATOM      5  C   UNL     1      -1.687   6.473  -9.450  1.00  0.00     0.161 A 
ATOM      6  C   UNL     1      -1.269   6.326 -10.779  1.00  0.00     0.157 A 
ENDROOT
BRANCH   1   7
ATOM      7  C   UNL     1      -2.481  10.194  -9.359  1.00  0.00     0.072 C 
ATOM      8  O   UNL     1      -3.633  10.371  -8.881  1.00  0.00    -0.545 OA
ATOM      9  O   UNL     1      -1.605  11.272  -9.424  1.00  0.00    -0.545 OA
ENDBRANCH   1   7
BRANCH   5  10
ATOM     10  O   UNL     1      -1.693   5.338  -8.622  1.00  0.00    -0.493 OA
ATOM     11  C   UNL     1      -2.549   5.164  -7.498  1.00  0.00     0.278 C 
ENDBRANCH   5  10
BRANCH   6  12
ATOM     12  O   UNL     1      -0.875   5.072 -11.244  1.00  0.00    -0.504 OA
ATOM     13  H   UNL     1      -1.515   4.286 -11.258  1.00  0.00     0.293 HD
ENDBRANCH   6  12
TORSDOF 3
ENDMDL
MODEL 5
REMARK VINA RESULT:    -3.928     12.832     13.913
REMARK INTER + INTRA:          -4.563
REMARK INTER:                  -4.467
REMARK INTRA:                  -0.096
REMARK UNBOUND:                -0.060
REMARK SMILES COc1cc(C(=O)[O-])ccc1O
REMARK SMILES IDX 5 1 9 2 4 3 10 4 3 5 11 6 6 7 7 8 8 9 2 10 1 11 12 12
REMARK H PARENT 12 13
REMARK Flexibility Score: inf
ROOT
ATOM      1  C   UNL     1      -5.746   6.408 -23.089  1.00  0.00     0.001 A 
ATOM      2  C   UNL     1      -7.025   5.829 -23.062  1.00  0.00     0.014 A 
ATOM      3  C   UNL     1      -4.647   5.660 -22.630  1.00  0.00     0.060 A 
ATOM      4  C   UNL     1      -7.202   4.528 -22.586  1.00  0.00     0.051 A 
ATOM      5  C   UNL     1      -4.821   4.347 -22.149  1.00  0.00     0.161 A 
ATOM      6  C   UNL     1      -6.105   3.787 -22.130  1.00  0.00     0.157 A 
ENDROOT
BRANCH   1   7
ATOM      7  C   UNL     1      -5.564   7.788 -23.594  1.00  0.00     0.072 C 
ATOM      8  O   UNL     1      -5.830   8.779 -22.863  1.00  0.00    -0.545 OA
ATOM      9  O   UNL     1      -5.095   8.010 -24.884  1.00  0.00    -0.545 OA
ENDBRANCH   1   7
BRANCH   5  10
ATOM     10  O   UNL     1      -3.747   3.570 -21.684  1.00  0.00    -0.493 OA
ATOM     11  C   UNL     1      -2.786   2.937 -22.523  1.00  0.00     0.278 C 
ENDBRANCH   5  10
BRANCH   6  12
ATOM     12  O   UNL     1      -6.285   2.489 -21.656  1.00  0.00    -0.504 OA
ATOM     13  H   UNL     1      -5.904   1.687 -22.145  1.00  0.00     0.293 HD
ENDBRANCH   6  12
TORSDOF 3
ENDMDL
MODEL 6
REMARK VINA RESULT:    -3.845      2.428      3.219
REMARK INTER + INTRA:          -4.468
REMARK INTER:                  -4.371
REMARK INTRA:                  -0.096
REMARK UNBOUND:                -0.060
REMARK SMILES COc1cc(C(=O)[O-])ccc1O
REMARK SMILES IDX 5 1 9 2 4 3 10 4 3 5 11 6 6 7 7 8 8 9 2 10 1 11 12 12
REMARK H PARENT 12 13
REMARK Flexibility Score: inf
ROOT
ATOM      1  C   UNL     1      -2.792   7.438  -8.756  1.00  0.00     0.001 A 
ATOM      2  C   UNL     1      -2.329   6.785  -9.909  1.00  0.00     0.014 A 
ATOM      3  C   UNL     1      -2.739   8.841  -8.696  1.00  0.00     0.060 A 
ATOM      4  C   UNL     1      -1.820   7.521 -10.982  1.00  0.00     0.051 A 
ATOM      5  C   UNL     1      -2.227   9.589  -9.776  1.00  0.00     0.161 A 
ATOM      6  C   UNL     1      -1.769   8.919 -10.918  1.00  0.00     0.157 A 
ENDROOT
BRANCH   1   7
ATOM      7  C   UNL     1      -3.329   6.652  -7.621  1.00  0.00     0.072 C 
ATOM      8  O   UNL     1      -4.398   5.997  -7.743  1.00  0.00    -0.545 OA
ATOM      9  O   UNL     1      -2.659   6.624  -6.404  1.00  0.00    -0.545 OA
ENDBRANCH   1   7
BRANCH   5  10
ATOM     10  O   UNL     1      -2.158  10.991  -9.752  1.00  0.00    -0.493 OA
ATOM     11  C   UNL     1      -1.143  11.738  -9.090  1.00  0.00     0.278 C 
ENDBRANCH   5  10
BRANCH   6  12
ATOM     12  O   UNL     1      -1.262   9.651 -11.991  1.00  0.00    -0.504 OA
ATOM     13  H   UNL     1      -1.868  10.185 -12.603  1.00  0.00     0.293 HD
ENDBRANCH   6  12
TORSDOF 3
ENDMDL
MODEL 7
REMARK VINA RESULT:    -3.840     12.263     13.399
REMARK INTER + INTRA:          -4.462
REMARK INTER:                  -4.366
REMARK INTRA:                  -0.096
REMARK UNBOUND:                -0.060
REMARK SMILES COc1cc(C(=O)[O-])ccc1O
REMARK SMILES IDX 5 1 9 2 4 3 10 4 3 5 11 6 6 7 7 8 8 9 2 10 1 11 12 12
REMARK H PARENT 12 13
REMARK Flexibility Score: inf
ROOT
ATOM      1  C   UNL     1      -5.689   2.045 -21.308  1.00  0.00     0.001 A 
ATOM      2  C   UNL     1      -6.570   1.305 -20.503  1.00  0.00     0.014 A 
ATOM      3  C   UNL     1      -4.318   2.053 -20.994  1.00  0.00     0.060 A 
ATOM      4  C   UNL     1      -6.090   0.586 -19.406  1.00  0.00     0.051 A 
ATOM      5  C   UNL     1      -3.829   1.328 -19.888  1.00  0.00     0.161 A 
ATOM      6  C   UNL     1      -4.725   0.595 -19.097  1.00  0.00     0.157 A 
ENDROOT
BRANCH   1   7
ATOM      7  C   UNL     1      -6.203   2.807 -22.469  1.00  0.00     0.072 C 
ATOM      8  O   UNL     1      -6.786   3.911 -22.304  1.00  0.00    -0.545 OA
ATOM      9  O   UNL     1      -6.049   2.313 -23.759  1.00  0.00    -0.545 OA
ENDBRANCH   1   7
BRANCH   5  10
ATOM     10  O   UNL     1      -2.468   1.311 -19.545  1.00  0.00    -0.493 OA
ATOM     11  C   UNL     1      -1.462   0.612 -20.270  1.00  0.00     0.278 C 
ENDBRANCH   5  10
BRANCH   6  12
ATOM     12  O   UNL     1      -4.249  -0.124 -18.002  1.00  0.00    -0.504 OA
ATOM     13  H   UNL     1      -4.481  -1.101 -17.867  1.00  0.00     0.293 HD
ENDBRANCH   6  12
TORSDOF 3
ENDMDL
MODEL 8
REMARK VINA RESULT:    -3.819     12.170     12.981
REMARK INTER + INTRA:          -4.437
REMARK INTER:                  -4.357
REMARK INTRA:                  -0.080
REMARK UNBOUND:                -0.060
REMARK SMILES COc1cc(C(=O)[O-])ccc1O
REMARK SMILES IDX 5 1 9 2 4 3 10 4 3 5 11 6 6 7 7 8 8 9 2 10 1 11 12 12
REMARK H PARENT 12 13
REMARK Flexibility Score: inf
ROOT
ATOM      1  C   UNL     1      -3.092   2.283 -21.328  1.00  0.00     0.001 A 
ATOM      2  C   UNL     1      -2.097   1.705 -20.525  1.00  0.00     0.014 A 
ATOM      3  C   UNL     1      -4.443   2.047 -21.019  1.00  0.00     0.060 A 
ATOM      4  C   UNL     1      -2.445   0.905 -19.433  1.00  0.00     0.051 A 
ATOM      5  C   UNL     1      -4.800   1.241 -19.918  1.00  0.00     0.161 A 
ATOM      6  C   UNL     1      -3.791   0.673 -19.129  1.00  0.00     0.157 A 
ENDROOT
BRANCH   1   7
ATOM      7  C   UNL     1      -2.717   3.129 -22.484  1.00  0.00     0.072 C 
ATOM      8  O   UNL     1      -1.610   2.969 -23.063  1.00  0.00    -0.545 OA
ATOM      9  O   UNL     1      -3.584   4.111 -22.949  1.00  0.00    -0.545 OA
ENDBRANCH   1   7
BRANCH   5  10
ATOM     10  O   UNL     1      -6.138   0.984 -19.579  1.00  0.00    -0.493 OA
ATOM     11  C   UNL     1      -7.262   1.538 -20.255  1.00  0.00     0.278 C 
ENDBRANCH   5  10
BRANCH   6  12
ATOM     12  O   UNL     1      -4.136  -0.125 -18.039  1.00  0.00    -0.504 OA
ATOM     13  H   UNL     1      -4.024   0.201 -17.085  1.00  0.00     0.293 HD
ENDBRANCH   6  12
TORSDOF 3
ENDMDL
