MODEL 1
REMARK VINA RESULT:     1.291      0.000      0.000
REMARK INTER + INTRA:           1.568
REMARK INTER:                   1.404
REMARK INTRA:                   0.164
REMARK UNBOUND:                 0.164
REMARK SMILES CC(C)c1cc2c(cc1O)[C@@]1(C)CCCC(C)(C)[C@H]1CC2=O
REMARK SMILES IDX 4 1 9 2 8 3 7 4 6 5 5 6 21 7 22 8 20 9 19 10 11 11 13 12
REMARK SMILES IDX 14 13 15 14 16 15 17 16 18 17 12 18 2 19 1 20 3 21 10 22
REMARK H PARENT 10 23
REMARK Flexibility Score: inf
ROOT
ATOM      1  C   UNL     1      79.972  16.118   7.648  1.00  0.00    -0.003 A 
ATOM      2  C   UNL     1      79.478  14.838   7.326  1.00  0.00     0.119 A 
ATOM      3  C   UNL     1      79.172  14.517   5.997  1.00  0.00     0.051 A 
ATOM      4  C   UNL     1      79.328  15.454   4.950  1.00  0.00    -0.027 A 
ATOM      5  C   UNL     1      79.828  16.731   5.284  1.00  0.00     0.022 A 
ATOM      6  C   UNL     1      80.147  17.051   6.613  1.00  0.00     0.020 A 
ATOM      7  C   UNL     1      79.957  17.746   4.240  1.00  0.00     0.163 C 
ATOM      8  O   UNL     1      80.708  18.749   4.386  1.00  0.00    -0.294 OA
ATOM      9  C   UNL     1      79.120  17.600   3.027  1.00  0.00     0.086 C 
ATOM     10  C   UNL     1      79.302  16.193   2.413  1.00  0.00     0.013 C 
ATOM     11  C   UNL     1      79.109  15.016   3.475  1.00  0.00    -0.003 C 
ATOM     12  C   UNL     1      77.678  14.434   3.326  1.00  0.00     0.012 C 
ATOM     13  C   UNL     1      77.364  13.875   1.927  1.00  0.00     0.001 C 
ATOM     14  C   UNL     1      78.101  14.570   0.770  1.00  0.00     0.007 C 
ATOM     15  C   UNL     1      78.469  16.047   1.056  1.00  0.00    -0.031 C 
ATOM     16  C   UNL     1      79.336  16.549  -0.125  1.00  0.00     0.011 C 
ATOM     17  C   UNL     1      77.151  16.876   1.032  1.00  0.00     0.011 C 
ATOM     18  C   UNL     1      80.172  13.907   3.218  1.00  0.00     0.017 C 
ENDROOT
BRANCH   1  19
ATOM     19  C   UNL     1      80.325  16.523   9.073  1.00  0.00     0.017 C 
ATOM     20  C   UNL     1      81.466  15.670   9.641  1.00  0.00     0.012 C 
ATOM     21  C   UNL     1      79.096  16.508   9.992  1.00  0.00     0.012 C 
ENDBRANCH   1  19
BRANCH   2  22
ATOM     22  O   UNL     1      79.301  13.875   8.318  1.00  0.00    -0.508 OA
ATOM     23  H   UNL     1      79.518  14.062   9.290  1.00  0.00     0.293 HD
ENDBRANCH   2  22
TORSDOF 2
ENDMDL
