MODEL 1
REMARK VINA RESULT:    -2.934      0.000      0.000
REMARK INTER + INTRA:          -3.192
REMARK INTER:                  -3.192
REMARK INTRA:                   0.000
REMARK UNBOUND:                 0.000
REMARK SMILES [NH3+]CC(=O)[O-]
REMARK SMILES IDX 2 1 1 2 3 6 4 7 5 8
REMARK H PARENT 1 3 1 4 1 5
REMARK Flexibility Score: inf
ROOT
ATOM      1  C   UNL     1      30.055   3.942 142.673  1.00  0.00     0.312 C 
ENDROOT
BRANCH   1   2
ATOM      2  N   UNL     1      30.802   2.900 143.375  1.00  0.00    -0.353 N 
ATOM      3  H   UNL     1      30.143   2.190 143.770  1.00  0.00     0.344 HD
ATOM      4  H   UNL     1      31.342   3.334 144.158  1.00  0.00     0.344 HD
ATOM      5  H   UNL     1      31.471   2.434 142.719  1.00  0.00     0.344 HD
ENDBRANCH   1   2
BRANCH   1   6
ATOM      6  C   UNL     1      28.581   3.739 142.838  1.00  0.00     0.096 C 
ATOM      7  O   UNL     1      27.975   4.255 143.813  1.00  0.00    -0.544 OA
ATOM      8  O   UNL     1      27.886   2.936 141.943  1.00  0.00    -0.544 OA
ENDBRANCH   1   6
TORSDOF 2
ENDMDL
MODEL 2
REMARK VINA RESULT:    -2.924      0.102      1.450
REMARK INTER + INTRA:          -3.180
REMARK INTER:                  -3.180
REMARK INTRA:                   0.000
REMARK UNBOUND:                 0.000
REMARK SMILES [NH3+]CC(=O)[O-]
REMARK SMILES IDX 2 1 1 2 3 6 4 7 5 8
REMARK H PARENT 1 3 1 4 1 5
REMARK Flexibility Score: inf
ROOT
ATOM      1  C   UNL     1      30.061   3.965 142.707  1.00  0.00     0.312 C 
ENDROOT
BRANCH   1   2
ATOM      2  N   UNL     1      30.804   2.919 143.406  1.00  0.00    -0.353 N 
ATOM      3  H   UNL     1      30.192   2.458 144.119  1.00  0.00     0.344 HD
ATOM      4  H   UNL     1      31.626   3.347 143.890  1.00  0.00     0.344 HD
ATOM      5  H   UNL     1      31.148   2.205 142.722  1.00  0.00     0.344 HD
ENDBRANCH   1   2
BRANCH   1   6
ATOM      6  C   UNL     1      28.587   3.748 142.846  1.00  0.00     0.096 C 
ATOM      7  O   UNL     1      27.959   3.087 141.978  1.00  0.00    -0.544 OA
ATOM      8  O   UNL     1      27.897   4.320 143.908  1.00  0.00    -0.544 OA
ENDBRANCH   1   6
TORSDOF 2
ENDMDL
MODEL 3
REMARK VINA RESULT:    -2.891      1.025      1.345
REMARK INTER + INTRA:          -3.144
REMARK INTER:                  -3.144
REMARK INTRA:                   0.000
REMARK UNBOUND:                 0.000
REMARK SMILES [NH3+]CC(=O)[O-]
REMARK SMILES IDX 2 1 1 2 3 6 4 7 5 8
REMARK H PARENT 1 3 1 4 1 5
REMARK Flexibility Score: inf
ROOT
ATOM      1  C   UNL     1      29.770   3.379 142.423  1.00  0.00     0.312 C 
ENDROOT
BRANCH   1   2
ATOM      2  N   UNL     1      30.771   2.933 143.390  1.00  0.00    -0.353 N 
ATOM      3  H   UNL     1      30.322   2.333 144.120  1.00  0.00     0.344 HD
ATOM      4  H   UNL     1      31.197   3.768 143.852  1.00  0.00     0.344 HD
ATOM      5  H   UNL     1      31.524   2.393 142.903  1.00  0.00     0.344 HD
ENDBRANCH   1   2
BRANCH   1   6
ATOM      6  C   UNL     1      28.870   4.410 143.031  1.00  0.00     0.096 C 
ATOM      7  O   UNL     1      29.219   5.619 143.057  1.00  0.00    -0.544 OA
ATOM      8  O   UNL     1      27.669   4.028 143.613  1.00  0.00    -0.544 OA
ENDBRANCH   1   6
TORSDOF 2
ENDMDL
MODEL 4
REMARK VINA RESULT:    -2.590     16.926     16.974
REMARK INTER + INTRA:          -2.817
REMARK INTER:                  -2.817
REMARK INTRA:                   0.000
REMARK UNBOUND:                 0.000
REMARK SMILES [NH3+]CC(=O)[O-]
REMARK SMILES IDX 2 1 1 2 3 6 4 7 5 8
REMARK H PARENT 1 3 1 4 1 5
REMARK Flexibility Score: inf
ROOT
ATOM      1  C   UNL     1      25.445  17.143 134.953  1.00  0.00     0.312 C 
ENDROOT
BRANCH   1   2
ATOM      2  N   UNL     1      24.123  17.754 134.830  1.00  0.00    -0.353 N 
ATOM      3  H   UNL     1      24.202  18.691 134.371  1.00  0.00     0.344 HD
ATOM      4  H   UNL     1      23.711  17.876 135.783  1.00  0.00     0.344 HD
ATOM      5  H   UNL     1      23.495  17.137 134.265  1.00  0.00     0.344 HD
ENDBRANCH   1   2
BRANCH   1   6
ATOM      6  C   UNL     1      26.162  17.164 133.640  1.00  0.00     0.096 C 
ATOM      7  O   UNL     1      26.723  16.123 133.207  1.00  0.00    -0.544 OA
ATOM      8  O   UNL     1      26.255  18.347 132.917  1.00  0.00    -0.544 OA
ENDBRANCH   1   6
TORSDOF 2
ENDMDL
MODEL 5
REMARK VINA RESULT:    -2.578     16.824     16.845
REMARK INTER + INTRA:          -2.804
REMARK INTER:                  -2.804
REMARK INTRA:                   0.000
REMARK UNBOUND:                 0.000
REMARK SMILES [NH3+]CC(=O)[O-]
REMARK SMILES IDX 2 1 1 2 3 6 4 7 5 8
REMARK H PARENT 1 3 1 4 1 5
REMARK Flexibility Score: inf
ROOT
ATOM      1  C   UNL     1      25.433  17.159 135.002  1.00  0.00     0.312 C 
ENDROOT
BRANCH   1   2
ATOM      2  N   UNL     1      24.099  17.735 134.849  1.00  0.00    -0.353 N 
ATOM      3  H   UNL     1      23.955  18.052 133.863  1.00  0.00     0.344 HD
ATOM      4  H   UNL     1      24.005  18.557 135.488  1.00  0.00     0.344 HD
ATOM      5  H   UNL     1      23.371  17.026 135.101  1.00  0.00     0.344 HD
ENDBRANCH   1   2
BRANCH   1   6
ATOM      6  C   UNL     1      26.132  17.088 133.680  1.00  0.00     0.096 C 
ATOM      7  O   UNL     1      26.237  18.118 132.962  1.00  0.00    -0.544 OA
ATOM      8  O   UNL     1      26.624  15.875 133.217  1.00  0.00    -0.544 OA
ENDBRANCH   1   6
TORSDOF 2
ENDMDL
MODEL 6
REMARK VINA RESULT:    -2.448     16.824     16.853
REMARK INTER + INTRA:          -2.663
REMARK INTER:                  -2.663
REMARK INTRA:                   0.000
REMARK UNBOUND:                 0.000
REMARK SMILES [NH3+]CC(=O)[O-]
REMARK SMILES IDX 2 1 1 2 3 6 4 7 5 8
REMARK H PARENT 1 3 1 4 1 5
REMARK Flexibility Score: inf
ROOT
ATOM      1  C   UNL     1      26.452  17.819 133.539  1.00  0.00     0.312 C 
ENDROOT
BRANCH   1   2
ATOM      2  N   UNL     1      25.866  19.125 133.246  1.00  0.00    -0.353 N 
ATOM      3  H   UNL     1      25.875  19.300 132.214  1.00  0.00     0.344 HD
ATOM      4  H   UNL     1      26.427  19.867 133.721  1.00  0.00     0.344 HD
ATOM      5  H   UNL     1      24.882  19.164 133.601  1.00  0.00     0.344 HD
ENDBRANCH   1   2
BRANCH   1   6
ATOM      6  C   UNL     1      25.711  17.144 134.651  1.00  0.00     0.096 C 
ATOM      7  O   UNL     1      24.534  17.492 134.931  1.00  0.00    -0.544 OA
ATOM      8  O   UNL     1      26.339  16.166 135.412  1.00  0.00    -0.544 OA
ENDBRANCH   1   6
TORSDOF 2
ENDMDL
MODEL 7
REMARK VINA RESULT:    -2.402     14.142     14.411
REMARK INTER + INTRA:          -2.613
REMARK INTER:                  -2.613
REMARK INTRA:                   0.000
REMARK UNBOUND:                 0.000
REMARK SMILES [NH3+]CC(=O)[O-]
REMARK SMILES IDX 2 1 1 2 3 6 4 7 5 8
REMARK H PARENT 1 3 1 4 1 5
REMARK Flexibility Score: inf
ROOT
ATOM      1  C   UNL     1      34.421  16.190 137.780  1.00  0.00     0.312 C 
ENDROOT
BRANCH   1   2
ATOM      2  N   UNL     1      33.280  15.631 138.502  1.00  0.00    -0.353 N 
ATOM      3  H   UNL     1      33.197  14.607 138.305  1.00  0.00     0.344 HD
ATOM      4  H   UNL     1      32.406  16.109 138.185  1.00  0.00     0.344 HD
ATOM      5  H   UNL     1      33.396  15.784 139.530  1.00  0.00     0.344 HD
ENDBRANCH   1   2
BRANCH   1   6
ATOM      6  C   UNL     1      35.588  15.253 137.828  1.00  0.00     0.096 C 
ATOM      7  O   UNL     1      35.423  14.053 138.172  1.00  0.00    -0.544 OA
ATOM      8  O   UNL     1      36.865  15.718 137.543  1.00  0.00    -0.544 OA
ENDBRANCH   1   6
TORSDOF 2
ENDMDL
MODEL 8
REMARK VINA RESULT:    -2.318     14.060     14.310
REMARK INTER + INTRA:          -2.522
REMARK INTER:                  -2.522
REMARK INTRA:                   0.000
REMARK UNBOUND:                 0.000
REMARK SMILES [NH3+]CC(=O)[O-]
REMARK SMILES IDX 2 1 1 2 3 6 4 7 5 8
REMARK H PARENT 1 3 1 4 1 5
REMARK Flexibility Score: inf
ROOT
ATOM      1  C   UNL     1      34.948  14.543 138.082  1.00  0.00     0.312 C 
ENDROOT
BRANCH   1   2
ATOM      2  N   UNL     1      36.342  14.594 137.647  1.00  0.00    -0.353 N 
ATOM      3  H   UNL     1      36.411  14.344 136.633  1.00  0.00     0.344 HD
ATOM      4  H   UNL     1      36.900  13.909 138.205  1.00  0.00     0.344 HD
ATOM      5  H   UNL     1      36.731  15.553 137.801  1.00  0.00     0.344 HD
ENDBRANCH   1   2
BRANCH   1   6
ATOM      6  C   UNL     1      34.283  15.870 137.884  1.00  0.00     0.096 C 
ATOM      7  O   UNL     1      33.177  16.113 138.434  1.00  0.00    -0.544 OA
ATOM      8  O   UNL     1      34.861  16.820 137.051  1.00  0.00    -0.544 OA
ENDBRANCH   1   6
TORSDOF 2
ENDMDL
MODEL 9
REMARK VINA RESULT:    -2.262      3.842      4.306
REMARK INTER + INTRA:          -2.461
REMARK INTER:                  -2.461
REMARK INTRA:                   0.000
REMARK UNBOUND:                 0.000
REMARK SMILES [NH3+]CC(=O)[O-]
REMARK SMILES IDX 2 1 1 2 3 6 4 7 5 8
REMARK H PARENT 1 3 1 4 1 5
REMARK Flexibility Score: inf
ROOT
ATOM      1  C   UNL     1      28.558   6.456 143.699  1.00  0.00     0.312 C 
ENDROOT
BRANCH   1   2
ATOM      2  N   UNL     1      29.642   5.596 143.228  1.00  0.00    -0.353 N 
ATOM      3  H   UNL     1      30.409   5.562 143.939  1.00  0.00     0.344 HD
ATOM      4  H   UNL     1      30.024   5.983 142.335  1.00  0.00     0.344 HD
ATOM      5  H   UNL     1      29.283   4.629 143.052  1.00  0.00     0.344 HD
ENDBRANCH   1   2
BRANCH   1   6
ATOM      6  C   UNL     1      28.638   7.806 143.057  1.00  0.00     0.096 C 
ATOM      7  O   UNL     1      28.239   7.971 141.875  1.00  0.00    -0.544 OA
ATOM      8  O   UNL     1      29.201   8.872 143.748  1.00  0.00    -0.544 OA
ENDBRANCH   1   6
TORSDOF 2
ENDMDL
