MODEL 1
REMARK VINA RESULT:    -5.982      0.000      0.000
REMARK INTER + INTRA:          -6.506
REMARK INTER:                  -6.506
REMARK INTRA:                   0.000
REMARK UNBOUND:                 0.000
REMARK SMILES Cc1cc(O)c2c(c1)C(=O)c1cc(O)cc(O)c1C2=O
REMARK SMILES IDX 1 1 2 2 8 3 7 4 6 5 4 6 3 7 19 8 20 9 18 10 11 11 9 12 10 13
REMARK SMILES IDX 12 14 13 15 15 16 16 17 5 18 17 20 14 22
REMARK H PARENT 5 19 17 21 14 23
REMARK Flexibility Score: inf
ROOT
ATOM      1  C   UNL     1      20.378  32.893   5.351  1.00  0.00     0.044 C 
ATOM      2  C   UNL     1      21.582  32.221   5.943  1.00  0.00    -0.047 A 
ATOM      3  C   UNL     1      22.501  31.568   5.115  1.00  0.00     0.016 A 
ATOM      4  C   UNL     1      23.654  30.973   5.653  1.00  0.00     0.038 A 
ATOM      5  C   UNL     1      23.906  31.056   7.041  1.00  0.00     0.076 A 
ATOM      6  C   UNL     1      22.948  31.680   7.882  1.00  0.00     0.127 A 
ATOM      7  C   UNL     1      21.818  32.281   7.320  1.00  0.00     0.050 A 
ATOM      8  C   UNL     1      25.205  30.546   7.550  1.00  0.00     0.201 C 
ATOM      9  O   UNL     1      25.728  31.067   8.572  1.00  0.00    -0.288 OA
ATOM     10  C   UNL     1      25.973  29.555   6.753  1.00  0.00     0.076 A 
ATOM     11  C   UNL     1      25.718  29.475   5.364  1.00  0.00     0.041 A 
ATOM     12  C   UNL     1      24.607  30.255   4.772  1.00  0.00     0.194 C 
ATOM     13  O   UNL     1      24.456  30.289   3.520  1.00  0.00    -0.289 OA
ATOM     14  C   UNL     1      26.518  28.652   4.554  1.00  0.00     0.059 A 
ATOM     15  C   UNL     1      27.554  27.898   5.111  1.00  0.00     0.120 A 
ATOM     16  C   UNL     1      27.782  27.943   6.486  1.00  0.00     0.093 A 
ATOM     17  C   UNL     1      26.989  28.739   7.317  1.00  0.00     0.131 A 
ENDROOT
BRANCH   6  18
ATOM     18  O   UNL     1      23.062  31.696   9.274  1.00  0.00    -0.507 OA
ATOM     19  H   UNL     1      23.896  31.987   9.763  1.00  0.00     0.293 HD
ENDBRANCH   6  18
BRANCH  17  20
ATOM     20  O   UNL     1      27.218  28.664   8.693  1.00  0.00    -0.507 OA
ATOM     21  H   UNL     1      27.430  27.802   9.178  1.00  0.00     0.293 HD
ENDBRANCH  17  20
BRANCH  15  22
ATOM     22  O   UNL     1      28.357  27.091   4.309  1.00  0.00    -0.508 OA
ATOM     23  H   UNL     1      27.960  26.489   3.596  1.00  0.00     0.293 HD
ENDBRANCH  15  22
TORSDOF 3
ENDMDL
MODEL 2
REMARK VINA RESULT:    -5.553      1.666      5.607
REMARK INTER + INTRA:          -6.040
REMARK INTER:                  -6.040
REMARK INTRA:                   0.000
REMARK UNBOUND:                 0.000
REMARK SMILES Cc1cc(O)c2c(c1)C(=O)c1cc(O)cc(O)c1C2=O
REMARK SMILES IDX 1 1 2 2 8 3 7 4 6 5 4 6 3 7 19 8 20 9 18 10 11 11 9 12 10 13
REMARK SMILES IDX 12 14 13 15 15 16 16 17 5 18 17 20 14 22
REMARK H PARENT 5 19 17 21 14 23
REMARK Flexibility Score: inf
ROOT
ATOM      1  C   UNL     1      28.068  28.224   5.972  1.00  0.00     0.044 C 
ATOM      2  C   UNL     1      26.870  29.089   6.237  1.00  0.00    -0.047 A 
ATOM      3  C   UNL     1      25.827  29.151   5.307  1.00  0.00     0.016 A 
ATOM      4  C   UNL     1      24.683  29.924   5.565  1.00  0.00     0.038 A 
ATOM      5  C   UNL     1      24.567  30.624   6.786  1.00  0.00     0.076 A 
ATOM      6  C   UNL     1      25.647  30.594   7.706  1.00  0.00     0.127 A 
ATOM      7  C   UNL     1      26.768  29.803   7.435  1.00  0.00     0.050 A 
ATOM      8  C   UNL     1      23.282  31.308   7.085  1.00  0.00     0.201 C 
ATOM      9  O   UNL     1      22.901  31.435   8.279  1.00  0.00    -0.288 OA
ATOM     10  C   UNL     1      22.363  31.670   5.975  1.00  0.00     0.076 A 
ATOM     11  C   UNL     1      22.482  30.967   4.754  1.00  0.00     0.041 A 
ATOM     12  C   UNL     1      23.596  30.010   4.559  1.00  0.00     0.194 C 
ATOM     13  O   UNL     1      23.633  29.286   3.527  1.00  0.00    -0.289 OA
ATOM     14  C   UNL     1      21.545  31.183   3.730  1.00  0.00     0.059 A 
ATOM     15  C   UNL     1      20.504  32.100   3.901  1.00  0.00     0.120 A 
ATOM     16  C   UNL     1      20.408  32.825   5.088  1.00  0.00     0.093 A 
ATOM     17  C   UNL     1      21.339  32.643   6.115  1.00  0.00     0.131 A 
ENDROOT
BRANCH   6  18
ATOM     18  O   UNL     1      25.664  31.356   8.877  1.00  0.00    -0.507 OA
ATOM     19  H   UNL     1      24.847  31.810   9.260  1.00  0.00     0.293 HD
ENDBRANCH   6  18
BRANCH  17  20
ATOM     20  O   UNL     1      21.231  33.470   7.237  1.00  0.00    -0.507 OA
ATOM     21  H   UNL     1      20.710  33.221   8.066  1.00  0.00     0.293 HD
ENDBRANCH  17  20
BRANCH  15  22
ATOM     22  O   UNL     1      19.566  32.307   2.893  1.00  0.00    -0.508 OA
ATOM     23  H   UNL     1      19.322  31.573   2.237  1.00  0.00     0.293 HD
ENDBRANCH  15  22
TORSDOF 3
ENDMDL
MODEL 3
REMARK VINA RESULT:    -5.324      1.880      2.211
REMARK INTER + INTRA:          -5.790
REMARK INTER:                  -5.790
REMARK INTRA:                   0.000
REMARK UNBOUND:                 0.000
REMARK SMILES Cc1cc(O)c2c(c1)C(=O)c1cc(O)cc(O)c1C2=O
REMARK SMILES IDX 1 1 2 2 8 3 7 4 6 5 4 6 3 7 19 8 20 9 18 10 11 11 9 12 10 13
REMARK SMILES IDX 12 14 13 15 15 16 16 17 5 18 17 20 14 22
REMARK H PARENT 5 19 17 21 14 23
REMARK Flexibility Score: inf
ROOT
ATOM      1  C   UNL     1      21.235  33.064   7.745  1.00  0.00     0.044 C 
ATOM      2  C   UNL     1      22.373  32.096   7.593  1.00  0.00    -0.047 A 
ATOM      3  C   UNL     1      22.340  31.125   6.587  1.00  0.00     0.016 A 
ATOM      4  C   UNL     1      23.419  30.242   6.409  1.00  0.00     0.038 A 
ATOM      5  C   UNL     1      24.561  30.352   7.233  1.00  0.00     0.076 A 
ATOM      6  C   UNL     1      24.569  31.309   8.280  1.00  0.00     0.127 A 
ATOM      7  C   UNL     1      23.492  32.189   8.425  1.00  0.00     0.050 A 
ATOM      8  C   UNL     1      25.738  29.501   6.918  1.00  0.00     0.201 C 
ATOM      9  O   UNL     1      26.899  29.911   7.187  1.00  0.00    -0.288 OA
ATOM     10  C   UNL     1      25.560  28.260   6.122  1.00  0.00     0.076 A 
ATOM     11  C   UNL     1      24.415  28.154   5.298  1.00  0.00     0.041 A 
ATOM     12  C   UNL     1      23.362  29.194   5.361  1.00  0.00     0.194 C 
ATOM     13  O   UNL     1      22.405  29.174   4.540  1.00  0.00    -0.289 OA
ATOM     14  C   UNL     1      24.280  27.060   4.428  1.00  0.00     0.059 A 
ATOM     15  C   UNL     1      25.261  26.065   4.379  1.00  0.00     0.120 A 
ATOM     16  C   UNL     1      26.370  26.145   5.219  1.00  0.00     0.093 A 
ATOM     17  C   UNL     1      26.519  27.214   6.109  1.00  0.00     0.131 A 
ENDROOT
BRANCH   6  18
ATOM     18  O   UNL     1      25.605  31.399   9.214  1.00  0.00    -0.507 OA
ATOM     19  H   UNL     1      26.303  32.130   9.205  1.00  0.00     0.293 HD
ENDBRANCH   6  18
BRANCH  17  20
ATOM     20  O   UNL     1      27.610  27.179   6.982  1.00  0.00    -0.507 OA
ATOM     21  H   UNL     1      27.767  26.438   7.651  1.00  0.00     0.293 HD
ENDBRANCH  17  20
BRANCH  15  22
ATOM     22  O   UNL     1      25.136  24.986   3.508  1.00  0.00    -0.508 OA
ATOM     23  H   UNL     1      24.304  24.408   3.496  1.00  0.00     0.293 HD
ENDBRANCH  15  22
TORSDOF 3
ENDMDL
MODEL 4
REMARK VINA RESULT:    -5.202      3.574      5.266
REMARK INTER + INTRA:          -5.658
REMARK INTER:                  -5.658
REMARK INTRA:                   0.000
REMARK UNBOUND:                 0.000
REMARK SMILES Cc1cc(O)c2c(c1)C(=O)c1cc(O)cc(O)c1C2=O
REMARK SMILES IDX 1 1 2 2 8 3 7 4 6 5 4 6 3 7 19 8 20 9 18 10 11 11 9 12 10 13
REMARK SMILES IDX 12 14 13 15 15 16 16 17 5 18 17 20 14 22
REMARK H PARENT 5 19 17 21 14 23
REMARK Flexibility Score: inf
ROOT
ATOM      1  C   UNL     1      22.648  22.720   4.748  1.00  0.00     0.044 C 
ATOM      2  C   UNL     1      22.950  24.124   5.186  1.00  0.00    -0.047 A 
ATOM      3  C   UNL     1      24.268  24.508   5.457  1.00  0.00     0.016 A 
ATOM      4  C   UNL     1      24.567  25.830   5.826  1.00  0.00     0.038 A 
ATOM      5  C   UNL     1      23.534  26.791   5.898  1.00  0.00     0.076 A 
ATOM      6  C   UNL     1      22.194  26.385   5.667  1.00  0.00     0.127 A 
ATOM      7  C   UNL     1      21.924  25.068   5.283  1.00  0.00     0.050 A 
ATOM      8  C   UNL     1      23.909  28.207   6.145  1.00  0.00     0.201 C 
ATOM      9  O   UNL     1      23.199  29.136   5.675  1.00  0.00    -0.288 OA
ATOM     10  C   UNL     1      25.214  28.525   6.781  1.00  0.00     0.076 A 
ATOM     11  C   UNL     1      26.245  27.561   6.707  1.00  0.00     0.041 A 
ATOM     12  C   UNL     1      25.962  26.220   6.142  1.00  0.00     0.194 C 
ATOM     13  O   UNL     1      26.904  25.403   5.955  1.00  0.00    -0.289 OA
ATOM     14  C   UNL     1      27.532  27.877   7.173  1.00  0.00     0.059 A 
ATOM     15  C   UNL     1      27.799  29.133   7.725  1.00  0.00     0.120 A 
ATOM     16  C   UNL     1      26.774  30.072   7.838  1.00  0.00     0.093 A 
ATOM     17  C   UNL     1      25.480  29.775   7.399  1.00  0.00     0.131 A 
ENDROOT
BRANCH   6  18
ATOM     18  O   UNL     1      21.105  27.243   5.838  1.00  0.00    -0.507 OA
ATOM     19  H   UNL     1      20.282  27.225   5.252  1.00  0.00     0.293 HD
ENDBRANCH   6  18
BRANCH  17  20
ATOM     20  O   UNL     1      24.487  30.731   7.627  1.00  0.00    -0.507 OA
ATOM     21  H   UNL     1      24.278  31.485   6.986  1.00  0.00     0.293 HD
ENDBRANCH  17  20
BRANCH  15  22
ATOM     22  O   UNL     1      29.076  29.454   8.176  1.00  0.00    -0.508 OA
ATOM     23  H   UNL     1      29.877  28.871   7.961  1.00  0.00     0.293 HD
ENDBRANCH  15  22
TORSDOF 3
ENDMDL
MODEL 5
REMARK VINA RESULT:    -4.701      1.107      3.272
REMARK INTER + INTRA:          -5.113
REMARK INTER:                  -5.113
REMARK INTRA:                   0.000
REMARK UNBOUND:                 0.000
REMARK SMILES Cc1cc(O)c2c(c1)C(=O)c1cc(O)cc(O)c1C2=O
REMARK SMILES IDX 1 1 2 2 8 3 7 4 6 5 4 6 3 7 19 8 20 9 18 10 11 11 9 12 10 13
REMARK SMILES IDX 12 14 13 15 15 16 16 17 5 18 17 20 14 22
REMARK H PARENT 5 19 17 21 14 23
REMARK Flexibility Score: inf
ROOT
ATOM      1  C   UNL     1      20.536  33.273   6.317  1.00  0.00     0.044 C 
ATOM      2  C   UNL     1      21.645  32.347   5.908  1.00  0.00    -0.047 A 
ATOM      3  C   UNL     1      22.622  31.968   6.834  1.00  0.00     0.016 A 
ATOM      4  C   UNL     1      23.640  31.068   6.474  1.00  0.00     0.038 A 
ATOM      5  C   UNL     1      23.664  30.517   5.174  1.00  0.00     0.076 A 
ATOM      6  C   UNL     1      22.697  30.940   4.225  1.00  0.00     0.127 A 
ATOM      7  C   UNL     1      21.683  31.822   4.613  1.00  0.00     0.050 A 
ATOM      8  C   UNL     1      24.665  29.459   4.878  1.00  0.00     0.201 C 
ATOM      9  O   UNL     1      24.403  28.568   4.026  1.00  0.00    -0.288 OA
ATOM     10  C   UNL     1      25.887  29.345   5.714  1.00  0.00     0.076 A 
ATOM     11  C   UNL     1      25.859  29.898   7.016  1.00  0.00     0.041 A 
ATOM     12  C   UNL     1      24.690  30.697   7.453  1.00  0.00     0.194 C 
ATOM     13  O   UNL     1      24.601  31.082   8.651  1.00  0.00    -0.289 OA
ATOM     14  C   UNL     1      26.941  29.690   7.886  1.00  0.00     0.059 A 
ATOM     15  C   UNL     1      28.055  28.954   7.472  1.00  0.00     0.120 A 
ATOM     16  C   UNL     1      28.104  28.442   6.176  1.00  0.00     0.093 A 
ATOM     17  C   UNL     1      27.048  28.651   5.283  1.00  0.00     0.131 A 
ENDROOT
BRANCH   6  18
ATOM     18  O   UNL     1      22.725  30.538   2.887  1.00  0.00    -0.507 OA
ATOM     19  H   UNL     1      22.859  29.581   2.594  1.00  0.00     0.293 HD
ENDBRANCH   6  18
BRANCH  17  20
ATOM     20  O   UNL     1      27.207  28.187   3.975  1.00  0.00    -0.507 OA
ATOM     21  H   UNL     1      27.095  27.218   3.708  1.00  0.00     0.293 HD
ENDBRANCH  17  20
BRANCH  15  22
ATOM     22  O   UNL     1      29.124  28.735   8.336  1.00  0.00    -0.508 OA
ATOM     23  H   UNL     1      30.085  28.822   8.024  1.00  0.00     0.293 HD
ENDBRANCH  15  22
TORSDOF 3
ENDMDL
MODEL 6
REMARK VINA RESULT:    -4.666      4.065      6.258
REMARK INTER + INTRA:          -5.075
REMARK INTER:                  -5.075
REMARK INTRA:                   0.000
REMARK UNBOUND:                 0.000
REMARK SMILES Cc1cc(O)c2c(c1)C(=O)c1cc(O)cc(O)c1C2=O
REMARK SMILES IDX 1 1 2 2 8 3 7 4 6 5 4 6 3 7 19 8 20 9 18 10 11 11 9 12 10 13
REMARK SMILES IDX 12 14 13 15 15 16 16 17 5 18 17 20 14 22
REMARK H PARENT 5 19 17 21 14 23
REMARK Flexibility Score: inf
ROOT
ATOM      1  C   UNL     1      24.053  21.633   4.768  1.00  0.00     0.044 C 
ATOM      2  C   UNL     1      23.744  23.086   4.986  1.00  0.00    -0.047 A 
ATOM      3  C   UNL     1      24.757  23.972   5.367  1.00  0.00     0.016 A 
ATOM      4  C   UNL     1      24.487  25.340   5.532  1.00  0.00     0.038 A 
ATOM      5  C   UNL     1      23.188  25.836   5.284  1.00  0.00     0.076 A 
ATOM      6  C   UNL     1      22.154  24.926   4.942  1.00  0.00     0.127 A 
ATOM      7  C   UNL     1      22.451  23.571   4.766  1.00  0.00     0.050 A 
ATOM      8  C   UNL     1      22.978  27.307   5.324  1.00  0.00     0.201 C 
ATOM      9  O   UNL     1      22.091  27.834   4.600  1.00  0.00    -0.288 OA
ATOM     10  C   UNL     1      23.930  28.168   6.070  1.00  0.00     0.076 A 
ATOM     11  C   UNL     1      25.230  27.669   6.316  1.00  0.00     0.041 A 
ATOM     12  C   UNL     1      25.560  26.267   5.967  1.00  0.00     0.194 C 
ATOM     13  O   UNL     1      26.748  25.856   6.063  1.00  0.00    -0.289 OA
ATOM     14  C   UNL     1      26.201  28.503   6.895  1.00  0.00     0.059 A 
ATOM     15  C   UNL     1      25.888  29.819   7.245  1.00  0.00     0.120 A 
ATOM     16  C   UNL     1      24.597  30.302   7.042  1.00  0.00     0.093 A 
ATOM     17  C   UNL     1      23.606  29.487   6.486  1.00  0.00     0.131 A 
ENDROOT
BRANCH   6  18
ATOM     18  O   UNL     1      20.820  25.317   4.802  1.00  0.00    -0.507 OA
ATOM     19  H   UNL     1      20.063  24.669   4.630  1.00  0.00     0.293 HD
ENDBRANCH   6  18
BRANCH  17  20
ATOM     20  O   UNL     1      22.314  30.010   6.396  1.00  0.00    -0.507 OA
ATOM     21  H   UNL     1      22.016  30.847   6.878  1.00  0.00     0.293 HD
ENDBRANCH  17  20
BRANCH  15  22
ATOM     22  O   UNL     1      26.852  30.653   7.807  1.00  0.00    -0.508 OA
ATOM     23  H   UNL     1      27.481  30.324   8.531  1.00  0.00     0.293 HD
ENDBRANCH  15  22
TORSDOF 3
ENDMDL
MODEL 7
REMARK VINA RESULT:    -4.580      4.493      6.211
REMARK INTER + INTRA:          -4.982
REMARK INTER:                  -4.982
REMARK INTRA:                   0.000
REMARK UNBOUND:                 0.000
REMARK SMILES Cc1cc(O)c2c(c1)C(=O)c1cc(O)cc(O)c1C2=O
REMARK SMILES IDX 1 1 2 2 8 3 7 4 6 5 4 6 3 7 19 8 20 9 18 10 11 11 9 12 10 13
REMARK SMILES IDX 12 14 13 15 15 16 16 17 5 18 17 20 14 22
REMARK H PARENT 5 19 17 21 14 23
REMARK Flexibility Score: inf
ROOT
ATOM      1  C   UNL     1      21.259  22.208   4.675  1.00  0.00     0.044 C 
ATOM      2  C   UNL     1      21.433  23.700   4.679  1.00  0.00    -0.047 A 
ATOM      3  C   UNL     1      22.549  24.276   5.294  1.00  0.00     0.016 A 
ATOM      4  C   UNL     1      22.743  25.667   5.265  1.00  0.00     0.038 A 
ATOM      5  C   UNL     1      21.820  26.493   4.586  1.00  0.00     0.076 A 
ATOM      6  C   UNL     1      20.666  25.907   4.003  1.00  0.00     0.127 A 
ATOM      7  C   UNL     1      20.505  24.518   4.028  1.00  0.00     0.050 A 
ATOM      8  C   UNL     1      22.137  27.938   4.451  1.00  0.00     0.201 C 
ATOM      9  O   UNL     1      21.725  28.581   3.449  1.00  0.00    -0.288 OA
ATOM     10  C   UNL     1      23.091  28.576   5.395  1.00  0.00     0.076 A 
ATOM     11  C   UNL     1      24.014  27.746   6.073  1.00  0.00     0.041 A 
ATOM     12  C   UNL     1      23.912  26.273   5.948  1.00  0.00     0.194 C 
ATOM     13  O   UNL     1      24.806  25.534   6.443  1.00  0.00    -0.289 OA
ATOM     14  C   UNL     1      25.020  28.323   6.866  1.00  0.00     0.059 A 
ATOM     15  C   UNL     1      25.108  29.711   7.003  1.00  0.00     0.120 A 
ATOM     16  C   UNL     1      24.174  30.530   6.370  1.00  0.00     0.093 A 
ATOM     17  C   UNL     1      23.152  29.981   5.590  1.00  0.00     0.131 A 
ENDROOT
BRANCH   6  18
ATOM     18  O   UNL     1      19.646  26.664   3.422  1.00  0.00    -0.507 OA
ATOM     19  H   UNL     1      19.813  27.448   2.807  1.00  0.00     0.293 HD
ENDBRANCH   6  18
BRANCH  17  20
ATOM     20  O   UNL     1      22.202  30.858   5.061  1.00  0.00    -0.507 OA
ATOM     21  H   UNL     1      21.445  30.565   4.457  1.00  0.00     0.293 HD
ENDBRANCH  17  20
BRANCH  15  22
ATOM     22  O   UNL     1      26.111  30.286   7.778  1.00  0.00    -0.508 OA
ATOM     23  H   UNL     1      25.922  30.656   8.702  1.00  0.00     0.293 HD
ENDBRANCH  15  22
TORSDOF 3
ENDMDL
MODEL 8
REMARK VINA RESULT:    -4.579      5.843      7.457
REMARK INTER + INTRA:          -4.981
REMARK INTER:                  -4.981
REMARK INTRA:                   0.000
REMARK UNBOUND:                 0.000
REMARK SMILES Cc1cc(O)c2c(c1)C(=O)c1cc(O)cc(O)c1C2=O
REMARK SMILES IDX 1 1 2 2 8 3 7 4 6 5 4 6 3 7 19 8 20 9 18 10 11 11 9 12 10 13
REMARK SMILES IDX 12 14 13 15 15 16 16 17 5 18 17 20 14 22
REMARK H PARENT 5 19 17 21 14 23
REMARK Flexibility Score: inf
ROOT
ATOM      1  C   UNL     1      27.995  27.430   6.506  1.00  0.00     0.044 C 
ATOM      2  C   UNL     1      26.638  26.826   6.286  1.00  0.00    -0.047 A 
ATOM      3  C   UNL     1      26.513  25.463   6.002  1.00  0.00     0.016 A 
ATOM      4  C   UNL     1      25.246  24.879   5.837  1.00  0.00     0.038 A 
ATOM      5  C   UNL     1      24.083  25.667   5.987  1.00  0.00     0.076 A 
ATOM      6  C   UNL     1      24.217  27.058   6.230  1.00  0.00     0.127 A 
ATOM      7  C   UNL     1      25.488  27.613   6.409  1.00  0.00     0.050 A 
ATOM      8  C   UNL     1      22.763  24.985   5.952  1.00  0.00     0.201 C 
ATOM      9  O   UNL     1      21.797  25.454   6.611  1.00  0.00    -0.288 OA
ATOM     10  C   UNL     1      22.635  23.657   5.299  1.00  0.00     0.076 A 
ATOM     11  C   UNL     1      23.801  22.871   5.151  1.00  0.00     0.041 A 
ATOM     12  C   UNL     1      25.123  23.439   5.504  1.00  0.00     0.194 C 
ATOM     13  O   UNL     1      26.148  22.703   5.498  1.00  0.00    -0.289 OA
ATOM     14  C   UNL     1      23.701  21.557   4.665  1.00  0.00     0.059 A 
ATOM     15  C   UNL     1      22.458  21.024   4.311  1.00  0.00     0.120 A 
ATOM     16  C   UNL     1      21.312  21.810   4.417  1.00  0.00     0.093 A 
ATOM     17  C   UNL     1      21.387  23.127   4.879  1.00  0.00     0.131 A 
ENDROOT
BRANCH   6  18
ATOM     18  O   UNL     1      23.124  27.927   6.268  1.00  0.00    -0.507 OA
ATOM     19  H   UNL     1      22.970  28.661   5.592  1.00  0.00     0.293 HD
ENDBRANCH   6  18
BRANCH  17  20
ATOM     20  O   UNL     1      20.211  23.882   4.872  1.00  0.00    -0.507 OA
ATOM     21  H   UNL     1      19.972  24.551   5.591  1.00  0.00     0.293 HD
ENDBRANCH  17  20
BRANCH  15  22
ATOM     22  O   UNL     1      22.353  19.717   3.841  1.00  0.00    -0.508 OA
ATOM     23  H   UNL     1      22.621  18.924   4.413  1.00  0.00     0.293 HD
ENDBRANCH  15  22
TORSDOF 3
ENDMDL
