MODEL 1
REMARK VINA RESULT:    -3.353      0.000      0.000
REMARK INTER + INTRA:          -4.179
REMARK INTER:                  -3.941
REMARK INTRA:                  -0.238
REMARK UNBOUND:                -0.238
REMARK SMILES O=c1c(O)c(-c2ccc(O)cc2)oc2cc(O)cc(O)c12
REMARK SMILES IDX 5 1 3 2 2 3 1 4 21 5 19 6 18 7 16 8 15 9 14 10 13 11 6 12
REMARK SMILES IDX 7 13 8 14 9 15 12 16 11 17 10 18 4 20 20 22 17 24
REMARK H PARENT 10 19 4 21 20 23 17 25
REMARK Flexibility Score: inf
ROOT
ATOM      1  C   UNL     1       5.413  11.413   7.873  1.00  0.00     0.180 A 
ATOM      2  C   UNL     1       5.605  10.280   8.681  1.00  0.00     0.208 A 
ATOM      3  C   UNL     1       4.572   9.877   9.544  1.00  0.00     0.238 A 
ATOM      4  O   UNL     1       4.770   8.893  10.305  1.00  0.00    -0.285 OA
ATOM      5  C   UNL     1       3.357  10.600   9.574  1.00  0.00     0.111 A 
ATOM      6  C   UNL     1       2.229  10.258  10.380  1.00  0.00     0.134 A 
ATOM      7  C   UNL     1       1.127  11.121  10.427  1.00  0.00     0.093 A 
ATOM      8  C   UNL     1       1.085  12.280   9.649  1.00  0.00     0.123 A 
ATOM      9  C   UNL     1       2.156  12.591   8.815  1.00  0.00     0.094 A 
ATOM     10  C   UNL     1       3.285  11.770   8.773  1.00  0.00     0.146 A 
ATOM     11  O   UNL     1       4.287  12.109   7.972  1.00  0.00    -0.452 OA
ENDROOT
BRANCH   1  12
ATOM     12  C   UNL     1       6.445  11.885   6.921  1.00  0.00     0.021 A 
ATOM     13  C   UNL     1       7.585  12.581   7.362  1.00  0.00     0.016 A 
ATOM     14  C   UNL     1       8.557  12.996   6.446  1.00  0.00     0.047 A 
ATOM     15  C   UNL     1       8.410  12.710   5.083  1.00  0.00     0.115 A 
ATOM     16  C   UNL     1       6.315  11.584   5.554  1.00  0.00     0.016 A 
ATOM     17  C   UNL     1       7.288  12.000   4.641  1.00  0.00     0.047 A 
BRANCH  15  18
ATOM     18  O   UNL     1       9.372  13.119   4.162  1.00  0.00    -0.508 OA
ATOM     19  H   UNL     1       9.200  13.886   3.523  1.00  0.00     0.293 HD
ENDBRANCH  15  18
ENDBRANCH   1  12
BRANCH   2  20
ATOM     20  O   UNL     1       6.821   9.592   8.652  1.00  0.00    -0.502 OA
ATOM     21  H   UNL     1       7.714  10.067   8.604  1.00  0.00     0.293 HD
ENDBRANCH   2  20
BRANCH   6  22
ATOM     22  O   UNL     1       2.131   9.078  11.123  1.00  0.00    -0.507 OA
ATOM     23  H   UNL     1       1.363   8.845  11.734  1.00  0.00     0.293 HD
ENDBRANCH   6  22
BRANCH   8  24
ATOM     24  O   UNL     1      -0.022  13.125   9.692  1.00  0.00    -0.508 OA
ATOM     25  H   UNL     1      -0.454  13.389  10.570  1.00  0.00     0.293 HD
ENDBRANCH   8  24
TORSDOF 5
ENDMDL
MODEL 2
REMARK VINA RESULT:    -3.288      2.264      2.935
REMARK INTER + INTRA:          -4.103
REMARK INTER:                  -4.270
REMARK INTRA:                   0.167
REMARK UNBOUND:                -0.238
REMARK SMILES O=c1c(O)c(-c2ccc(O)cc2)oc2cc(O)cc(O)c12
REMARK SMILES IDX 5 1 3 2 2 3 1 4 21 5 19 6 18 7 16 8 15 9 14 10 13 11 6 12
REMARK SMILES IDX 7 13 8 14 9 15 12 16 11 17 10 18 4 20 20 22 17 24
REMARK H PARENT 10 19 4 21 20 23 17 25
REMARK Flexibility Score: inf
ROOT
ATOM      1  C   UNL     1       6.702  11.466   6.793  1.00  0.00     0.180 A 
ATOM      2  C   UNL     1       6.724  12.044   8.073  1.00  0.00     0.208 A 
ATOM      3  C   UNL     1       5.860  11.543   9.061  1.00  0.00     0.238 A 
ATOM      4  O   UNL     1       5.845  12.100  10.190  1.00  0.00    -0.285 OA
ATOM      5  C   UNL     1       4.998  10.462   8.760  1.00  0.00     0.111 A 
ATOM      6  C   UNL     1       4.109   9.850   9.695  1.00  0.00     0.134 A 
ATOM      7  C   UNL     1       3.208   8.873   9.252  1.00  0.00     0.093 A 
ATOM      8  C   UNL     1       3.208   8.441   7.924  1.00  0.00     0.123 A 
ATOM      9  C   UNL     1       4.112   8.991   7.019  1.00  0.00     0.094 A 
ATOM     10  C   UNL     1       4.998   9.993   7.420  1.00  0.00     0.146 A 
ATOM     11  O   UNL     1       5.836  10.497   6.523  1.00  0.00    -0.452 OA
ENDROOT
BRANCH   1  12
ATOM     12  C   UNL     1       7.601  11.922   5.707  1.00  0.00     0.021 A 
ATOM     13  C   UNL     1       8.932  12.297   5.966  1.00  0.00     0.016 A 
ATOM     14  C   UNL     1       9.768  12.701   4.921  1.00  0.00     0.047 A 
ATOM     15  C   UNL     1       9.291  12.723   3.605  1.00  0.00     0.115 A 
ATOM     16  C   UNL     1       7.136  11.927   4.381  1.00  0.00     0.016 A 
ATOM     17  C   UNL     1       7.975  12.332   3.338  1.00  0.00     0.047 A 
BRANCH  15  18
ATOM     18  O   UNL     1      10.115  13.124   2.556  1.00  0.00    -0.508 OA
ATOM     19  H   UNL     1      10.326  12.506   1.782  1.00  0.00     0.293 HD
ENDBRANCH  15  18
ENDBRANCH   1  12
BRANCH   2  20
ATOM     20  O   UNL     1       7.568  13.125   8.343  1.00  0.00    -0.502 OA
ATOM     21  H   UNL     1       7.891  13.757   7.621  1.00  0.00     0.293 HD
ENDBRANCH   2  20
BRANCH   6  22
ATOM     22  O   UNL     1       4.092  10.142  11.061  1.00  0.00    -0.507 OA
ATOM     23  H   UNL     1       4.649  10.858  11.503  1.00  0.00     0.293 HD
ENDBRANCH   6  22
BRANCH   8  24
ATOM     24  O   UNL     1       2.318   7.458   7.496  1.00  0.00    -0.508 OA
ATOM     25  H   UNL     1       1.380   7.690   7.190  1.00  0.00     0.293 HD
ENDBRANCH   8  24
TORSDOF 5
ENDMDL
MODEL 3
REMARK VINA RESULT:    -1.990      1.485      6.492
REMARK INTER + INTRA:          -2.577
REMARK INTER:                  -2.284
REMARK INTRA:                  -0.294
REMARK UNBOUND:                -0.238
REMARK SMILES O=c1c(O)c(-c2ccc(O)cc2)oc2cc(O)cc(O)c12
REMARK SMILES IDX 5 1 3 2 2 3 1 4 21 5 19 6 18 7 16 8 15 9 14 10 13 11 6 12
REMARK SMILES IDX 7 13 8 14 9 15 12 16 11 17 10 18 4 20 20 22 17 24
REMARK H PARENT 10 19 4 21 20 23 17 25
REMARK Flexibility Score: inf
ROOT
ATOM      1  C   UNL     1       4.926  11.556   7.971  1.00  0.00     0.180 A 
ATOM      2  C   UNL     1       5.855  10.727   8.623  1.00  0.00     0.208 A 
ATOM      3  C   UNL     1       7.130  10.558   8.058  1.00  0.00     0.238 A 
ATOM      4  O   UNL     1       7.939   9.772   8.617  1.00  0.00    -0.285 OA
ATOM      5  C   UNL     1       7.465  11.234   6.861  1.00  0.00     0.111 A 
ATOM      6  C   UNL     1       8.741  11.167   6.222  1.00  0.00     0.134 A 
ATOM      7  C   UNL     1       8.918  11.771   4.971  1.00  0.00     0.093 A 
ATOM      8  C   UNL     1       7.887  12.494   4.366  1.00  0.00     0.123 A 
ATOM      9  C   UNL     1       6.658  12.614   5.010  1.00  0.00     0.094 A 
ATOM     10  C   UNL     1       6.438  11.992   6.241  1.00  0.00     0.146 A 
ATOM     11  O   UNL     1       5.248  12.124   6.814  1.00  0.00    -0.452 OA
ENDROOT
BRANCH   1  12
ATOM     12  C   UNL     1       3.572  11.803   8.517  1.00  0.00     0.021 A 
ATOM     13  C   UNL     1       3.310  12.899   9.361  1.00  0.00     0.016 A 
ATOM     14  C   UNL     1       2.018  13.125   9.844  1.00  0.00     0.047 A 
ATOM     15  C   UNL     1       0.970  12.269   9.482  1.00  0.00     0.115 A 
ATOM     16  C   UNL     1       2.510  10.962   8.142  1.00  0.00     0.016 A 
ATOM     17  C   UNL     1       1.220  11.191   8.628  1.00  0.00     0.047 A 
BRANCH  15  18
ATOM     18  O   UNL     1      -0.321  12.485   9.959  1.00  0.00    -0.508 OA
ATOM     19  H   UNL     1      -0.560  12.326  10.930  1.00  0.00     0.293 HD
ENDBRANCH  15  18
ENDBRANCH   1  12
BRANCH   2  20
ATOM     20  O   UNL     1       5.497  10.053   9.793  1.00  0.00    -0.502 OA
ATOM     21  H   UNL     1       4.563  10.096  10.183  1.00  0.00     0.293 HD
ENDBRANCH   2  20
BRANCH   6  22
ATOM     22  O   UNL     1       9.862  10.550   6.782  1.00  0.00    -0.507 OA
ATOM     23  H   UNL     1      10.036  10.463   7.772  1.00  0.00     0.293 HD
ENDBRANCH   6  22
BRANCH   8  24
ATOM     24  O   UNL     1       8.078  13.104   3.128  1.00  0.00    -0.508 OA
ATOM     25  H   UNL     1       7.514  12.858   2.323  1.00  0.00     0.293 HD
ENDBRANCH   8  24
TORSDOF 5
ENDMDL
MODEL 4
REMARK VINA RESULT:    -1.866      1.818      6.997
REMARK INTER + INTRA:          -2.431
REMARK INTER:                  -2.276
REMARK INTRA:                  -0.155
REMARK UNBOUND:                -0.238
REMARK SMILES O=c1c(O)c(-c2ccc(O)cc2)oc2cc(O)cc(O)c12
REMARK SMILES IDX 5 1 3 2 2 3 1 4 21 5 19 6 18 7 16 8 15 9 14 10 13 11 6 12
REMARK SMILES IDX 7 13 8 14 9 15 12 16 11 17 10 18 4 20 20 22 17 24
REMARK H PARENT 10 19 4 21 20 23 17 25
REMARK Flexibility Score: inf
ROOT
ATOM      1  C   UNL     1       4.500  11.111   7.085  1.00  0.00     0.180 A 
ATOM      2  C   UNL     1       4.248  10.849   5.728  1.00  0.00     0.208 A 
ATOM      3  C   UNL     1       5.278  11.050   4.793  1.00  0.00     0.238 A 
ATOM      4  O   UNL     1       5.030  10.866   3.572  1.00  0.00    -0.285 OA
ATOM      5  C   UNL     1       6.549  11.493   5.230  1.00  0.00     0.111 A 
ATOM      6  C   UNL     1       7.675  11.692   4.375  1.00  0.00     0.134 A 
ATOM      7  C   UNL     1       8.846  12.258   4.897  1.00  0.00     0.093 A 
ATOM      8  C   UNL     1       8.951  12.573   6.254  1.00  0.00     0.123 A 
ATOM      9  C   UNL     1       7.877  12.328   7.106  1.00  0.00     0.094 A 
ATOM     10  C   UNL     1       6.684  11.798   6.609  1.00  0.00     0.146 A 
ATOM     11  O   UNL     1       5.683  11.589   7.455  1.00  0.00    -0.452 OA
ENDROOT
BRANCH   1  12
ATOM     12  C   UNL     1       3.474  10.900   8.131  1.00  0.00     0.021 A 
ATOM     13  C   UNL     1       3.625   9.906   9.116  1.00  0.00     0.016 A 
ATOM     14  C   UNL     1       2.654   9.742  10.109  1.00  0.00     0.047 A 
ATOM     15  C   UNL     1       1.528  10.575  10.138  1.00  0.00     0.115 A 
ATOM     16  C   UNL     1       2.351  11.745   8.181  1.00  0.00     0.016 A 
ATOM     17  C   UNL     1       1.382  11.577   9.174  1.00  0.00     0.047 A 
BRANCH  15  18
ATOM     18  O   UNL     1       0.554  10.419  11.122  1.00  0.00    -0.508 OA
ATOM     19  H   UNL     1       0.376  11.141  11.810  1.00  0.00     0.293 HD
ENDBRANCH  15  18
ENDBRANCH   1  12
BRANCH   2  20
ATOM     20  O   UNL     1       2.980  10.433   5.314  1.00  0.00    -0.502 OA
ATOM     21  H   UNL     1       2.788   9.484   5.018  1.00  0.00     0.293 HD
ENDBRANCH   2  20
BRANCH   6  22
ATOM     22  O   UNL     1       7.706  11.326   3.027  1.00  0.00    -0.507 OA
ATOM     23  H   UNL     1       8.296  11.752   2.329  1.00  0.00     0.293 HD
ENDBRANCH   6  22
BRANCH   8  24
ATOM     24  O   UNL     1      10.125  13.122   6.767  1.00  0.00    -0.508 OA
ATOM     25  H   UNL     1      10.106  13.818   7.504  1.00  0.00     0.293 HD
ENDBRANCH   8  24
TORSDOF 5
ENDMDL
