MODEL 1
REMARK VINA RESULT:    -4.340      0.000      0.000
REMARK INTER + INTRA:          -7.935
REMARK INTER:                  -6.370
REMARK INTRA:                  -1.565
REMARK UNBOUND:                -1.565
REMARK SMILES CC(C)COC(=O)c1ccccc1C(=O)OCC(C)C
REMARK SMILES IDX 8 1 9 2 10 3 11 4 12 5 13 6 6 7 7 8 5 9 4 10 2 11 1 12 3 13
REMARK SMILES IDX 14 14 15 15 16 16 17 17 18 18 19 19 20 20
REMARK H PARENT
REMARK Flexibility Score: inf
ROOT
ATOM      1  C   UNL     1      -5.098  31.707  47.057  1.00  0.00     0.074 A 
ATOM      2  C   UNL     1      -4.047  32.432  47.650  1.00  0.00     0.016 A 
ATOM      3  C   UNL     1      -4.305  33.594  48.379  1.00  0.00     0.001 A 
ATOM      4  C   UNL     1      -5.613  34.050  48.527  1.00  0.00     0.001 A 
ATOM      5  C   UNL     1      -6.671  33.334  47.965  1.00  0.00     0.016 A 
ATOM      6  C   UNL     1      -6.437  32.148  47.246  1.00  0.00     0.074 A 
ENDROOT
BRANCH   1   7
ATOM      7  C   UNL     1      -4.753  30.554  46.193  1.00  0.00     0.339 C 
ATOM      8  O   UNL     1      -4.547  30.734  44.961  1.00  0.00    -0.246 OA
BRANCH   7   9
ATOM      9  O   UNL     1      -4.707  29.264  46.735  1.00  0.00    -0.462 OA
BRANCH   9  10
ATOM     10  C   UNL     1      -4.876  28.076  45.962  1.00  0.00     0.236 C 
BRANCH  10  11
ATOM     11  C   UNL     1      -6.244  27.428  46.235  1.00  0.00     0.021 C 
ATOM     12  C   UNL     1      -6.110  25.909  46.406  1.00  0.00     0.011 C 
ATOM     13  C   UNL     1      -7.224  27.750  45.100  1.00  0.00     0.011 C 
ENDBRANCH  10  11
ENDBRANCH   9  10
ENDBRANCH   7   9
ENDBRANCH   1   7
BRANCH   6  14
ATOM     14  C   UNL     1      -7.610  31.382  46.773  1.00  0.00     0.339 C 
ATOM     15  O   UNL     1      -7.958  30.321  47.361  1.00  0.00    -0.246 OA
BRANCH  14  16
ATOM     16  O   UNL     1      -8.363  31.870  45.701  1.00  0.00    -0.462 OA
BRANCH  16  17
ATOM     17  C   UNL     1      -7.793  32.161  44.427  1.00  0.00     0.236 C 
BRANCH  17  18
ATOM     18  C   UNL     1      -7.878  33.668  44.147  1.00  0.00     0.021 C 
ATOM     19  C   UNL     1      -8.919  34.340  45.052  1.00  0.00     0.011 C 
ATOM     20  C   UNL     1      -6.505  34.325  44.335  1.00  0.00     0.011 C 
ENDBRANCH  17  18
ENDBRANCH  16  17
ENDBRANCH  14  16
ENDBRANCH   6  14
TORSDOF 8
ENDMDL
MODEL 2
REMARK VINA RESULT:    -4.313      0.162      5.076
REMARK INTER + INTRA:          -7.896
REMARK INTER:                  -6.378
REMARK INTRA:                  -1.518
REMARK UNBOUND:                -1.565
REMARK SMILES CC(C)COC(=O)c1ccccc1C(=O)OCC(C)C
REMARK SMILES IDX 8 1 9 2 10 3 11 4 12 5 13 6 6 7 7 8 5 9 4 10 2 11 1 12 3 13
REMARK SMILES IDX 14 14 15 15 16 16 17 17 18 18 19 19 20 20
REMARK H PARENT
REMARK Flexibility Score: inf
ROOT
ATOM      1  C   UNL     1      -6.434  32.217  47.195  1.00  0.00     0.074 A 
ATOM      2  C   UNL     1      -6.660  33.427  47.879  1.00  0.00     0.016 A 
ATOM      3  C   UNL     1      -5.600  34.133  48.448  1.00  0.00     0.001 A 
ATOM      4  C   UNL     1      -4.300  33.642  48.347  1.00  0.00     0.001 A 
ATOM      5  C   UNL     1      -4.052  32.456  47.656  1.00  0.00     0.016 A 
ATOM      6  C   UNL     1      -5.102  31.741  47.054  1.00  0.00     0.074 A 
ENDROOT
BRANCH   1   7
ATOM      7  C   UNL     1      -7.610  31.451  46.720  1.00  0.00     0.339 C 
ATOM      8  O   UNL     1      -7.992  30.431  47.356  1.00  0.00    -0.246 OA
BRANCH   7   9
ATOM      9  O   UNL     1      -8.262  31.833  45.540  1.00  0.00    -0.462 OA
BRANCH   9  10
ATOM     10  C   UNL     1      -7.580  32.301  44.378  1.00  0.00     0.236 C 
BRANCH  10  11
ATOM     11  C   UNL     1      -7.921  33.775  44.092  1.00  0.00     0.021 C 
ATOM     12  C   UNL     1      -6.722  34.685  44.385  1.00  0.00     0.011 C 
ATOM     13  C   UNL     1      -9.135  34.211  44.920  1.00  0.00     0.011 C 
ENDBRANCH  10  11
ENDBRANCH   9  10
ENDBRANCH   7   9
ENDBRANCH   1   7
BRANCH   6  14
ATOM     14  C   UNL     1      -4.756  30.552  46.244  1.00  0.00     0.339 C 
ATOM     15  O   UNL     1      -4.427  30.680  45.032  1.00  0.00    -0.246 OA
BRANCH  14  16
ATOM     16  O   UNL     1      -4.743  29.290  46.846  1.00  0.00    -0.462 OA
BRANCH  16  17
ATOM     17  C   UNL     1      -4.849  28.080  46.102  1.00  0.00     0.236 C 
BRANCH  17  18
ATOM     18  C   UNL     1      -6.243  27.465  46.295  1.00  0.00     0.021 C 
ATOM     19  C   UNL     1      -7.183  27.858  45.147  1.00  0.00     0.011 C 
ATOM     20  C   UNL     1      -6.144  25.939  46.403  1.00  0.00     0.011 C 
ENDBRANCH  17  18
ENDBRANCH  16  17
ENDBRANCH  14  16
ENDBRANCH   6  14
TORSDOF 8
ENDMDL
MODEL 3
REMARK VINA RESULT:    -4.266      1.851      4.960
REMARK INTER + INTRA:          -7.826
REMARK INTER:                  -6.397
REMARK INTRA:                  -1.430
REMARK UNBOUND:                -1.565
REMARK SMILES CC(C)COC(=O)c1ccccc1C(=O)OCC(C)C
REMARK SMILES IDX 8 1 9 2 10 3 11 4 12 5 13 6 6 7 7 8 5 9 4 10 2 11 1 12 3 13
REMARK SMILES IDX 14 14 15 15 16 16 17 17 18 18 19 19 20 20
REMARK H PARENT
REMARK Flexibility Score: inf
ROOT
ATOM      1  C   UNL     1      -7.165  28.922  45.586  1.00  0.00     0.074 A 
ATOM      2  C   UNL     1      -7.574  27.602  45.316  1.00  0.00     0.016 A 
ATOM      3  C   UNL     1      -6.784  26.518  45.700  1.00  0.00     0.001 A 
ATOM      4  C   UNL     1      -5.574  26.733  46.358  1.00  0.00     0.001 A 
ATOM      5  C   UNL     1      -5.161  28.033  46.654  1.00  0.00     0.016 A 
ATOM      6  C   UNL     1      -5.952  29.139  46.297  1.00  0.00     0.074 A 
ENDROOT
BRANCH   1   7
ATOM      7  C   UNL     1      -7.982  30.033  45.045  1.00  0.00     0.339 C 
ATOM      8  O   UNL     1      -9.058  30.356  45.618  1.00  0.00    -0.246 OA
BRANCH   7   9
ATOM      9  O   UNL     1      -7.583  30.687  43.872  1.00  0.00    -0.462 OA
BRANCH   9  10
ATOM     10  C   UNL     1      -7.075  30.009  42.724  1.00  0.00     0.236 C 
BRANCH  10  11
ATOM     11  C   UNL     1      -5.655  30.492  42.379  1.00  0.00     0.021 C 
ATOM     12  C   UNL     1      -4.596  29.524  42.921  1.00  0.00     0.011 C 
ATOM     13  C   UNL     1      -5.421  31.902  42.935  1.00  0.00     0.011 C 
ENDBRANCH  10  11
ENDBRANCH   9  10
ENDBRANCH   7   9
ENDBRANCH   1   7
BRANCH   6  14
ATOM     14  C   UNL     1      -5.509  30.479  46.738  1.00  0.00     0.339 C 
ATOM     15  O   UNL     1      -4.554  31.060  46.152  1.00  0.00    -0.246 OA
BRANCH  14  16
ATOM     16  O   UNL     1      -6.191  31.122  47.775  1.00  0.00    -0.462 OA
BRANCH  16  17
ATOM     17  C   UNL     1      -6.532  32.505  47.734  1.00  0.00     0.236 C 
BRANCH  17  18
ATOM     18  C   UNL     1      -5.832  33.253  48.878  1.00  0.00     0.021 C 
ATOM     19  C   UNL     1      -4.422  33.697  48.465  1.00  0.00     0.011 C 
ATOM     20  C   UNL     1      -6.665  34.464  49.314  1.00  0.00     0.011 C 
ENDBRANCH  17  18
ENDBRANCH  16  17
ENDBRANCH  14  16
ENDBRANCH   6  14
TORSDOF 8
ENDMDL
MODEL 4
REMARK VINA RESULT:    -4.232      1.353      4.736
REMARK INTER + INTRA:          -7.776
REMARK INTER:                  -6.465
REMARK INTRA:                  -1.311
REMARK UNBOUND:                -1.565
REMARK SMILES CC(C)COC(=O)c1ccccc1C(=O)OCC(C)C
REMARK SMILES IDX 8 1 9 2 10 3 11 4 12 5 13 6 6 7 7 8 5 9 4 10 2 11 1 12 3 13
REMARK SMILES IDX 14 14 15 15 16 16 17 17 18 18 19 19 20 20
REMARK H PARENT
REMARK Flexibility Score: inf
ROOT
ATOM      1  C   UNL     1      -5.906  29.533  46.097  1.00  0.00     0.074 A 
ATOM      2  C   UNL     1      -5.274  28.391  46.625  1.00  0.00     0.016 A 
ATOM      3  C   UNL     1      -5.845  27.127  46.473  1.00  0.00     0.001 A 
ATOM      4  C   UNL     1      -7.054  26.982  45.796  1.00  0.00     0.001 A 
ATOM      5  C   UNL     1      -7.686  28.099  45.248  1.00  0.00     0.016 A 
ATOM      6  C   UNL     1      -7.117  29.380  45.368  1.00  0.00     0.074 A 
ENDROOT
BRANCH   1   7
ATOM      7  C   UNL     1      -5.318  30.860  46.396  1.00  0.00     0.339 C 
ATOM      8  O   UNL     1      -4.405  31.321  45.658  1.00  0.00    -0.246 OA
BRANCH   7   9
ATOM      9  O   UNL     1      -5.741  31.574  47.524  1.00  0.00    -0.462 OA
BRANCH   9  10
ATOM     10  C   UNL     1      -5.071  32.730  48.023  1.00  0.00     0.236 C 
BRANCH  10  11
ATOM     11  C   UNL     1      -6.059  33.686  48.717  1.00  0.00     0.021 C 
ATOM     12  C   UNL     1      -5.877  35.125  48.217  1.00  0.00     0.011 C 
ATOM     13  C   UNL     1      -5.879  33.625  50.239  1.00  0.00     0.011 C 
ENDBRANCH  10  11
ENDBRANCH   9  10
ENDBRANCH   7   9
ENDBRANCH   1   7
BRANCH   6  14
ATOM     14  C   UNL     1      -7.782  30.501  44.670  1.00  0.00     0.339 C 
ATOM     15  O   UNL     1      -7.631  30.657  43.427  1.00  0.00    -0.246 OA
BRANCH  14  16
ATOM     16  O   UNL     1      -8.623  31.357  45.388  1.00  0.00    -0.462 OA
BRANCH  16  17
ATOM     17  C   UNL     1      -8.970  32.660  44.929  1.00  0.00     0.236 C 
BRANCH  17  18
ATOM     18  C   UNL     1      -8.052  33.707  45.577  1.00  0.00     0.021 C 
ATOM     19  C   UNL     1      -6.775  33.907  44.749  1.00  0.00     0.011 C 
ATOM     20  C   UNL     1      -8.793  35.039  45.744  1.00  0.00     0.011 C 
ENDBRANCH  17  18
ENDBRANCH  16  17
ENDBRANCH  14  16
ENDBRANCH   6  14
TORSDOF 8
ENDMDL
MODEL 5
REMARK VINA RESULT:    -4.232      1.427      4.439
REMARK INTER + INTRA:          -7.776
REMARK INTER:                  -6.394
REMARK INTRA:                  -1.383
REMARK UNBOUND:                -1.565
REMARK SMILES CC(C)COC(=O)c1ccccc1C(=O)OCC(C)C
REMARK SMILES IDX 8 1 9 2 10 3 11 4 12 5 13 6 6 7 7 8 5 9 4 10 2 11 1 12 3 13
REMARK SMILES IDX 14 14 15 15 16 16 17 17 18 18 19 19 20 20
REMARK H PARENT
REMARK Flexibility Score: inf
ROOT
ATOM      1  C   UNL     1      -6.348  32.280  47.138  1.00  0.00     0.074 A 
ATOM      2  C   UNL     1      -6.555  33.428  47.926  1.00  0.00     0.016 A 
ATOM      3  C   UNL     1      -5.480  34.084  48.526  1.00  0.00     0.001 A 
ATOM      4  C   UNL     1      -4.184  33.604  48.353  1.00  0.00     0.001 A 
ATOM      5  C   UNL     1      -3.955  32.480  47.559  1.00  0.00     0.016 A 
ATOM      6  C   UNL     1      -5.021  31.817  46.925  1.00  0.00     0.074 A 
ENDROOT
BRANCH   1   7
ATOM      7  C   UNL     1      -7.537  31.556  46.630  1.00  0.00     0.339 C 
ATOM      8  O   UNL     1      -8.052  30.635  47.320  1.00  0.00    -0.246 OA
BRANCH   7   9
ATOM      9  O   UNL     1      -8.053  31.863  45.364  1.00  0.00    -0.462 OA
BRANCH   9  10
ATOM     10  C   UNL     1      -8.724  30.915  44.535  1.00  0.00     0.236 C 
BRANCH  10  11
ATOM     11  C   UNL     1      -7.843  29.679  44.281  1.00  0.00     0.021 C 
ATOM     12  C   UNL     1      -7.328  29.657  42.837  1.00  0.00     0.011 C 
ATOM     13  C   UNL     1      -8.625  28.395  44.587  1.00  0.00     0.011 C 
ENDBRANCH  10  11
ENDBRANCH   9  10
ENDBRANCH   7   9
ENDBRANCH   1   7
BRANCH   6  14
ATOM     14  C   UNL     1      -4.697  30.701  46.010  1.00  0.00     0.339 C 
ATOM     15  O   UNL     1      -4.586  30.905  44.770  1.00  0.00    -0.246 OA
BRANCH  14  16
ATOM     16  O   UNL     1      -4.461  29.427  46.537  1.00  0.00    -0.462 OA
BRANCH  16  17
ATOM     17  C   UNL     1      -5.499  28.475  46.746  1.00  0.00     0.236 C 
BRANCH  17  18
ATOM     18  C   UNL     1      -5.130  27.140  46.083  1.00  0.00     0.021 C 
ATOM     19  C   UNL     1      -6.216  26.084  46.327  1.00  0.00     0.011 C 
ATOM     20  C   UNL     1      -4.904  27.335  44.578  1.00  0.00     0.011 C 
ENDBRANCH  17  18
ENDBRANCH  16  17
ENDBRANCH  14  16
ENDBRANCH   6  14
TORSDOF 8
ENDMDL
MODEL 6
REMARK VINA RESULT:    -4.223      2.139      5.603
REMARK INTER + INTRA:          -7.764
REMARK INTER:                  -6.054
REMARK INTRA:                  -1.710
REMARK UNBOUND:                -1.565
REMARK SMILES CC(C)COC(=O)c1ccccc1C(=O)OCC(C)C
REMARK SMILES IDX 8 1 9 2 10 3 11 4 12 5 13 6 6 7 7 8 5 9 4 10 2 11 1 12 3 13
REMARK SMILES IDX 14 14 15 15 16 16 17 17 18 18 19 19 20 20
REMARK H PARENT
REMARK Flexibility Score: inf
ROOT
ATOM      1  C   UNL     1      -6.008  30.419  46.280  1.00  0.00     0.074 A 
ATOM      2  C   UNL     1      -7.089  30.593  47.164  1.00  0.00     0.016 A 
ATOM      3  C   UNL     1      -8.397  30.338  46.750  1.00  0.00     0.001 A 
ATOM      4  C   UNL     1      -8.647  29.909  45.449  1.00  0.00     0.001 A 
ATOM      5  C   UNL     1      -7.588  29.710  44.562  1.00  0.00     0.016 A 
ATOM      6  C   UNL     1      -6.260  29.938  44.965  1.00  0.00     0.074 A 
ENDROOT
BRANCH   1   7
ATOM      7  C   UNL     1      -4.658  30.823  46.736  1.00  0.00     0.339 C 
ATOM      8  O   UNL     1      -3.875  29.960  47.220  1.00  0.00    -0.246 OA
BRANCH   7   9
ATOM      9  O   UNL     1      -4.273  32.169  46.675  1.00  0.00    -0.462 OA
BRANCH   9  10
ATOM     10  C   UNL     1      -3.910  32.938  47.820  1.00  0.00     0.236 C 
BRANCH  10  11
ATOM     11  C   UNL     1      -4.981  33.997  48.138  1.00  0.00     0.021 C 
ATOM     12  C   UNL     1      -5.756  33.632  49.411  1.00  0.00     0.011 C 
ATOM     13  C   UNL     1      -5.945  34.153  46.956  1.00  0.00     0.011 C 
ENDBRANCH  10  11
ENDBRANCH   9  10
ENDBRANCH   7   9
ENDBRANCH   1   7
BRANCH   6  14
ATOM     14  C   UNL     1      -5.180  29.602  44.013  1.00  0.00     0.339 C 
ATOM     15  O   UNL     1      -4.566  30.516  43.396  1.00  0.00    -0.246 OA
BRANCH  14  16
ATOM     16  O   UNL     1      -4.806  28.266  43.840  1.00  0.00    -0.462 OA
BRANCH  16  17
ATOM     17  C   UNL     1      -4.495  27.405  44.932  1.00  0.00     0.236 C 
BRANCH  17  18
ATOM     18  C   UNL     1      -5.525  26.268  45.013  1.00  0.00     0.021 C 
ATOM     19  C   UNL     1      -6.529  26.515  46.147  1.00  0.00     0.011 C 
ATOM     20  C   UNL     1      -6.259  26.114  43.676  1.00  0.00     0.011 C 
ENDBRANCH  17  18
ENDBRANCH  16  17
ENDBRANCH  14  16
ENDBRANCH   6  14
TORSDOF 8
ENDMDL
MODEL 7
REMARK VINA RESULT:    -4.217      1.924      5.253
REMARK INTER + INTRA:          -7.755
REMARK INTER:                  -6.261
REMARK INTRA:                  -1.494
REMARK UNBOUND:                -1.565
REMARK SMILES CC(C)COC(=O)c1ccccc1C(=O)OCC(C)C
REMARK SMILES IDX 8 1 9 2 10 3 11 4 12 5 13 6 6 7 7 8 5 9 4 10 2 11 1 12 3 13
REMARK SMILES IDX 14 14 15 15 16 16 17 17 18 18 19 19 20 20
REMARK H PARENT
REMARK Flexibility Score: inf
ROOT
ATOM      1  C   UNL     1      -6.061  29.206  46.177  1.00  0.00     0.074 A 
ATOM      2  C   UNL     1      -5.151  28.215  46.589  1.00  0.00     0.016 A 
ATOM      3  C   UNL     1      -5.454  26.861  46.434  1.00  0.00     0.001 A 
ATOM      4  C   UNL     1      -6.668  26.476  45.869  1.00  0.00     0.001 A 
ATOM      5  C   UNL     1      -7.575  27.444  45.435  1.00  0.00     0.016 A 
ATOM      6  C   UNL     1      -7.281  28.814  45.559  1.00  0.00     0.074 A 
ENDROOT
BRANCH   1   7
ATOM      7  C   UNL     1      -5.740  30.621  46.479  1.00  0.00     0.339 C 
ATOM      8  O   UNL     1      -5.033  31.288  45.676  1.00  0.00    -0.246 OA
BRANCH   7   9
ATOM      9  O   UNL     1      -6.181  31.197  47.678  1.00  0.00    -0.462 OA
BRANCH   9  10
ATOM     10  C   UNL     1      -6.581  32.561  47.797  1.00  0.00     0.236 C 
BRANCH  10  11
ATOM     11  C   UNL     1      -5.786  33.276  48.904  1.00  0.00     0.021 C 
ATOM     12  C   UNL     1      -6.544  34.508  49.418  1.00  0.00     0.011 C 
ATOM     13  C   UNL     1      -4.400  33.682  48.389  1.00  0.00     0.011 C 
ENDBRANCH  10  11
ENDBRANCH   9  10
ENDBRANCH   7   9
ENDBRANCH   1   7
BRANCH   6  14
ATOM     14  C   UNL     1      -8.236  29.782  44.979  1.00  0.00     0.339 C 
ATOM     15  O   UNL     1      -9.012  30.438  45.727  1.00  0.00    -0.246 OA
BRANCH  14  16
ATOM     16  O   UNL     1      -8.235  30.006  43.599  1.00  0.00    -0.462 OA
BRANCH  16  17
ATOM     17  C   UNL     1      -7.135  30.598  42.914  1.00  0.00     0.236 C 
BRANCH  17  18
ATOM     18  C   UNL     1      -6.460  29.559  42.007  1.00  0.00     0.021 C 
ATOM     19  C   UNL     1      -5.130  29.085  42.607  1.00  0.00     0.011 C 
ATOM     20  C   UNL     1      -7.394  28.366  41.773  1.00  0.00     0.011 C 
ENDBRANCH  17  18
ENDBRANCH  16  17
ENDBRANCH  14  16
ENDBRANCH   6  14
TORSDOF 8
ENDMDL
MODEL 8
REMARK VINA RESULT:    -4.216      1.015      1.407
REMARK INTER + INTRA:          -7.753
REMARK INTER:                  -6.450
REMARK INTRA:                  -1.303
REMARK UNBOUND:                -1.565
REMARK SMILES CC(C)COC(=O)c1ccccc1C(=O)OCC(C)C
REMARK SMILES IDX 8 1 9 2 10 3 11 4 12 5 13 6 6 7 7 8 5 9 4 10 2 11 1 12 3 13
REMARK SMILES IDX 14 14 15 15 16 16 17 17 18 18 19 19 20 20
REMARK H PARENT
REMARK Flexibility Score: inf
ROOT
ATOM      1  C   UNL     1      -5.092  31.690  47.062  1.00  0.00     0.074 A 
ATOM      2  C   UNL     1      -4.021  32.392  47.646  1.00  0.00     0.016 A 
ATOM      3  C   UNL     1      -4.240  33.589  48.328  1.00  0.00     0.001 A 
ATOM      4  C   UNL     1      -5.530  34.106  48.435  1.00  0.00     0.001 A 
ATOM      5  C   UNL     1      -6.608  33.415  47.881  1.00  0.00     0.016 A 
ATOM      6  C   UNL     1      -6.413  32.195  47.210  1.00  0.00     0.074 A 
ENDROOT
BRANCH   1   7
ATOM      7  C   UNL     1      -4.782  30.492  46.246  1.00  0.00     0.339 C 
ATOM      8  O   UNL     1      -4.503  30.622  45.023  1.00  0.00    -0.246 OA
BRANCH   7   9
ATOM      9  O   UNL     1      -4.850  29.218  46.824  1.00  0.00    -0.462 OA
BRANCH   9  10
ATOM     10  C   UNL     1      -4.958  28.013  46.067  1.00  0.00     0.236 C 
BRANCH  10  11
ATOM     11  C   UNL     1      -6.316  27.328  46.308  1.00  0.00     0.021 C 
ATOM     12  C   UNL     1      -6.148  25.810  46.452  1.00  0.00     0.011 C 
ATOM     13  C   UNL     1      -7.286  27.650  45.166  1.00  0.00     0.011 C 
ENDBRANCH  10  11
ENDBRANCH   9  10
ENDBRANCH   7   9
ENDBRANCH   1   7
BRANCH   6  14
ATOM     14  C   UNL     1      -7.610  31.461  46.744  1.00  0.00     0.339 C 
ATOM     15  O   UNL     1      -7.958  30.386  47.306  1.00  0.00    -0.246 OA
BRANCH  14  16
ATOM     16  O   UNL     1      -8.385  31.996  45.710  1.00  0.00    -0.462 OA
BRANCH  16  17
ATOM     17  C   UNL     1      -8.793  31.232  44.579  1.00  0.00     0.236 C 
BRANCH  17  18
ATOM     18  C   UNL     1      -7.605  31.024  43.629  1.00  0.00     0.021 C 
ATOM     19  C   UNL     1      -8.025  30.224  42.388  1.00  0.00     0.011 C 
ATOM     20  C   UNL     1      -7.008  32.374  43.214  1.00  0.00     0.011 C 
ENDBRANCH  17  18
ENDBRANCH  16  17
ENDBRANCH  14  16
ENDBRANCH   6  14
TORSDOF 8
ENDMDL
MODEL 9
REMARK VINA RESULT:    -4.144      2.209      3.822
REMARK INTER + INTRA:          -7.648
REMARK INTER:                  -6.029
REMARK INTRA:                  -1.619
REMARK UNBOUND:                -1.565
REMARK SMILES CC(C)COC(=O)c1ccccc1C(=O)OCC(C)C
REMARK SMILES IDX 8 1 9 2 10 3 11 4 12 5 13 6 6 7 7 8 5 9 4 10 2 11 1 12 3 13
REMARK SMILES IDX 14 14 15 15 16 16 17 17 18 18 19 19 20 20
REMARK H PARENT
REMARK Flexibility Score: inf
ROOT
ATOM      1  C   UNL     1      -6.257  30.065  44.845  1.00  0.00     0.074 A 
ATOM      2  C   UNL     1      -7.513  29.687  44.332  1.00  0.00     0.016 A 
ATOM      3  C   UNL     1      -8.659  29.766  45.123  1.00  0.00     0.001 A 
ATOM      4  C   UNL     1      -8.572  30.220  46.437  1.00  0.00     0.001 A 
ATOM      5  C   UNL     1      -7.340  30.620  46.958  1.00  0.00     0.016 A 
ATOM      6  C   UNL     1      -6.176  30.571  46.171  1.00  0.00     0.074 A 
ENDROOT
BRANCH   1   7
ATOM      7  C   UNL     1      -5.060  29.842  44.001  1.00  0.00     0.339 C 
ATOM      8  O   UNL     1      -4.521  30.817  43.409  1.00  0.00    -0.246 OA
BRANCH   7   9
ATOM      9  O   UNL     1      -4.561  28.545  43.824  1.00  0.00    -0.462 OA
BRANCH   9  10
ATOM     10  C   UNL     1      -4.117  27.718  44.898  1.00  0.00     0.236 C 
BRANCH  10  11
ATOM     11  C   UNL     1      -5.080  26.538  45.123  1.00  0.00     0.021 C 
ATOM     12  C   UNL     1      -5.918  26.264  43.867  1.00  0.00     0.011 C 
ATOM     13  C   UNL     1      -5.994  26.817  46.321  1.00  0.00     0.011 C 
ENDBRANCH  10  11
ENDBRANCH   9  10
ENDBRANCH   7   9
ENDBRANCH   1   7
BRANCH   6  14
ATOM     14  C   UNL     1      -4.927  31.112  46.749  1.00  0.00     0.339 C 
ATOM     15  O   UNL     1      -4.020  30.333  47.151  1.00  0.00    -0.246 OA
BRANCH  14  16
ATOM     16  O   UNL     1      -4.734  32.497  46.796  1.00  0.00    -0.462 OA
BRANCH  16  17
ATOM     17  C   UNL     1      -4.587  33.214  48.018  1.00  0.00     0.236 C 
BRANCH  17  18
ATOM     18  C   UNL     1      -5.955  33.386  48.694  1.00  0.00     0.021 C 
ATOM     19  C   UNL     1      -5.796  33.805  50.161  1.00  0.00     0.011 C 
ATOM     20  C   UNL     1      -6.801  34.416  47.935  1.00  0.00     0.011 C 
ENDBRANCH  17  18
ENDBRANCH  16  17
ENDBRANCH  14  16
ENDBRANCH   6  14
TORSDOF 8
ENDMDL
