MODEL 1
REMARK VINA RESULT:    -3.004      0.000      0.000
REMARK INTER + INTRA:          -3.411
REMARK INTER:                  -3.355
REMARK INTRA:                  -0.055
REMARK UNBOUND:                -0.055
REMARK SMILES CCCC(=O)[O-]
REMARK SMILES IDX 3 1 4 2 5 3 6 4 2 5 1 6
REMARK H PARENT
REMARK Flexibility Score: inf
ROOT
ATOM      1  C   UNL     1      16.670 -21.339  23.064  1.00  0.00     0.052 C 
ENDROOT
BRANCH   1   2
ATOM      2  C   UNL     1      15.829 -21.055  24.268  1.00  0.00     0.041 C 
ATOM      3  O   UNL     1      16.019 -21.692  25.338  1.00  0.00    -0.550 OA
ATOM      4  O   UNL     1      14.868 -20.054  24.225  1.00  0.00    -0.550 OA
ENDBRANCH   1   2
BRANCH   1   5
ATOM      5  C   UNL     1      15.829 -21.244  21.789  1.00  0.00     0.003 C 
ATOM      6  C   UNL     1      14.916 -22.458  21.639  1.00  0.00     0.004 C 
ENDBRANCH   1   5
TORSDOF 2
ENDMDL
MODEL 2
REMARK VINA RESULT:    -2.985      0.785      1.673
REMARK INTER + INTRA:          -3.389
REMARK INTER:                  -3.357
REMARK INTRA:                  -0.032
REMARK UNBOUND:                -0.055
REMARK SMILES CCCC(=O)[O-]
REMARK SMILES IDX 3 1 4 2 5 3 6 4 2 5 1 6
REMARK H PARENT
REMARK Flexibility Score: inf
ROOT
ATOM      1  C   UNL     1      16.842 -21.209  23.453  1.00  0.00     0.052 C 
ENDROOT
BRANCH   1   2
ATOM      2  C   UNL     1      15.830 -21.165  24.555  1.00  0.00     0.041 C 
ATOM      3  O   UNL     1      14.756 -20.524  24.403  1.00  0.00    -0.550 OA
ATOM      4  O   UNL     1      16.051 -21.869  25.731  1.00  0.00    -0.550 OA
ENDBRANCH   1   2
BRANCH   1   5
ATOM      5  C   UNL     1      16.196 -21.690  22.152  1.00  0.00     0.003 C 
ATOM      6  C   UNL     1      16.078 -20.551  21.142  1.00  0.00     0.004 C 
ENDBRANCH   1   5
TORSDOF 2
ENDMDL
MODEL 3
REMARK VINA RESULT:    -2.976      2.194      3.035
REMARK INTER + INTRA:          -3.379
REMARK INTER:                  -3.316
REMARK INTRA:                  -0.063
REMARK UNBOUND:                -0.055
REMARK SMILES CCCC(=O)[O-]
REMARK SMILES IDX 3 1 4 2 5 3 6 4 2 5 1 6
REMARK H PARENT
REMARK Flexibility Score: inf
ROOT
ATOM      1  C   UNL     1      16.724 -21.228  23.575  1.00  0.00     0.052 C 
ENDROOT
BRANCH   1   2
ATOM      2  C   UNL     1      16.221 -21.304  22.167  1.00  0.00     0.041 C 
ATOM      3  O   UNL     1      16.519 -20.403  21.339  1.00  0.00    -0.550 OA
ATOM      4  O   UNL     1      15.463 -22.393  21.757  1.00  0.00    -0.550 OA
ENDBRANCH   1   2
BRANCH   1   5
ATOM      5  C   UNL     1      15.554 -21.224  24.562  1.00  0.00     0.003 C 
ATOM      6  C   UNL     1      14.597 -20.070  24.278  1.00  0.00     0.004 C 
ENDBRANCH   1   5
TORSDOF 2
ENDMDL
MODEL 4
REMARK VINA RESULT:    -2.916      1.647      2.173
REMARK INTER + INTRA:          -3.313
REMARK INTER:                  -3.268
REMARK INTRA:                  -0.044
REMARK UNBOUND:                -0.055
REMARK SMILES CCCC(=O)[O-]
REMARK SMILES IDX 3 1 4 2 5 3 6 4 2 5 1 6
REMARK H PARENT
REMARK Flexibility Score: inf
ROOT
ATOM      1  C   UNL     1      15.119 -21.721  21.264  1.00  0.00     0.052 C 
ENDROOT
BRANCH   1   2
ATOM      2  C   UNL     1      15.760 -21.521  22.601  1.00  0.00     0.041 C 
ATOM      3  O   UNL     1      17.005 -21.351  22.687  1.00  0.00    -0.550 OA
ATOM      4  O   UNL     1      14.978 -21.476  23.748  1.00  0.00    -0.550 OA
ENDBRANCH   1   2
BRANCH   1   5
ATOM      5  C   UNL     1      13.931 -22.679  21.377  1.00  0.00     0.003 C 
ATOM      6  C   UNL     1      14.360 -24.121  21.121  1.00  0.00     0.004 C 
ENDBRANCH   1   5
TORSDOF 2
ENDMDL
MODEL 5
REMARK VINA RESULT:    -2.898      2.272      2.797
REMARK INTER + INTRA:          -3.292
REMARK INTER:                  -3.223
REMARK INTRA:                  -0.069
REMARK UNBOUND:                -0.055
REMARK SMILES CCCC(=O)[O-]
REMARK SMILES IDX 3 1 4 2 5 3 6 4 2 5 1 6
REMARK H PARENT
REMARK Flexibility Score: inf
ROOT
ATOM      1  C   UNL     1      14.508 -21.949  22.462  1.00  0.00     0.052 C 
ENDROOT
BRANCH   1   2
ATOM      2  C   UNL     1      15.775 -21.510  21.798  1.00  0.00     0.041 C 
ATOM      3  O   UNL     1      16.885 -21.700  22.363  1.00  0.00    -0.550 OA
ATOM      4  O   UNL     1      15.735 -20.934  20.535  1.00  0.00    -0.550 OA
ENDBRANCH   1   2
BRANCH   1   5
ATOM      5  C   UNL     1      13.651 -22.767  21.493  1.00  0.00     0.003 C 
ATOM      6  C   UNL     1      14.289 -24.123  21.204  1.00  0.00     0.004 C 
ENDBRANCH   1   5
TORSDOF 2
ENDMDL
MODEL 6
REMARK VINA RESULT:    -2.894      1.201      1.983
REMARK INTER + INTRA:          -3.288
REMARK INTER:                  -3.282
REMARK INTRA:                  -0.006
REMARK UNBOUND:                -0.055
REMARK SMILES CCCC(=O)[O-]
REMARK SMILES IDX 3 1 4 2 5 3 6 4 2 5 1 6
REMARK H PARENT
REMARK Flexibility Score: inf
ROOT
ATOM      1  C   UNL     1      15.005 -21.674  22.569  1.00  0.00     0.052 C 
ENDROOT
BRANCH   1   2
ATOM      2  C   UNL     1      14.805 -21.075  23.925  1.00  0.00     0.041 C 
ATOM      3  O   UNL     1      13.868 -20.257  24.125  1.00  0.00    -0.550 OA
ATOM      4  O   UNL     1      15.623 -21.455  24.981  1.00  0.00    -0.550 OA
ENDBRANCH   1   2
BRANCH   1   5
ATOM      5  C   UNL     1      13.795 -22.525  22.176  1.00  0.00     0.003 C 
ATOM      6  C   UNL     1      14.197 -23.651  21.228  1.00  0.00     0.004 C 
ENDBRANCH   1   5
TORSDOF 2
ENDMDL
MODEL 7
REMARK VINA RESULT:    -2.842      1.661      2.181
REMARK INTER + INTRA:          -3.230
REMARK INTER:                  -3.175
REMARK INTRA:                  -0.055
REMARK UNBOUND:                -0.055
REMARK SMILES CCCC(=O)[O-]
REMARK SMILES IDX 3 1 4 2 5 3 6 4 2 5 1 6
REMARK H PARENT
REMARK Flexibility Score: inf
ROOT
ATOM      1  C   UNL     1      15.494 -21.503  24.544  1.00  0.00     0.052 C 
ENDROOT
BRANCH   1   2
ATOM      2  C   UNL     1      14.474 -20.509  24.083  1.00  0.00     0.041 C 
ATOM      3  O   UNL     1      14.557 -19.304  24.443  1.00  0.00    -0.550 OA
ATOM      4  O   UNL     1      13.461 -20.901  23.219  1.00  0.00    -0.550 OA
ENDBRANCH   1   2
BRANCH   1   5
ATOM      5  C   UNL     1      16.846 -21.228  23.882  1.00  0.00     0.003 C 
ATOM      6  C   UNL     1      16.784 -21.475  22.377  1.00  0.00     0.004 C 
ENDBRANCH   1   5
TORSDOF 2
ENDMDL
MODEL 8
REMARK VINA RESULT:    -2.812      2.108      3.077
REMARK INTER + INTRA:          -3.196
REMARK INTER:                  -3.139
REMARK INTRA:                  -0.057
REMARK UNBOUND:                -0.055
REMARK SMILES CCCC(=O)[O-]
REMARK SMILES IDX 3 1 4 2 5 3 6 4 2 5 1 6
REMARK H PARENT
REMARK Flexibility Score: inf
ROOT
ATOM      1  C   UNL     1      15.910 -20.973  21.645  1.00  0.00     0.052 C 
ENDROOT
BRANCH   1   2
ATOM      2  C   UNL     1      14.712 -21.860  21.776  1.00  0.00     0.041 C 
ATOM      3  O   UNL     1      13.610 -21.385  22.159  1.00  0.00    -0.550 OA
ATOM      4  O   UNL     1      14.799 -23.202  21.430  1.00  0.00    -0.550 OA
ENDBRANCH   1   2
BRANCH   1   5
ATOM      5  C   UNL     1      16.991 -21.382  22.649  1.00  0.00     0.003 C 
ATOM      6  C   UNL     1      16.511 -21.190  24.085  1.00  0.00     0.004 C 
ENDBRANCH   1   5
TORSDOF 2
ENDMDL
MODEL 9
REMARK VINA RESULT:    -2.647      2.052      2.936
REMARK INTER + INTRA:          -3.012
REMARK INTER:                  -2.974
REMARK INTRA:                  -0.038
REMARK UNBOUND:                -0.055
REMARK SMILES CCCC(=O)[O-]
REMARK SMILES IDX 3 1 4 2 5 3 6 4 2 5 1 6
REMARK H PARENT
REMARK Flexibility Score: inf
ROOT
ATOM      1  C   UNL     1      14.411 -22.240  21.844  1.00  0.00     0.052 C 
ENDROOT
BRANCH   1   2
ATOM      2  C   UNL     1      13.229 -21.540  22.440  1.00  0.00     0.041 C 
ATOM      3  O   UNL     1      13.397 -20.615  23.277  1.00  0.00    -0.550 OA
ATOM      4  O   UNL     1      11.945 -21.877  22.035  1.00  0.00    -0.550 OA
ENDBRANCH   1   2
BRANCH   1   5
ATOM      5  C   UNL     1      15.541 -21.244  21.573  1.00  0.00     0.003 C 
ATOM      6  C   UNL     1      16.755 -21.536  22.451  1.00  0.00     0.004 C 
ENDBRANCH   1   5
TORSDOF 2
ENDMDL
