MODEL 1
REMARK VINA RESULT:    -3.610      0.000      0.000
REMARK INTER + INTRA:          -4.292
REMARK INTER:                  -4.244
REMARK INTRA:                  -0.049
REMARK UNBOUND:                -0.049
REMARK SMILES CCCCC(=O)[O-]
REMARK SMILES IDX 4 1 5 2 6 3 7 4 3 5 2 6 1 7
REMARK H PARENT
REMARK Flexibility Score: inf
ROOT
ATOM      1  C   UNL     1     -40.557  20.749 -28.234  1.00  0.00     0.053 C 
ENDROOT
BRANCH   1   2
ATOM      2  C   UNL     1     -41.846  21.505 -28.311  1.00  0.00     0.041 C 
ATOM      3  O   UNL     1     -42.890  21.034 -27.788  1.00  0.00    -0.550 OA
ATOM      4  O   UNL     1     -41.906  22.709 -29.004  1.00  0.00    -0.550 OA
ENDBRANCH   1   2
BRANCH   1   5
ATOM      5  C   UNL     1     -39.957  20.573 -29.635  1.00  0.00     0.006 C 
BRANCH   5   6
ATOM      6  C   UNL     1     -39.836  19.097 -30.043  1.00  0.00    -0.003 C 
ATOM      7  C   UNL     1     -40.910  18.672 -31.044  1.00  0.00     0.004 C 
ENDBRANCH   5   6
ENDBRANCH   1   5
TORSDOF 3
ENDMDL
MODEL 2
REMARK VINA RESULT:    -3.571      2.614      3.718
REMARK INTER + INTRA:          -4.246
REMARK INTER:                  -4.188
REMARK INTRA:                  -0.058
REMARK UNBOUND:                -0.049
REMARK SMILES CCCCC(=O)[O-]
REMARK SMILES IDX 4 1 5 2 6 3 7 4 3 5 2 6 1 7
REMARK H PARENT
REMARK Flexibility Score: inf
ROOT
ATOM      1  C   UNL     1     -40.138  20.574 -30.512  1.00  0.00     0.053 C 
ENDROOT
BRANCH   1   2
ATOM      2  C   UNL     1     -40.211  19.080 -30.478  1.00  0.00     0.041 C 
ATOM      3  O   UNL     1     -39.316  18.414 -29.893  1.00  0.00    -0.550 OA
ATOM      4  O   UNL     1     -41.242  18.419 -31.136  1.00  0.00    -0.550 OA
ENDBRANCH   1   2
BRANCH   1   5
ATOM      5  C   UNL     1     -40.145  21.141 -29.087  1.00  0.00     0.006 C 
BRANCH   5   6
ATOM      6  C   UNL     1     -41.420  21.938 -28.776  1.00  0.00    -0.003 C 
ATOM      7  C   UNL     1     -42.440  21.132 -27.972  1.00  0.00     0.004 C 
ENDBRANCH   5   6
ENDBRANCH   1   5
TORSDOF 3
ENDMDL
MODEL 3
REMARK VINA RESULT:    -3.371     16.255     16.737
REMARK INTER + INTRA:          -4.010
REMARK INTER:                  -3.980
REMARK INTRA:                  -0.030
REMARK UNBOUND:                -0.049
REMARK SMILES CCCCC(=O)[O-]
REMARK SMILES IDX 4 1 5 2 6 3 7 4 3 5 2 6 1 7
REMARK H PARENT
REMARK Flexibility Score: inf
ROOT
ATOM      1  C   UNL     1     -55.420  23.752 -36.646  1.00  0.00     0.053 C 
ENDROOT
BRANCH   1   2
ATOM      2  C   UNL     1     -55.813  22.488 -35.949  1.00  0.00     0.041 C 
ATOM      3  O   UNL     1     -55.820  22.433 -34.691  1.00  0.00    -0.550 OA
ATOM      4  O   UNL     1     -56.125  21.354 -36.689  1.00  0.00    -0.550 OA
ENDBRANCH   1   2
BRANCH   1   5
ATOM      5  C   UNL     1     -55.714  23.647 -38.148  1.00  0.00     0.006 C 
BRANCH   5   6
ATOM      6  C   UNL     1     -54.716  24.445 -39.000  1.00  0.00    -0.003 C 
ATOM      7  C   UNL     1     -53.764  23.547 -39.791  1.00  0.00     0.004 C 
ENDBRANCH   5   6
ENDBRANCH   1   5
TORSDOF 3
ENDMDL
MODEL 4
REMARK VINA RESULT:    -3.356      1.288      1.528
REMARK INTER + INTRA:          -3.993
REMARK INTER:                  -3.911
REMARK INTRA:                  -0.082
REMARK UNBOUND:                -0.049
REMARK SMILES CCCCC(=O)[O-]
REMARK SMILES IDX 4 1 5 2 6 3 7 4 3 5 2 6 1 7
REMARK H PARENT
REMARK Flexibility Score: inf
ROOT
ATOM      1  C   UNL     1     -41.441  21.109 -28.474  1.00  0.00     0.053 C 
ENDROOT
BRANCH   1   2
ATOM      2  C   UNL     1     -41.271  22.555 -28.818  1.00  0.00     0.041 C 
ATOM      3  O   UNL     1     -42.207  23.190 -29.372  1.00  0.00    -0.550 OA
ATOM      4  O   UNL     1     -40.060  23.191 -28.571  1.00  0.00    -0.550 OA
ENDBRANCH   1   2
BRANCH   1   5
ATOM      5  C   UNL     1     -40.295  20.280 -29.068  1.00  0.00     0.006 C 
BRANCH   5   6
ATOM      6  C   UNL     1     -40.407  20.127 -30.592  1.00  0.00    -0.003 C 
ATOM      7  C   UNL     1     -40.849  18.726 -31.015  1.00  0.00     0.004 C 
ENDBRANCH   5   6
ENDBRANCH   1   5
TORSDOF 3
ENDMDL
MODEL 5
REMARK VINA RESULT:    -3.282      1.338      1.678
REMARK INTER + INTRA:          -3.907
REMARK INTER:                  -3.891
REMARK INTRA:                  -0.015
REMARK UNBOUND:                -0.049
REMARK SMILES CCCCC(=O)[O-]
REMARK SMILES IDX 4 1 5 2 6 3 7 4 3 5 2 6 1 7
REMARK H PARENT
REMARK Flexibility Score: inf
ROOT
ATOM      1  C   UNL     1     -41.139  21.464 -28.851  1.00  0.00     0.053 C 
ENDROOT
BRANCH   1   2
ATOM      2  C   UNL     1     -41.325  22.945 -28.951  1.00  0.00     0.041 C 
ATOM      3  O   UNL     1     -40.416  23.726 -28.562  1.00  0.00    -0.550 OA
ATOM      4  O   UNL     1     -42.522  23.465 -29.430  1.00  0.00    -0.550 OA
ENDBRANCH   1   2
BRANCH   1   5
ATOM      5  C   UNL     1     -40.334  20.944 -30.049  1.00  0.00     0.006 C 
BRANCH   5   6
ATOM      6  C   UNL     1     -40.104  19.427 -29.990  1.00  0.00    -0.003 C 
ATOM      7  C   UNL     1     -40.934  18.663 -31.021  1.00  0.00     0.004 C 
ENDBRANCH   5   6
ENDBRANCH   1   5
TORSDOF 3
ENDMDL
MODEL 6
REMARK VINA RESULT:    -3.280      2.737      3.748
REMARK INTER + INTRA:          -3.903
REMARK INTER:                  -3.814
REMARK INTRA:                  -0.090
REMARK UNBOUND:                -0.049
REMARK SMILES CCCCC(=O)[O-]
REMARK SMILES IDX 4 1 5 2 6 3 7 4 3 5 2 6 1 7
REMARK H PARENT
REMARK Flexibility Score: inf
ROOT
ATOM      1  C   UNL     1     -39.946  20.287 -30.200  1.00  0.00     0.053 C 
ENDROOT
BRANCH   1   2
ATOM      2  C   UNL     1     -40.184  18.821 -30.388  1.00  0.00     0.041 C 
ATOM      3  O   UNL     1     -39.415  17.980 -29.854  1.00  0.00    -0.550 OA
ATOM      4  O   UNL     1     -41.230  18.385 -31.193  1.00  0.00    -0.550 OA
ENDBRANCH   1   2
BRANCH   1   5
ATOM      5  C   UNL     1     -40.902  20.853 -29.143  1.00  0.00     0.006 C 
BRANCH   5   6
ATOM      6  C   UNL     1     -40.320  20.782 -27.723  1.00  0.00    -0.003 C 
ATOM      7  C   UNL     1     -38.793  20.843 -27.708  1.00  0.00     0.004 C 
ENDBRANCH   5   6
ENDBRANCH   1   5
TORSDOF 3
ENDMDL
MODEL 7
REMARK VINA RESULT:    -3.241      1.360      1.970
REMARK INTER + INTRA:          -3.858
REMARK INTER:                  -3.774
REMARK INTRA:                  -0.083
REMARK UNBOUND:                -0.049
REMARK SMILES CCCCC(=O)[O-]
REMARK SMILES IDX 4 1 5 2 6 3 7 4 3 5 2 6 1 7
REMARK H PARENT
REMARK Flexibility Score: inf
ROOT
ATOM      1  C   UNL     1     -40.411  20.812 -29.793  1.00  0.00     0.053 C 
ENDROOT
BRANCH   1   2
ATOM      2  C   UNL     1     -40.972  20.854 -28.407  1.00  0.00     0.041 C 
ATOM      3  O   UNL     1     -40.222  20.667 -27.413  1.00  0.00    -0.550 OA
ATOM      4  O   UNL     1     -42.334  21.052 -28.214  1.00  0.00    -0.550 OA
ENDBRANCH   1   2
BRANCH   1   5
ATOM      5  C   UNL     1     -40.533  19.399 -30.377  1.00  0.00     0.006 C 
BRANCH   5   6
ATOM      6  C   UNL     1     -39.409  18.466 -29.901  1.00  0.00    -0.003 C 
ATOM      7  C   UNL     1     -38.033  19.130 -29.945  1.00  0.00     0.004 C 
ENDBRANCH   5   6
ENDBRANCH   1   5
TORSDOF 3
ENDMDL
MODEL 8
REMARK VINA RESULT:    -3.230     16.471     17.118
REMARK INTER + INTRA:          -3.845
REMARK INTER:                  -3.800
REMARK INTRA:                  -0.045
REMARK UNBOUND:                -0.049
REMARK SMILES CCCCC(=O)[O-]
REMARK SMILES IDX 4 1 5 2 6 3 7 4 3 5 2 6 1 7
REMARK H PARENT
REMARK Flexibility Score: inf
ROOT
ATOM      1  C   UNL     1     -54.734  24.058 -37.834  1.00  0.00     0.053 C 
ENDROOT
BRANCH   1   2
ATOM      2  C   UNL     1     -54.703  23.628 -39.267  1.00  0.00     0.041 C 
ATOM      3  O   UNL     1     -55.753  23.219 -39.829  1.00  0.00    -0.550 OA
ATOM      4  O   UNL     1     -53.504  23.634 -39.969  1.00  0.00    -0.550 OA
ENDBRANCH   1   2
BRANCH   1   5
ATOM      5  C   UNL     1     -56.061  23.648 -37.182  1.00  0.00     0.006 C 
BRANCH   5   6
ATOM      6  C   UNL     1     -55.958  22.317 -36.422  1.00  0.00    -0.003 C 
ATOM      7  C   UNL     1     -55.739  22.510 -34.921  1.00  0.00     0.004 C 
ENDBRANCH   5   6
ENDBRANCH   1   5
TORSDOF 3
ENDMDL
MODEL 9
REMARK VINA RESULT:    -3.195      2.732      3.519
REMARK INTER + INTRA:          -3.804
REMARK INTER:                  -3.717
REMARK INTRA:                  -0.087
REMARK UNBOUND:                -0.049
REMARK SMILES CCCCC(=O)[O-]
REMARK SMILES IDX 4 1 5 2 6 3 7 4 3 5 2 6 1 7
REMARK H PARENT
REMARK Flexibility Score: inf
ROOT
ATOM      1  C   UNL     1     -39.500  19.077 -29.521  1.00  0.00     0.053 C 
ENDROOT
BRANCH   1   2
ATOM      2  C   UNL     1     -40.405  19.373 -30.675  1.00  0.00     0.041 C 
ATOM      3  O   UNL     1     -41.170  18.480 -31.126  1.00  0.00    -0.550 OA
ATOM      4  O   UNL     1     -40.368  20.621 -31.285  1.00  0.00    -0.550 OA
ENDBRANCH   1   2
BRANCH   1   5
ATOM      5  C   UNL     1     -38.208  18.411 -30.012  1.00  0.00     0.006 C 
BRANCH   5   6
ATOM      6  C   UNL     1     -36.995  19.349 -29.933  1.00  0.00    -0.003 C 
ATOM      7  C   UNL     1     -37.304  20.655 -29.201  1.00  0.00     0.004 C 
ENDBRANCH   5   6
ENDBRANCH   1   5
TORSDOF 3
ENDMDL
