MODEL 1
REMARK VINA RESULT:    -1.086      0.000      0.000
REMARK INTER + INTRA:          -3.902
REMARK INTER:                  -2.483
REMARK INTRA:                  -1.419
REMARK UNBOUND:                -1.419
REMARK SMILES CCCCCCCCCCCCCCCCCCCCCCCC(=O)[O-]
REMARK SMILES IDX 13 1 14 2 15 3 16 4 17 5 18 6 19 7 20 8 21 9 22 10 23 11
REMARK SMILES IDX 24 12 25 13 26 14 12 15 11 16 10 17 9 18 8 19 7 20 6 21 5 22
REMARK SMILES IDX 4 23 3 24 2 25 1 26
REMARK H PARENT
REMARK Flexibility Score: inf
ROOT
ATOM      1  C   UNL     1      40.935  41.963  19.256  1.00  0.00     0.000 C 
ENDROOT
BRANCH   1   2
ATOM      2  C   UNL     1      41.125  43.488  19.337  1.00  0.00     0.000 C 
BRANCH   2   3
ATOM      3  C   UNL     1      41.121  44.007  20.791  1.00  0.00     0.000 C 
BRANCH   3   4
ATOM      4  C   UNL     1      41.058  45.542  20.908  1.00  0.00     0.000 C 
BRANCH   4   5
ATOM      5  C   UNL     1      40.971  46.083  22.346  1.00  0.00     0.000 C 
BRANCH   5   6
ATOM      6  C   UNL     1      40.793  45.011  23.443  1.00  0.00     0.000 C 
BRANCH   6   7
ATOM      7  C   UNL     1      39.430  45.019  24.154  1.00  0.00     0.000 C 
BRANCH   7   8
ATOM      8  C   UNL     1      38.398  45.921  23.457  1.00  0.00     0.000 C 
BRANCH   8   9
ATOM      9  C   UNL     1      37.101  46.070  24.269  1.00  0.00     0.000 C 
BRANCH   9  10
ATOM     10  C   UNL     1      35.982  46.764  23.474  1.00  0.00     0.006 C 
BRANCH  10  11
ATOM     11  C   UNL     1      34.784  47.130  24.360  1.00  0.00     0.053 C 
BRANCH  11  12
ATOM     12  C   UNL     1      33.794  46.009  24.447  1.00  0.00     0.041 C 
ATOM     13  O   UNL     1      33.356  45.466  23.398  1.00  0.00    -0.550 OA
ATOM     14  O   UNL     1      33.329  45.587  25.685  1.00  0.00    -0.550 OA
ENDBRANCH  11  12
ENDBRANCH  10  11
ENDBRANCH   9  10
ENDBRANCH   8   9
ENDBRANCH   7   8
ENDBRANCH   6   7
ENDBRANCH   5   6
ENDBRANCH   4   5
ENDBRANCH   3   4
ENDBRANCH   2   3
ENDBRANCH   1   2
BRANCH   1  15
ATOM     15  C   UNL     1      40.738  41.466  17.815  1.00  0.00     0.000 C 
BRANCH  15  16
ATOM     16  C   UNL     1      40.920  39.944  17.689  1.00  0.00     0.000 C 
BRANCH  16  17
ATOM     17  C   UNL     1      40.941  39.469  16.228  1.00  0.00     0.000 C 
BRANCH  17  18
ATOM     18  C   UNL     1      39.930  38.346  15.955  1.00  0.00    -0.000 C 
BRANCH  18  19
ATOM     19  C   UNL     1      40.364  37.037  16.627  1.00  0.00    -0.000 C 
BRANCH  19  20
ATOM     20  C   UNL     1      39.324  35.931  16.397  1.00  0.00    -0.000 C 
BRANCH  20  21
ATOM     21  C   UNL     1      38.771  35.346  17.708  1.00  0.00    -0.000 C 
BRANCH  21  22
ATOM     22  C   UNL     1      39.653  35.577  18.954  1.00  0.00    -0.000 C 
BRANCH  22  23
ATOM     23  C   UNL     1      39.511  36.964  19.609  1.00  0.00    -0.000 C 
BRANCH  23  24
ATOM     24  C   UNL     1      38.101  37.581  19.519  1.00  0.00    -0.000 C 
BRANCH  24  25
ATOM     25  C   UNL     1      38.086  39.115  19.683  1.00  0.00    -0.003 C 
ATOM     26  C   UNL     1      36.732  39.645  20.153  1.00  0.00     0.004 C 
ENDBRANCH  24  25
ENDBRANCH  23  24
ENDBRANCH  22  23
ENDBRANCH  21  22
ENDBRANCH  20  21
ENDBRANCH  19  20
ENDBRANCH  18  19
ENDBRANCH  17  18
ENDBRANCH  16  17
ENDBRANCH  15  16
ENDBRANCH   1  15
TORSDOF 22
ENDMDL
MODEL 2
REMARK VINA RESULT:    -0.078      2.566      9.318
REMARK INTER + INTRA:          -1.599
REMARK INTER:                  -0.454
REMARK INTRA:                  -1.145
REMARK UNBOUND:                -1.419
REMARK SMILES CCCCCCCCCCCCCCCCCCCCCCCC(=O)[O-]
REMARK SMILES IDX 13 1 14 2 15 3 16 4 17 5 18 6 19 7 20 8 21 9 22 10 23 11
REMARK SMILES IDX 24 12 25 13 26 14 12 15 11 16 10 17 9 18 8 19 7 20 6 21 5 22
REMARK SMILES IDX 4 23 3 24 2 25 1 26
REMARK H PARENT
REMARK Flexibility Score: inf
ROOT
ATOM      1  C   UNL     1      40.148  41.964  18.843  1.00  0.00     0.000 C 
ENDROOT
BRANCH   1   2
ATOM      2  C   UNL     1      40.790  41.838  17.450  1.00  0.00     0.000 C 
BRANCH   2   3
ATOM      3  C   UNL     1      40.603  40.433  16.839  1.00  0.00     0.000 C 
BRANCH   3   4
ATOM      4  C   UNL     1      40.300  39.335  17.877  1.00  0.00     0.000 C 
BRANCH   4   5
ATOM      5  C   UNL     1      41.064  38.015  17.672  1.00  0.00     0.000 C 
BRANCH   5   6
ATOM      6  C   UNL     1      40.579  36.833  18.538  1.00  0.00     0.000 C 
BRANCH   6   7
ATOM      7  C   UNL     1      39.887  35.695  17.768  1.00  0.00     0.000 C 
BRANCH   7   8
ATOM      8  C   UNL     1      38.466  35.405  18.280  1.00  0.00     0.000 C 
BRANCH   8   9
ATOM      9  C   UNL     1      38.428  35.138  19.793  1.00  0.00     0.000 C 
BRANCH   9  10
ATOM     10  C   UNL     1      37.896  36.340  20.593  1.00  0.00     0.006 C 
BRANCH  10  11
ATOM     11  C   UNL     1      37.529  37.521  19.686  1.00  0.00     0.053 C 
BRANCH  11  12
ATOM     12  C   UNL     1      37.665  38.832  20.398  1.00  0.00     0.041 C 
ATOM     13  O   UNL     1      37.593  39.914  19.756  1.00  0.00    -0.550 OA
ATOM     14  O   UNL     1      37.905  38.859  21.765  1.00  0.00    -0.550 OA
ENDBRANCH  11  12
ENDBRANCH  10  11
ENDBRANCH   9  10
ENDBRANCH   8   9
ENDBRANCH   7   8
ENDBRANCH   6   7
ENDBRANCH   5   6
ENDBRANCH   4   5
ENDBRANCH   3   4
ENDBRANCH   2   3
ENDBRANCH   1   2
BRANCH   1  15
ATOM     15  C   UNL     1      41.125  42.506  19.899  1.00  0.00     0.000 C 
BRANCH  15  16
ATOM     16  C   UNL     1      41.113  44.042  19.975  1.00  0.00     0.000 C 
BRANCH  16  17
ATOM     17  C   UNL     1      41.125  44.564  21.420  1.00  0.00     0.000 C 
BRANCH  17  18
ATOM     18  C   UNL     1      41.022  46.094  21.499  1.00  0.00    -0.000 C 
BRANCH  18  19
ATOM     19  C   UNL     1      40.015  46.525  22.572  1.00  0.00    -0.000 C 
BRANCH  19  20
ATOM     20  C   UNL     1      40.082  45.595  23.792  1.00  0.00    -0.000 C 
BRANCH  20  21
ATOM     21  C   UNL     1      38.710  45.373  24.454  1.00  0.00    -0.000 C 
BRANCH  21  22
ATOM     22  C   UNL     1      37.504  45.922  23.661  1.00  0.00    -0.000 C 
BRANCH  22  23
ATOM     23  C   UNL     1      36.395  46.563  24.518  1.00  0.00    -0.000 C 
BRANCH  23  24
ATOM     24  C   UNL     1      34.966  46.379  23.970  1.00  0.00    -0.000 C 
BRANCH  24  25
ATOM     25  C   UNL     1      34.006  45.692  24.965  1.00  0.00    -0.003 C 
ATOM     26  C   UNL     1      32.558  45.685  24.479  1.00  0.00     0.004 C 
ENDBRANCH  24  25
ENDBRANCH  23  24
ENDBRANCH  22  23
ENDBRANCH  21  22
ENDBRANCH  20  21
ENDBRANCH  19  20
ENDBRANCH  18  19
ENDBRANCH  17  18
ENDBRANCH  16  17
ENDBRANCH  15  16
ENDBRANCH   1  15
TORSDOF 22
ENDMDL
