MODEL 1
REMARK VINA RESULT:    -6.431      0.000      0.000
REMARK INTER + INTRA:          -7.532
REMARK INTER:                  -7.559
REMARK INTRA:                   0.027
REMARK UNBOUND:                 0.027
REMARK SMILES O=c1c(O)c(-c2ccc(O)cc2)oc2cc(O)cc(O)c12
REMARK SMILES IDX 5 1 3 2 2 3 1 4 21 5 19 6 18 7 16 8 15 9 14 10 13 11 6 12
REMARK SMILES IDX 7 13 8 14 9 15 12 16 11 17 10 18 4 20 20 22 17 24
REMARK H PARENT 10 19 4 21 20 23 17 25
REMARK Flexibility Score: inf
ROOT
ATOM      1  C   UNL     1     173.246 175.266 176.705  1.00  0.00     0.180 A 
ATOM      2  C   UNL     1     174.378 175.617 175.949  1.00  0.00     0.208 A 
ATOM      3  C   UNL     1     174.223 176.469 174.844  1.00  0.00     0.238 A 
ATOM      4  O   UNL     1     175.247 176.822 174.204  1.00  0.00    -0.285 OA
ATOM      5  C   UNL     1     172.936 176.946 174.498  1.00  0.00     0.111 A 
ATOM      6  C   UNL     1     172.656 177.781 173.375  1.00  0.00     0.134 A 
ATOM      7  C   UNL     1     171.366 178.300 173.204  1.00  0.00     0.093 A 
ATOM      8  C   UNL     1     170.333 177.961 174.077  1.00  0.00     0.123 A 
ATOM      9  C   UNL     1     170.581 177.097 175.144  1.00  0.00     0.094 A 
ATOM     10  C   UNL     1     171.866 176.594 175.362  1.00  0.00     0.146 A 
ATOM     11  O   UNL     1     172.063 175.783 176.394  1.00  0.00    -0.452 OA
ENDROOT
BRANCH   1  12
ATOM     12  C   UNL     1     173.326 174.354 177.868  1.00  0.00     0.021 A 
ATOM     13  C   UNL     1     172.661 174.690 179.058  1.00  0.00     0.016 A 
ATOM     14  C   UNL     1     172.705 173.832 180.161  1.00  0.00     0.047 A 
ATOM     15  C   UNL     1     173.402 172.620 180.082  1.00  0.00     0.115 A 
ATOM     16  C   UNL     1     174.007 173.125 177.790  1.00  0.00     0.016 A 
ATOM     17  C   UNL     1     174.049 172.268 178.894  1.00  0.00     0.047 A 
BRANCH  15  18
ATOM     18  O   UNL     1     173.452 171.757 181.175  1.00  0.00    -0.508 OA
ATOM     19  H   UNL     1     174.320 171.326 181.471  1.00  0.00     0.293 HD
ENDBRANCH  15  18
ENDBRANCH   1  12
BRANCH   2  20
ATOM     20  O   UNL     1     175.643 175.152 176.321  1.00  0.00    -0.502 OA
ATOM     21  H   UNL     1     175.827 174.739 177.227  1.00  0.00     0.293 HD
ENDBRANCH   2  20
BRANCH   6  22
ATOM     22  O   UNL     1     173.594 178.108 172.391  1.00  0.00    -0.507 OA
ATOM     23  H   UNL     1     173.678 179.014 171.957  1.00  0.00     0.293 HD
ENDBRANCH   6  22
BRANCH   8  24
ATOM     24  O   UNL     1     169.058 178.483 173.867  1.00  0.00    -0.508 OA
ATOM     25  H   UNL     1     168.484 178.184 173.087  1.00  0.00     0.293 HD
ENDBRANCH   8  24
TORSDOF 5
ENDMDL
MODEL 2
REMARK VINA RESULT:    -6.335      1.977      2.884
REMARK INTER + INTRA:          -7.419
REMARK INTER:                  -7.137
REMARK INTRA:                  -0.282
REMARK UNBOUND:                 0.027
REMARK SMILES O=c1c(O)c(-c2ccc(O)cc2)oc2cc(O)cc(O)c12
REMARK SMILES IDX 5 1 3 2 2 3 1 4 21 5 19 6 18 7 16 8 15 9 14 10 13 11 6 12
REMARK SMILES IDX 7 13 8 14 9 15 12 16 11 17 10 18 4 20 20 22 17 24
REMARK H PARENT 10 19 4 21 20 23 17 25
REMARK Flexibility Score: inf
ROOT
ATOM      1  C   UNL     1     172.270 174.335 176.979  1.00  0.00     0.180 A 
ATOM      2  C   UNL     1     171.386 173.464 176.322  1.00  0.00     0.208 A 
ATOM      3  C   UNL     1     170.759 173.892 175.140  1.00  0.00     0.238 A 
ATOM      4  O   UNL     1     170.009 173.087 174.528  1.00  0.00    -0.285 OA
ATOM      5  C   UNL     1     171.013 175.191 174.639  1.00  0.00     0.111 A 
ATOM      6  C   UNL     1     170.403 175.744 173.473  1.00  0.00     0.134 A 
ATOM      7  C   UNL     1     170.827 176.991 172.997  1.00  0.00     0.093 A 
ATOM      8  C   UNL     1     171.790 177.732 173.680  1.00  0.00     0.123 A 
ATOM      9  C   UNL     1     172.351 177.228 174.854  1.00  0.00     0.094 A 
ATOM     10  C   UNL     1     171.975 175.971 175.334  1.00  0.00     0.146 A 
ATOM     11  O   UNL     1     172.538 175.523 176.449  1.00  0.00    -0.452 OA
ENDROOT
BRANCH   1  12
ATOM     12  C   UNL     1     172.949 173.965 178.242  1.00  0.00     0.021 A 
ATOM     13  C   UNL     1     172.277 174.133 179.464  1.00  0.00     0.016 A 
ATOM     14  C   UNL     1     172.891 173.769 180.666  1.00  0.00     0.047 A 
ATOM     15  C   UNL     1     174.180 173.219 180.659  1.00  0.00     0.115 A 
ATOM     16  C   UNL     1     174.235 173.393 178.242  1.00  0.00     0.016 A 
ATOM     17  C   UNL     1     174.846 173.029 179.446  1.00  0.00     0.047 A 
BRANCH  15  18
ATOM     18  O   UNL     1     174.801 172.852 181.851  1.00  0.00    -0.508 OA
ATOM     19  H   UNL     1     174.638 171.948 182.278  1.00  0.00     0.293 HD
ENDBRANCH  15  18
ENDBRANCH   1  12
BRANCH   2  20
ATOM     20  O   UNL     1     171.165 172.177 176.821  1.00  0.00    -0.502 OA
ATOM     21  H   UNL     1     170.307 171.914 177.289  1.00  0.00     0.293 HD
ENDBRANCH   2  20
BRANCH   6  22
ATOM     22  O   UNL     1     169.366 175.127 172.768  1.00  0.00    -0.507 OA
ATOM     23  H   UNL     1     169.067 175.389 171.841  1.00  0.00     0.293 HD
ENDBRANCH   6  22
BRANCH   8  24
ATOM     24  O   UNL     1     172.177 178.977 173.186  1.00  0.00    -0.508 OA
ATOM     25  H   UNL     1     173.049 179.411 173.466  1.00  0.00     0.293 HD
ENDBRANCH   8  24
TORSDOF 5
ENDMDL
MODEL 3
REMARK VINA RESULT:    -6.279      1.435      6.461
REMARK INTER + INTRA:          -7.353
REMARK INTER:                  -7.062
REMARK INTRA:                  -0.291
REMARK UNBOUND:                 0.027
REMARK SMILES O=c1c(O)c(-c2ccc(O)cc2)oc2cc(O)cc(O)c12
REMARK SMILES IDX 5 1 3 2 2 3 1 4 21 5 19 6 18 7 16 8 15 9 14 10 13 11 6 12
REMARK SMILES IDX 7 13 8 14 9 15 12 16 11 17 10 18 4 20 20 22 17 24
REMARK H PARENT 10 19 4 21 20 23 17 25
REMARK Flexibility Score: inf
ROOT
ATOM      1  C   UNL     1     172.247 175.298 175.951  1.00  0.00     0.180 A 
ATOM      2  C   UNL     1     173.566 175.157 175.488  1.00  0.00     0.208 A 
ATOM      3  C   UNL     1     174.509 174.508 176.302  1.00  0.00     0.238 A 
ATOM      4  O   UNL     1     175.674 174.337 175.859  1.00  0.00    -0.285 OA
ATOM      5  C   UNL     1     174.124 174.022 177.574  1.00  0.00     0.111 A 
ATOM      6  C   UNL     1     175.005 173.385 178.499  1.00  0.00     0.134 A 
ATOM      7  C   UNL     1     174.488 172.828 179.675  1.00  0.00     0.093 A 
ATOM      8  C   UNL     1     173.134 172.942 179.990  1.00  0.00     0.123 A 
ATOM      9  C   UNL     1     172.274 173.615 179.122  1.00  0.00     0.094 A 
ATOM     10  C   UNL     1     172.754 174.149 177.924  1.00  0.00     0.146 A 
ATOM     11  O   UNL     1     171.901 174.774 177.121  1.00  0.00    -0.452 OA
ENDROOT
BRANCH   1  12
ATOM     12  C   UNL     1     171.204 175.991 175.161  1.00  0.00     0.021 A 
ATOM     13  C   UNL     1     170.291 175.237 174.405  1.00  0.00     0.016 A 
ATOM     14  C   UNL     1     169.285 175.871 173.671  1.00  0.00     0.047 A 
ATOM     15  C   UNL     1     169.169 177.267 173.695  1.00  0.00     0.115 A 
ATOM     16  C   UNL     1     171.068 177.391 175.196  1.00  0.00     0.016 A 
ATOM     17  C   UNL     1     170.059 178.023 174.462  1.00  0.00     0.047 A 
BRANCH  15  18
ATOM     18  O   UNL     1     168.170 177.909 172.967  1.00  0.00    -0.508 OA
ATOM     19  H   UNL     1     168.347 178.776 172.474  1.00  0.00     0.293 HD
ENDBRANCH  15  18
ENDBRANCH   1  12
BRANCH   2  20
ATOM     20  O   UNL     1     173.920 175.624 174.219  1.00  0.00    -0.502 OA
ATOM     21  H   UNL     1     173.357 176.294 173.709  1.00  0.00     0.293 HD
ENDBRANCH   2  20
BRANCH   6  22
ATOM     22  O   UNL     1     176.389 173.297 178.325  1.00  0.00    -0.507 OA
ATOM     23  H   UNL     1     177.072 173.723 178.932  1.00  0.00     0.293 HD
ENDBRANCH   6  22
BRANCH   8  24
ATOM     24  O   UNL     1     172.656 172.389 181.177  1.00  0.00    -0.508 OA
ATOM     25  H   UNL     1     171.777 172.687 181.585  1.00  0.00     0.293 HD
ENDBRANCH   8  24
TORSDOF 5
ENDMDL
MODEL 4
REMARK VINA RESULT:    -6.258      4.645      6.903
REMARK INTER + INTRA:          -7.329
REMARK INTER:                  -7.035
REMARK INTRA:                  -0.294
REMARK UNBOUND:                 0.027
REMARK SMILES O=c1c(O)c(-c2ccc(O)cc2)oc2cc(O)cc(O)c12
REMARK SMILES IDX 5 1 3 2 2 3 1 4 21 5 19 6 18 7 16 8 15 9 14 10 13 11 6 12
REMARK SMILES IDX 7 13 8 14 9 15 12 16 11 17 10 18 4 20 20 22 17 24
REMARK H PARENT 10 19 4 21 20 23 17 25
REMARK Flexibility Score: inf
ROOT
ATOM      1  C   UNL     1     174.172 171.156 175.928  1.00  0.00     0.180 A 
ATOM      2  C   UNL     1     172.854 171.295 175.462  1.00  0.00     0.208 A 
ATOM      3  C   UNL     1     171.905 171.928 176.281  1.00  0.00     0.238 A 
ATOM      4  O   UNL     1     170.739 172.097 175.836  1.00  0.00    -0.285 OA
ATOM      5  C   UNL     1     172.282 172.400 177.561  1.00  0.00     0.111 A 
ATOM      6  C   UNL     1     171.393 173.020 178.490  1.00  0.00     0.134 A 
ATOM      7  C   UNL     1     171.903 173.566 179.675  1.00  0.00     0.093 A 
ATOM      8  C   UNL     1     173.256 173.456 179.994  1.00  0.00     0.123 A 
ATOM      9  C   UNL     1     174.124 172.799 179.120  1.00  0.00     0.094 A 
ATOM     10  C   UNL     1     173.651 172.277 177.914  1.00  0.00     0.146 A 
ATOM     11  O   UNL     1     174.511 171.668 177.106  1.00  0.00    -0.452 OA
ENDROOT
BRANCH   1  12
ATOM     12  C   UNL     1     175.222 170.479 175.134  1.00  0.00     0.021 A 
ATOM     13  C   UNL     1     176.123 171.248 174.378  1.00  0.00     0.016 A 
ATOM     14  C   UNL     1     177.135 170.630 173.639  1.00  0.00     0.047 A 
ATOM     15  C   UNL     1     177.270 169.236 173.658  1.00  0.00     0.115 A 
ATOM     16  C   UNL     1     175.377 169.081 175.164  1.00  0.00     0.016 A 
ATOM     17  C   UNL     1     176.392 168.465 174.425  1.00  0.00     0.047 A 
BRANCH  15  18
ATOM     18  O   UNL     1     178.276 168.609 172.926  1.00  0.00    -0.508 OA
ATOM     19  H   UNL     1     178.333 167.600 172.859  1.00  0.00     0.293 HD
ENDBRANCH  15  18
ENDBRANCH   1  12
BRANCH   2  20
ATOM     20  O   UNL     1     172.508 170.841 174.186  1.00  0.00    -0.502 OA
ATOM     21  H   UNL     1     173.009 170.097 173.718  1.00  0.00     0.293 HD
ENDBRANCH   2  20
BRANCH   6  22
ATOM     22  O   UNL     1     170.009 173.101 178.312  1.00  0.00    -0.507 OA
ATOM     23  H   UNL     1     169.379 172.315 178.345  1.00  0.00     0.293 HD
ENDBRANCH   6  22
BRANCH   8  24
ATOM     24  O   UNL     1     173.727 173.997 181.189  1.00  0.00    -0.508 OA
ATOM     25  H   UNL     1     174.719 174.074 181.382  1.00  0.00     0.293 HD
ENDBRANCH   8  24
TORSDOF 5
ENDMDL
MODEL 5
REMARK VINA RESULT:    -6.239      4.996      6.810
REMARK INTER + INTRA:          -7.307
REMARK INTER:                  -7.436
REMARK INTRA:                   0.129
REMARK UNBOUND:                 0.027
REMARK SMILES O=c1c(O)c(-c2ccc(O)cc2)oc2cc(O)cc(O)c12
REMARK SMILES IDX 5 1 3 2 2 3 1 4 21 5 19 6 18 7 16 8 15 9 14 10 13 11 6 12
REMARK SMILES IDX 7 13 8 14 9 15 12 16 11 17 10 18 4 20 20 22 17 24
REMARK H PARENT 10 19 4 21 20 23 17 25
REMARK Flexibility Score: inf
ROOT
ATOM      1  C   UNL     1     173.108 171.152 176.555  1.00  0.00     0.180 A 
ATOM      2  C   UNL     1     172.065 170.551 175.832  1.00  0.00     0.208 A 
ATOM      3  C   UNL     1     172.361 169.893 174.627  1.00  0.00     0.238 A 
ATOM      4  O   UNL     1     171.431 169.310 174.011  1.00  0.00    -0.285 OA
ATOM      5  C   UNL     1     173.695 169.860 174.153  1.00  0.00     0.111 A 
ATOM      6  C   UNL     1     174.103 169.257 172.925  1.00  0.00     0.134 A 
ATOM      7  C   UNL     1     175.467 169.169 172.619  1.00  0.00     0.093 A 
ATOM      8  C   UNL     1     176.431 169.718 173.463  1.00  0.00     0.123 A 
ATOM      9  C   UNL     1     176.039 170.363 174.638  1.00  0.00     0.094 A 
ATOM     10  C   UNL     1     174.689 170.434 174.987  1.00  0.00     0.146 A 
ATOM     11  O   UNL     1     174.358 171.047 176.118  1.00  0.00    -0.452 OA
ENDROOT
BRANCH   1  12
ATOM     12  C   UNL     1     172.871 171.884 177.820  1.00  0.00     0.021 A 
ATOM     13  C   UNL     1     173.799 171.774 178.869  1.00  0.00     0.016 A 
ATOM     14  C   UNL     1     173.606 172.474 180.063  1.00  0.00     0.047 A 
ATOM     15  C   UNL     1     172.489 173.306 180.218  1.00  0.00     0.115 A 
ATOM     16  C   UNL     1     171.763 172.737 177.976  1.00  0.00     0.016 A 
ATOM     17  C   UNL     1     171.572 173.438 179.172  1.00  0.00     0.047 A 
BRANCH  15  18
ATOM     18  O   UNL     1     172.287 174.008 181.404  1.00  0.00    -0.508 OA
ATOM     19  H   UNL     1     172.810 174.849 181.618  1.00  0.00     0.293 HD
ENDBRANCH  15  18
ENDBRANCH   1  12
BRANCH   2  20
ATOM     20  O   UNL     1     170.759 170.576 176.328  1.00  0.00    -0.502 OA
ATOM     21  H   UNL     1     169.947 170.486 175.730  1.00  0.00     0.293 HD
ENDBRANCH   2  20
BRANCH   6  22
ATOM     22  O   UNL     1     173.217 168.759 171.966  1.00  0.00    -0.507 OA
ATOM     23  H   UNL     1     173.169 167.794 171.675  1.00  0.00     0.293 HD
ENDBRANCH   6  22
BRANCH   8  24
ATOM     24  O   UNL     1     177.779 169.626 173.120  1.00  0.00    -0.508 OA
ATOM     25  H   UNL     1     178.428 170.381 173.312  1.00  0.00     0.293 HD
ENDBRANCH   8  24
TORSDOF 5
ENDMDL
MODEL 6
REMARK VINA RESULT:    -6.195      4.702      6.114
REMARK INTER + INTRA:          -7.254
REMARK INTER:                  -7.074
REMARK INTRA:                  -0.180
REMARK UNBOUND:                 0.027
REMARK SMILES O=c1c(O)c(-c2ccc(O)cc2)oc2cc(O)cc(O)c12
REMARK SMILES IDX 5 1 3 2 2 3 1 4 21 5 19 6 18 7 16 8 15 9 14 10 13 11 6 12
REMARK SMILES IDX 7 13 8 14 9 15 12 16 11 17 10 18 4 20 20 22 17 24
REMARK H PARENT 10 19 4 21 20 23 17 25
REMARK Flexibility Score: inf
ROOT
ATOM      1  C   UNL     1     173.515 171.625 176.577  1.00  0.00     0.180 A 
ATOM      2  C   UNL     1     172.865 170.564 175.925  1.00  0.00     0.208 A 
ATOM      3  C   UNL     1     173.358 170.120 174.687  1.00  0.00     0.238 A 
ATOM      4  O   UNL     1     172.804 169.135 174.133  1.00  0.00    -0.285 OA
ATOM      5  C   UNL     1     174.485 170.754 174.110  1.00  0.00     0.111 A 
ATOM      6  C   UNL     1     175.045 170.413 172.842  1.00  0.00     0.134 A 
ATOM      7  C   UNL     1     176.238 171.019 172.429  1.00  0.00     0.093 A 
ATOM      8  C   UNL     1     176.855 171.997 173.207  1.00  0.00     0.123 A 
ATOM      9  C   UNL     1     176.284 172.381 174.421  1.00  0.00     0.094 A 
ATOM     10  C   UNL     1     175.114 171.769 174.876  1.00  0.00     0.146 A 
ATOM     11  O   UNL     1     174.608 172.155 176.042  1.00  0.00    -0.452 OA
ENDROOT
BRANCH   1  12
ATOM     12  C   UNL     1     173.040 172.164 177.871  1.00  0.00     0.021 A 
ATOM     13  C   UNL     1     173.857 172.056 179.009  1.00  0.00     0.016 A 
ATOM     14  C   UNL     1     173.438 172.578 180.236  1.00  0.00     0.047 A 
ATOM     15  C   UNL     1     172.201 173.229 180.337  1.00  0.00     0.115 A 
ATOM     16  C   UNL     1     171.809 172.838 177.978  1.00  0.00     0.016 A 
ATOM     17  C   UNL     1     171.392 173.360 179.206  1.00  0.00     0.047 A 
BRANCH  15  18
ATOM     18  O   UNL     1     171.773 173.754 181.555  1.00  0.00    -0.508 OA
ATOM     19  H   UNL     1     170.809 174.026 181.705  1.00  0.00     0.293 HD
ENDBRANCH  15  18
ENDBRANCH   1  12
BRANCH   2  20
ATOM     20  O   UNL     1     171.767 169.938 176.522  1.00  0.00    -0.502 OA
ATOM     21  H   UNL     1     171.867 169.191 177.198  1.00  0.00     0.293 HD
ENDBRANCH   2  20
BRANCH   6  22
ATOM     22  O   UNL     1     174.459 169.515 171.945  1.00  0.00    -0.507 OA
ATOM     23  H   UNL     1     174.969 168.949 171.284  1.00  0.00     0.293 HD
ENDBRANCH   6  22
BRANCH   8  24
ATOM     24  O   UNL     1     178.034 172.590 172.758  1.00  0.00    -0.508 OA
ATOM     25  H   UNL     1     178.761 172.049 172.305  1.00  0.00     0.293 HD
ENDBRANCH   8  24
TORSDOF 5
ENDMDL
MODEL 7
REMARK VINA RESULT:    -6.183      2.093      2.124
REMARK INTER + INTRA:          -7.241
REMARK INTER:                  -7.055
REMARK INTRA:                  -0.186
REMARK UNBOUND:                 0.027
REMARK SMILES O=c1c(O)c(-c2ccc(O)cc2)oc2cc(O)cc(O)c12
REMARK SMILES IDX 5 1 3 2 2 3 1 4 21 5 19 6 18 7 16 8 15 9 14 10 13 11 6 12
REMARK SMILES IDX 7 13 8 14 9 15 12 16 11 17 10 18 4 20 20 22 17 24
REMARK H PARENT 10 19 4 21 20 23 17 25
REMARK Flexibility Score: inf
ROOT
ATOM      1  C   UNL     1     172.965 174.650 176.588  1.00  0.00     0.180 A 
ATOM      2  C   UNL     1     173.707 175.622 175.897  1.00  0.00     0.208 A 
ATOM      3  C   UNL     1     173.295 176.007 174.611  1.00  0.00     0.238 A 
ATOM      4  O   UNL     1     173.932 176.917 174.019  1.00  0.00    -0.285 OA
ATOM      5  C   UNL     1     172.157 175.403 174.026  1.00  0.00     0.111 A 
ATOM      6  C   UNL     1     171.673 175.686 172.713  1.00  0.00     0.134 A 
ATOM      7  C   UNL     1     170.463 175.126 172.287  1.00  0.00     0.093 A 
ATOM      8  C   UNL     1     169.753 174.242 173.099  1.00  0.00     0.123 A 
ATOM      9  C   UNL     1     170.248 173.911 174.362  1.00  0.00     0.094 A 
ATOM     10  C   UNL     1     171.433 174.482 174.829  1.00  0.00     0.146 A 
ATOM     11  O   UNL     1     171.864 174.149 176.039  1.00  0.00    -0.452 OA
ENDROOT
BRANCH   1  12
ATOM     12  C   UNL     1     173.350 174.175 177.936  1.00  0.00     0.021 A 
ATOM     13  C   UNL     1     172.500 174.422 179.027  1.00  0.00     0.016 A 
ATOM     14  C   UNL     1     172.834 173.963 180.304  1.00  0.00     0.047 A 
ATOM     15  C   UNL     1     174.016 173.237 180.505  1.00  0.00     0.115 A 
ATOM     16  C   UNL     1     174.525 173.428 178.142  1.00  0.00     0.016 A 
ATOM     17  C   UNL     1     174.856 172.969 179.421  1.00  0.00     0.047 A 
BRANCH  15  18
ATOM     18  O   UNL     1     174.358 172.775 181.773  1.00  0.00    -0.508 OA
ATOM     19  H   UNL     1     175.104 172.103 181.909  1.00  0.00     0.293 HD
ENDBRANCH  15  18
ENDBRANCH   1  12
BRANCH   2  20
ATOM     20  O   UNL     1     174.815 176.222 176.501  1.00  0.00    -0.502 OA
ATOM     21  H   UNL     1     175.673 176.414 175.998  1.00  0.00     0.293 HD
ENDBRANCH   2  20
BRANCH   6  22
ATOM     22  O   UNL     1     172.351 176.484 171.787  1.00  0.00    -0.507 OA
ATOM     23  H   UNL     1     173.214 176.228 171.332  1.00  0.00     0.293 HD
ENDBRANCH   6  22
BRANCH   8  24
ATOM     24  O   UNL     1     168.560 173.690 172.636  1.00  0.00    -0.508 OA
ATOM     25  H   UNL     1     168.344 172.708 172.767  1.00  0.00     0.293 HD
ENDBRANCH   8  24
TORSDOF 5
ENDMDL
MODEL 8
REMARK VINA RESULT:    -6.092      2.641      3.642
REMARK INTER + INTRA:          -7.133
REMARK INTER:                  -6.880
REMARK INTRA:                  -0.253
REMARK UNBOUND:                 0.027
REMARK SMILES O=c1c(O)c(-c2ccc(O)cc2)oc2cc(O)cc(O)c12
REMARK SMILES IDX 5 1 3 2 2 3 1 4 21 5 19 6 18 7 16 8 15 9 14 10 13 11 6 12
REMARK SMILES IDX 7 13 8 14 9 15 12 16 11 17 10 18 4 20 20 22 17 24
REMARK H PARENT 10 19 4 21 20 23 17 25
REMARK Flexibility Score: inf
ROOT
ATOM      1  C   UNL     1     174.056 173.524 176.647  1.00  0.00     0.180 A 
ATOM      2  C   UNL     1     174.172 172.411 175.797  1.00  0.00     0.208 A 
ATOM      3  C   UNL     1     174.454 172.618 174.437  1.00  0.00     0.238 A 
ATOM      4  O   UNL     1     174.609 171.616 173.692  1.00  0.00    -0.285 OA
ATOM      5  C   UNL     1     174.600 173.936 173.941  1.00  0.00     0.111 A 
ATOM      6  C   UNL     1     174.846 174.265 172.574  1.00  0.00     0.134 A 
ATOM      7  C   UNL     1     175.103 175.595 172.219  1.00  0.00     0.093 A 
ATOM      8  C   UNL     1     175.058 176.615 173.168  1.00  0.00     0.123 A 
ATOM      9  C   UNL     1     174.759 176.313 174.498  1.00  0.00     0.094 A 
ATOM     10  C   UNL     1     174.534 174.991 174.889  1.00  0.00     0.146 A 
ATOM     11  O   UNL     1     174.263 174.744 176.165  1.00  0.00    -0.452 OA
ENDROOT
BRANCH   1  12
ATOM     12  C   UNL     1     173.736 173.387 178.086  1.00  0.00     0.021 A 
ATOM     13  C   UNL     1     174.754 173.051 178.992  1.00  0.00     0.016 A 
ATOM     14  C   UNL     1     174.479 172.939 180.358  1.00  0.00     0.047 A 
ATOM     15  C   UNL     1     173.184 173.176 180.837  1.00  0.00     0.115 A 
ATOM     16  C   UNL     1     172.443 173.644 178.577  1.00  0.00     0.016 A 
ATOM     17  C   UNL     1     172.170 173.533 179.944  1.00  0.00     0.047 A 
BRANCH  15  18
ATOM     18  O   UNL     1     172.898 173.068 182.196  1.00  0.00    -0.508 OA
ATOM     19  H   UNL     1     172.667 173.880 182.756  1.00  0.00     0.293 HD
ENDBRANCH  15  18
ENDBRANCH   1  12
BRANCH   2  20
ATOM     20  O   UNL     1     174.045 171.117 176.311  1.00  0.00    -0.502 OA
ATOM     21  H   UNL     1     174.516 170.819 177.156  1.00  0.00     0.293 HD
ENDBRANCH   2  20
BRANCH   6  22
ATOM     22  O   UNL     1     174.823 173.335 171.531  1.00  0.00    -0.507 OA
ATOM     23  H   UNL     1     174.022 173.147 170.947  1.00  0.00     0.293 HD
ENDBRANCH   6  22
BRANCH   8  24
ATOM     24  O   UNL     1     175.303 177.930 172.777  1.00  0.00    -0.508 OA
ATOM     25  H   UNL     1     176.227 178.235 172.493  1.00  0.00     0.293 HD
ENDBRANCH   8  24
TORSDOF 5
ENDMDL
MODEL 9
REMARK VINA RESULT:    -6.057      3.363      5.442
REMARK INTER + INTRA:          -7.092
REMARK INTER:                  -6.908
REMARK INTRA:                  -0.184
REMARK UNBOUND:                 0.027
REMARK SMILES O=c1c(O)c(-c2ccc(O)cc2)oc2cc(O)cc(O)c12
REMARK SMILES IDX 5 1 3 2 2 3 1 4 21 5 19 6 18 7 16 8 15 9 14 10 13 11 6 12
REMARK SMILES IDX 7 13 8 14 9 15 12 16 11 17 10 18 4 20 20 22 17 24
REMARK H PARENT 10 19 4 21 20 23 17 25
REMARK Flexibility Score: inf
ROOT
ATOM      1  C   UNL     1     174.323 173.070 176.787  1.00  0.00     0.180 A 
ATOM      2  C   UNL     1     174.402 174.145 175.886  1.00  0.00     0.208 A 
ATOM      3  C   UNL     1     175.090 173.969 174.674  1.00  0.00     0.238 A 
ATOM      4  O   UNL     1     175.111 174.918 173.847  1.00  0.00    -0.285 OA
ATOM      5  C   UNL     1     175.703 172.727 174.386  1.00  0.00     0.111 A 
ATOM      6  C   UNL     1     176.460 172.450 173.208  1.00  0.00     0.134 A 
ATOM      7  C   UNL     1     176.911 171.146 172.967  1.00  0.00     0.093 A 
ATOM      8  C   UNL     1     176.691 170.126 173.892  1.00  0.00     0.123 A 
ATOM      9  C   UNL     1     176.003 170.399 175.075  1.00  0.00     0.094 A 
ATOM     10  C   UNL     1     175.509 171.681 175.326  1.00  0.00     0.146 A 
ATOM     11  O   UNL     1     174.853 171.897 176.460  1.00  0.00    -0.452 OA
ENDROOT
BRANCH   1  12
ATOM     12  C   UNL     1     173.637 173.186 178.094  1.00  0.00     0.021 A 
ATOM     13  C   UNL     1     172.235 173.251 178.136  1.00  0.00     0.016 A 
ATOM     14  C   UNL     1     171.566 173.338 179.361  1.00  0.00     0.047 A 
ATOM     15  C   UNL     1     172.291 173.345 180.560  1.00  0.00     0.115 A 
ATOM     16  C   UNL     1     174.357 173.173 179.303  1.00  0.00     0.016 A 
ATOM     17  C   UNL     1     173.685 173.258 180.527  1.00  0.00     0.047 A 
BRANCH  15  18
ATOM     18  O   UNL     1     171.635 173.431 181.786  1.00  0.00    -0.508 OA
ATOM     19  H   UNL     1     171.793 172.752 182.520  1.00  0.00     0.293 HD
ENDBRANCH  15  18
ENDBRANCH   1  12
BRANCH   2  20
ATOM     20  O   UNL     1     173.771 175.357 176.179  1.00  0.00    -0.502 OA
ATOM     21  H   UNL     1     174.215 176.084 176.726  1.00  0.00     0.293 HD
ENDBRANCH   2  20
BRANCH   6  22
ATOM     22  O   UNL     1     176.816 173.416 172.264  1.00  0.00    -0.507 OA
ATOM     23  H   UNL     1     176.878 173.253 171.270  1.00  0.00     0.293 HD
ENDBRANCH   6  22
BRANCH   8  24
ATOM     24  O   UNL     1     177.168 168.843 173.627  1.00  0.00    -0.508 OA
ATOM     25  H   UNL     1     176.986 168.381 172.744  1.00  0.00     0.293 HD
ENDBRANCH   8  24
TORSDOF 5
ENDMDL
