MODEL 1
REMARK VINA RESULT:    -4.961      0.000      0.000
REMARK INTER + INTRA:         -10.185
REMARK INTER:                  -9.311
REMARK INTRA:                  -0.874
REMARK UNBOUND:                -0.874
REMARK SMILES O=C([O-])CCCCCCCCCCCCCCC(=O)[O-]
REMARK SMILES IDX 10 1 9 2 8 3 7 4 6 5 5 6 4 7 2 8 1 9 3 10 11 11 12 12 13 13
REMARK SMILES IDX 14 14 15 15 16 16 17 17 18 18 19 19 20 20
REMARK H PARENT
REMARK Flexibility Score: inf
ROOT
ATOM      1  C   UNL     1       7.477 -32.900 -19.350  1.00  0.00     0.000 C 
ENDROOT
BRANCH   1   2
ATOM      2  C   UNL     1       7.113 -31.617 -18.578  1.00  0.00     0.000 C 
BRANCH   2   3
ATOM      3  C   UNL     1       5.767 -31.667 -17.828  1.00  0.00     0.000 C 
BRANCH   3   4
ATOM      4  C   UNL     1       4.748 -30.589 -18.249  1.00  0.00     0.000 C 
BRANCH   4   5
ATOM      5  C   UNL     1       4.661 -29.370 -17.307  1.00  0.00     0.000 C 
BRANCH   5   6
ATOM      6  C   UNL     1       5.117 -28.037 -17.926  1.00  0.00     0.006 C 
BRANCH   6   7
ATOM      7  C   UNL     1       6.179 -27.320 -17.082  1.00  0.00     0.053 C 
BRANCH   7   8
ATOM      8  C   UNL     1       7.467 -28.080 -17.110  1.00  0.00     0.041 C 
ATOM      9  O   UNL     1       8.281 -27.913 -18.057  1.00  0.00    -0.550 OA
ATOM     10  O   UNL     1       7.793 -28.935 -16.065  1.00  0.00    -0.550 OA
ENDBRANCH   7   8
ENDBRANCH   6   7
ENDBRANCH   5   6
ENDBRANCH   4   5
ENDBRANCH   3   4
ENDBRANCH   2   3
ENDBRANCH   1   2
BRANCH   1  11
ATOM     11  C   UNL     1       6.498 -33.285 -20.474  1.00  0.00     0.000 C 
BRANCH  11  12
ATOM     12  C   UNL     1       6.919 -34.556 -21.226  1.00  0.00     0.000 C 
BRANCH  12  13
ATOM     13  C   UNL     1       5.719 -35.191 -21.943  1.00  0.00     0.000 C 
BRANCH  13  14
ATOM     14  C   UNL     1       5.368 -36.584 -21.396  1.00  0.00     0.000 C 
BRANCH  14  15
ATOM     15  C   UNL     1       6.615 -37.407 -21.029  1.00  0.00     0.000 C 
BRANCH  15  16
ATOM     16  C   UNL     1       6.444 -38.182 -19.712  1.00  0.00     0.006 C 
BRANCH  16  17
ATOM     17  C   UNL     1       7.264 -39.478 -19.677  1.00  0.00     0.053 C 
BRANCH  17  18
ATOM     18  C   UNL     1       6.691 -40.430 -18.675  1.00  0.00     0.041 C 
ATOM     19  O   UNL     1       6.304 -41.572 -19.035  1.00  0.00    -0.550 OA
ATOM     20  O   UNL     1       6.540 -40.037 -17.350  1.00  0.00    -0.550 OA
ENDBRANCH  17  18
ENDBRANCH  16  17
ENDBRANCH  15  16
ENDBRANCH  14  15
ENDBRANCH  13  14
ENDBRANCH  12  13
ENDBRANCH  11  12
ENDBRANCH   1  11
TORSDOF 15
ENDMDL
MODEL 2
REMARK VINA RESULT:    -4.856      3.662      4.522
REMARK INTER + INTRA:          -9.987
REMARK INTER:                  -9.474
REMARK INTRA:                  -0.514
REMARK UNBOUND:                -0.874
REMARK SMILES O=C([O-])CCCCCCCCCCCCCCC(=O)[O-]
REMARK SMILES IDX 10 1 9 2 8 3 7 4 6 5 5 6 4 7 2 8 1 9 3 10 11 11 12 12 13 13
REMARK SMILES IDX 14 14 15 15 16 16 17 17 18 18 19 19 20 20
REMARK H PARENT
REMARK Flexibility Score: inf
ROOT
ATOM      1  C   UNL     1       6.372 -33.954 -20.979  1.00  0.00     0.000 C 
ENDROOT
BRANCH   1   2
ATOM      2  C   UNL     1       7.222 -33.269 -19.891  1.00  0.00     0.000 C 
BRANCH   2   3
ATOM      3  C   UNL     1       6.727 -31.874 -19.459  1.00  0.00     0.000 C 
BRANCH   3   4
ATOM      4  C   UNL     1       5.814 -31.865 -18.216  1.00  0.00     0.000 C 
BRANCH   4   5
ATOM      5  C   UNL     1       6.476 -31.344 -16.924  1.00  0.00     0.000 C 
BRANCH   5   6
ATOM      6  C   UNL     1       6.496 -29.812 -16.776  1.00  0.00     0.006 C 
BRANCH   6   7
ATOM      7  C   UNL     1       7.729 -29.167 -17.422  1.00  0.00     0.053 C 
BRANCH   7   8
ATOM      8  C   UNL     1       7.512 -27.699 -17.610  1.00  0.00     0.041 C 
ATOM      9  O   UNL     1       6.465 -27.152 -17.173  1.00  0.00    -0.550 OA
ATOM     10  O   UNL     1       8.489 -26.924 -18.222  1.00  0.00    -0.550 OA
ENDBRANCH   7   8
ENDBRANCH   6   7
ENDBRANCH   5   6
ENDBRANCH   4   5
ENDBRANCH   3   4
ENDBRANCH   2   3
ENDBRANCH   1   2
BRANCH   1  11
ATOM     11  C   UNL     1       6.817 -35.380 -21.351  1.00  0.00     0.000 C 
BRANCH  11  12
ATOM     12  C   UNL     1       6.222 -35.863 -22.683  1.00  0.00     0.000 C 
BRANCH  12  13
ATOM     13  C   UNL     1       4.985 -36.741 -22.444  1.00  0.00     0.000 C 
BRANCH  13  14
ATOM     14  C   UNL     1       3.991 -36.698 -23.615  1.00  0.00     0.000 C 
BRANCH  14  15
ATOM     15  C   UNL     1       2.680 -35.979 -23.251  1.00  0.00     0.000 C 
BRANCH  15  16
ATOM     16  C   UNL     1       1.567 -36.956 -22.838  1.00  0.00     0.006 C 
BRANCH  16  17
ATOM     17  C   UNL     1       1.054 -36.702 -21.414  1.00  0.00     0.053 C 
BRANCH  17  18
ATOM     18  C   UNL     1      -0.420 -36.949 -21.339  1.00  0.00     0.041 C 
ATOM     19  O   UNL     1      -0.866 -38.126 -21.343  1.00  0.00    -0.550 OA
ATOM     20  O   UNL     1      -1.304 -35.877 -21.314  1.00  0.00    -0.550 OA
ENDBRANCH  17  18
ENDBRANCH  16  17
ENDBRANCH  15  16
ENDBRANCH  14  15
ENDBRANCH  13  14
ENDBRANCH  12  13
ENDBRANCH  11  12
ENDBRANCH   1  11
TORSDOF 15
ENDMDL
MODEL 3
REMARK VINA RESULT:    -4.708      7.292     12.793
REMARK INTER + INTRA:          -9.710
REMARK INTER:                  -8.771
REMARK INTRA:                  -0.939
REMARK UNBOUND:                -0.874
REMARK SMILES O=C([O-])CCCCCCCCCCCCCCC(=O)[O-]
REMARK SMILES IDX 10 1 9 2 8 3 7 4 6 5 5 6 4 7 2 8 1 9 3 10 11 11 12 12 13 13
REMARK SMILES IDX 14 14 15 15 16 16 17 17 18 18 19 19 20 20
REMARK H PARENT
REMARK Flexibility Score: inf
ROOT
ATOM      1  C   UNL     1      -0.870 -41.469 -19.771  1.00  0.00     0.000 C 
ENDROOT
BRANCH   1   2
ATOM      2  C   UNL     1      -1.399 -41.887 -18.385  1.00  0.00     0.000 C 
BRANCH   2   3
ATOM      3  C   UNL     1      -0.380 -41.769 -17.235  1.00  0.00     0.000 C 
BRANCH   3   4
ATOM      4  C   UNL     1       0.976 -42.454 -17.495  1.00  0.00     0.000 C 
BRANCH   4   5
ATOM      5  C   UNL     1       0.886 -43.902 -18.018  1.00  0.00     0.000 C 
BRANCH   5   6
ATOM      6  C   UNL     1       0.546 -44.959 -16.952  1.00  0.00     0.006 C 
BRANCH   6   7
ATOM      7  C   UNL     1      -0.606 -45.881 -17.372  1.00  0.00     0.053 C 
BRANCH   7   8
ATOM      8  C   UNL     1      -1.918 -45.306 -16.940  1.00  0.00     0.041 C 
ATOM      9  O   UNL     1      -2.007 -44.674 -15.855  1.00  0.00    -0.550 OA
ATOM     10  O   UNL     1      -3.033 -45.425 -17.761  1.00  0.00    -0.550 OA
ENDBRANCH   7   8
ENDBRANCH   6   7
ENDBRANCH   5   6
ENDBRANCH   4   5
ENDBRANCH   3   4
ENDBRANCH   2   3
ENDBRANCH   1   2
BRANCH   1  11
ATOM     11  C   UNL     1      -1.545 -40.227 -20.379  1.00  0.00     0.000 C 
BRANCH  11  12
ATOM     12  C   UNL     1      -0.622 -39.449 -21.329  1.00  0.00     0.000 C 
BRANCH  12  13
ATOM     13  C   UNL     1      -1.299 -38.160 -21.816  1.00  0.00     0.000 C 
BRANCH  13  14
ATOM     14  C   UNL     1      -0.735 -37.661 -23.156  1.00  0.00     0.000 C 
BRANCH  14  15
ATOM     15  C   UNL     1       0.803 -37.705 -23.203  1.00  0.00     0.000 C 
BRANCH  15  16
ATOM     16  C   UNL     1       1.448 -36.493 -22.510  1.00  0.00     0.006 C 
BRANCH  16  17
ATOM     17  C   UNL     1       2.864 -36.789 -21.998  1.00  0.00     0.053 C 
BRANCH  17  18
ATOM     18  C   UNL     1       3.885 -36.208 -22.925  1.00  0.00     0.041 C 
ATOM     19  O   UNL     1       4.847 -35.538 -22.467  1.00  0.00    -0.550 OA
ATOM     20  O   UNL     1       3.747 -36.366 -24.299  1.00  0.00    -0.550 OA
ENDBRANCH  17  18
ENDBRANCH  16  17
ENDBRANCH  15  16
ENDBRANCH  14  15
ENDBRANCH  13  14
ENDBRANCH  12  13
ENDBRANCH  11  12
ENDBRANCH   1  11
TORSDOF 15
ENDMDL
MODEL 4
REMARK VINA RESULT:    -4.636      3.895      9.888
REMARK INTER + INTRA:          -9.574
REMARK INTER:                  -8.995
REMARK INTRA:                  -0.580
REMARK UNBOUND:                -0.874
REMARK SMILES O=C([O-])CCCCCCCCCCCCCCC(=O)[O-]
REMARK SMILES IDX 10 1 9 2 8 3 7 4 6 5 5 6 4 7 2 8 1 9 3 10 11 11 12 12 13 13
REMARK SMILES IDX 14 14 15 15 16 16 17 17 18 18 19 19 20 20
REMARK H PARENT
REMARK Flexibility Score: inf
ROOT
ATOM      1  C   UNL     1       6.464 -35.091 -21.923  1.00  0.00     0.000 C 
ENDROOT
BRANCH   1   2
ATOM      2  C   UNL     1       5.113 -35.707 -22.335  1.00  0.00     0.000 C 
BRANCH   2   3
ATOM      3  C   UNL     1       5.037 -36.198 -23.794  1.00  0.00     0.000 C 
BRANCH   3   4
ATOM      4  C   UNL     1       3.645 -36.686 -24.244  1.00  0.00     0.000 C 
BRANCH   4   5
ATOM      5  C   UNL     1       2.853 -37.469 -23.177  1.00  0.00     0.000 C 
BRANCH   5   6
ATOM      6  C   UNL     1       1.348 -37.149 -23.119  1.00  0.00     0.006 C 
BRANCH   6   7
ATOM      7  C   UNL     1       0.835 -36.955 -21.687  1.00  0.00     0.053 C 
BRANCH   7   8
ATOM      8  C   UNL     1      -0.646 -37.161 -21.631  1.00  0.00     0.041 C 
ATOM      9  O   UNL     1      -1.121 -38.324 -21.546  1.00  0.00    -0.550 OA
ATOM     10  O   UNL     1      -1.500 -36.065 -21.621  1.00  0.00    -0.550 OA
ENDBRANCH   7   8
ENDBRANCH   6   7
ENDBRANCH   5   6
ENDBRANCH   4   5
ENDBRANCH   3   4
ENDBRANCH   2   3
ENDBRANCH   1   2
BRANCH   1  11
ATOM     11  C   UNL     1       6.376 -33.968 -20.874  1.00  0.00     0.000 C 
BRANCH  11  12
ATOM     12  C   UNL     1       7.701 -33.740 -20.129  1.00  0.00     0.000 C 
BRANCH  12  13
ATOM     13  C   UNL     1       7.539 -32.672 -19.039  1.00  0.00     0.000 C 
BRANCH  13  14
ATOM     14  C   UNL     1       6.184 -31.948 -19.111  1.00  0.00     0.000 C 
BRANCH  14  15
ATOM     15  C   UNL     1       6.157 -30.659 -18.271  1.00  0.00     0.000 C 
BRANCH  15  16
ATOM     16  C   UNL     1       4.792 -29.954 -18.318  1.00  0.00     0.006 C 
BRANCH  16  17
ATOM     17  C   UNL     1       4.663 -28.844 -17.266  1.00  0.00     0.053 C 
BRANCH  17  18
ATOM     18  C   UNL     1       4.999 -27.515 -17.866  1.00  0.00     0.041 C 
ATOM     19  O   UNL     1       4.140 -26.888 -18.539  1.00  0.00    -0.550 OA
ATOM     20  O   UNL     1       6.279 -26.992 -17.724  1.00  0.00    -0.550 OA
ENDBRANCH  17  18
ENDBRANCH  16  17
ENDBRANCH  15  16
ENDBRANCH  14  15
ENDBRANCH  13  14
ENDBRANCH  12  13
ENDBRANCH  11  12
ENDBRANCH   1  11
TORSDOF 15
ENDMDL
MODEL 5
REMARK VINA RESULT:    -4.590      3.306      3.884
REMARK INTER + INTRA:          -9.488
REMARK INTER:                  -8.500
REMARK INTRA:                  -0.988
REMARK UNBOUND:                -0.874
REMARK SMILES O=C([O-])CCCCCCCCCCCCCCC(=O)[O-]
REMARK SMILES IDX 10 1 9 2 8 3 7 4 6 5 5 6 4 7 2 8 1 9 3 10 11 11 12 12 13 13
REMARK SMILES IDX 14 14 15 15 16 16 17 17 18 18 19 19 20 20
REMARK H PARENT
REMARK Flexibility Score: inf
ROOT
ATOM      1  C   UNL     1       7.396 -32.815 -19.363  1.00  0.00     0.000 C 
ENDROOT
BRANCH   1   2
ATOM      2  C   UNL     1       6.967 -31.511 -18.661  1.00  0.00     0.000 C 
BRANCH   2   3
ATOM      3  C   UNL     1       5.627 -31.590 -17.904  1.00  0.00     0.000 C 
BRANCH   3   4
ATOM      4  C   UNL     1       4.607 -30.493 -18.273  1.00  0.00     0.000 C 
BRANCH   4   5
ATOM      5  C   UNL     1       4.600 -29.267 -17.337  1.00  0.00     0.000 C 
BRANCH   5   6
ATOM      6  C   UNL     1       5.307 -28.019 -17.895  1.00  0.00     0.006 C 
BRANCH   6   7
ATOM      7  C   UNL     1       6.743 -27.867 -17.380  1.00  0.00     0.053 C 
BRANCH   7   8
ATOM      8  C   UNL     1       6.841 -28.337 -15.963  1.00  0.00     0.041 C 
ATOM      9  O   UNL     1       6.345 -27.650 -15.031  1.00  0.00    -0.550 OA
ATOM     10  O   UNL     1       7.437 -29.559 -15.676  1.00  0.00    -0.550 OA
ENDBRANCH   7   8
ENDBRANCH   6   7
ENDBRANCH   5   6
ENDBRANCH   4   5
ENDBRANCH   3   4
ENDBRANCH   2   3
ENDBRANCH   1   2
BRANCH   1  11
ATOM     11  C   UNL     1       6.490 -33.258 -20.526  1.00  0.00     0.000 C 
BRANCH  11  12
ATOM     12  C   UNL     1       6.421 -34.784 -20.682  1.00  0.00     0.000 C 
BRANCH  12  13
ATOM     13  C   UNL     1       6.997 -35.223 -22.037  1.00  0.00     0.000 C 
BRANCH  13  14
ATOM     14  C   UNL     1       6.053 -36.159 -22.809  1.00  0.00     0.000 C 
BRANCH  14  15
ATOM     15  C   UNL     1       5.132 -36.968 -21.879  1.00  0.00     0.000 C 
BRANCH  15  16
ATOM     16  C   UNL     1       3.645 -36.807 -22.235  1.00  0.00     0.006 C 
BRANCH  16  17
ATOM     17  C   UNL     1       3.423 -35.897 -23.451  1.00  0.00     0.053 C 
BRANCH  17  18
ATOM     18  C   UNL     1       3.015 -36.709 -24.640  1.00  0.00     0.041 C 
ATOM     19  O   UNL     1       3.851 -36.974 -25.544  1.00  0.00    -0.550 OA
ATOM     20  O   UNL     1       1.698 -37.132 -24.775  1.00  0.00    -0.550 OA
ENDBRANCH  17  18
ENDBRANCH  16  17
ENDBRANCH  15  16
ENDBRANCH  14  15
ENDBRANCH  13  14
ENDBRANCH  12  13
ENDBRANCH  11  12
ENDBRANCH   1  11
TORSDOF 15
ENDMDL
MODEL 6
REMARK VINA RESULT:    -4.571      4.362      5.313
REMARK INTER + INTRA:          -9.453
REMARK INTER:                  -8.742
REMARK INTRA:                  -0.711
REMARK UNBOUND:                -0.874
REMARK SMILES O=C([O-])CCCCCCCCCCCCCCC(=O)[O-]
REMARK SMILES IDX 10 1 9 2 8 3 7 4 6 5 5 6 4 7 2 8 1 9 3 10 11 11 12 12 13 13
REMARK SMILES IDX 14 14 15 15 16 16 17 17 18 18 19 19 20 20
REMARK H PARENT
REMARK Flexibility Score: inf
ROOT
ATOM      1  C   UNL     1       6.284 -34.273 -21.149  1.00  0.00     0.000 C 
ENDROOT
BRANCH   1   2
ATOM      2  C   UNL     1       7.590 -33.931 -20.406  1.00  0.00     0.000 C 
BRANCH   2   3
ATOM      3  C   UNL     1       7.477 -32.783 -19.383  1.00  0.00     0.000 C 
BRANCH   3   4
ATOM      4  C   UNL     1       6.083 -32.131 -19.290  1.00  0.00     0.000 C 
BRANCH   4   5
ATOM      5  C   UNL     1       5.789 -31.406 -17.960  1.00  0.00     0.000 C 
BRANCH   5   6
ATOM      6  C   UNL     1       5.329 -29.945 -18.104  1.00  0.00     0.006 C 
BRANCH   6   7
ATOM      7  C   UNL     1       5.425 -29.158 -16.791  1.00  0.00     0.053 C 
BRANCH   7   8
ATOM      8  C   UNL     1       6.796 -28.584 -16.626  1.00  0.00     0.041 C 
ATOM      9  O   UNL     1       7.585 -29.063 -15.768  1.00  0.00    -0.550 OA
ATOM     10  O   UNL     1       7.223 -27.553 -17.454  1.00  0.00    -0.550 OA
ENDBRANCH   7   8
ENDBRANCH   6   7
ENDBRANCH   5   6
ENDBRANCH   4   5
ENDBRANCH   3   4
ENDBRANCH   2   3
ENDBRANCH   1   2
BRANCH   1  11
ATOM     11  C   UNL     1       5.728 -35.682 -20.874  1.00  0.00     0.000 C 
BRANCH  11  12
ATOM     12  C   UNL     1       5.838 -36.616 -22.089  1.00  0.00     0.000 C 
BRANCH  12  13
ATOM     13  C   UNL     1       6.373 -35.860 -23.314  1.00  0.00     0.000 C 
BRANCH  13  14
ATOM     14  C   UNL     1       7.680 -36.457 -23.858  1.00  0.00     0.000 C 
BRANCH  14  15
ATOM     15  C   UNL     1       8.154 -35.767 -25.149  1.00  0.00     0.000 C 
BRANCH  15  16
ATOM     16  C   UNL     1       9.581 -36.176 -25.547  1.00  0.00     0.006 C 
BRANCH  16  17
ATOM     17  C   UNL     1      10.517 -34.972 -25.716  1.00  0.00     0.053 C 
BRANCH  17  18
ATOM     18  C   UNL     1      11.946 -35.417 -25.695  1.00  0.00     0.041 C 
ATOM     19  O   UNL     1      12.806 -34.819 -26.394  1.00  0.00    -0.550 OA
ATOM     20  O   UNL     1      12.320 -36.522 -24.940  1.00  0.00    -0.550 OA
ENDBRANCH  17  18
ENDBRANCH  16  17
ENDBRANCH  15  16
ENDBRANCH  14  15
ENDBRANCH  13  14
ENDBRANCH  12  13
ENDBRANCH  11  12
ENDBRANCH   1  11
TORSDOF 15
ENDMDL
MODEL 7
REMARK VINA RESULT:    -4.541      7.807     12.602
REMARK INTER + INTRA:          -9.397
REMARK INTER:                  -8.730
REMARK INTRA:                  -0.668
REMARK UNBOUND:                -0.874
REMARK SMILES O=C([O-])CCCCCCCCCCCCCCC(=O)[O-]
REMARK SMILES IDX 10 1 9 2 8 3 7 4 6 5 5 6 4 7 2 8 1 9 3 10 11 11 12 12 13 13
REMARK SMILES IDX 14 14 15 15 16 16 17 17 18 18 19 19 20 20
REMARK H PARENT
REMARK Flexibility Score: inf
ROOT
ATOM      1  C   UNL     1      -1.593 -41.636 -18.647  1.00  0.00     0.000 C 
ENDROOT
BRANCH   1   2
ATOM      2  C   UNL     1      -0.768 -42.653 -17.834  1.00  0.00     0.000 C 
BRANCH   2   3
ATOM      3  C   UNL     1      -1.331 -44.088 -17.820  1.00  0.00     0.000 C 
BRANCH   3   4
ATOM      4  C   UNL     1      -1.875 -44.558 -16.456  1.00  0.00     0.000 C 
BRANCH   4   5
ATOM      5  C   UNL     1      -0.860 -45.313 -15.574  1.00  0.00     0.000 C 
BRANCH   5   6
ATOM      6  C   UNL     1       0.501 -45.589 -16.238  1.00  0.00     0.006 C 
BRANCH   6   7
ATOM      7  C   UNL     1       1.680 -45.015 -15.443  1.00  0.00     0.053 C 
BRANCH   7   8
ATOM      8  C   UNL     1       2.537 -44.162 -16.324  1.00  0.00     0.041 C 
ATOM      9  O   UNL     1       2.425 -44.231 -17.576  1.00  0.00    -0.550 OA
ATOM     10  O   UNL     1       3.424 -43.252 -15.761  1.00  0.00    -0.550 OA
ENDBRANCH   7   8
ENDBRANCH   6   7
ENDBRANCH   5   6
ENDBRANCH   4   5
ENDBRANCH   3   4
ENDBRANCH   2   3
ENDBRANCH   1   2
BRANCH   1  11
ATOM     11  C   UNL     1      -0.888 -41.073 -19.894  1.00  0.00     0.000 C 
BRANCH  11  12
ATOM     12  C   UNL     1      -1.635 -39.884 -20.517  1.00  0.00     0.000 C 
BRANCH  12  13
ATOM     13  C   UNL     1      -0.823 -39.270 -21.668  1.00  0.00     0.000 C 
BRANCH  13  14
ATOM     14  C   UNL     1      -0.940 -37.739 -21.727  1.00  0.00     0.000 C 
BRANCH  14  15
ATOM     15  C   UNL     1       0.431 -37.041 -21.721  1.00  0.00     0.000 C 
BRANCH  15  16
ATOM     16  C   UNL     1       1.258 -37.354 -22.978  1.00  0.00     0.006 C 
BRANCH  16  17
ATOM     17  C   UNL     1       2.545 -36.522 -23.064  1.00  0.00     0.053 C 
BRANCH  17  18
ATOM     18  C   UNL     1       3.356 -36.938 -24.250  1.00  0.00     0.041 C 
ATOM     19  O   UNL     1       2.894 -37.771 -25.073  1.00  0.00    -0.550 OA
ATOM     20  O   UNL     1       4.643 -36.443 -24.421  1.00  0.00    -0.550 OA
ENDBRANCH  17  18
ENDBRANCH  16  17
ENDBRANCH  15  16
ENDBRANCH  14  15
ENDBRANCH  13  14
ENDBRANCH  12  13
ENDBRANCH  11  12
ENDBRANCH   1  11
TORSDOF 15
ENDMDL
MODEL 8
REMARK VINA RESULT:    -4.344     14.729     17.459
REMARK INTER + INTRA:          -9.027
REMARK INTER:                  -6.545
REMARK INTRA:                  -2.482
REMARK UNBOUND:                -0.874
REMARK SMILES O=C([O-])CCCCCCCCCCCCCCC(=O)[O-]
REMARK SMILES IDX 10 1 9 2 8 3 7 4 6 5 5 6 4 7 2 8 1 9 3 10 11 11 12 12 13 13
REMARK SMILES IDX 14 14 15 15 16 16 17 17 18 18 19 19 20 20
REMARK H PARENT
REMARK Flexibility Score: inf
ROOT
ATOM      1  C   UNL     1       6.565 -43.751 -34.714  1.00  0.00     0.000 C 
ENDROOT
BRANCH   1   2
ATOM      2  C   UNL     1       5.553 -44.354 -33.719  1.00  0.00     0.000 C 
BRANCH   2   3
ATOM      3  C   UNL     1       6.179 -45.041 -32.489  1.00  0.00     0.000 C 
BRANCH   3   4
ATOM      4  C   UNL     1       7.683 -45.355 -32.615  1.00  0.00     0.000 C 
BRANCH   4   5
ATOM      5  C   UNL     1       8.590 -44.619 -31.607  1.00  0.00     0.000 C 
BRANCH   5   6
ATOM      6  C   UNL     1       7.974 -44.408 -30.212  1.00  0.00     0.006 C 
BRANCH   6   7
ATOM      7  C   UNL     1       8.621 -45.288 -29.136  1.00  0.00     0.053 C 
BRANCH   7   8
ATOM      8  C   UNL     1       7.989 -45.034 -27.804  1.00  0.00     0.041 C 
ATOM      9  O   UNL     1       7.334 -45.943 -27.230  1.00  0.00    -0.550 OA
ATOM     10  O   UNL     1       8.165 -43.808 -27.173  1.00  0.00    -0.550 OA
ENDBRANCH   7   8
ENDBRANCH   6   7
ENDBRANCH   5   6
ENDBRANCH   4   5
ENDBRANCH   3   4
ENDBRANCH   2   3
ENDBRANCH   1   2
BRANCH   1  11
ATOM     11  C   UNL     1       6.648 -42.214 -34.708  1.00  0.00     0.000 C 
BRANCH  11  12
ATOM     12  C   UNL     1       7.708 -41.677 -33.735  1.00  0.00     0.000 C 
BRANCH  12  13
ATOM     13  C   UNL     1       7.120 -40.578 -32.837  1.00  0.00     0.000 C 
BRANCH  13  14
ATOM     14  C   UNL     1       6.963 -41.026 -31.375  1.00  0.00     0.000 C 
BRANCH  14  15
ATOM     15  C   UNL     1       5.584 -41.647 -31.092  1.00  0.00     0.000 C 
BRANCH  15  16
ATOM     16  C   UNL     1       4.441 -40.885 -31.782  1.00  0.00     0.006 C 
BRANCH  16  17
ATOM     17  C   UNL     1       3.396 -41.821 -32.403  1.00  0.00     0.053 C 
BRANCH  17  18
ATOM     18  C   UNL     1       2.964 -41.305 -33.740  1.00  0.00     0.041 C 
ATOM     19  O   UNL     1       3.065 -42.032 -34.762  1.00  0.00    -0.550 OA
ATOM     20  O   UNL     1       2.494 -40.003 -33.864  1.00  0.00    -0.550 OA
ENDBRANCH  17  18
ENDBRANCH  16  17
ENDBRANCH  15  16
ENDBRANCH  14  15
ENDBRANCH  13  14
ENDBRANCH  12  13
ENDBRANCH  11  12
ENDBRANCH   1  11
TORSDOF 15
ENDMDL
MODEL 9
REMARK VINA RESULT:    -4.295     12.661     17.032
REMARK INTER + INTRA:          -8.935
REMARK INTER:                  -6.621
REMARK INTRA:                  -2.314
REMARK UNBOUND:                -0.874
REMARK SMILES O=C([O-])CCCCCCCCCCCCCCC(=O)[O-]
REMARK SMILES IDX 10 1 9 2 8 3 7 4 6 5 5 6 4 7 2 8 1 9 3 10 11 11 12 12 13 13
REMARK SMILES IDX 14 14 15 15 16 16 17 17 18 18 19 19 20 20
REMARK H PARENT
REMARK Flexibility Score: inf
ROOT
ATOM      1  C   UNL     1      10.881 -44.542 -30.199  1.00  0.00     0.000 C 
ENDROOT
BRANCH   1   2
ATOM      2  C   UNL     1      10.255 -44.687 -31.600  1.00  0.00     0.000 C 
BRANCH   2   3
ATOM      3  C   UNL     1      10.026 -46.139 -32.065  1.00  0.00     0.000 C 
BRANCH   3   4
ATOM      4  C   UNL     1       8.600 -46.443 -32.565  1.00  0.00     0.000 C 
BRANCH   4   5
ATOM      5  C   UNL     1       7.488 -46.269 -31.511  1.00  0.00     0.000 C 
BRANCH   5   6
ATOM      6  C   UNL     1       6.300 -45.398 -31.956  1.00  0.00     0.006 C 
BRANCH   6   7
ATOM      7  C   UNL     1       6.597 -43.896 -31.871  1.00  0.00     0.053 C 
BRANCH   7   8
ATOM      8  C   UNL     1       6.625 -43.290 -33.239  1.00  0.00     0.041 C 
ATOM      9  O   UNL     1       7.691 -43.288 -33.909  1.00  0.00    -0.550 OA
ATOM     10  O   UNL     1       5.461 -42.774 -33.794  1.00  0.00    -0.550 OA
ENDBRANCH   7   8
ENDBRANCH   6   7
ENDBRANCH   5   6
ENDBRANCH   4   5
ENDBRANCH   3   4
ENDBRANCH   2   3
ENDBRANCH   1   2
BRANCH   1  11
ATOM     11  C   UNL     1      11.092 -45.865 -29.439  1.00  0.00     0.000 C 
BRANCH  11  12
ATOM     12  C   UNL     1      10.390 -45.887 -28.073  1.00  0.00     0.000 C 
BRANCH  12  13
ATOM     13  C   UNL     1       8.952 -46.411 -28.205  1.00  0.00     0.000 C 
BRANCH  13  14
ATOM     14  C   UNL     1       7.911 -45.445 -27.616  1.00  0.00     0.000 C 
BRANCH  14  15
ATOM     15  C   UNL     1       7.992 -44.039 -28.237  1.00  0.00     0.000 C 
BRANCH  15  16
ATOM     16  C   UNL     1       8.284 -42.949 -27.193  1.00  0.00     0.006 C 
BRANCH  16  17
ATOM     17  C   UNL     1       9.673 -42.320 -27.365  1.00  0.00     0.053 C 
BRANCH  17  18
ATOM     18  C   UNL     1       9.548 -40.873 -27.722  1.00  0.00     0.041 C 
ATOM     19  O   UNL     1      10.293 -40.019 -27.174  1.00  0.00    -0.550 OA
ATOM     20  O   UNL     1       8.576 -40.460 -28.625  1.00  0.00    -0.550 OA
ENDBRANCH  17  18
ENDBRANCH  16  17
ENDBRANCH  15  16
ENDBRANCH  14  15
ENDBRANCH  13  14
ENDBRANCH  12  13
ENDBRANCH  11  12
ENDBRANCH   1  11
TORSDOF 15
ENDMDL
