MODEL 1
REMARK VINA RESULT:    -5.018      0.000      0.000
REMARK INTER + INTRA:         -17.010
REMARK INTER:                 -12.646
REMARK INTRA:                  -4.365
REMARK UNBOUND:                -4.365
REMARK SMILES CCCCCCCCCCCCCCCCCCCCCCCCCCCC(=O)[O-]
REMARK SMILES IDX 15 1 16 2 17 3 18 4 19 5 20 6 21 7 22 8 23 9 24 10 25 11
REMARK SMILES IDX 26 12 27 13 28 14 29 15 30 16 14 17 13 18 12 19 11 20 10 21
REMARK SMILES IDX 9 22 8 23 7 24 6 25 5 26 4 27 3 28 2 29 1 30
REMARK H PARENT
REMARK Flexibility Score: inf
ROOT
ATOM      1  C   UNL     1      16.744  14.933  44.656  1.00  0.00     0.000 C 
ENDROOT
BRANCH   1   2
ATOM      2  C   UNL     1      17.342  16.332  44.899  1.00  0.00     0.000 C 
BRANCH   2   3
ATOM      3  C   UNL     1      16.995  16.967  46.264  1.00  0.00     0.000 C 
BRANCH   3   4
ATOM      4  C   UNL     1      18.155  16.984  47.279  1.00  0.00     0.000 C 
BRANCH   4   5
ATOM      5  C   UNL     1      19.509  16.651  46.630  1.00  0.00     0.000 C 
BRANCH   5   6
ATOM      6  C   UNL     1      20.628  16.470  47.674  1.00  0.00     0.000 C 
BRANCH   6   7
ATOM      7  C   UNL     1      21.378  17.773  48.034  1.00  0.00     0.000 C 
BRANCH   7   8
ATOM      8  C   UNL     1      20.722  18.627  49.144  1.00  0.00     0.000 C 
BRANCH   8   9
ATOM      9  C   UNL     1      19.923  19.848  48.649  1.00  0.00     0.000 C 
BRANCH   9  10
ATOM     10  C   UNL     1      20.346  20.308  47.243  1.00  0.00     0.000 C 
BRANCH  10  11
ATOM     11  C   UNL     1      19.172  20.366  46.248  1.00  0.00     0.000 C 
BRANCH  11  12
ATOM     12  C   UNL     1      19.500  19.900  44.816  1.00  0.00     0.006 C 
BRANCH  12  13
ATOM     13  C   UNL     1      18.282  19.802  43.881  1.00  0.00     0.053 C 
BRANCH  13  14
ATOM     14  C   UNL     1      17.686  21.139  43.558  1.00  0.00     0.041 C 
ATOM     15  O   UNL     1      16.542  21.450  43.988  1.00  0.00    -0.550 OA
ATOM     16  O   UNL     1      18.371  22.017  42.728  1.00  0.00    -0.550 OA
ENDBRANCH  13  14
ENDBRANCH  12  13
ENDBRANCH  11  12
ENDBRANCH  10  11
ENDBRANCH   9  10
ENDBRANCH   8   9
ENDBRANCH   7   8
ENDBRANCH   6   7
ENDBRANCH   5   6
ENDBRANCH   4   5
ENDBRANCH   3   4
ENDBRANCH   2   3
ENDBRANCH   1   2
BRANCH   1  17
ATOM     17  C   UNL     1      17.111  13.925  45.755  1.00  0.00     0.000 C 
BRANCH  17  18
ATOM     18  C   UNL     1      18.379  13.143  45.388  1.00  0.00     0.000 C 
BRANCH  18  19
ATOM     19  C   UNL     1      18.969  12.439  46.622  1.00  0.00     0.000 C 
BRANCH  19  20
ATOM     20  C   UNL     1      20.441  12.802  46.874  1.00  0.00     0.000 C 
BRANCH  20  21
ATOM     21  C   UNL     1      21.050  12.198  48.152  1.00  0.00     0.000 C 
BRANCH  21  22
ATOM     22  C   UNL     1      22.043  11.041  47.920  1.00  0.00    -0.000 C 
BRANCH  22  23
ATOM     23  C   UNL     1      23.377  11.439  47.257  1.00  0.00    -0.000 C 
BRANCH  23  24
ATOM     24  C   UNL     1      24.297  12.330  48.113  1.00  0.00    -0.000 C 
BRANCH  24  25
ATOM     25  C   UNL     1      24.476  13.769  47.594  1.00  0.00    -0.000 C 
BRANCH  25  26
ATOM     26  C   UNL     1      23.669  14.819  48.387  1.00  0.00    -0.000 C 
BRANCH  26  27
ATOM     27  C   UNL     1      24.458  15.385  49.581  1.00  0.00    -0.000 C 
BRANCH  27  28
ATOM     28  C   UNL     1      23.829  15.010  50.933  1.00  0.00    -0.000 C 
BRANCH  28  29
ATOM     29  C   UNL     1      22.838  16.069  51.437  1.00  0.00    -0.003 C 
ATOM     30  C   UNL     1      21.400  15.568  51.330  1.00  0.00     0.004 C 
ENDBRANCH  28  29
ENDBRANCH  27  28
ENDBRANCH  26  27
ENDBRANCH  25  26
ENDBRANCH  24  25
ENDBRANCH  23  24
ENDBRANCH  22  23
ENDBRANCH  21  22
ENDBRANCH  20  21
ENDBRANCH  19  20
ENDBRANCH  18  19
ENDBRANCH  17  18
ENDBRANCH   1  17
TORSDOF 26
ENDMDL
MODEL 2
REMARK VINA RESULT:    -4.949      3.265      8.008
REMARK INTER + INTRA:         -16.835
REMARK INTER:                 -12.407
REMARK INTRA:                  -4.429
REMARK UNBOUND:                -4.365
REMARK SMILES CCCCCCCCCCCCCCCCCCCCCCCCCCCC(=O)[O-]
REMARK SMILES IDX 15 1 16 2 17 3 18 4 19 5 20 6 21 7 22 8 23 9 24 10 25 11
REMARK SMILES IDX 26 12 27 13 28 14 29 15 30 16 14 17 13 18 12 19 11 20 10 21
REMARK SMILES IDX 9 22 8 23 7 24 6 25 5 26 4 27 3 28 2 29 1 30
REMARK H PARENT
REMARK Flexibility Score: inf
ROOT
ATOM      1  C   UNL     1      17.790  16.954  47.352  1.00  0.00     0.000 C 
ENDROOT
BRANCH   1   2
ATOM      2  C   UNL     1      16.393  16.859  46.707  1.00  0.00     0.000 C 
BRANCH   2   3
ATOM      3  C   UNL     1      15.845  15.424  46.536  1.00  0.00     0.000 C 
BRANCH   3   4
ATOM      4  C   UNL     1      15.895  14.885  45.093  1.00  0.00     0.000 C 
BRANCH   4   5
ATOM      5  C   UNL     1      17.070  13.919  44.865  1.00  0.00     0.000 C 
BRANCH   5   6
ATOM      6  C   UNL     1      17.613  13.338  46.184  1.00  0.00     0.000 C 
BRANCH   6   7
ATOM      7  C   UNL     1      19.144  13.124  46.203  1.00  0.00     0.000 C 
BRANCH   7   8
ATOM      8  C   UNL     1      19.622  11.838  46.917  1.00  0.00     0.000 C 
BRANCH   8   9
ATOM      9  C   UNL     1      20.754  12.036  47.942  1.00  0.00     0.000 C 
BRANCH   9  10
ATOM     10  C   UNL     1      21.584  13.304  47.677  1.00  0.00     0.000 C 
BRANCH  10  11
ATOM     11  C   UNL     1      23.058  13.161  48.102  1.00  0.00     0.000 C 
BRANCH  11  12
ATOM     12  C   UNL     1      23.912  14.435  47.950  1.00  0.00     0.006 C 
BRANCH  12  13
ATOM     13  C   UNL     1      23.523  15.583  48.899  1.00  0.00     0.053 C 
BRANCH  13  14
ATOM     14  C   UNL     1      23.344  15.131  50.317  1.00  0.00     0.041 C 
ATOM     15  O   UNL     1      22.202  15.137  50.852  1.00  0.00    -0.550 OA
ATOM     16  O   UNL     1      24.453  14.764  51.069  1.00  0.00    -0.550 OA
ENDBRANCH  13  14
ENDBRANCH  12  13
ENDBRANCH  11  12
ENDBRANCH  10  11
ENDBRANCH   9  10
ENDBRANCH   8   9
ENDBRANCH   7   8
ENDBRANCH   6   7
ENDBRANCH   5   6
ENDBRANCH   4   5
ENDBRANCH   3   4
ENDBRANCH   2   3
ENDBRANCH   1   2
BRANCH   1  17
ATOM     17  C   UNL     1      18.930  16.852  46.328  1.00  0.00     0.000 C 
BRANCH  17  18
ATOM     18  C   UNL     1      20.258  16.502  47.011  1.00  0.00     0.000 C 
BRANCH  18  19
ATOM     19  C   UNL     1      20.315  17.083  48.434  1.00  0.00     0.000 C 
BRANCH  19  20
ATOM     20  C   UNL     1      21.055  18.429  48.504  1.00  0.00     0.000 C 
BRANCH  20  21
ATOM     21  C   UNL     1      20.421  19.471  49.443  1.00  0.00     0.000 C 
BRANCH  21  22
ATOM     22  C   UNL     1      19.838  20.714  48.743  1.00  0.00    -0.000 C 
BRANCH  22  23
ATOM     23  C   UNL     1      18.808  20.424  47.632  1.00  0.00    -0.000 C 
BRANCH  23  24
ATOM     24  C   UNL     1      19.315  20.641  46.194  1.00  0.00    -0.000 C 
BRANCH  24  25
ATOM     25  C   UNL     1      18.439  21.566  45.328  1.00  0.00    -0.000 C 
BRANCH  25  26
ATOM     26  C   UNL     1      17.866  20.879  44.070  1.00  0.00    -0.000 C 
BRANCH  26  27
ATOM     27  C   UNL     1      18.582  19.556  43.747  1.00  0.00    -0.000 C 
BRANCH  27  28
ATOM     28  C   UNL     1      17.599  18.430  43.384  1.00  0.00    -0.000 C 
BRANCH  28  29
ATOM     29  C   UNL     1      16.258  18.963  42.861  1.00  0.00    -0.003 C 
ATOM     30  C   UNL     1      15.097  18.104  43.356  1.00  0.00     0.004 C 
ENDBRANCH  28  29
ENDBRANCH  27  28
ENDBRANCH  26  27
ENDBRANCH  25  26
ENDBRANCH  24  25
ENDBRANCH  23  24
ENDBRANCH  22  23
ENDBRANCH  21  22
ENDBRANCH  20  21
ENDBRANCH  19  20
ENDBRANCH  18  19
ENDBRANCH  17  18
ENDBRANCH   1  17
TORSDOF 26
ENDMDL
MODEL 3
REMARK VINA RESULT:    -4.869      2.702      7.535
REMARK INTER + INTRA:         -16.635
REMARK INTER:                 -12.516
REMARK INTRA:                  -4.119
REMARK UNBOUND:                -4.365
REMARK SMILES CCCCCCCCCCCCCCCCCCCCCCCCCCCC(=O)[O-]
REMARK SMILES IDX 15 1 16 2 17 3 18 4 19 5 20 6 21 7 22 8 23 9 24 10 25 11
REMARK SMILES IDX 26 12 27 13 28 14 29 15 30 16 14 17 13 18 12 19 11 20 10 21
REMARK SMILES IDX 9 22 8 23 7 24 6 25 5 26 4 27 3 28 2 29 1 30
REMARK H PARENT
REMARK Flexibility Score: inf
ROOT
ATOM      1  C   UNL     1      21.680  17.363  48.400  1.00  0.00     0.000 C 
ENDROOT
BRANCH   1   2
ATOM      2  C   UNL     1      21.033  17.568  49.784  1.00  0.00     0.000 C 
BRANCH   2   3
ATOM      3  C   UNL     1      21.095  16.344  50.725  1.00  0.00     0.000 C 
BRANCH   3   4
ATOM      4  C   UNL     1      21.890  16.572  52.025  1.00  0.00     0.000 C 
BRANCH   4   5
ATOM      5  C   UNL     1      23.392  16.289  51.854  1.00  0.00     0.000 C 
BRANCH   5   6
ATOM      6  C   UNL     1      23.656  15.024  51.014  1.00  0.00     0.000 C 
BRANCH   6   7
ATOM      7  C   UNL     1      24.649  15.230  49.848  1.00  0.00     0.000 C 
BRANCH   7   8
ATOM      8  C   UNL     1      24.486  14.251  48.662  1.00  0.00     0.000 C 
BRANCH   8   9
ATOM      9  C   UNL     1      23.110  14.278  47.970  1.00  0.00     0.000 C 
BRANCH   9  10
ATOM     10  C   UNL     1      22.588  12.873  47.626  1.00  0.00     0.000 C 
BRANCH  10  11
ATOM     11  C   UNL     1      21.107  12.671  47.998  1.00  0.00     0.000 C 
BRANCH  11  12
ATOM     12  C   UNL     1      20.287  11.831  46.999  1.00  0.00     0.006 C 
BRANCH  12  13
ATOM     13  C   UNL     1      19.001  12.512  46.496  1.00  0.00     0.053 C 
BRANCH  13  14
ATOM     14  C   UNL     1      18.798  12.356  45.019  1.00  0.00     0.041 C 
ATOM     15  O   UNL     1      17.750  12.787  44.467  1.00  0.00    -0.550 OA
ATOM     16  O   UNL     1      19.743  11.673  44.261  1.00  0.00    -0.550 OA
ENDBRANCH  13  14
ENDBRANCH  12  13
ENDBRANCH  11  12
ENDBRANCH  10  11
ENDBRANCH   9  10
ENDBRANCH   8   9
ENDBRANCH   7   8
ENDBRANCH   6   7
ENDBRANCH   5   6
ENDBRANCH   4   5
ENDBRANCH   3   4
ENDBRANCH   2   3
ENDBRANCH   1   2
BRANCH   1  17
ATOM     17  C   UNL     1      20.670  17.458  47.247  1.00  0.00     0.000 C 
BRANCH  17  18
ATOM     18  C   UNL     1      20.044  16.090  46.945  1.00  0.00     0.000 C 
BRANCH  18  19
ATOM     19  C   UNL     1      18.669  16.249  46.275  1.00  0.00     0.000 C 
BRANCH  19  20
ATOM     20  C   UNL     1      17.615  16.866  47.209  1.00  0.00     0.000 C 
BRANCH  20  21
ATOM     21  C   UNL     1      16.505  17.663  46.500  1.00  0.00     0.000 C 
BRANCH  21  22
ATOM     22  C   UNL     1      16.008  17.054  45.173  1.00  0.00    -0.000 C 
BRANCH  22  23
ATOM     23  C   UNL     1      15.391  18.058  44.177  1.00  0.00    -0.000 C 
BRANCH  23  24
ATOM     24  C   UNL     1      16.348  18.573  43.085  1.00  0.00    -0.000 C 
BRANCH  24  25
ATOM     25  C   UNL     1      17.837  18.587  43.479  1.00  0.00    -0.000 C 
BRANCH  25  26
ATOM     26  C   UNL     1      18.342  19.969  43.946  1.00  0.00    -0.000 C 
BRANCH  26  27
ATOM     27  C   UNL     1      19.508  19.861  44.943  1.00  0.00    -0.000 C 
BRANCH  27  28
ATOM     28  C   UNL     1      19.498  20.993  45.984  1.00  0.00    -0.000 C 
BRANCH  28  29
ATOM     29  C   UNL     1      18.447  20.775  47.083  1.00  0.00    -0.003 C 
ATOM     30  C   UNL     1      19.109  20.398  48.405  1.00  0.00     0.004 C 
ENDBRANCH  28  29
ENDBRANCH  27  28
ENDBRANCH  26  27
ENDBRANCH  25  26
ENDBRANCH  24  25
ENDBRANCH  23  24
ENDBRANCH  22  23
ENDBRANCH  21  22
ENDBRANCH  20  21
ENDBRANCH  19  20
ENDBRANCH  18  19
ENDBRANCH  17  18
ENDBRANCH   1  17
TORSDOF 26
ENDMDL
MODEL 4
REMARK VINA RESULT:    -4.826      2.261      4.269
REMARK INTER + INTRA:         -16.525
REMARK INTER:                 -11.930
REMARK INTRA:                  -4.595
REMARK UNBOUND:                -4.365
REMARK SMILES CCCCCCCCCCCCCCCCCCCCCCCCCCCC(=O)[O-]
REMARK SMILES IDX 15 1 16 2 17 3 18 4 19 5 20 6 21 7 22 8 23 9 24 10 25 11
REMARK SMILES IDX 26 12 27 13 28 14 29 15 30 16 14 17 13 18 12 19 11 20 10 21
REMARK SMILES IDX 9 22 8 23 7 24 6 25 5 26 4 27 3 28 2 29 1 30
REMARK H PARENT
REMARK Flexibility Score: inf
ROOT
ATOM      1  C   UNL     1      18.751  16.191  46.319  1.00  0.00     0.000 C 
ENDROOT
BRANCH   1   2
ATOM      2  C   UNL     1      20.171  16.266  46.914  1.00  0.00     0.000 C 
BRANCH   2   3
ATOM      3  C   UNL     1      20.301  17.118  48.197  1.00  0.00     0.000 C 
BRANCH   3   4
ATOM      4  C   UNL     1      21.281  18.302  48.086  1.00  0.00     0.000 C 
BRANCH   4   5
ATOM      5  C   UNL     1      20.985  19.199  46.871  1.00  0.00     0.000 C 
BRANCH   5   6
ATOM      6  C   UNL     1      19.739  20.080  47.085  1.00  0.00     0.000 C 
BRANCH   6   7
ATOM      7  C   UNL     1      19.401  21.004  45.892  1.00  0.00     0.000 C 
BRANCH   7   8
ATOM      8  C   UNL     1      17.908  21.045  45.492  1.00  0.00     0.000 C 
BRANCH   8   9
ATOM      9  C   UNL     1      17.347  19.734  44.908  1.00  0.00     0.000 C 
BRANCH   9  10
ATOM     10  C   UNL     1      18.253  19.129  43.822  1.00  0.00     0.000 C 
BRANCH  10  11
ATOM     11  C   UNL     1      17.654  17.869  43.170  1.00  0.00     0.000 C 
BRANCH  11  12
ATOM     12  C   UNL     1      16.123  17.733  43.284  1.00  0.00     0.006 C 
BRANCH  12  13
ATOM     13  C   UNL     1      15.456  17.002  42.106  1.00  0.00     0.053 C 
BRANCH  13  14
ATOM     14  C   UNL     1      14.962  15.635  42.472  1.00  0.00     0.041 C 
ATOM     15  O   UNL     1      15.619  14.608  42.148  1.00  0.00    -0.550 OA
ATOM     16  O   UNL     1      13.740  15.493  43.119  1.00  0.00    -0.550 OA
ENDBRANCH  13  14
ENDBRANCH  12  13
ENDBRANCH  11  12
ENDBRANCH  10  11
ENDBRANCH   9  10
ENDBRANCH   8   9
ENDBRANCH   7   8
ENDBRANCH   6   7
ENDBRANCH   5   6
ENDBRANCH   4   5
ENDBRANCH   3   4
ENDBRANCH   2   3
ENDBRANCH   1   2
BRANCH   1  17
ATOM     17  C   UNL     1      17.691  16.847  47.216  1.00  0.00     0.000 C 
BRANCH  17  18
ATOM     18  C   UNL     1      16.279  16.382  46.836  1.00  0.00     0.000 C 
BRANCH  18  19
ATOM     19  C   UNL     1      16.334  15.216  45.834  1.00  0.00     0.000 C 
BRANCH  19  20
ATOM     20  C   UNL     1      15.834  13.890  46.430  1.00  0.00     0.000 C 
BRANCH  20  21
ATOM     21  C   UNL     1      16.817  12.711  46.310  1.00  0.00     0.000 C 
BRANCH  21  22
ATOM     22  C   UNL     1      18.041  12.969  45.409  1.00  0.00    -0.000 C 
BRANCH  22  23
ATOM     23  C   UNL     1      19.319  12.197  45.794  1.00  0.00    -0.000 C 
BRANCH  23  24
ATOM     24  C   UNL     1      20.059  12.727  47.037  1.00  0.00    -0.000 C 
BRANCH  24  25
ATOM     25  C   UNL     1      21.595  12.681  46.949  1.00  0.00    -0.000 C 
BRANCH  25  26
ATOM     26  C   UNL     1      22.305  13.290  48.177  1.00  0.00    -0.000 C 
BRANCH  26  27
ATOM     27  C   UNL     1      23.351  14.348  47.786  1.00  0.00    -0.000 C 
BRANCH  27  28
ATOM     28  C   UNL     1      23.546  15.414  48.877  1.00  0.00    -0.000 C 
BRANCH  28  29
ATOM     29  C   UNL     1      22.724  15.122  50.141  1.00  0.00    -0.003 C 
ATOM     30  C   UNL     1      23.426  15.658  51.386  1.00  0.00     0.004 C 
ENDBRANCH  28  29
ENDBRANCH  27  28
ENDBRANCH  26  27
ENDBRANCH  25  26
ENDBRANCH  24  25
ENDBRANCH  23  24
ENDBRANCH  22  23
ENDBRANCH  21  22
ENDBRANCH  20  21
ENDBRANCH  19  20
ENDBRANCH  18  19
ENDBRANCH  17  18
ENDBRANCH   1  17
TORSDOF 26
ENDMDL
MODEL 5
REMARK VINA RESULT:    -4.767      3.149      7.834
REMARK INTER + INTRA:         -16.378
REMARK INTER:                 -11.388
REMARK INTRA:                  -4.990
REMARK UNBOUND:                -4.365
REMARK SMILES CCCCCCCCCCCCCCCCCCCCCCCCCCCC(=O)[O-]
REMARK SMILES IDX 15 1 16 2 17 3 18 4 19 5 20 6 21 7 22 8 23 9 24 10 25 11
REMARK SMILES IDX 26 12 27 13 28 14 29 15 30 16 14 17 13 18 12 19 11 20 10 21
REMARK SMILES IDX 9 22 8 23 7 24 6 25 5 26 4 27 3 28 2 29 1 30
REMARK H PARENT
REMARK Flexibility Score: inf
ROOT
ATOM      1  C   UNL     1      18.750  17.011  46.255  1.00  0.00     0.000 C 
ENDROOT
BRANCH   1   2
ATOM      2  C   UNL     1      19.898  16.358  47.050  1.00  0.00     0.000 C 
BRANCH   2   3
ATOM      3  C   UNL     1      20.973  17.336  47.573  1.00  0.00     0.000 C 
BRANCH   3   4
ATOM      4  C   UNL     1      20.894  17.630  49.084  1.00  0.00     0.000 C 
BRANCH   4   5
ATOM      5  C   UNL     1      20.599  19.109  49.382  1.00  0.00     0.000 C 
BRANCH   5   6
ATOM      6  C   UNL     1      20.334  19.922  48.100  1.00  0.00     0.000 C 
BRANCH   6   7
ATOM      7  C   UNL     1      18.958  20.625  48.065  1.00  0.00     0.000 C 
BRANCH   7   8
ATOM      8  C   UNL     1      18.440  20.993  46.655  1.00  0.00     0.000 C 
BRANCH   8   9
ATOM      9  C   UNL     1      19.313  20.502  45.485  1.00  0.00     0.000 C 
BRANCH   9  10
ATOM     10  C   UNL     1      18.485  20.053  44.269  1.00  0.00     0.000 C 
BRANCH  10  11
ATOM     11  C   UNL     1      16.966  20.114  44.517  1.00  0.00     0.000 C 
BRANCH  11  12
ATOM     12  C   UNL     1      16.180  21.028  43.556  1.00  0.00     0.006 C 
BRANCH  12  13
ATOM     13  C   UNL     1      16.863  21.266  42.198  1.00  0.00     0.053 C 
BRANCH  13  14
ATOM     14  C   UNL     1      17.358  22.671  42.033  1.00  0.00     0.041 C 
ATOM     15  O   UNL     1      17.661  23.366  43.041  1.00  0.00    -0.550 OA
ATOM     16  O   UNL     1      17.425  23.235  40.765  1.00  0.00    -0.550 OA
ENDBRANCH  13  14
ENDBRANCH  12  13
ENDBRANCH  11  12
ENDBRANCH  10  11
ENDBRANCH   9  10
ENDBRANCH   8   9
ENDBRANCH   7   8
ENDBRANCH   6   7
ENDBRANCH   5   6
ENDBRANCH   4   5
ENDBRANCH   3   4
ENDBRANCH   2   3
ENDBRANCH   1   2
BRANCH   1  17
ATOM     17  C   UNL     1      17.528  17.337  47.127  1.00  0.00     0.000 C 
BRANCH  17  18
ATOM     18  C   UNL     1      16.377  16.359  46.856  1.00  0.00     0.000 C 
BRANCH  18  19
ATOM     19  C   UNL     1      15.589  16.771  45.602  1.00  0.00     0.000 C 
BRANCH  19  20
ATOM     20  C   UNL     1      15.315  15.594  44.652  1.00  0.00     0.000 C 
BRANCH  20  21
ATOM     21  C   UNL     1      16.249  15.512  43.431  1.00  0.00     0.000 C 
BRANCH  21  22
ATOM     22  C   UNL     1      16.970  16.825  43.069  1.00  0.00    -0.000 C 
BRANCH  22  23
ATOM     23  C   UNL     1      16.488  17.506  41.771  1.00  0.00    -0.000 C 
BRANCH  23  24
ATOM     24  C   UNL     1      15.040  18.031  41.803  1.00  0.00    -0.000 C 
BRANCH  24  25
ATOM     25  C   UNL     1      14.570  18.722  40.509  1.00  0.00    -0.000 C 
BRANCH  25  26
ATOM     26  C   UNL     1      13.573  17.880  39.684  1.00  0.00    -0.000 C 
BRANCH  26  27
ATOM     27  C   UNL     1      13.431  16.445  40.220  1.00  0.00    -0.000 C 
BRANCH  27  28
ATOM     28  C   UNL     1      14.325  15.445  39.468  1.00  0.00    -0.000 C 
BRANCH  28  29
ATOM     29  C   UNL     1      14.576  14.159  40.269  1.00  0.00    -0.003 C 
ATOM     30  C   UNL     1      13.557  14.009  41.395  1.00  0.00     0.004 C 
ENDBRANCH  28  29
ENDBRANCH  27  28
ENDBRANCH  26  27
ENDBRANCH  25  26
ENDBRANCH  24  25
ENDBRANCH  23  24
ENDBRANCH  22  23
ENDBRANCH  21  22
ENDBRANCH  20  21
ENDBRANCH  19  20
ENDBRANCH  18  19
ENDBRANCH  17  18
ENDBRANCH   1  17
TORSDOF 26
ENDMDL
MODEL 6
REMARK VINA RESULT:    -4.736      3.476      8.135
REMARK INTER + INTRA:         -16.300
REMARK INTER:                 -10.920
REMARK INTRA:                  -5.380
REMARK UNBOUND:                -4.365
REMARK SMILES CCCCCCCCCCCCCCCCCCCCCCCCCCCC(=O)[O-]
REMARK SMILES IDX 15 1 16 2 17 3 18 4 19 5 20 6 21 7 22 8 23 9 24 10 25 11
REMARK SMILES IDX 26 12 27 13 28 14 29 15 30 16 14 17 13 18 12 19 11 20 10 21
REMARK SMILES IDX 9 22 8 23 7 24 6 25 5 26 4 27 3 28 2 29 1 30
REMARK H PARENT
REMARK Flexibility Score: inf
ROOT
ATOM      1  C   UNL     1      16.921  17.997  46.093  1.00  0.00     0.000 C 
ENDROOT
BRANCH   1   2
ATOM      2  C   UNL     1      17.950  17.752  44.972  1.00  0.00     0.000 C 
BRANCH   2   3
ATOM      3  C   UNL     1      17.841  18.707  43.762  1.00  0.00     0.000 C 
BRANCH   3   4
ATOM      4  C   UNL     1      18.857  19.866  43.764  1.00  0.00     0.000 C 
BRANCH   4   5
ATOM      5  C   UNL     1      18.179  21.243  43.672  1.00  0.00     0.000 C 
BRANCH   5   6
ATOM      6  C   UNL     1      17.636  21.720  45.033  1.00  0.00     0.000 C 
BRANCH   6   7
ATOM      7  C   UNL     1      18.684  21.729  46.169  1.00  0.00     0.000 C 
BRANCH   7   8
ATOM      8  C   UNL     1      18.288  20.939  47.438  1.00  0.00     0.000 C 
BRANCH   8   9
ATOM      9  C   UNL     1      19.352  19.954  47.959  1.00  0.00     0.000 C 
BRANCH   9  10
ATOM     10  C   UNL     1      20.605  19.901  47.068  1.00  0.00     0.000 C 
BRANCH  10  11
ATOM     11  C   UNL     1      21.279  18.517  47.054  1.00  0.00     0.000 C 
BRANCH  11  12
ATOM     12  C   UNL     1      20.458  17.380  47.693  1.00  0.00     0.006 C 
BRANCH  12  13
ATOM     13  C   UNL     1      21.267  16.110  48.015  1.00  0.00     0.053 C 
BRANCH  13  14
ATOM     14  C   UNL     1      21.668  16.025  49.457  1.00  0.00     0.041 C 
ATOM     15  O   UNL     1      22.336  15.043  49.879  1.00  0.00    -0.550 OA
ATOM     16  O   UNL     1      21.246  17.004  50.349  1.00  0.00    -0.550 OA
ENDBRANCH  13  14
ENDBRANCH  12  13
ENDBRANCH  11  12
ENDBRANCH  10  11
ENDBRANCH   9  10
ENDBRANCH   8   9
ENDBRANCH   7   8
ENDBRANCH   6   7
ENDBRANCH   5   6
ENDBRANCH   4   5
ENDBRANCH   3   4
ENDBRANCH   2   3
ENDBRANCH   1   2
BRANCH   1  17
ATOM     17  C   UNL     1      16.855  16.844  47.106  1.00  0.00     0.000 C 
BRANCH  17  18
ATOM     18  C   UNL     1      17.488  15.568  46.535  1.00  0.00     0.000 C 
BRANCH  18  19
ATOM     19  C   UNL     1      16.409  14.542  46.152  1.00  0.00     0.000 C 
BRANCH  19  20
ATOM     20  C   UNL     1      16.346  14.273  44.640  1.00  0.00     0.000 C 
BRANCH  20  21
ATOM     21  C   UNL     1      14.996  14.603  43.976  1.00  0.00     0.000 C 
BRANCH  21  22
ATOM     22  C   UNL     1      14.248  15.810  44.577  1.00  0.00    -0.000 C 
BRANCH  22  23
ATOM     23  C   UNL     1      14.316  17.107  43.747  1.00  0.00    -0.000 C 
BRANCH  23  24
ATOM     24  C   UNL     1      14.179  16.921  42.223  1.00  0.00    -0.000 C 
BRANCH  24  25
ATOM     25  C   UNL     1      15.481  17.116  41.425  1.00  0.00    -0.000 C 
BRANCH  25  26
ATOM     26  C   UNL     1      15.321  18.032  40.192  1.00  0.00    -0.000 C 
BRANCH  26  27
ATOM     27  C   UNL     1      14.583  19.340  40.524  1.00  0.00    -0.000 C 
BRANCH  27  28
ATOM     28  C   UNL     1      15.434  20.294  41.379  1.00  0.00    -0.000 C 
BRANCH  28  29
ATOM     29  C   UNL     1      14.758  20.656  42.709  1.00  0.00    -0.003 C 
ATOM     30  C   UNL     1      14.451  22.150  42.778  1.00  0.00     0.004 C 
ENDBRANCH  28  29
ENDBRANCH  27  28
ENDBRANCH  26  27
ENDBRANCH  25  26
ENDBRANCH  24  25
ENDBRANCH  23  24
ENDBRANCH  22  23
ENDBRANCH  21  22
ENDBRANCH  20  21
ENDBRANCH  19  20
ENDBRANCH  18  19
ENDBRANCH  17  18
ENDBRANCH   1  17
TORSDOF 26
ENDMDL
MODEL 7
REMARK VINA RESULT:    -4.731      3.599      7.607
REMARK INTER + INTRA:         -16.286
REMARK INTER:                 -11.221
REMARK INTRA:                  -5.065
REMARK UNBOUND:                -4.365
REMARK SMILES CCCCCCCCCCCCCCCCCCCCCCCCCCCC(=O)[O-]
REMARK SMILES IDX 15 1 16 2 17 3 18 4 19 5 20 6 21 7 22 8 23 9 24 10 25 11
REMARK SMILES IDX 26 12 27 13 28 14 29 15 30 16 14 17 13 18 12 19 11 20 10 21
REMARK SMILES IDX 9 22 8 23 7 24 6 25 5 26 4 27 3 28 2 29 1 30
REMARK H PARENT
REMARK Flexibility Score: inf
ROOT
ATOM      1  C   UNL     1      18.524  15.297  46.047  1.00  0.00     0.000 C 
ENDROOT
BRANCH   1   2
ATOM      2  C   UNL     1      17.396  15.934  46.883  1.00  0.00     0.000 C 
BRANCH   2   3
ATOM      3  C   UNL     1      17.567  17.442  47.174  1.00  0.00     0.000 C 
BRANCH   3   4
ATOM      4  C   UNL     1      16.875  18.374  46.161  1.00  0.00     0.000 C 
BRANCH   4   5
ATOM      5  C   UNL     1      17.698  19.640  45.867  1.00  0.00     0.000 C 
BRANCH   5   6
ATOM      6  C   UNL     1      19.044  19.318  45.189  1.00  0.00     0.000 C 
BRANCH   6   7
ATOM      7  C   UNL     1      20.282  19.841  45.951  1.00  0.00     0.000 C 
BRANCH   7   8
ATOM      8  C   UNL     1      20.024  20.267  47.416  1.00  0.00     0.000 C 
BRANCH   8   9
ATOM      9  C   UNL     1      20.477  19.255  48.485  1.00  0.00     0.000 C 
BRANCH   9  10
ATOM     10  C   UNL     1      21.335  18.117  47.904  1.00  0.00     0.000 C 
BRANCH  10  11
ATOM     11  C   UNL     1      20.869  16.720  48.354  1.00  0.00     0.000 C 
BRANCH  11  12
ATOM     12  C   UNL     1      21.894  15.587  48.149  1.00  0.00     0.006 C 
BRANCH  12  13
ATOM     13  C   UNL     1      23.347  15.972  48.481  1.00  0.00     0.053 C 
BRANCH  13  14
ATOM     14  C   UNL     1      23.771  15.523  49.847  1.00  0.00     0.041 C 
ATOM     15  O   UNL     1      22.926  15.059  50.659  1.00  0.00    -0.550 OA
ATOM     16  O   UNL     1      25.093  15.679  50.245  1.00  0.00    -0.550 OA
ENDBRANCH  13  14
ENDBRANCH  12  13
ENDBRANCH  11  12
ENDBRANCH  10  11
ENDBRANCH   9  10
ENDBRANCH   8   9
ENDBRANCH   7   8
ENDBRANCH   6   7
ENDBRANCH   5   6
ENDBRANCH   4   5
ENDBRANCH   3   4
ENDBRANCH   2   3
ENDBRANCH   1   2
BRANCH   1  17
ATOM     17  C   UNL     1      18.542  13.764  46.136  1.00  0.00     0.000 C 
BRANCH  17  18
ATOM     18  C   UNL     1      17.669  13.135  45.042  1.00  0.00     0.000 C 
BRANCH  18  19
ATOM     19  C   UNL     1      16.516  12.323  45.655  1.00  0.00     0.000 C 
BRANCH  19  20
ATOM     20  C   UNL     1      15.292  13.187  46.000  1.00  0.00     0.000 C 
BRANCH  20  21
ATOM     21  C   UNL     1      14.621  13.874  44.797  1.00  0.00     0.000 C 
BRANCH  21  22
ATOM     22  C   UNL     1      14.704  15.414  44.793  1.00  0.00    -0.000 C 
BRANCH  22  23
ATOM     23  C   UNL     1      15.091  16.050  43.442  1.00  0.00    -0.000 C 
BRANCH  23  24
ATOM     24  C   UNL     1      16.605  16.165  43.179  1.00  0.00    -0.000 C 
BRANCH  24  25
ATOM     25  C   UNL     1      17.030  17.393  42.353  1.00  0.00    -0.000 C 
BRANCH  25  26
ATOM     26  C   UNL     1      15.876  18.377  42.067  1.00  0.00    -0.000 C 
BRANCH  26  27
ATOM     27  C   UNL     1      16.097  19.749  42.728  1.00  0.00    -0.000 C 
BRANCH  27  28
ATOM     28  C   UNL     1      14.832  20.277  43.424  1.00  0.00    -0.000 C 
BRANCH  28  29
ATOM     29  C   UNL     1      13.647  19.307  43.309  1.00  0.00    -0.003 C 
ATOM     30  C   UNL     1      13.073  18.979  44.684  1.00  0.00     0.004 C 
ENDBRANCH  28  29
ENDBRANCH  27  28
ENDBRANCH  26  27
ENDBRANCH  25  26
ENDBRANCH  24  25
ENDBRANCH  23  24
ENDBRANCH  22  23
ENDBRANCH  21  22
ENDBRANCH  20  21
ENDBRANCH  19  20
ENDBRANCH  18  19
ENDBRANCH  17  18
ENDBRANCH   1  17
TORSDOF 26
ENDMDL
MODEL 8
REMARK VINA RESULT:    -4.727      1.383      4.881
REMARK INTER + INTRA:         -16.276
REMARK INTER:                 -11.828
REMARK INTRA:                  -4.448
REMARK UNBOUND:                -4.365
REMARK SMILES CCCCCCCCCCCCCCCCCCCCCCCCCCCC(=O)[O-]
REMARK SMILES IDX 15 1 16 2 17 3 18 4 19 5 20 6 21 7 22 8 23 9 24 10 25 11
REMARK SMILES IDX 26 12 27 13 28 14 29 15 30 16 14 17 13 18 12 19 11 20 10 21
REMARK SMILES IDX 9 22 8 23 7 24 6 25 5 26 4 27 3 28 2 29 1 30
REMARK H PARENT
REMARK Flexibility Score: inf
ROOT
ATOM      1  C   UNL     1      19.545  12.037  47.295  1.00  0.00     0.000 C 
ENDROOT
BRANCH   1   2
ATOM      2  C   UNL     1      19.537  13.048  46.131  1.00  0.00     0.000 C 
BRANCH   2   3
ATOM      3  C   UNL     1      18.362  14.052  46.141  1.00  0.00     0.000 C 
BRANCH   3   4
ATOM      4  C   UNL     1      18.783  15.534  46.134  1.00  0.00     0.000 C 
BRANCH   4   5
ATOM      5  C   UNL     1      17.703  16.456  46.725  1.00  0.00     0.000 C 
BRANCH   5   6
ATOM      6  C   UNL     1      16.338  15.752  46.852  1.00  0.00     0.000 C 
BRANCH   6   7
ATOM      7  C   UNL     1      15.336  16.100  45.728  1.00  0.00     0.000 C 
BRANCH   7   8
ATOM      8  C   UNL     1      15.172  15.021  44.632  1.00  0.00     0.000 C 
BRANCH   8   9
ATOM      9  C   UNL     1      16.103  15.173  43.414  1.00  0.00     0.000 C 
BRANCH   9  10
ATOM     10  C   UNL     1      15.966  16.542  42.726  1.00  0.00     0.000 C 
BRANCH  10  11
ATOM     11  C   UNL     1      17.308  17.286  42.589  1.00  0.00     0.000 C 
BRANCH  11  12
ATOM     12  C   UNL     1      17.549  18.404  43.622  1.00  0.00     0.006 C 
BRANCH  12  13
ATOM     13  C   UNL     1      16.290  19.199  44.010  1.00  0.00     0.053 C 
BRANCH  13  14
ATOM     14  C   UNL     1      16.432  20.671  43.768  1.00  0.00     0.041 C 
ATOM     15  O   UNL     1      16.049  21.181  42.680  1.00  0.00    -0.550 OA
ATOM     16  O   UNL     1      17.049  21.470  44.722  1.00  0.00    -0.550 OA
ENDBRANCH  13  14
ENDBRANCH  12  13
ENDBRANCH  11  12
ENDBRANCH  10  11
ENDBRANCH   9  10
ENDBRANCH   8   9
ENDBRANCH   7   8
ENDBRANCH   6   7
ENDBRANCH   5   6
ENDBRANCH   4   5
ENDBRANCH   3   4
ENDBRANCH   2   3
ENDBRANCH   1   2
BRANCH   1  17
ATOM     17  C   UNL     1      20.938  11.850  47.914  1.00  0.00     0.000 C 
BRANCH  17  18
ATOM     18  C   UNL     1      21.647  13.198  48.101  1.00  0.00     0.000 C 
BRANCH  18  19
ATOM     19  C   UNL     1      23.097  13.133  47.594  1.00  0.00     0.000 C 
BRANCH  19  20
ATOM     20  C   UNL     1      23.981  14.258  48.157  1.00  0.00     0.000 C 
BRANCH  20  21
ATOM     21  C   UNL     1      24.664  13.938  49.499  1.00  0.00     0.000 C 
BRANCH  21  22
ATOM     22  C   UNL     1      24.065  14.653  50.726  1.00  0.00    -0.000 C 
BRANCH  22  23
ATOM     23  C   UNL     1      23.327  15.974  50.425  1.00  0.00    -0.000 C 
BRANCH  23  24
ATOM     24  C   UNL     1      21.793  15.912  50.543  1.00  0.00    -0.000 C 
BRANCH  24  25
ATOM     25  C   UNL     1      21.031  16.906  49.647  1.00  0.00    -0.000 C 
BRANCH  25  26
ATOM     26  C   UNL     1      21.473  16.872  48.168  1.00  0.00    -0.000 C 
BRANCH  26  27
ATOM     27  C   UNL     1      21.360  18.248  47.490  1.00  0.00    -0.000 C 
BRANCH  27  28
ATOM     28  C   UNL     1      20.402  19.194  48.233  1.00  0.00    -0.000 C 
BRANCH  28  29
ATOM     29  C   UNL     1      19.463  19.950  47.282  1.00  0.00    -0.003 C 
ATOM     30  C   UNL     1      19.952  19.854  45.840  1.00  0.00     0.004 C 
ENDBRANCH  28  29
ENDBRANCH  27  28
ENDBRANCH  26  27
ENDBRANCH  25  26
ENDBRANCH  24  25
ENDBRANCH  23  24
ENDBRANCH  22  23
ENDBRANCH  21  22
ENDBRANCH  20  21
ENDBRANCH  19  20
ENDBRANCH  18  19
ENDBRANCH  17  18
ENDBRANCH   1  17
TORSDOF 26
ENDMDL
MODEL 9
REMARK VINA RESULT:    -4.711      4.066      9.076
REMARK INTER + INTRA:         -16.235
REMARK INTER:                 -11.381
REMARK INTRA:                  -4.854
REMARK UNBOUND:                -4.365
REMARK SMILES CCCCCCCCCCCCCCCCCCCCCCCCCCCC(=O)[O-]
REMARK SMILES IDX 15 1 16 2 17 3 18 4 19 5 20 6 21 7 22 8 23 9 24 10 25 11
REMARK SMILES IDX 26 12 27 13 28 14 29 15 30 16 14 17 13 18 12 19 11 20 10 21
REMARK SMILES IDX 9 22 8 23 7 24 6 25 5 26 4 27 3 28 2 29 1 30
REMARK H PARENT
REMARK Flexibility Score: inf
ROOT
ATOM      1  C   UNL     1      17.992  21.198  47.268  1.00  0.00     0.000 C 
ENDROOT
BRANCH   1   2
ATOM      2  C   UNL     1      19.284  20.534  47.784  1.00  0.00     0.000 C 
BRANCH   2   3
ATOM      3  C   UNL     1      20.411  20.391  46.737  1.00  0.00     0.000 C 
BRANCH   3   4
ATOM      4  C   UNL     1      21.237  19.095  46.856  1.00  0.00     0.000 C 
BRANCH   4   5
ATOM      5  C   UNL     1      20.969  18.344  48.171  1.00  0.00     0.000 C 
BRANCH   5   6
ATOM      6  C   UNL     1      20.587  16.870  47.935  1.00  0.00     0.000 C 
BRANCH   6   7
ATOM      7  C   UNL     1      19.492  16.660  46.865  1.00  0.00     0.000 C 
BRANCH   7   8
ATOM      8  C   UNL     1      18.068  17.092  47.285  1.00  0.00     0.000 C 
BRANCH   8   9
ATOM      9  C   UNL     1      16.930  16.183  46.785  1.00  0.00     0.000 C 
BRANCH   9  10
ATOM     10  C   UNL     1      17.437  14.999  45.944  1.00  0.00     0.000 C 
BRANCH  10  11
ATOM     11  C   UNL     1      16.301  14.196  45.284  1.00  0.00     0.000 C 
BRANCH  11  12
ATOM     12  C   UNL     1      14.940  14.270  46.003  1.00  0.00     0.006 C 
BRANCH  12  13
ATOM     13  C   UNL     1      14.619  13.054  46.890  1.00  0.00     0.053 C 
BRANCH  13  14
ATOM     14  C   UNL     1      13.178  12.646  46.822  1.00  0.00     0.041 C 
ATOM     15  O   UNL     1      12.800  11.547  47.309  1.00  0.00    -0.550 OA
ATOM     16  O   UNL     1      12.263  13.456  46.160  1.00  0.00    -0.550 OA
ENDBRANCH  13  14
ENDBRANCH  12  13
ENDBRANCH  11  12
ENDBRANCH  10  11
ENDBRANCH   9  10
ENDBRANCH   8   9
ENDBRANCH   7   8
ENDBRANCH   6   7
ENDBRANCH   5   6
ENDBRANCH   4   5
ENDBRANCH   3   4
ENDBRANCH   2   3
ENDBRANCH   1   2
BRANCH   1  17
ATOM     17  C   UNL     1      18.194  21.956  45.948  1.00  0.00     0.000 C 
BRANCH  17  18
ATOM     18  C   UNL     1      17.224  21.458  44.869  1.00  0.00     0.000 C 
BRANCH  18  19
ATOM     19  C   UNL     1      17.951  21.241  43.532  1.00  0.00     0.000 C 
BRANCH  19  20
ATOM     20  C   UNL     1      18.795  19.956  43.510  1.00  0.00     0.000 C 
BRANCH  20  21
ATOM     21  C   UNL     1      18.099  18.711  44.090  1.00  0.00     0.000 C 
BRANCH  21  22
ATOM     22  C   UNL     1      17.031  18.074  43.179  1.00  0.00    -0.000 C 
BRANCH  22  23
ATOM     23  C   UNL     1      15.589  18.116  43.723  1.00  0.00    -0.000 C 
BRANCH  23  24
ATOM     24  C   UNL     1      14.705  16.915  43.337  1.00  0.00    -0.000 C 
BRANCH  24  25
ATOM     25  C   UNL     1      15.134  16.177  42.056  1.00  0.00    -0.000 C 
BRANCH  25  26
ATOM     26  C   UNL     1      14.350  16.609  40.798  1.00  0.00    -0.000 C 
BRANCH  26  27
ATOM     27  C   UNL     1      15.091  17.684  39.985  1.00  0.00    -0.000 C 
BRANCH  27  28
ATOM     28  C   UNL     1      14.413  19.061  40.076  1.00  0.00    -0.000 C 
BRANCH  28  29
ATOM     29  C   UNL     1      15.386  20.172  40.494  1.00  0.00    -0.003 C 
ATOM     30  C   UNL     1      14.790  21.034  41.604  1.00  0.00     0.004 C 
ENDBRANCH  28  29
ENDBRANCH  27  28
ENDBRANCH  26  27
ENDBRANCH  25  26
ENDBRANCH  24  25
ENDBRANCH  23  24
ENDBRANCH  22  23
ENDBRANCH  21  22
ENDBRANCH  20  21
ENDBRANCH  19  20
ENDBRANCH  18  19
ENDBRANCH  17  18
ENDBRANCH   1  17
TORSDOF 26
ENDMDL
