MODEL 1
REMARK VINA RESULT:    -7.262      0.000      0.000
REMARK INTER + INTRA:          -9.010
REMARK INTER:                  -8.960
REMARK INTRA:                  -0.050
REMARK UNBOUND:                -0.050
REMARK SMILES O=c1c(O)c(-c2cc(O)c(O)c(O)c2)oc2cc(O)cc(O)c12
REMARK SMILES IDX 5 1 3 2 2 3 1 4 23 5 21 6 20 7 18 8 17 9 16 10 15 11 6 12
REMARK SMILES IDX 7 13 8 14 14 15 10 16 12 17 9 18 11 20 13 22 4 24 22 26
REMARK SMILES IDX 19 28
REMARK H PARENT 9 19 11 21 13 23 4 25 22 27 19 29
REMARK Flexibility Score: inf
ROOT
ATOM      1  C   UNL     1      45.977 -28.949  18.060  1.00  0.00     0.180 A 
ATOM      2  C   UNL     1      46.599 -29.271  19.278  1.00  0.00     0.208 A 
ATOM      3  C   UNL     1      46.072 -30.314  20.058  1.00  0.00     0.238 A 
ATOM      4  O   UNL     1      46.590 -30.546  21.182  1.00  0.00    -0.285 OA
ATOM      5  C   UNL     1      44.965 -31.057  19.584  1.00  0.00     0.111 A 
ATOM      6  C   UNL     1      44.376 -32.162  20.270  1.00  0.00     0.134 A 
ATOM      7  C   UNL     1      43.215 -32.755  19.756  1.00  0.00     0.093 A 
ATOM      8  C   UNL     1      42.660 -32.325  18.549  1.00  0.00     0.123 A 
ATOM      9  C   UNL     1      43.259 -31.283  17.845  1.00  0.00     0.094 A 
ATOM     10  C   UNL     1      44.394 -30.646  18.352  1.00  0.00     0.146 A 
ATOM     11  O   UNL     1      44.919 -29.643  17.657  1.00  0.00    -0.452 OA
ENDROOT
BRANCH   1  12
ATOM     12  C   UNL     1      46.466 -27.854  17.191  1.00  0.00     0.029 A 
ATOM     13  C   UNL     1      46.634 -28.088  15.817  1.00  0.00     0.062 A 
ATOM     14  C   UNL     1      47.073 -27.068  14.968  1.00  0.00     0.162 A 
ATOM     15  C   UNL     1      46.709 -26.569  17.700  1.00  0.00     0.062 A 
ATOM     16  C   UNL     1      47.337 -25.789  15.486  1.00  0.00     0.200 A 
ATOM     17  C   UNL     1      47.149 -25.539  16.856  1.00  0.00     0.162 A 
BRANCH  14  18
ATOM     18  O   UNL     1      47.242 -27.345  13.611  1.00  0.00    -0.504 OA
ATOM     19  H   UNL     1      47.278 -28.293  13.256  1.00  0.00     0.293 HD
ENDBRANCH  14  18
BRANCH  16  20
ATOM     20  O   UNL     1      47.779 -24.776  14.632  1.00  0.00    -0.502 OA
ATOM     21  H   UNL     1      48.730 -24.431  14.652  1.00  0.00     0.293 HD
ENDBRANCH  16  20
BRANCH  17  22
ATOM     22  O   UNL     1      47.394 -24.268  17.374  1.00  0.00    -0.504 OA
ATOM     23  H   UNL     1      48.113 -23.667  16.986  1.00  0.00     0.293 HD
ENDBRANCH  17  22
ENDBRANCH   1  12
BRANCH   2  24
ATOM     24  O   UNL     1      47.738 -28.575  19.692  1.00  0.00    -0.502 OA
ATOM     25  H   UNL     1      48.368 -28.934  20.399  1.00  0.00     0.293 HD
ENDBRANCH   2  24
BRANCH   6  26
ATOM     26  O   UNL     1      44.899 -32.731  21.436  1.00  0.00    -0.507 OA
ATOM     27  H   UNL     1      45.390 -32.223  22.155  1.00  0.00     0.293 HD
ENDBRANCH   6  26
BRANCH   8  28
ATOM     28  O   UNL     1      41.515 -32.932  18.037  1.00  0.00    -0.508 OA
ATOM     29  H   UNL     1      41.518 -33.393  17.134  1.00  0.00     0.293 HD
ENDBRANCH   8  28
TORSDOF 7
ENDMDL
MODEL 2
REMARK VINA RESULT:    -6.993      3.035      7.840
REMARK INTER + INTRA:          -8.678
REMARK INTER:                  -8.347
REMARK INTRA:                  -0.331
REMARK UNBOUND:                -0.050
REMARK SMILES O=c1c(O)c(-c2cc(O)c(O)c(O)c2)oc2cc(O)cc(O)c12
REMARK SMILES IDX 5 1 3 2 2 3 1 4 23 5 21 6 20 7 18 8 17 9 16 10 15 11 6 12
REMARK SMILES IDX 7 13 8 14 14 15 10 16 12 17 9 18 11 20 13 22 4 24 22 26
REMARK SMILES IDX 19 28
REMARK H PARENT 9 19 11 21 13 23 4 25 22 27 19 29
REMARK Flexibility Score: inf
ROOT
ATOM      1  C   UNL     1      47.289 -26.561  18.871  1.00  0.00     0.180 A 
ATOM      2  C   UNL     1      48.040 -26.551  17.684  1.00  0.00     0.208 A 
ATOM      3  C   UNL     1      48.990 -25.535  17.486  1.00  0.00     0.238 A 
ATOM      4  O   UNL     1      49.605 -25.490  16.390  1.00  0.00    -0.285 OA
ATOM      5  C   UNL     1      49.216 -24.575  18.503  1.00  0.00     0.111 A 
ATOM      6  C   UNL     1      50.183 -23.528  18.429  1.00  0.00     0.134 A 
ATOM      7  C   UNL     1      50.244 -22.571  19.451  1.00  0.00     0.093 A 
ATOM      8  C   UNL     1      49.417 -22.661  20.572  1.00  0.00     0.123 A 
ATOM      9  C   UNL     1      48.507 -23.710  20.679  1.00  0.00     0.094 A 
ATOM     10  C   UNL     1      48.396 -24.657  19.658  1.00  0.00     0.146 A 
ATOM     11  O   UNL     1      47.500 -25.628  19.792  1.00  0.00    -0.452 OA
ENDROOT
BRANCH   1  12
ATOM     12  C   UNL     1      46.261 -27.591  19.144  1.00  0.00     0.029 A 
ATOM     13  C   UNL     1      44.989 -27.464  18.565  1.00  0.00     0.062 A 
ATOM     14  C   UNL     1      44.004 -28.432  18.787  1.00  0.00     0.162 A 
ATOM     15  C   UNL     1      46.548 -28.724  19.922  1.00  0.00     0.062 A 
ATOM     16  C   UNL     1      44.288 -29.553  19.584  1.00  0.00     0.200 A 
ATOM     17  C   UNL     1      45.567 -29.700  20.149  1.00  0.00     0.162 A 
BRANCH  14  18
ATOM     18  O   UNL     1      42.747 -28.262  18.205  1.00  0.00    -0.504 OA
ATOM     19  H   UNL     1      42.134 -27.497  18.463  1.00  0.00     0.293 HD
ENDBRANCH  14  18
BRANCH  16  20
ATOM     20  O   UNL     1      43.299 -30.513  19.804  1.00  0.00    -0.502 OA
ATOM     21  H   UNL     1      42.392 -30.466  19.356  1.00  0.00     0.293 HD
ENDBRANCH  16  20
BRANCH  17  22
ATOM     22  O   UNL     1      45.861 -30.818  20.929  1.00  0.00    -0.504 OA
ATOM     23  H   UNL     1      46.815 -31.063  21.167  1.00  0.00     0.293 HD
ENDBRANCH  17  22
ENDBRANCH   1  12
BRANCH   2  24
ATOM     24  O   UNL     1      47.857 -27.552  16.726  1.00  0.00    -0.502 OA
ATOM     25  H   UNL     1      46.969 -27.708  16.264  1.00  0.00     0.293 HD
ENDBRANCH   2  24
BRANCH   6  26
ATOM     26  O   UNL     1      51.119 -23.396  17.398  1.00  0.00    -0.507 OA
ATOM     27  H   UNL     1      51.397 -24.136  16.773  1.00  0.00     0.293 HD
ENDBRANCH   6  26
BRANCH   8  28
ATOM     28  O   UNL     1      49.497 -21.714  21.592  1.00  0.00    -0.508 OA
ATOM     29  H   UNL     1      49.704 -20.741  21.397  1.00  0.00     0.293 HD
ENDBRANCH   8  28
TORSDOF 7
ENDMDL
MODEL 3
REMARK VINA RESULT:    -6.963      3.016      7.820
REMARK INTER + INTRA:          -8.641
REMARK INTER:                  -8.292
REMARK INTRA:                  -0.349
REMARK UNBOUND:                -0.050
REMARK SMILES O=c1c(O)c(-c2cc(O)c(O)c(O)c2)oc2cc(O)cc(O)c12
REMARK SMILES IDX 5 1 3 2 2 3 1 4 23 5 21 6 20 7 18 8 17 9 16 10 15 11 6 12
REMARK SMILES IDX 7 13 8 14 14 15 10 16 12 17 9 18 11 20 13 22 4 24 22 26
REMARK SMILES IDX 19 28
REMARK H PARENT 9 19 11 21 13 23 4 25 22 27 19 29
REMARK Flexibility Score: inf
ROOT
ATOM      1  C   UNL     1      47.245 -26.623  18.806  1.00  0.00     0.180 A 
ATOM      2  C   UNL     1      48.017 -26.584  17.633  1.00  0.00     0.208 A 
ATOM      3  C   UNL     1      48.976 -25.569  17.482  1.00  0.00     0.238 A 
ATOM      4  O   UNL     1      49.611 -25.497  16.398  1.00  0.00    -0.285 OA
ATOM      5  C   UNL     1      49.188 -24.639  18.528  1.00  0.00     0.111 A 
ATOM      6  C   UNL     1      50.163 -23.596  18.501  1.00  0.00     0.134 A 
ATOM      7  C   UNL     1      50.211 -22.669  19.550  1.00  0.00     0.093 A 
ATOM      8  C   UNL     1      49.363 -22.785  20.654  1.00  0.00     0.123 A 
ATOM      9  C   UNL     1      48.446 -23.831  20.715  1.00  0.00     0.094 A 
ATOM     10  C   UNL     1      48.347 -24.748  19.666  1.00  0.00     0.146 A 
ATOM     11  O   UNL     1      47.444 -25.717  19.756  1.00  0.00    -0.452 OA
ENDROOT
BRANCH   1  12
ATOM     12  C   UNL     1      46.206 -27.654  19.032  1.00  0.00     0.029 A 
ATOM     13  C   UNL     1      46.487 -28.744  19.870  1.00  0.00     0.062 A 
ATOM     14  C   UNL     1      45.519 -29.721  20.118  1.00  0.00     0.162 A 
ATOM     15  C   UNL     1      44.923 -27.535  18.471  1.00  0.00     0.062 A 
ATOM     16  C   UNL     1      44.244 -29.610  19.538  1.00  0.00     0.200 A 
ATOM     17  C   UNL     1      43.946 -28.510  18.716  1.00  0.00     0.162 A 
BRANCH  14  18
ATOM     18  O   UNL     1      45.843 -30.797  20.945  1.00  0.00    -0.504 OA
ATOM     19  H   UNL     1      45.343 -30.985  21.806  1.00  0.00     0.293 HD
ENDBRANCH  14  18
BRANCH  16  20
ATOM     20  O   UNL     1      43.284 -30.592  19.788  1.00  0.00    -0.502 OA
ATOM     21  H   UNL     1      43.126 -31.366  19.156  1.00  0.00     0.293 HD
ENDBRANCH  16  20
BRANCH  17  22
ATOM     22  O   UNL     1      42.678 -28.385  18.150  1.00  0.00    -0.504 OA
ATOM     23  H   UNL     1      42.554 -28.176  17.166  1.00  0.00     0.293 HD
ENDBRANCH  17  22
ENDBRANCH   1  12
BRANCH   2  24
ATOM     24  O   UNL     1      47.845 -27.557  16.644  1.00  0.00    -0.502 OA
ATOM     25  H   UNL     1      47.884 -27.341  15.656  1.00  0.00     0.293 HD
ENDBRANCH   2  24
BRANCH   6  26
ATOM     26  O   UNL     1      51.118 -23.441  17.491  1.00  0.00    -0.507 OA
ATOM     27  H   UNL     1      52.035 -23.859  17.495  1.00  0.00     0.293 HD
ENDBRANCH   6  26
BRANCH   8  28
ATOM     28  O   UNL     1      49.430 -21.867  21.701  1.00  0.00    -0.508 OA
ATOM     29  H   UNL     1      50.293 -21.389  21.933  1.00  0.00     0.293 HD
ENDBRANCH   8  28
TORSDOF 7
ENDMDL
MODEL 4
REMARK VINA RESULT:    -6.770      1.477      6.800
REMARK INTER + INTRA:          -8.403
REMARK INTER:                  -8.827
REMARK INTRA:                   0.424
REMARK UNBOUND:                -0.050
REMARK SMILES O=c1c(O)c(-c2cc(O)c(O)c(O)c2)oc2cc(O)cc(O)c12
REMARK SMILES IDX 5 1 3 2 2 3 1 4 23 5 21 6 20 7 18 8 17 9 16 10 15 11 6 12
REMARK SMILES IDX 7 13 8 14 14 15 10 16 12 17 9 18 11 20 13 22 4 24 22 26
REMARK SMILES IDX 19 28
REMARK H PARENT 9 19 11 21 13 23 4 25 22 27 19 29
REMARK Flexibility Score: inf
ROOT
ATOM      1  C   UNL     1      45.355 -28.508  18.562  1.00  0.00     0.180 A 
ATOM      2  C   UNL     1      45.905 -27.794  19.640  1.00  0.00     0.208 A 
ATOM      3  C   UNL     1      46.731 -26.689  19.375  1.00  0.00     0.238 A 
ATOM      4  O   UNL     1      47.279 -26.100  20.344  1.00  0.00    -0.285 OA
ATOM      5  C   UNL     1      46.951 -26.278  18.038  1.00  0.00     0.111 A 
ATOM      6  C   UNL     1      47.734 -25.147  17.655  1.00  0.00     0.134 A 
ATOM      7  C   UNL     1      47.970 -24.900  16.296  1.00  0.00     0.093 A 
ATOM      8  C   UNL     1      47.400 -25.704  15.307  1.00  0.00     0.123 A 
ATOM      9  C   UNL     1      46.590 -26.777  15.670  1.00  0.00     0.094 A 
ATOM     10  C   UNL     1      46.368 -27.073  17.017  1.00  0.00     0.146 A 
ATOM     11  O   UNL     1      45.607 -28.119  17.318  1.00  0.00    -0.452 OA
ENDROOT
BRANCH   1  12
ATOM     12  C   UNL     1      44.488 -29.691  18.762  1.00  0.00     0.029 A 
ATOM     13  C   UNL     1      44.189 -30.519  17.668  1.00  0.00     0.062 A 
ATOM     14  C   UNL     1      43.390 -31.655  17.831  1.00  0.00     0.162 A 
ATOM     15  C   UNL     1      44.004 -30.038  20.034  1.00  0.00     0.062 A 
ATOM     16  C   UNL     1      42.890 -31.986  19.101  1.00  0.00     0.200 A 
ATOM     17  C   UNL     1      43.203 -31.176  20.206  1.00  0.00     0.162 A 
BRANCH  14  18
ATOM     18  O   UNL     1      43.104 -32.443  16.716  1.00  0.00    -0.504 OA
ATOM     19  H   UNL     1      42.189 -32.851  16.565  1.00  0.00     0.293 HD
ENDBRANCH  14  18
BRANCH  16  20
ATOM     20  O   UNL     1      42.091 -33.120  19.254  1.00  0.00    -0.502 OA
ATOM     21  H   UNL     1      41.642 -33.349  20.132  1.00  0.00     0.293 HD
ENDBRANCH  16  20
BRANCH  17  22
ATOM     22  O   UNL     1      42.723 -31.507  21.472  1.00  0.00    -0.504 OA
ATOM     23  H   UNL     1      43.239 -31.275  22.313  1.00  0.00     0.293 HD
ENDBRANCH  17  22
ENDBRANCH   1  12
BRANCH   2  24
ATOM     24  O   UNL     1      45.614 -28.168  20.955  1.00  0.00    -0.502 OA
ATOM     25  H   UNL     1      44.968 -28.915  21.177  1.00  0.00     0.293 HD
ENDBRANCH   2  24
BRANCH   6  26
ATOM     26  O   UNL     1      48.276 -24.227  18.557  1.00  0.00    -0.507 OA
ATOM     27  H   UNL     1      47.744 -23.688  19.223  1.00  0.00     0.293 HD
ENDBRANCH   6  26
BRANCH   8  28
ATOM     28  O   UNL     1      47.627 -25.439  13.958  1.00  0.00    -0.508 OA
ATOM     29  H   UNL     1      48.405 -25.854  13.459  1.00  0.00     0.293 HD
ENDBRANCH   8  28
TORSDOF 7
ENDMDL
MODEL 5
REMARK VINA RESULT:    -6.587      1.640      7.004
REMARK INTER + INTRA:          -8.178
REMARK INTER:                  -7.812
REMARK INTRA:                  -0.366
REMARK UNBOUND:                -0.050
REMARK SMILES O=c1c(O)c(-c2cc(O)c(O)c(O)c2)oc2cc(O)cc(O)c12
REMARK SMILES IDX 5 1 3 2 2 3 1 4 23 5 21 6 20 7 18 8 17 9 16 10 15 11 6 12
REMARK SMILES IDX 7 13 8 14 14 15 10 16 12 17 9 18 11 20 13 22 4 24 22 26
REMARK SMILES IDX 19 28
REMARK H PARENT 9 19 11 21 13 23 4 25 22 27 19 29
REMARK Flexibility Score: inf
ROOT
ATOM      1  C   UNL     1      46.369 -28.349  18.681  1.00  0.00     0.180 A 
ATOM      2  C   UNL     1      46.964 -27.341  19.459  1.00  0.00     0.208 A 
ATOM      3  C   UNL     1      47.460 -26.192  18.823  1.00  0.00     0.238 A 
ATOM      4  O   UNL     1      48.057 -25.328  19.517  1.00  0.00    -0.285 OA
ATOM      5  C   UNL     1      47.306 -26.041  17.423  1.00  0.00     0.111 A 
ATOM      6  C   UNL     1      47.732 -24.898  16.679  1.00  0.00     0.134 A 
ATOM      7  C   UNL     1      47.623 -24.905  15.282  1.00  0.00     0.093 A 
ATOM      8  C   UNL     1      47.047 -25.985  14.609  1.00  0.00     0.123 A 
ATOM      9  C   UNL     1      46.580 -27.080  15.331  1.00  0.00     0.094 A 
ATOM     10  C   UNL     1      46.709 -27.120  16.721  1.00  0.00     0.146 A 
ATOM     11  O   UNL     1      46.269 -28.193  17.367  1.00  0.00    -0.452 OA
ENDROOT
BRANCH   1  12
ATOM     12  C   UNL     1      45.836 -29.595  19.280  1.00  0.00     0.029 A 
ATOM     13  C   UNL     1      44.481 -29.661  19.638  1.00  0.00     0.062 A 
ATOM     14  C   UNL     1      43.944 -30.831  20.185  1.00  0.00     0.162 A 
ATOM     15  C   UNL     1      46.643 -30.732  19.442  1.00  0.00     0.062 A 
ATOM     16  C   UNL     1      44.760 -31.960  20.366  1.00  0.00     0.200 A 
ATOM     17  C   UNL     1      46.114 -31.910  19.989  1.00  0.00     0.162 A 
BRANCH  14  18
ATOM     18  O   UNL     1      42.596 -30.852  20.542  1.00  0.00    -0.504 OA
ATOM     19  H   UNL     1      42.293 -31.041  21.490  1.00  0.00     0.293 HD
ENDBRANCH  14  18
BRANCH  16  20
ATOM     20  O   UNL     1      44.218 -33.123  20.916  1.00  0.00    -0.502 OA
ATOM     21  H   UNL     1      43.446 -33.101  21.570  1.00  0.00     0.293 HD
ENDBRANCH  16  20
BRANCH  17  22
ATOM     22  O   UNL     1      46.925 -33.031  20.152  1.00  0.00    -0.504 OA
ATOM     23  H   UNL     1      46.611 -33.842  20.673  1.00  0.00     0.293 HD
ENDBRANCH  17  22
ENDBRANCH   1  12
BRANCH   2  24
ATOM     24  O   UNL     1      47.037 -27.475  20.849  1.00  0.00    -0.502 OA
ATOM     25  H   UNL     1      46.877 -26.700  21.480  1.00  0.00     0.293 HD
ENDBRANCH   2  24
BRANCH   6  26
ATOM     26  O   UNL     1      48.238 -23.730  17.257  1.00  0.00    -0.507 OA
ATOM     27  H   UNL     1      48.179 -23.498  18.237  1.00  0.00     0.293 HD
ENDBRANCH   6  26
BRANCH   8  28
ATOM     28  O   UNL     1      46.929 -25.974  13.221  1.00  0.00    -0.508 OA
ATOM     29  H   UNL     1      46.041 -26.147  12.763  1.00  0.00     0.293 HD
ENDBRANCH   8  28
TORSDOF 7
ENDMDL
MODEL 6
REMARK VINA RESULT:    -6.561      3.216      4.361
REMARK INTER + INTRA:          -8.145
REMARK INTER:                  -7.795
REMARK INTRA:                  -0.350
REMARK UNBOUND:                -0.050
REMARK SMILES O=c1c(O)c(-c2cc(O)c(O)c(O)c2)oc2cc(O)cc(O)c12
REMARK SMILES IDX 5 1 3 2 2 3 1 4 23 5 21 6 20 7 18 8 17 9 16 10 15 11 6 12
REMARK SMILES IDX 7 13 8 14 14 15 10 16 12 17 9 18 11 20 13 22 4 24 22 26
REMARK SMILES IDX 19 28
REMARK H PARENT 9 19 11 21 13 23 4 25 22 27 19 29
REMARK Flexibility Score: inf
ROOT
ATOM      1  C   UNL     1      47.964 -26.308  20.049  1.00  0.00     0.180 A 
ATOM      2  C   UNL     1      48.367 -27.361  20.886  1.00  0.00     0.208 A 
ATOM      3  C   UNL     1      47.545 -28.495  20.999  1.00  0.00     0.238 A 
ATOM      4  O   UNL     1      47.875 -29.401  21.808  1.00  0.00    -0.285 OA
ATOM      5  C   UNL     1      46.359 -28.584  20.231  1.00  0.00     0.111 A 
ATOM      6  C   UNL     1      45.473 -29.704  20.232  1.00  0.00     0.134 A 
ATOM      7  C   UNL     1      44.274 -29.636  19.512  1.00  0.00     0.093 A 
ATOM      8  C   UNL     1      43.958 -28.516  18.740  1.00  0.00     0.123 A 
ATOM      9  C   UNL     1      44.842 -27.441  18.689  1.00  0.00     0.094 A 
ATOM     10  C   UNL     1      46.027 -27.462  19.427  1.00  0.00     0.146 A 
ATOM     11  O   UNL     1      46.830 -26.406  19.366  1.00  0.00    -0.452 OA
ENDROOT
BRANCH   1  12
ATOM     12  C   UNL     1      48.770 -25.075  19.890  1.00  0.00     0.029 A 
ATOM     13  C   UNL     1      49.572 -24.919  18.749  1.00  0.00     0.062 A 
ATOM     14  C   UNL     1      50.327 -23.758  18.561  1.00  0.00     0.162 A 
ATOM     15  C   UNL     1      48.705 -24.032  20.827  1.00  0.00     0.062 A 
ATOM     16  C   UNL     1      50.277 -22.725  19.512  1.00  0.00     0.200 A 
ATOM     17  C   UNL     1      49.458 -22.863  20.647  1.00  0.00     0.162 A 
BRANCH  14  18
ATOM     18  O   UNL     1      51.124 -23.648  17.420  1.00  0.00    -0.504 OA
ATOM     19  H   UNL     1      52.112 -23.433  17.472  1.00  0.00     0.293 HD
ENDBRANCH  14  18
BRANCH  16  20
ATOM     20  O   UNL     1      51.036 -21.571  19.319  1.00  0.00    -0.502 OA
ATOM     21  H   UNL     1      52.026 -21.604  19.111  1.00  0.00     0.293 HD
ENDBRANCH  16  20
BRANCH  17  22
ATOM     22  O   UNL     1      49.391 -21.837  21.587  1.00  0.00    -0.504 OA
ATOM     23  H   UNL     1      48.753 -21.056  21.476  1.00  0.00     0.293 HD
ENDBRANCH  17  22
ENDBRANCH   1  12
BRANCH   2  24
ATOM     24  O   UNL     1      49.579 -27.287  21.578  1.00  0.00    -0.502 OA
ATOM     25  H   UNL     1      50.008 -26.405  21.832  1.00  0.00     0.293 HD
ENDBRANCH   2  24
BRANCH   6  26
ATOM     26  O   UNL     1      45.733 -30.907  20.896  1.00  0.00    -0.507 OA
ATOM     27  H   UNL     1      46.564 -31.104  21.432  1.00  0.00     0.293 HD
ENDBRANCH   6  26
BRANCH   8  28
ATOM     28  O   UNL     1      42.770 -28.465  18.014  1.00  0.00    -0.508 OA
ATOM     29  H   UNL     1      41.984 -29.064  18.240  1.00  0.00     0.293 HD
ENDBRANCH   8  28
TORSDOF 7
ENDMDL
MODEL 7
REMARK VINA RESULT:    -6.503      5.038      6.689
REMARK INTER + INTRA:          -8.073
REMARK INTER:                  -7.752
REMARK INTRA:                  -0.321
REMARK UNBOUND:                -0.050
REMARK SMILES O=c1c(O)c(-c2cc(O)c(O)c(O)c2)oc2cc(O)cc(O)c12
REMARK SMILES IDX 5 1 3 2 2 3 1 4 23 5 21 6 20 7 18 8 17 9 16 10 15 11 6 12
REMARK SMILES IDX 7 13 8 14 14 15 10 16 12 17 9 18 11 20 13 22 4 24 22 26
REMARK SMILES IDX 19 28
REMARK H PARENT 9 19 11 21 13 23 4 25 22 27 19 29
REMARK Flexibility Score: inf
ROOT
ATOM      1  C   UNL     1      49.084 -26.034  17.594  1.00  0.00     0.180 A 
ATOM      2  C   UNL     1      48.342 -25.858  16.414  1.00  0.00     0.208 A 
ATOM      3  C   UNL     1      48.285 -26.906  15.481  1.00  0.00     0.238 A 
ATOM      4  O   UNL     1      47.681 -26.714  14.394  1.00  0.00    -0.285 OA
ATOM      5  C   UNL     1      48.924 -28.137  15.766  1.00  0.00     0.111 A 
ATOM      6  C   UNL     1      48.895 -29.283  14.914  1.00  0.00     0.134 A 
ATOM      7  C   UNL     1      49.653 -30.412  15.250  1.00  0.00     0.093 A 
ATOM      8  C   UNL     1      50.387 -30.461  16.437  1.00  0.00     0.123 A 
ATOM      9  C   UNL     1      50.378 -29.369  17.301  1.00  0.00     0.094 A 
ATOM     10  C   UNL     1      49.663 -28.214  16.975  1.00  0.00     0.146 A 
ATOM     11  O   UNL     1      49.700 -27.188  17.819  1.00  0.00    -0.452 OA
ENDROOT
BRANCH   1  12
ATOM     12  C   UNL     1      49.202 -24.970  18.617  1.00  0.00     0.029 A 
ATOM     13  C   UNL     1      48.500 -25.095  19.826  1.00  0.00     0.062 A 
ATOM     14  C   UNL     1      48.609 -24.116  20.818  1.00  0.00     0.162 A 
ATOM     15  C   UNL     1      50.048 -23.865  18.429  1.00  0.00     0.062 A 
ATOM     16  C   UNL     1      49.440 -23.001  20.618  1.00  0.00     0.200 A 
ATOM     17  C   UNL     1      50.165 -22.880  19.420  1.00  0.00     0.162 A 
BRANCH  14  18
ATOM     18  O   UNL     1      47.883 -24.270  22.000  1.00  0.00    -0.504 OA
ATOM     19  H   UNL     1      48.320 -24.214  22.912  1.00  0.00     0.293 HD
ENDBRANCH  14  18
BRANCH  16  20
ATOM     20  O   UNL     1      49.540 -22.027  21.612  1.00  0.00    -0.502 OA
ATOM     21  H   UNL     1      50.381 -21.903  22.163  1.00  0.00     0.293 HD
ENDBRANCH  16  20
BRANCH  17  22
ATOM     22  O   UNL     1      51.003 -21.784  19.220  1.00  0.00    -0.504 OA
ATOM     23  H   UNL     1      51.825 -21.844  18.630  1.00  0.00     0.293 HD
ENDBRANCH  17  22
ENDBRANCH   1  12
BRANCH   2  24
ATOM     24  O   UNL     1      47.656 -24.662  16.186  1.00  0.00    -0.502 OA
ATOM     25  H   UNL     1      47.310 -24.081  16.940  1.00  0.00     0.293 HD
ENDBRANCH   2  24
BRANCH   6  26
ATOM     26  O   UNL     1      48.125 -29.375  13.750  1.00  0.00    -0.507 OA
ATOM     27  H   UNL     1      48.375 -29.910  12.933  1.00  0.00     0.293 HD
ENDBRANCH   6  26
BRANCH   8  28
ATOM     28  O   UNL     1      51.124 -31.596  16.770  1.00  0.00    -0.508 OA
ATOM     29  H   UNL     1      51.032 -32.041  17.676  1.00  0.00     0.293 HD
ENDBRANCH   8  28
TORSDOF 7
ENDMDL
MODEL 8
REMARK VINA RESULT:    -6.416      1.772      3.453
REMARK INTER + INTRA:          -7.966
REMARK INTER:                  -8.053
REMARK INTRA:                   0.087
REMARK UNBOUND:                -0.050
REMARK SMILES O=c1c(O)c(-c2cc(O)c(O)c(O)c2)oc2cc(O)cc(O)c12
REMARK SMILES IDX 5 1 3 2 2 3 1 4 23 5 21 6 20 7 18 8 17 9 16 10 15 11 6 12
REMARK SMILES IDX 7 13 8 14 14 15 10 16 12 17 9 18 11 20 13 22 4 24 22 26
REMARK SMILES IDX 19 28
REMARK H PARENT 9 19 11 21 13 23 4 25 22 27 19 29
REMARK Flexibility Score: inf
ROOT
ATOM      1  C   UNL     1      46.709 -28.797  17.790  1.00  0.00     0.180 A 
ATOM      2  C   UNL     1      45.355 -29.107  18.007  1.00  0.00     0.208 A 
ATOM      3  C   UNL     1      45.029 -30.178  18.855  1.00  0.00     0.238 A 
ATOM      4  O   UNL     1      43.818 -30.497  18.985  1.00  0.00    -0.285 OA
ATOM      5  C   UNL     1      46.058 -30.890  19.518  1.00  0.00     0.111 A 
ATOM      6  C   UNL     1      45.841 -31.965  20.433  1.00  0.00     0.134 A 
ATOM      7  C   UNL     1      46.939 -32.665  20.948  1.00  0.00     0.093 A 
ATOM      8  C   UNL     1      48.246 -32.290  20.631  1.00  0.00     0.123 A 
ATOM      9  C   UNL     1      48.469 -31.209  19.782  1.00  0.00     0.094 A 
ATOM     10  C   UNL     1      47.394 -30.515  19.222  1.00  0.00     0.146 A 
ATOM     11  O   UNL     1      47.652 -29.504  18.401  1.00  0.00    -0.452 OA
ENDROOT
BRANCH   1  12
ATOM     12  C   UNL     1      47.131 -27.692  16.899  1.00  0.00     0.029 A 
ATOM     13  C   UNL     1      48.240 -26.907  17.253  1.00  0.00     0.062 A 
ATOM     14  C   UNL     1      48.674 -25.871  16.421  1.00  0.00     0.162 A 
ATOM     15  C   UNL     1      46.482 -27.448  15.678  1.00  0.00     0.062 A 
ATOM     16  C   UNL     1      48.009 -25.615  15.211  1.00  0.00     0.200 A 
ATOM     17  C   UNL     1      46.911 -26.411  14.838  1.00  0.00     0.162 A 
BRANCH  14  18
ATOM     18  O   UNL     1      49.771 -25.104  16.816  1.00  0.00    -0.504 OA
ATOM     19  H   UNL     1      49.673 -24.149  17.139  1.00  0.00     0.293 HD
ENDBRANCH  14  18
BRANCH  16  20
ATOM     20  O   UNL     1      48.447 -24.577  14.388  1.00  0.00    -0.502 OA
ATOM     21  H   UNL     1      48.410 -24.636  13.378  1.00  0.00     0.293 HD
ENDBRANCH  16  20
BRANCH  17  22
ATOM     22  O   UNL     1      46.256 -26.173  13.631  1.00  0.00    -0.504 OA
ATOM     23  H   UNL     1      45.643 -26.865  13.214  1.00  0.00     0.293 HD
ENDBRANCH  17  22
ENDBRANCH   1  12
BRANCH   2  24
ATOM     24  O   UNL     1      44.353 -28.344  17.402  1.00  0.00    -0.502 OA
ATOM     25  H   UNL     1      44.063 -28.488  16.443  1.00  0.00     0.293 HD
ENDBRANCH   2  24
BRANCH   6  26
ATOM     26  O   UNL     1      44.580 -32.365  20.888  1.00  0.00    -0.507 OA
ATOM     27  H   UNL     1      43.740 -31.811  20.824  1.00  0.00     0.293 HD
ENDBRANCH   6  26
BRANCH   8  28
ATOM     28  O   UNL     1      49.333 -32.982  21.162  1.00  0.00    -0.508 OA
ATOM     29  H   UNL     1      49.371 -33.240  22.141  1.00  0.00     0.293 HD
ENDBRANCH   8  28
TORSDOF 7
ENDMDL
MODEL 9
REMARK VINA RESULT:    -5.804      2.346      7.456
REMARK INTER + INTRA:          -7.211
REMARK INTER:                  -6.932
REMARK INTRA:                  -0.279
REMARK UNBOUND:                -0.050
REMARK SMILES O=c1c(O)c(-c2cc(O)c(O)c(O)c2)oc2cc(O)cc(O)c12
REMARK SMILES IDX 5 1 3 2 2 3 1 4 23 5 21 6 20 7 18 8 17 9 16 10 15 11 6 12
REMARK SMILES IDX 7 13 8 14 14 15 10 16 12 17 9 18 11 20 13 22 4 24 22 26
REMARK SMILES IDX 19 28
REMARK H PARENT 9 19 11 21 13 23 4 25 22 27 19 29
REMARK Flexibility Score: inf
ROOT
ATOM      1  C   UNL     1      46.204 -28.162  18.878  1.00  0.00     0.180 A 
ATOM      2  C   UNL     1      46.140 -27.537  17.621  1.00  0.00     0.208 A 
ATOM      3  C   UNL     1      46.768 -26.293  17.446  1.00  0.00     0.238 A 
ATOM      4  O   UNL     1      46.643 -25.706  16.340  1.00  0.00    -0.285 OA
ATOM      5  C   UNL     1      47.499 -25.717  18.513  1.00  0.00     0.111 A 
ATOM      6  C   UNL     1      48.211 -24.481  18.434  1.00  0.00     0.134 A 
ATOM      7  C   UNL     1      48.810 -23.956  19.586  1.00  0.00     0.093 A 
ATOM      8  C   UNL     1      48.777 -24.651  20.797  1.00  0.00     0.123 A 
ATOM      9  C   UNL     1      48.131 -25.882  20.870  1.00  0.00     0.094 A 
ATOM     10  C   UNL     1      47.491 -26.414  19.749  1.00  0.00     0.146 A 
ATOM     11  O   UNL     1      46.869 -27.581  19.869  1.00  0.00    -0.452 OA
ENDROOT
BRANCH   1  12
ATOM     12  C   UNL     1      45.555 -29.467  19.143  1.00  0.00     0.029 A 
ATOM     13  C   UNL     1      44.365 -29.505  19.886  1.00  0.00     0.062 A 
ATOM     14  C   UNL     1      43.718 -30.720  20.133  1.00  0.00     0.162 A 
ATOM     15  C   UNL     1      46.073 -30.662  18.618  1.00  0.00     0.062 A 
ATOM     16  C   UNL     1      44.251 -31.916  19.625  1.00  0.00     0.200 A 
ATOM     17  C   UNL     1      45.430 -31.884  18.861  1.00  0.00     0.162 A 
BRANCH  14  18
ATOM     18  O   UNL     1      42.544 -30.718  20.888  1.00  0.00    -0.504 OA
ATOM     19  H   UNL     1      42.522 -31.035  21.850  1.00  0.00     0.293 HD
ENDBRANCH  14  18
BRANCH  16  20
ATOM     20  O   UNL     1      43.601 -33.125  19.880  1.00  0.00    -0.502 OA
ATOM     21  H   UNL     1      43.092 -33.626  19.162  1.00  0.00     0.293 HD
ENDBRANCH  16  20
BRANCH  17  22
ATOM     22  O   UNL     1      45.956 -33.065  18.340  1.00  0.00    -0.504 OA
ATOM     23  H   UNL     1      46.596 -33.061  17.554  1.00  0.00     0.293 HD
ENDBRANCH  17  22
ENDBRANCH   1  12
BRANCH   2  24
ATOM     24  O   UNL     1      45.478 -28.159  16.559  1.00  0.00    -0.502 OA
ATOM     25  H   UNL     1      44.585 -28.623  16.670  1.00  0.00     0.293 HD
ENDBRANCH   2  24
BRANCH   6  26
ATOM     26  O   UNL     1      48.383 -23.749  17.255  1.00  0.00    -0.507 OA
ATOM     27  H   UNL     1      49.232 -23.720  16.712  1.00  0.00     0.293 HD
ENDBRANCH   6  26
BRANCH   8  28
ATOM     28  O   UNL     1      49.391 -24.128  21.934  1.00  0.00    -0.508 OA
ATOM     29  H   UNL     1      49.838 -24.726  22.618  1.00  0.00     0.293 HD
ENDBRANCH   8  28
TORSDOF 7
ENDMDL
