MODEL 1
REMARK VINA RESULT:    -4.436      0.000      0.000
REMARK INTER + INTRA:          -4.735
REMARK INTER:                  -4.695
REMARK INTRA:                  -0.040
REMARK UNBOUND:                -0.040
REMARK SMILES COc1ccc2ccc(=O)oc2c1
REMARK SMILES IDX 3 1 13 2 12 3 6 4 5 5 4 6 7 7 8 8 9 9 10 10 11 11 2 12 1 13
REMARK H PARENT
REMARK Flexibility Score: inf
ROOT
ATOM      1  C   UNL     1      -6.840 -15.715 -22.274  1.00  0.00     0.122 A 
ATOM      2  C   UNL     1      -5.473 -15.934 -22.005  1.00  0.00     0.094 A 
ATOM      3  C   UNL     1      -4.887 -17.172 -22.291  1.00  0.00     0.142 A 
ATOM      4  C   UNL     1      -5.668 -18.207 -22.849  1.00  0.00     0.018 A 
ATOM      5  C   UNL     1      -7.026 -17.991 -23.116  1.00  0.00     0.016 A 
ATOM      6  C   UNL     1      -7.605 -16.751 -22.827  1.00  0.00     0.047 A 
ATOM      7  C   UNL     1      -5.053 -19.433 -23.123  1.00  0.00     0.019 A 
ATOM      8  C   UNL     1      -3.698 -19.598 -22.839  1.00  0.00     0.094 A 
ATOM      9  C   UNL     1      -2.987 -18.527 -22.285  1.00  0.00     0.336 A 
ATOM     10  O   UNL     1      -1.763 -18.656 -22.023  1.00  0.00    -0.246 OA
ATOM     11  O   UNL     1      -3.596 -17.371 -22.035  1.00  0.00    -0.423 OA
ENDROOT
BRANCH   1  12
ATOM     12  O   UNL     1      -7.472 -14.493 -22.006  1.00  0.00    -0.497 OA
ATOM     13  C   UNL     1      -8.883 -14.300 -22.003  1.00  0.00     0.278 C 
ENDBRANCH   1  12
TORSDOF 1
ENDMDL
MODEL 2
REMARK VINA RESULT:    -4.257     20.655     22.375
REMARK INTER + INTRA:          -4.546
REMARK INTER:                  -4.507
REMARK INTRA:                  -0.039
REMARK UNBOUND:                -0.040
REMARK SMILES COc1ccc2ccc(=O)oc2c1
REMARK SMILES IDX 3 1 13 2 12 3 6 4 5 5 4 6 7 7 8 8 9 9 10 10 11 11 2 12 1 13
REMARK H PARENT
REMARK Flexibility Score: inf
ROOT
ATOM      1  C   UNL     1      -5.999  -1.774  -7.404  1.00  0.00     0.122 A 
ATOM      2  C   UNL     1      -6.281  -2.909  -6.618  1.00  0.00     0.094 A 
ATOM      3  C   UNL     1      -5.540  -3.167  -5.459  1.00  0.00     0.142 A 
ATOM      4  C   UNL     1      -4.504  -2.287  -5.078  1.00  0.00     0.018 A 
ATOM      5  C   UNL     1      -4.222  -1.159  -5.859  1.00  0.00     0.016 A 
ATOM      6  C   UNL     1      -4.967  -0.908  -7.016  1.00  0.00     0.047 A 
ATOM      7  C   UNL     1      -3.781  -2.572  -3.915  1.00  0.00     0.019 A 
ATOM      8  C   UNL     1      -4.101  -3.708  -3.171  1.00  0.00     0.094 A 
ATOM      9  C   UNL     1      -5.141  -4.535  -3.611  1.00  0.00     0.336 A 
ATOM     10  O   UNL     1      -5.445  -5.564  -2.953  1.00  0.00    -0.246 OA
ATOM     11  O   UNL     1      -5.813  -4.240  -4.720  1.00  0.00    -0.423 OA
ENDROOT
BRANCH   1  12
ATOM     12  O   UNL     1      -6.713  -1.472  -8.573  1.00  0.00    -0.497 OA
ATOM     13  C   UNL     1      -7.885  -2.159  -8.999  1.00  0.00     0.278 C 
ENDBRANCH   1  12
TORSDOF 1
ENDMDL
MODEL 3
REMARK VINA RESULT:    -4.150     14.089     14.747
REMARK INTER + INTRA:          -4.433
REMARK INTER:                  -4.397
REMARK INTRA:                  -0.036
REMARK UNBOUND:                -0.040
REMARK SMILES COc1ccc2ccc(=O)oc2c1
REMARK SMILES IDX 3 1 13 2 12 3 6 4 5 5 4 6 7 7 8 8 9 9 10 10 11 11 2 12 1 13
REMARK H PARENT
REMARK Flexibility Score: inf
ROOT
ATOM      1  C   UNL     1      -5.973 -19.240  -9.992  1.00  0.00     0.122 A 
ATOM      2  C   UNL     1      -6.657 -18.445  -9.050  1.00  0.00     0.094 A 
ATOM      3  C   UNL     1      -5.956 -17.814  -8.017  1.00  0.00     0.142 A 
ATOM      4  C   UNL     1      -4.557 -17.975  -7.917  1.00  0.00     0.018 A 
ATOM      5  C   UNL     1      -3.876 -18.765  -8.852  1.00  0.00     0.016 A 
ATOM      6  C   UNL     1      -4.584 -19.393  -9.882  1.00  0.00     0.047 A 
ATOM      7  C   UNL     1      -3.884 -17.333  -6.872  1.00  0.00     0.019 A 
ATOM      8  C   UNL     1      -4.608 -16.557  -5.967  1.00  0.00     0.094 A 
ATOM      9  C   UNL     1      -5.993 -16.443  -6.129  1.00  0.00     0.336 A 
ATOM     10  O   UNL     1      -6.664 -15.747  -5.322  1.00  0.00    -0.246 OA
ATOM     11  O   UNL     1      -6.608 -17.065  -7.131  1.00  0.00    -0.423 OA
ENDROOT
BRANCH   1  12
ATOM     12  O   UNL     1      -6.631 -19.891 -11.045  1.00  0.00    -0.497 OA
ATOM     13  C   UNL     1      -7.604 -19.281 -11.886  1.00  0.00     0.278 C 
ENDBRANCH   1  12
TORSDOF 1
ENDMDL
MODEL 4
REMARK VINA RESULT:    -3.987     14.234     14.746
REMARK INTER + INTRA:          -4.260
REMARK INTER:                  -4.221
REMARK INTRA:                  -0.039
REMARK UNBOUND:                -0.040
REMARK SMILES COc1ccc2ccc(=O)oc2c1
REMARK SMILES IDX 3 1 13 2 12 3 6 4 5 5 4 6 7 7 8 8 9 9 10 10 11 11 2 12 1 13
REMARK H PARENT
REMARK Flexibility Score: inf
ROOT
ATOM      1  C   UNL     1      -5.173 -16.739  -6.448  1.00  0.00     0.122 A 
ATOM      2  C   UNL     1      -6.202 -16.808  -7.409  1.00  0.00     0.094 A 
ATOM      3  C   UNL     1      -6.118 -17.720  -8.467  1.00  0.00     0.142 A 
ATOM      4  C   UNL     1      -4.999 -18.573  -8.573  1.00  0.00     0.018 A 
ATOM      5  C   UNL     1      -3.975 -18.505  -7.618  1.00  0.00     0.016 A 
ATOM      6  C   UNL     1      -4.066 -17.590  -6.564  1.00  0.00     0.047 A 
ATOM      7  C   UNL     1      -4.944 -19.474  -9.642  1.00  0.00     0.019 A 
ATOM      8  C   UNL     1      -5.989 -19.503 -10.565  1.00  0.00     0.094 A 
ATOM      9  C   UNL     1      -7.067 -18.627 -10.397  1.00  0.00     0.336 A 
ATOM     10  O   UNL     1      -8.020 -18.639 -11.219  1.00  0.00    -0.246 OA
ATOM     11  O   UNL     1      -7.094 -17.781  -9.371  1.00  0.00    -0.423 OA
ENDROOT
BRANCH   1  12
ATOM     12  O   UNL     1      -5.211 -15.843  -5.370  1.00  0.00    -0.497 OA
ATOM     13  C   UNL     1      -4.063 -15.395  -4.655  1.00  0.00     0.278 C 
ENDBRANCH   1  12
TORSDOF 1
ENDMDL
MODEL 5
REMARK VINA RESULT:    -3.926     14.873     15.310
REMARK INTER + INTRA:          -4.196
REMARK INTER:                  -4.157
REMARK INTRA:                  -0.039
REMARK UNBOUND:                -0.040
REMARK SMILES COc1ccc2ccc(=O)oc2c1
REMARK SMILES IDX 3 1 13 2 12 3 6 4 5 5 4 6 7 7 8 8 9 9 10 10 11 11 2 12 1 13
REMARK H PARENT
REMARK Flexibility Score: inf
ROOT
ATOM      1  C   UNL     1      -6.029 -16.359  -5.909  1.00  0.00     0.122 A 
ATOM      2  C   UNL     1      -6.736 -17.109  -6.872  1.00  0.00     0.094 A 
ATOM      3  C   UNL     1      -6.044 -17.873  -7.818  1.00  0.00     0.142 A 
ATOM      4  C   UNL     1      -4.632 -17.893  -7.808  1.00  0.00     0.018 A 
ATOM      5  C   UNL     1      -3.929 -17.147  -6.852  1.00  0.00     0.016 A 
ATOM      6  C   UNL     1      -4.628 -16.386  -5.911  1.00  0.00     0.047 A 
ATOM      7  C   UNL     1      -3.969 -18.666  -8.767  1.00  0.00     0.019 A 
ATOM      8  C   UNL     1      -4.715 -19.390  -9.697  1.00  0.00     0.094 A 
ATOM      9  C   UNL     1      -6.112 -19.322  -9.646  1.00  0.00     0.336 A 
ATOM     10  O   UNL     1      -6.802 -19.969 -10.476  1.00  0.00    -0.246 OA
ATOM     11  O   UNL     1      -6.717 -18.579  -8.723  1.00  0.00    -0.423 OA
ENDROOT
BRANCH   1  12
ATOM     12  O   UNL     1      -6.677 -15.579  -4.941  1.00  0.00    -0.497 OA
ATOM     13  C   UNL     1      -6.107 -15.212  -3.689  1.00  0.00     0.278 C 
ENDBRANCH   1  12
TORSDOF 1
ENDMDL
MODEL 6
REMARK VINA RESULT:    -3.832     15.317     15.736
REMARK INTER + INTRA:          -4.096
REMARK INTER:                  -4.057
REMARK INTRA:                  -0.039
REMARK UNBOUND:                -0.040
REMARK SMILES COc1ccc2ccc(=O)oc2c1
REMARK SMILES IDX 3 1 13 2 12 3 6 4 5 5 4 6 7 7 8 8 9 9 10 10 11 11 2 12 1 13
REMARK H PARENT
REMARK Flexibility Score: inf
ROOT
ATOM      1  C   UNL     1      -5.249 -15.933  -5.281  1.00  0.00     0.122 A 
ATOM      2  C   UNL     1      -4.303 -16.589  -6.094  1.00  0.00     0.094 A 
ATOM      3  C   UNL     1      -4.724 -17.403  -7.152  1.00  0.00     0.142 A 
ATOM      4  C   UNL     1      -6.103 -17.566  -7.405  1.00  0.00     0.018 A 
ATOM      5  C   UNL     1      -7.044 -16.915  -6.598  1.00  0.00     0.016 A 
ATOM      6  C   UNL     1      -6.615 -16.104  -5.543  1.00  0.00     0.047 A 
ATOM      7  C   UNL     1      -6.493 -18.386  -8.470  1.00  0.00     0.019 A 
ATOM      8  C   UNL     1      -5.517 -19.013  -9.244  1.00  0.00     0.094 A 
ATOM      9  C   UNL     1      -4.168 -18.804  -8.933  1.00  0.00     0.336 A 
ATOM     10  O   UNL     1      -3.273 -19.360  -9.621  1.00  0.00    -0.246 OA
ATOM     11  O   UNL     1      -3.825 -18.019  -7.916  1.00  0.00    -0.423 OA
ENDROOT
BRANCH   1  12
ATOM     12  O   UNL     1      -4.876 -15.108  -4.210  1.00  0.00    -0.497 OA
ATOM     13  C   UNL     1      -3.552 -15.006  -3.696  1.00  0.00     0.278 C 
ENDBRANCH   1  12
TORSDOF 1
ENDMDL
MODEL 7
REMARK VINA RESULT:    -3.790     15.950     16.727
REMARK INTER + INTRA:          -4.051
REMARK INTER:                  -4.013
REMARK INTRA:                  -0.038
REMARK UNBOUND:                -0.040
REMARK SMILES COc1ccc2ccc(=O)oc2c1
REMARK SMILES IDX 3 1 13 2 12 3 6 4 5 5 4 6 7 7 8 8 9 9 10 10 11 11 2 12 1 13
REMARK H PARENT
REMARK Flexibility Score: inf
ROOT
ATOM      1  C   UNL     1      -6.075 -17.645  -8.058  1.00  0.00     0.122 A 
ATOM      2  C   UNL     1      -6.773 -17.034  -6.997  1.00  0.00     0.094 A 
ATOM      3  C   UNL     1      -6.073 -16.407  -5.960  1.00  0.00     0.142 A 
ATOM      4  C   UNL     1      -4.662 -16.387  -5.977  1.00  0.00     0.018 A 
ATOM      5  C   UNL     1      -3.967 -16.995  -7.030  1.00  0.00     0.016 A 
ATOM      6  C   UNL     1      -4.673 -17.620  -8.062  1.00  0.00     0.047 A 
ATOM      7  C   UNL     1      -3.991 -15.753  -4.926  1.00  0.00     0.019 A 
ATOM      8  C   UNL     1      -4.729 -15.162  -3.901  1.00  0.00     0.094 A 
ATOM      9  C   UNL     1      -6.126 -15.221  -3.951  1.00  0.00     0.336 A 
ATOM     10  O   UNL     1      -6.809 -14.693  -3.035  1.00  0.00    -0.246 OA
ATOM     11  O   UNL     1      -6.739 -15.830  -4.962  1.00  0.00    -0.423 OA
ENDROOT
BRANCH   1  12
ATOM     12  O   UNL     1      -6.731 -18.286  -9.119  1.00  0.00    -0.497 OA
ATOM     13  C   UNL     1      -6.178 -19.357  -9.877  1.00  0.00     0.278 C 
ENDBRANCH   1  12
TORSDOF 1
ENDMDL
MODEL 8
REMARK VINA RESULT:    -3.751     15.864     16.593
REMARK INTER + INTRA:          -4.010
REMARK INTER:                  -3.973
REMARK INTRA:                  -0.037
REMARK UNBOUND:                -0.040
REMARK SMILES COc1ccc2ccc(=O)oc2c1
REMARK SMILES IDX 3 1 13 2 12 3 6 4 5 5 4 6 7 7 8 8 9 9 10 10 11 11 2 12 1 13
REMARK H PARENT
REMARK Flexibility Score: inf
ROOT
ATOM      1  C   UNL     1      -5.226 -17.970  -8.108  1.00  0.00     0.122 A 
ATOM      2  C   UNL     1      -4.294 -17.285  -7.303  1.00  0.00     0.094 A 
ATOM      3  C   UNL     1      -4.726 -16.560  -6.186  1.00  0.00     0.142 A 
ATOM      4  C   UNL     1      -6.099 -16.515  -5.866  1.00  0.00     0.018 A 
ATOM      5  C   UNL     1      -7.026 -17.195  -6.666  1.00  0.00     0.016 A 
ATOM      6  C   UNL     1      -6.588 -17.916  -7.781  1.00  0.00     0.047 A 
ATOM      7  C   UNL     1      -6.499 -15.781  -4.744  1.00  0.00     0.019 A 
ATOM      8  C   UNL     1      -5.537 -15.122  -3.979  1.00  0.00     0.094 A 
ATOM      9  C   UNL     1      -4.193 -15.211  -4.357  1.00  0.00     0.336 A 
ATOM     10  O   UNL     1      -3.310 -14.624  -3.680  1.00  0.00    -0.246 OA
ATOM     11  O   UNL     1      -3.840 -15.916  -5.429  1.00  0.00    -0.423 OA
ENDROOT
BRANCH   1  12
ATOM     12  O   UNL     1      -4.844 -18.710  -9.236  1.00  0.00    -0.497 OA
ATOM     13  C   UNL     1      -3.590 -19.369  -9.379  1.00  0.00     0.278 C 
ENDBRANCH   1  12
TORSDOF 1
ENDMDL
MODEL 9
REMARK VINA RESULT:    -3.594     15.979     16.573
REMARK INTER + INTRA:          -3.844
REMARK INTER:                  -3.804
REMARK INTRA:                  -0.040
REMARK UNBOUND:                -0.040
REMARK SMILES COc1ccc2ccc(=O)oc2c1
REMARK SMILES IDX 3 1 13 2 12 3 6 4 5 5 4 6 7 7 8 8 9 9 10 10 11 11 2 12 1 13
REMARK H PARENT
REMARK Flexibility Score: inf
ROOT
ATOM      1  C   UNL     1      -5.001 -18.807  -7.971  1.00  0.00     0.122 A 
ATOM      2  C   UNL     1      -4.259 -19.087  -6.806  1.00  0.00     0.094 A 
ATOM      3  C   UNL     1      -3.957 -18.065  -5.899  1.00  0.00     0.142 A 
ATOM      4  C   UNL     1      -4.396 -16.748  -6.153  1.00  0.00     0.018 A 
ATOM      5  C   UNL     1      -5.132 -16.468  -7.311  1.00  0.00     0.016 A 
ATOM      6  C   UNL     1      -5.430 -17.494  -8.213  1.00  0.00     0.047 A 
ATOM      7  C   UNL     1      -4.077 -15.748  -5.228  1.00  0.00     0.019 A 
ATOM      8  C   UNL     1      -3.342 -16.079  -4.090  1.00  0.00     0.094 A 
ATOM      9  C   UNL     1      -2.940 -17.406  -3.904  1.00  0.00     0.336 A 
ATOM     10  O   UNL     1      -2.276 -17.724  -2.883  1.00  0.00    -0.246 OA
ATOM     11  O   UNL     1      -3.257 -18.337  -4.800  1.00  0.00    -0.423 OA
ENDROOT
BRANCH   1  12
ATOM     12  O   UNL     1      -5.329 -19.796  -8.909  1.00  0.00    -0.497 OA
ATOM     13  C   UNL     1      -5.826 -19.531 -10.217  1.00  0.00     0.278 C 
ENDBRANCH   1  12
TORSDOF 1
ENDMDL
