MODEL 1
REMARK VINA RESULT:    -4.655      0.000      0.000
REMARK INTER + INTRA:          -9.995
REMARK INTER:                  -8.193
REMARK INTRA:                  -1.802
REMARK UNBOUND:                -1.802
REMARK SMILES CCCCCCCCCCCCCCC(=O)[O-]
REMARK SMILES IDX 9 1 10 2 11 3 12 4 13 5 14 6 15 7 16 8 17 9 8 10 7 11 6 12
REMARK SMILES IDX 5 13 4 14 3 15 2 16 1 17
REMARK H PARENT
REMARK Flexibility Score: inf
ROOT
ATOM      1  C   UNL     1      15.071 -33.941  19.759  1.00  0.00     0.000 C 
ENDROOT
BRANCH   1   2
ATOM      2  C   UNL     1      14.568 -33.034  20.901  1.00  0.00     0.000 C 
BRANCH   2   3
ATOM      3  C   UNL     1      14.998 -33.460  22.316  1.00  0.00     0.000 C 
BRANCH   3   4
ATOM      4  C   UNL     1      15.126 -32.272  23.285  1.00  0.00     0.000 C 
BRANCH   4   5
ATOM      5  C   UNL     1      13.761 -31.713  23.716  1.00  0.00     0.006 C 
BRANCH   5   6
ATOM      6  C   UNL     1      13.657 -30.193  23.528  1.00  0.00     0.053 C 
BRANCH   6   7
ATOM      7  C   UNL     1      12.481 -29.854  22.667  1.00  0.00     0.041 C 
ATOM      8  O   UNL     1      12.148 -30.615  21.721  1.00  0.00    -0.550 OA
ATOM      9  O   UNL     1      11.723 -28.723  22.941  1.00  0.00    -0.550 OA
ENDBRANCH   6   7
ENDBRANCH   5   6
ENDBRANCH   4   5
ENDBRANCH   3   4
ENDBRANCH   2   3
ENDBRANCH   1   2
BRANCH   1  10
ATOM     10  C   UNL     1      15.702 -35.270  20.210  1.00  0.00     0.000 C 
BRANCH  10  11
ATOM     11  C   UNL     1      16.881 -35.701  19.324  1.00  0.00    -0.000 C 
BRANCH  11  12
ATOM     12  C   UNL     1      18.008 -34.658  19.366  1.00  0.00    -0.000 C 
BRANCH  12  13
ATOM     13  C   UNL     1      18.655 -34.527  20.757  1.00  0.00    -0.000 C 
BRANCH  13  14
ATOM     14  C   UNL     1      18.447 -33.167  21.449  1.00  0.00    -0.000 C 
BRANCH  14  15
ATOM     15  C   UNL     1      18.452 -31.987  20.463  1.00  0.00    -0.000 C 
BRANCH  15  16
ATOM     16  C   UNL     1      17.654 -30.781  20.985  1.00  0.00    -0.003 C 
ATOM     17  C   UNL     1      18.453 -29.478  20.942  1.00  0.00     0.004 C 
ENDBRANCH  15  16
ENDBRANCH  14  15
ENDBRANCH  13  14
ENDBRANCH  12  13
ENDBRANCH  11  12
ENDBRANCH  10  11
ENDBRANCH   1  10
TORSDOF 13
ENDMDL
MODEL 2
REMARK VINA RESULT:    -4.593      1.248      3.384
REMARK INTER + INTRA:          -9.885
REMARK INTER:                  -7.913
REMARK INTRA:                  -1.972
REMARK UNBOUND:                -1.802
REMARK SMILES CCCCCCCCCCCCCCC(=O)[O-]
REMARK SMILES IDX 9 1 10 2 11 3 12 4 13 5 14 6 15 7 16 8 17 9 8 10 7 11 6 12
REMARK SMILES IDX 5 13 4 14 3 15 2 16 1 17
REMARK H PARENT
REMARK Flexibility Score: inf
ROOT
ATOM      1  C   UNL     1      17.390 -30.906  21.015  1.00  0.00     0.000 C 
ENDROOT
BRANCH   1   2
ATOM      2  C   UNL     1      17.362 -30.512  22.506  1.00  0.00     0.000 C 
BRANCH   2   3
ATOM      3  C   UNL     1      16.037 -29.904  23.001  1.00  0.00     0.000 C 
BRANCH   3   4
ATOM      4  C   UNL     1      15.081 -29.543  21.851  1.00  0.00     0.000 C 
BRANCH   4   5
ATOM      5  C   UNL     1      13.659 -30.082  22.076  1.00  0.00     0.006 C 
BRANCH   5   6
ATOM      6  C   UNL     1      13.232 -30.032  23.549  1.00  0.00     0.053 C 
BRANCH   6   7
ATOM      7  C   UNL     1      12.391 -28.822  23.807  1.00  0.00     0.041 C 
ATOM      8  O   UNL     1      12.744 -27.977  24.671  1.00  0.00    -0.550 OA
ATOM      9  O   UNL     1      11.242 -28.602  23.058  1.00  0.00    -0.550 OA
ENDBRANCH   6   7
ENDBRANCH   5   6
ENDBRANCH   4   5
ENDBRANCH   3   4
ENDBRANCH   2   3
ENDBRANCH   1   2
BRANCH   1  10
ATOM     10  C   UNL     1      18.595 -31.764  20.589  1.00  0.00     0.000 C 
BRANCH  10  11
ATOM     11  C   UNL     1      18.814 -32.979  21.502  1.00  0.00    -0.000 C 
BRANCH  11  12
ATOM     12  C   UNL     1      18.428 -34.281  20.784  1.00  0.00    -0.000 C 
BRANCH  12  13
ATOM     13  C   UNL     1      17.914 -34.048  19.351  1.00  0.00    -0.000 C 
BRANCH  13  14
ATOM     14  C   UNL     1      16.436 -34.413  19.119  1.00  0.00    -0.000 C 
BRANCH  14  15
ATOM     15  C   UNL     1      15.702 -34.790  20.418  1.00  0.00    -0.000 C 
BRANCH  15  16
ATOM     16  C   UNL     1      14.886 -33.621  20.992  1.00  0.00    -0.003 C 
ATOM     17  C   UNL     1      15.056 -33.464  22.504  1.00  0.00     0.004 C 
ENDBRANCH  15  16
ENDBRANCH  14  15
ENDBRANCH  13  14
ENDBRANCH  12  13
ENDBRANCH  11  12
ENDBRANCH  10  11
ENDBRANCH   1  10
TORSDOF 13
ENDMDL
MODEL 3
REMARK VINA RESULT:    -4.584      3.426      6.039
REMARK INTER + INTRA:          -9.870
REMARK INTER:                  -7.880
REMARK INTRA:                  -1.990
REMARK UNBOUND:                -1.802
REMARK SMILES CCCCCCCCCCCCCCC(=O)[O-]
REMARK SMILES IDX 9 1 10 2 11 3 12 4 13 5 14 6 15 7 16 8 17 9 8 10 7 11 6 12
REMARK SMILES IDX 5 13 4 14 3 15 2 16 1 17
REMARK H PARENT
REMARK Flexibility Score: inf
ROOT
ATOM      1  C   UNL     1      13.884 -32.251  23.977  1.00  0.00     0.000 C 
ENDROOT
BRANCH   1   2
ATOM      2  C   UNL     1      14.822 -33.192  23.192  1.00  0.00     0.000 C 
BRANCH   2   3
ATOM      3  C   UNL     1      14.683 -33.131  21.661  1.00  0.00     0.000 C 
BRANCH   3   4
ATOM      4  C   UNL     1      15.332 -34.333  20.954  1.00  0.00     0.000 C 
BRANCH   4   5
ATOM      5  C   UNL     1      16.654 -34.759  21.612  1.00  0.00     0.006 C 
BRANCH   5   6
ATOM      6  C   UNL     1      17.746 -35.093  20.586  1.00  0.00     0.053 C 
BRANCH   6   7
ATOM      7  C   UNL     1      17.564 -36.483  20.064  1.00  0.00     0.041 C 
ATOM      8  O   UNL     1      17.105 -36.670  18.907  1.00  0.00    -0.550 OA
ATOM      9  O   UNL     1      17.949 -37.571  20.838  1.00  0.00    -0.550 OA
ENDBRANCH   6   7
ENDBRANCH   5   6
ENDBRANCH   4   5
ENDBRANCH   3   4
ENDBRANCH   2   3
ENDBRANCH   1   2
BRANCH   1  10
ATOM     10  C   UNL     1      13.195 -31.163  23.133  1.00  0.00     0.000 C 
BRANCH  10  11
ATOM     11  C   UNL     1      13.162 -29.796  23.833  1.00  0.00    -0.000 C 
BRANCH  11  12
ATOM     12  C   UNL     1      14.136 -28.815  23.165  1.00  0.00    -0.000 C 
BRANCH  12  13
ATOM     13  C   UNL     1      14.695 -29.338  21.828  1.00  0.00    -0.000 C 
BRANCH  13  14
ATOM     14  C   UNL     1      16.231 -29.342  21.719  1.00  0.00    -0.000 C 
BRANCH  14  15
ATOM     15  C   UNL     1      16.901 -30.279  22.740  1.00  0.00    -0.000 C 
BRANCH  15  16
ATOM     16  C   UNL     1      18.097 -31.039  22.143  1.00  0.00    -0.003 C 
ATOM     17  C   UNL     1      17.920 -31.351  20.657  1.00  0.00     0.004 C 
ENDBRANCH  15  16
ENDBRANCH  14  15
ENDBRANCH  13  14
ENDBRANCH  12  13
ENDBRANCH  11  12
ENDBRANCH  10  11
ENDBRANCH   1  10
TORSDOF 13
ENDMDL
MODEL 4
REMARK VINA RESULT:    -4.526      2.065      5.220
REMARK INTER + INTRA:          -9.767
REMARK INTER:                  -8.132
REMARK INTRA:                  -1.635
REMARK UNBOUND:                -1.802
REMARK SMILES CCCCCCCCCCCCCCC(=O)[O-]
REMARK SMILES IDX 9 1 10 2 11 3 12 4 13 5 14 6 15 7 16 8 17 9 8 10 7 11 6 12
REMARK SMILES IDX 5 13 4 14 3 15 2 16 1 17
REMARK H PARENT
REMARK Flexibility Score: inf
ROOT
ATOM      1  C   UNL     1      15.753 -34.742  20.928  1.00  0.00     0.000 C 
ENDROOT
BRANCH   1   2
ATOM      2  C   UNL     1      15.936 -34.442  19.426  1.00  0.00     0.000 C 
BRANCH   2   3
ATOM      3  C   UNL     1      17.210 -33.659  19.062  1.00  0.00     0.000 C 
BRANCH   3   4
ATOM      4  C   UNL     1      18.307 -33.772  20.135  1.00  0.00     0.000 C 
BRANCH   4   5
ATOM      5  C   UNL     1      18.660 -32.414  20.762  1.00  0.00     0.006 C 
BRANCH   5   6
ATOM      6  C   UNL     1      17.643 -31.318  20.416  1.00  0.00     0.053 C 
BRANCH   6   7
ATOM      7  C   UNL     1      17.162 -30.642  21.660  1.00  0.00     0.041 C 
ATOM      8  O   UNL     1      17.412 -31.140  22.789  1.00  0.00    -0.550 OA
ATOM      9  O   UNL     1      16.479 -29.435  21.575  1.00  0.00    -0.550 OA
ENDBRANCH   6   7
ENDBRANCH   5   6
ENDBRANCH   4   5
ENDBRANCH   3   4
ENDBRANCH   2   3
ENDBRANCH   1   2
BRANCH   1  10
ATOM     10  C   UNL     1      14.913 -33.711  21.703  1.00  0.00     0.000 C 
BRANCH  10  11
ATOM     11  C   UNL     1      14.092 -32.798  20.780  1.00  0.00    -0.000 C 
BRANCH  11  12
ATOM     12  C   UNL     1      13.582 -31.565  21.542  1.00  0.00    -0.000 C 
BRANCH  12  13
ATOM     13  C   UNL     1      13.902 -31.613  23.048  1.00  0.00    -0.000 C 
BRANCH  13  14
ATOM     14  C   UNL     1      13.480 -30.366  23.845  1.00  0.00    -0.000 C 
BRANCH  14  15
ATOM     15  C   UNL     1      13.138 -29.166  22.944  1.00  0.00    -0.000 C 
BRANCH  15  16
ATOM     16  C   UNL     1      11.709 -28.648  23.172  1.00  0.00    -0.003 C 
ATOM     17  C   UNL     1      11.664 -27.404  24.059  1.00  0.00     0.004 C 
ENDBRANCH  15  16
ENDBRANCH  14  15
ENDBRANCH  13  14
ENDBRANCH  12  13
ENDBRANCH  11  12
ENDBRANCH  10  11
ENDBRANCH   1  10
TORSDOF 13
ENDMDL
MODEL 5
REMARK VINA RESULT:    -4.498      1.460      2.023
REMARK INTER + INTRA:          -9.719
REMARK INTER:                  -7.786
REMARK INTRA:                  -1.932
REMARK UNBOUND:                -1.802
REMARK SMILES CCCCCCCCCCCCCCC(=O)[O-]
REMARK SMILES IDX 9 1 10 2 11 3 12 4 13 5 14 6 15 7 16 8 17 9 8 10 7 11 6 12
REMARK SMILES IDX 5 13 4 14 3 15 2 16 1 17
REMARK H PARENT
REMARK Flexibility Score: inf
ROOT
ATOM      1  C   UNL     1      14.658 -33.499  21.605  1.00  0.00     0.000 C 
ENDROOT
BRANCH   1   2
ATOM      2  C   UNL     1      13.960 -32.515  20.643  1.00  0.00     0.000 C 
BRANCH   2   3
ATOM      3  C   UNL     1      13.507 -31.187  21.276  1.00  0.00     0.000 C 
BRANCH   3   4
ATOM      4  C   UNL     1      13.143 -31.328  22.764  1.00  0.00     0.000 C 
BRANCH   4   5
ATOM      5  C   UNL     1      13.734 -30.200  23.624  1.00  0.00     0.006 C 
BRANCH   5   6
ATOM      6  C   UNL     1      13.822 -28.866  22.872  1.00  0.00     0.053 C 
BRANCH   6   7
ATOM      7  C   UNL     1      12.692 -27.968  23.268  1.00  0.00     0.041 C 
ATOM      8  O   UNL     1      11.502 -28.310  23.039  1.00  0.00    -0.550 OA
ATOM      9  O   UNL     1      12.952 -26.777  23.934  1.00  0.00    -0.550 OA
ENDBRANCH   6   7
ENDBRANCH   5   6
ENDBRANCH   4   5
ENDBRANCH   3   4
ENDBRANCH   2   3
ENDBRANCH   1   2
BRANCH   1  10
ATOM     10  C   UNL     1      15.769 -34.356  20.971  1.00  0.00     0.000 C 
BRANCH  10  11
ATOM     11  C   UNL     1      15.995 -34.033  19.486  1.00  0.00    -0.000 C 
BRANCH  11  12
ATOM     12  C   UNL     1      17.446 -33.593  19.236  1.00  0.00    -0.000 C 
BRANCH  12  13
ATOM     13  C   UNL     1      18.119 -32.999  20.487  1.00  0.00    -0.000 C 
BRANCH  13  14
ATOM     14  C   UNL     1      18.305 -31.471  20.466  1.00  0.00    -0.000 C 
BRANCH  14  15
ATOM     15  C   UNL     1      17.200 -30.724  21.234  1.00  0.00    -0.000 C 
BRANCH  15  16
ATOM     16  C   UNL     1      17.004 -31.266  22.658  1.00  0.00    -0.003 C 
ATOM     17  C   UNL     1      18.089 -30.794  23.627  1.00  0.00     0.004 C 
ENDBRANCH  15  16
ENDBRANCH  14  15
ENDBRANCH  13  14
ENDBRANCH  12  13
ENDBRANCH  11  12
ENDBRANCH  10  11
ENDBRANCH   1  10
TORSDOF 13
ENDMDL
MODEL 6
REMARK VINA RESULT:    -4.370      1.312      3.930
REMARK INTER + INTRA:          -9.494
REMARK INTER:                  -7.157
REMARK INTRA:                  -2.337
REMARK UNBOUND:                -1.802
REMARK SMILES CCCCCCCCCCCCCCC(=O)[O-]
REMARK SMILES IDX 9 1 10 2 11 3 12 4 13 5 14 6 15 7 16 8 17 9 8 10 7 11 6 12
REMARK SMILES IDX 5 13 4 14 3 15 2 16 1 17
REMARK H PARENT
REMARK Flexibility Score: inf
ROOT
ATOM      1  C   UNL     1      19.003 -33.457  21.685  1.00  0.00     0.000 C 
ENDROOT
BRANCH   1   2
ATOM      2  C   UNL     1      19.174 -32.001  21.206  1.00  0.00     0.000 C 
BRANCH   2   3
ATOM      3  C   UNL     1      17.895 -31.328  20.678  1.00  0.00     0.000 C 
BRANCH   3   4
ATOM      4  C   UNL     1      17.424 -30.162  21.564  1.00  0.00     0.000 C 
BRANCH   4   5
ATOM      5  C   UNL     1      15.895 -30.013  21.579  1.00  0.00     0.006 C 
BRANCH   5   6
ATOM      6  C   UNL     1      15.341 -29.719  22.979  1.00  0.00     0.053 C 
BRANCH   6   7
ATOM      7  C   UNL     1      13.858 -29.913  23.004  1.00  0.00     0.041 C 
ATOM      8  O   UNL     1      13.284 -30.528  22.068  1.00  0.00    -0.550 OA
ATOM      9  O   UNL     1      13.116 -29.457  24.087  1.00  0.00    -0.550 OA
ENDBRANCH   6   7
ENDBRANCH   5   6
ENDBRANCH   4   5
ENDBRANCH   3   4
ENDBRANCH   2   3
ENDBRANCH   1   2
BRANCH   1  10
ATOM     10  C   UNL     1      18.351 -33.617  23.070  1.00  0.00     0.000 C 
BRANCH  10  11
ATOM     11  C   UNL     1      17.047 -34.428  23.026  1.00  0.00    -0.000 C 
BRANCH  11  12
ATOM     12  C   UNL     1      15.824 -33.499  23.027  1.00  0.00    -0.000 C 
BRANCH  12  13
ATOM     13  C   UNL     1      15.067 -33.499  21.685  1.00  0.00    -0.000 C 
BRANCH  13  14
ATOM     14  C   UNL     1      15.333 -34.720  20.785  1.00  0.00    -0.000 C 
BRANCH  14  15
ATOM     15  C   UNL     1      16.020 -34.347  19.460  1.00  0.00    -0.000 C 
BRANCH  15  16
ATOM     16  C   UNL     1      17.185 -35.289  19.117  1.00  0.00    -0.003 C 
ATOM     17  C   UNL     1      17.160 -36.584  19.929  1.00  0.00     0.004 C 
ENDBRANCH  15  16
ENDBRANCH  14  15
ENDBRANCH  13  14
ENDBRANCH  12  13
ENDBRANCH  11  12
ENDBRANCH  10  11
ENDBRANCH   1  10
TORSDOF 13
ENDMDL
MODEL 7
REMARK VINA RESULT:    -4.335      1.535      3.551
REMARK INTER + INTRA:          -9.432
REMARK INTER:                  -7.680
REMARK INTRA:                  -1.752
REMARK UNBOUND:                -1.802
REMARK SMILES CCCCCCCCCCCCCCC(=O)[O-]
REMARK SMILES IDX 9 1 10 2 11 3 12 4 13 5 14 6 15 7 16 8 17 9 8 10 7 11 6 12
REMARK SMILES IDX 5 13 4 14 3 15 2 16 1 17
REMARK H PARENT
REMARK Flexibility Score: inf
ROOT
ATOM      1  C   UNL     1      17.848 -33.744  19.282  1.00  0.00     0.000 C 
ENDROOT
BRANCH   1   2
ATOM      2  C   UNL     1      16.761 -34.835  19.185  1.00  0.00     0.000 C 
BRANCH   2   3
ATOM      3  C   UNL     1      15.652 -34.754  20.248  1.00  0.00     0.000 C 
BRANCH   3   4
ATOM      4  C   UNL     1      14.618 -33.655  19.950  1.00  0.00     0.000 C 
BRANCH   4   5
ATOM      5  C   UNL     1      14.239 -32.848  21.201  1.00  0.00     0.006 C 
BRANCH   5   6
ATOM      6  C   UNL     1      13.479 -31.558  20.867  1.00  0.00     0.053 C 
BRANCH   6   7
ATOM      7  C   UNL     1      12.782 -31.033  22.082  1.00  0.00     0.041 C 
ATOM      8  O   UNL     1      13.255 -31.253  23.228  1.00  0.00    -0.550 OA
ATOM      9  O   UNL     1      11.636 -30.259  21.946  1.00  0.00    -0.550 OA
ENDBRANCH   6   7
ENDBRANCH   5   6
ENDBRANCH   4   5
ENDBRANCH   3   4
ENDBRANCH   2   3
ENDBRANCH   1   2
BRANCH   1  10
ATOM     10  C   UNL     1      18.353 -33.451  20.706  1.00  0.00     0.000 C 
BRANCH  10  11
ATOM     11  C   UNL     1      18.893 -32.022  20.865  1.00  0.00    -0.000 C 
BRANCH  11  12
ATOM     12  C   UNL     1      17.805 -30.986  20.542  1.00  0.00    -0.000 C 
BRANCH  12  13
ATOM     13  C   UNL     1      16.995 -30.559  21.780  1.00  0.00    -0.000 C 
BRANCH  13  14
ATOM     14  C   UNL     1      17.580 -31.008  23.132  1.00  0.00    -0.000 C 
BRANCH  14  15
ATOM     15  C   UNL     1      16.707 -32.056  23.844  1.00  0.00    -0.000 C 
BRANCH  15  16
ATOM     16  C   UNL     1      17.543 -33.153  24.523  1.00  0.00    -0.003 C 
ATOM     17  C   UNL     1      16.685 -34.180  25.263  1.00  0.00     0.004 C 
ENDBRANCH  15  16
ENDBRANCH  14  15
ENDBRANCH  13  14
ENDBRANCH  12  13
ENDBRANCH  11  12
ENDBRANCH  10  11
ENDBRANCH   1  10
TORSDOF 13
ENDMDL
MODEL 8
REMARK VINA RESULT:    -4.321      3.545      5.839
REMARK INTER + INTRA:          -9.407
REMARK INTER:                  -7.312
REMARK INTRA:                  -2.095
REMARK UNBOUND:                -1.802
REMARK SMILES CCCCCCCCCCCCCCC(=O)[O-]
REMARK SMILES IDX 9 1 10 2 11 3 12 4 13 5 14 6 15 7 16 8 17 9 8 10 7 11 6 12
REMARK SMILES IDX 5 13 4 14 3 15 2 16 1 17
REMARK H PARENT
REMARK Flexibility Score: inf
ROOT
ATOM      1  C   UNL     1      14.980 -33.361  22.545  1.00  0.00     0.000 C 
ENDROOT
BRANCH   1   2
ATOM      2  C   UNL     1      14.812 -33.321  21.012  1.00  0.00     0.000 C 
BRANCH   2   3
ATOM      3  C   UNL     1      15.479 -34.479  20.248  1.00  0.00     0.000 C 
BRANCH   3   4
ATOM      4  C   UNL     1      16.552 -33.999  19.254  1.00  0.00     0.000 C 
BRANCH   4   5
ATOM      5  C   UNL     1      17.771 -34.934  19.206  1.00  0.00     0.006 C 
BRANCH   5   6
ATOM      6  C   UNL     1      18.347 -35.228  20.597  1.00  0.00     0.053 C 
BRANCH   6   7
ATOM      7  C   UNL     1      18.252 -36.690  20.902  1.00  0.00     0.041 C 
ATOM      8  O   UNL     1      17.545 -37.442  20.181  1.00  0.00    -0.550 OA
ATOM      9  O   UNL     1      18.983 -37.230  21.952  1.00  0.00    -0.550 OA
ENDBRANCH   6   7
ENDBRANCH   5   6
ENDBRANCH   4   5
ENDBRANCH   3   4
ENDBRANCH   2   3
ENDBRANCH   1   2
BRANCH   1  10
ATOM     10  C   UNL     1      16.434 -33.456  23.041  1.00  0.00     0.000 C 
BRANCH  10  11
ATOM     11  C   UNL     1      17.103 -32.082  23.193  1.00  0.00    -0.000 C 
BRANCH  11  12
ATOM     12  C   UNL     1      17.983 -31.762  21.976  1.00  0.00    -0.000 C 
BRANCH  12  13
ATOM     13  C   UNL     1      17.366 -30.697  21.050  1.00  0.00    -0.000 C 
BRANCH  13  14
ATOM     14  C   UNL     1      16.637 -29.548  21.770  1.00  0.00    -0.000 C 
BRANCH  14  15
ATOM     15  C   UNL     1      15.110 -29.599  21.584  1.00  0.00    -0.000 C 
BRANCH  15  16
ATOM     16  C   UNL     1      14.351 -29.045  22.800  1.00  0.00    -0.003 C 
ATOM     17  C   UNL     1      13.580 -30.124  23.561  1.00  0.00     0.004 C 
ENDBRANCH  15  16
ENDBRANCH  14  15
ENDBRANCH  13  14
ENDBRANCH  12  13
ENDBRANCH  11  12
ENDBRANCH  10  11
ENDBRANCH   1  10
TORSDOF 13
ENDMDL
MODEL 9
REMARK VINA RESULT:    -4.303      1.081      1.527
REMARK INTER + INTRA:          -9.375
REMARK INTER:                  -7.690
REMARK INTRA:                  -1.684
REMARK UNBOUND:                -1.802
REMARK SMILES CCCCCCCCCCCCCCC(=O)[O-]
REMARK SMILES IDX 9 1 10 2 11 3 12 4 13 5 14 6 15 7 16 8 17 9 8 10 7 11 6 12
REMARK SMILES IDX 5 13 4 14 3 15 2 16 1 17
REMARK H PARENT
REMARK Flexibility Score: inf
ROOT
ATOM      1  C   UNL     1      14.809 -33.618  20.315  1.00  0.00     0.000 C 
ENDROOT
BRANCH   1   2
ATOM      2  C   UNL     1      14.621 -33.028  21.729  1.00  0.00     0.000 C 
BRANCH   2   3
ATOM      3  C   UNL     1      14.028 -31.609  21.775  1.00  0.00     0.000 C 
BRANCH   3   4
ATOM      4  C   UNL     1      14.898 -30.624  22.574  1.00  0.00     0.000 C 
BRANCH   4   5
ATOM      5  C   UNL     1      14.214 -29.262  22.774  1.00  0.00     0.006 C 
BRANCH   5   6
ATOM      6  C   UNL     1      13.079 -29.315  23.805  1.00  0.00     0.053 C 
BRANCH   6   7
ATOM      7  C   UNL     1      11.842 -28.683  23.252  1.00  0.00     0.041 C 
ATOM      8  O   UNL     1      11.441 -27.577  23.700  1.00  0.00    -0.550 OA
ATOM      9  O   UNL     1      11.158 -29.292  22.206  1.00  0.00    -0.550 OA
ENDBRANCH   6   7
ENDBRANCH   5   6
ENDBRANCH   4   5
ENDBRANCH   3   4
ENDBRANCH   2   3
ENDBRANCH   1   2
BRANCH   1  10
ATOM     10  C   UNL     1      15.681 -34.885  20.247  1.00  0.00     0.000 C 
BRANCH  10  11
ATOM     11  C   UNL     1      16.737 -34.823  19.134  1.00  0.00    -0.000 C 
BRANCH  11  12
ATOM     12  C   UNL     1      18.146 -35.051  19.701  1.00  0.00    -0.000 C 
BRANCH  12  13
ATOM     13  C   UNL     1      18.241 -34.759  21.211  1.00  0.00    -0.000 C 
BRANCH  13  14
ATOM     14  C   UNL     1      19.074 -33.520  21.585  1.00  0.00    -0.000 C 
BRANCH  14  15
ATOM     15  C   UNL     1      18.207 -32.283  21.881  1.00  0.00    -0.000 C 
BRANCH  15  16
ATOM     16  C   UNL     1      17.986 -31.410  20.635  1.00  0.00    -0.003 C 
ATOM     17  C   UNL     1      18.194 -29.920  20.910  1.00  0.00     0.004 C 
ENDBRANCH  15  16
ENDBRANCH  14  15
ENDBRANCH  13  14
ENDBRANCH  12  13
ENDBRANCH  11  12
ENDBRANCH  10  11
ENDBRANCH   1  10
TORSDOF 13
ENDMDL
