MODEL 1
REMARK VINA RESULT:    -3.733      0.000      0.000
REMARK INTER + INTRA:          -5.685
REMARK INTER:                  -5.042
REMARK INTRA:                  -0.643
REMARK UNBOUND:                -0.643
REMARK SMILES CCCCCCC=CC(=O)[O-]
REMARK SMILES IDX 5 1 6 2 7 3 8 4 9 5 10 6 11 7 4 8 3 9 2 10 1 11
REMARK H PARENT
REMARK Flexibility Score: inf
ROOT
ATOM      1  C   UNL     1      -7.619   4.449  -0.118  1.00  0.00     0.004 C 
ENDROOT
BRANCH   1   2
ATOM      2  C   UNL     1      -8.907   4.987  -0.760  1.00  0.00     0.027 C 
BRANCH   2   3
ATOM      3  C   UNL     1      -9.352   4.159  -1.933  1.00  0.00    -0.025 C 
ATOM      4  C   UNL     1      -9.831   2.921  -1.775  1.00  0.00     0.020 C 
BRANCH   4   5
ATOM      5  C   UNL     1     -10.276   2.105  -2.913  1.00  0.00     0.064 C 
ATOM      6  O   UNL     1      -9.852   0.926  -3.037  1.00  0.00    -0.545 OA
ATOM      7  O   UNL     1     -11.157   2.615  -3.860  1.00  0.00    -0.545 OA
ENDBRANCH   4   5
ENDBRANCH   2   3
ENDBRANCH   1   2
BRANCH   1   8
ATOM      8  C   UNL     1      -7.786   4.197   1.391  1.00  0.00     0.000 C 
BRANCH   8   9
ATOM      9  C   UNL     1      -8.309   2.786   1.700  1.00  0.00    -0.000 C 
BRANCH   9  10
ATOM     10  C   UNL     1      -9.559   2.799   2.592  1.00  0.00    -0.003 C 
ATOM     11  C   UNL     1     -10.831   2.880   1.754  1.00  0.00     0.004 C 
ENDBRANCH   9  10
ENDBRANCH   8   9
ENDBRANCH   1   8
TORSDOF 6
ENDMDL
MODEL 2
REMARK VINA RESULT:    -3.589      1.629      2.269
REMARK INTER + INTRA:          -5.491
REMARK INTER:                  -4.724
REMARK INTRA:                  -0.767
REMARK UNBOUND:                -0.643
REMARK SMILES CCCCCCC=CC(=O)[O-]
REMARK SMILES IDX 5 1 6 2 7 3 8 4 9 5 10 6 11 7 4 8 3 9 2 10 1 11
REMARK H PARENT
REMARK Flexibility Score: inf
ROOT
ATOM      1  C   UNL     1      -7.978   3.227   1.635  1.00  0.00     0.004 C 
ENDROOT
BRANCH   1   2
ATOM      2  C   UNL     1      -7.308   4.255   0.709  1.00  0.00     0.027 C 
BRANCH   2   3
ATOM      3  C   UNL     1      -8.174   4.618  -0.465  1.00  0.00    -0.025 C 
ATOM      4  C   UNL     1      -9.052   3.753  -0.981  1.00  0.00     0.020 C 
BRANCH   4   5
ATOM      5  C   UNL     1      -9.910   4.099  -2.124  1.00  0.00     0.064 C 
ATOM      6  O   UNL     1      -9.406   4.660  -3.131  1.00  0.00    -0.545 OA
ATOM      7  O   UNL     1     -11.272   3.820  -2.109  1.00  0.00    -0.545 OA
ENDBRANCH   4   5
ENDBRANCH   2   3
ENDBRANCH   1   2
BRANCH   1   8
ATOM      8  C   UNL     1      -8.258   3.804   3.034  1.00  0.00     0.000 C 
BRANCH   8   9
ATOM      9  C   UNL     1      -9.517   4.684   3.068  1.00  0.00    -0.000 C 
BRANCH   9  10
ATOM     10  C   UNL     1     -10.736   3.998   2.434  1.00  0.00    -0.003 C 
ATOM     11  C   UNL     1     -11.469   4.945   1.488  1.00  0.00     0.004 C 
ENDBRANCH   9  10
ENDBRANCH   8   9
ENDBRANCH   1   8
TORSDOF 6
ENDMDL
MODEL 3
REMARK VINA RESULT:    -3.547      1.503      2.744
REMARK INTER + INTRA:          -5.435
REMARK INTER:                  -4.900
REMARK INTRA:                  -0.535
REMARK UNBOUND:                -0.643
REMARK SMILES CCCCCCC=CC(=O)[O-]
REMARK SMILES IDX 5 1 6 2 7 3 8 4 9 5 10 6 11 7 4 8 3 9 2 10 1 11
REMARK H PARENT
REMARK Flexibility Score: inf
ROOT
ATOM      1  C   UNL     1     -10.981   2.664   1.400  1.00  0.00     0.004 C 
ENDROOT
BRANCH   1   2
ATOM      2  C   UNL     1     -11.381   2.169   0.002  1.00  0.00     0.027 C 
BRANCH   2   3
ATOM      3  C   UNL     1     -10.412   2.608  -1.061  1.00  0.00    -0.025 C 
ATOM      4  C   UNL     1     -10.792   3.393  -2.074  1.00  0.00     0.020 C 
BRANCH   4   5
ATOM      5  C   UNL     1      -9.853   3.834  -3.114  1.00  0.00     0.064 C 
ATOM      6  O   UNL     1      -8.623   3.602  -2.981  1.00  0.00    -0.545 OA
ATOM      7  O   UNL     1     -10.300   4.509  -4.245  1.00  0.00    -0.545 OA
ENDBRANCH   4   5
ENDBRANCH   2   3
ENDBRANCH   1   2
BRANCH   1   8
ATOM      8  C   UNL     1     -10.141   3.953   1.339  1.00  0.00     0.000 C 
BRANCH   8   9
ATOM      9  C   UNL     1      -8.865   3.866   2.189  1.00  0.00    -0.000 C 
BRANCH   9  10
ATOM     10  C   UNL     1      -7.596   3.703   1.339  1.00  0.00    -0.003 C 
ATOM     11  C   UNL     1      -7.627   4.627   0.125  1.00  0.00     0.004 C 
ENDBRANCH   9  10
ENDBRANCH   8   9
ENDBRANCH   1   8
TORSDOF 6
ENDMDL
MODEL 4
REMARK VINA RESULT:    -3.458      2.885      5.225
REMARK INTER + INTRA:          -5.314
REMARK INTER:                  -4.665
REMARK INTRA:                  -0.649
REMARK UNBOUND:                -0.643
REMARK SMILES CCCCCCC=CC(=O)[O-]
REMARK SMILES IDX 5 1 6 2 7 3 8 4 9 5 10 6 11 7 4 8 3 9 2 10 1 11
REMARK H PARENT
REMARK Flexibility Score: inf
ROOT
ATOM      1  C   UNL     1     -10.797   1.102  -2.024  1.00  0.00     0.004 C 
ENDROOT
BRANCH   1   2
ATOM      2  C   UNL     1     -11.371   2.163  -1.071  1.00  0.00     0.027 C 
BRANCH   2   3
ATOM      3  C   UNL     1     -10.377   2.595  -0.029  1.00  0.00    -0.025 C 
ATOM      4  C   UNL     1      -9.143   2.987  -0.359  1.00  0.00     0.020 C 
BRANCH   4   5
ATOM      5  C   UNL     1      -8.165   3.419   0.650  1.00  0.00     0.064 C 
ATOM      6  O   UNL     1      -8.131   2.844   1.769  1.00  0.00    -0.545 OA
ATOM      7  O   UNL     1      -7.278   4.457   0.390  1.00  0.00    -0.545 OA
ENDBRANCH   4   5
ENDBRANCH   2   3
ENDBRANCH   1   2
BRANCH   1   8
ATOM      8  C   UNL     1     -10.830   1.565  -3.492  1.00  0.00     0.000 C 
BRANCH   8   9
ATOM      9  C   UNL     1     -11.584   2.890  -3.676  1.00  0.00    -0.000 C 
BRANCH   9  10
ATOM     10  C   UNL     1     -10.781   3.922  -4.481  1.00  0.00    -0.003 C 
ATOM     11  C   UNL     1      -9.504   4.319  -3.746  1.00  0.00     0.004 C 
ENDBRANCH   9  10
ENDBRANCH   8   9
ENDBRANCH   1   8
TORSDOF 6
ENDMDL
MODEL 5
REMARK VINA RESULT:    -3.333     12.642     14.308
REMARK INTER + INTRA:          -5.145
REMARK INTER:                  -4.408
REMARK INTRA:                  -0.737
REMARK UNBOUND:                -0.643
REMARK SMILES CCCCCCC=CC(=O)[O-]
REMARK SMILES IDX 5 1 6 2 7 3 8 4 9 5 10 6 11 7 4 8 3 9 2 10 1 11
REMARK H PARENT
REMARK Flexibility Score: inf
ROOT
ATOM      1  C   UNL     1      -9.492  -4.036 -10.585  1.00  0.00     0.004 C 
ENDROOT
BRANCH   1   2
ATOM      2  C   UNL     1     -10.283  -4.459 -11.832  1.00  0.00     0.027 C 
BRANCH   2   3
ATOM      3  C   UNL     1      -9.485  -5.351 -12.743  1.00  0.00    -0.025 C 
ATOM      4  C   UNL     1      -8.198  -5.623 -12.504  1.00  0.00     0.020 C 
BRANCH   4   5
ATOM      5  C   UNL     1      -7.409  -6.499 -13.382  1.00  0.00     0.064 C 
ATOM      6  O   UNL     1      -6.320  -6.085 -13.857  1.00  0.00    -0.545 OA
ATOM      7  O   UNL     1      -7.849  -7.779 -13.700  1.00  0.00    -0.545 OA
ENDBRANCH   4   5
ENDBRANCH   2   3
ENDBRANCH   1   2
BRANCH   1   8
ATOM      8  C   UNL     1     -10.266  -4.317  -9.285  1.00  0.00     0.000 C 
BRANCH   8   9
ATOM      9  C   UNL     1     -10.865  -5.732  -9.249  1.00  0.00    -0.000 C 
BRANCH   9  10
ATOM     10  C   UNL     1      -9.833  -6.802  -8.865  1.00  0.00    -0.003 C 
ATOM     11  C   UNL     1      -9.773  -7.909  -9.914  1.00  0.00     0.004 C 
ENDBRANCH   9  10
ENDBRANCH   8   9
ENDBRANCH   1   8
TORSDOF 6
ENDMDL
MODEL 6
REMARK VINA RESULT:    -3.300      3.086      4.567
REMARK INTER + INTRA:          -5.101
REMARK INTER:                  -4.545
REMARK INTRA:                  -0.556
REMARK UNBOUND:                -0.643
REMARK SMILES CCCCCCC=CC(=O)[O-]
REMARK SMILES IDX 5 1 6 2 7 3 8 4 9 5 10 6 11 7 4 8 3 9 2 10 1 11
REMARK H PARENT
REMARK Flexibility Score: inf
ROOT
ATOM      1  C   UNL     1      -9.293   4.058  -2.609  1.00  0.00     0.004 C 
ENDROOT
BRANCH   1   2
ATOM      2  C   UNL     1      -9.180   4.962  -1.371  1.00  0.00     0.027 C 
BRANCH   2   3
ATOM      3  C   UNL     1      -8.539   4.260  -0.206  1.00  0.00    -0.025 C 
ATOM      4  C   UNL     1      -8.993   4.418   1.041  1.00  0.00     0.020 C 
BRANCH   4   5
ATOM      5  C   UNL     1      -8.380   3.731   2.187  1.00  0.00     0.064 C 
ATOM      6  O   UNL     1      -8.032   2.526   2.077  1.00  0.00    -0.545 OA
ATOM      7  O   UNL     1      -8.181   4.390   3.395  1.00  0.00    -0.545 OA
ENDBRANCH   4   5
ENDBRANCH   2   3
ENDBRANCH   1   2
BRANCH   1   8
ATOM      8  C   UNL     1     -10.611   3.263  -2.626  1.00  0.00     0.000 C 
BRANCH   8   9
ATOM      9  C   UNL     1     -10.402   1.767  -2.343  1.00  0.00    -0.000 C 
BRANCH   9  10
ATOM     10  C   UNL     1     -11.564   1.145  -1.556  1.00  0.00    -0.003 C 
ATOM     11  C   UNL     1     -11.694   1.779  -0.174  1.00  0.00     0.004 C 
ENDBRANCH   9  10
ENDBRANCH   8   9
ENDBRANCH   1   8
TORSDOF 6
ENDMDL
MODEL 7
REMARK VINA RESULT:    -3.272     16.399     17.382
REMARK INTER + INTRA:          -5.063
REMARK INTER:                  -4.325
REMARK INTRA:                  -0.738
REMARK UNBOUND:                -0.643
REMARK SMILES CCCCCCC=CC(=O)[O-]
REMARK SMILES IDX 5 1 6 2 7 3 8 4 9 5 10 6 11 7 4 8 3 9 2 10 1 11
REMARK H PARENT
REMARK Flexibility Score: inf
ROOT
ATOM      1  C   UNL     1       4.238  -7.142   3.266  1.00  0.00     0.004 C 
ENDROOT
BRANCH   1   2
ATOM      2  C   UNL     1       5.238  -6.631   2.218  1.00  0.00     0.027 C 
BRANCH   2   3
ATOM      3  C   UNL     1       5.252  -7.481   0.978  1.00  0.00    -0.025 C 
ATOM      4  C   UNL     1       4.680  -7.071  -0.159  1.00  0.00     0.020 C 
BRANCH   4   5
ATOM      5  C   UNL     1       4.694  -7.890  -1.379  1.00  0.00     0.064 C 
ATOM      6  O   UNL     1       5.026  -7.367  -2.475  1.00  0.00    -0.545 OA
ATOM      7  O   UNL     1       4.343  -9.235  -1.345  1.00  0.00    -0.545 OA
ENDBRANCH   4   5
ENDBRANCH   2   3
ENDBRANCH   1   2
BRANCH   1   8
ATOM      8  C   UNL     1       2.810  -6.629   3.003  1.00  0.00     0.000 C 
BRANCH   8   9
ATOM      9  C   UNL     1       1.773  -7.761   2.974  1.00  0.00    -0.000 C 
BRANCH   9  10
ATOM     10  C   UNL     1       1.509  -8.287   1.555  1.00  0.00    -0.003 C 
ATOM     11  C   UNL     1       2.185  -9.637   1.336  1.00  0.00     0.004 C 
ENDBRANCH   9  10
ENDBRANCH   8   9
ENDBRANCH   1   8
TORSDOF 6
ENDMDL
MODEL 8
REMARK VINA RESULT:    -3.270     16.643     17.755
REMARK INTER + INTRA:          -5.060
REMARK INTER:                  -4.441
REMARK INTRA:                  -0.619
REMARK UNBOUND:                -0.643
REMARK SMILES CCCCCCC=CC(=O)[O-]
REMARK SMILES IDX 5 1 6 2 7 3 8 4 9 5 10 6 11 7 4 8 3 9 2 10 1 11
REMARK H PARENT
REMARK Flexibility Score: inf
ROOT
ATOM      1  C   UNL     1       3.676  -9.216  -0.448  1.00  0.00     0.004 C 
ENDROOT
BRANCH   1   2
ATOM      2  C   UNL     1       4.868  -8.608  -1.202  1.00  0.00     0.027 C 
BRANCH   2   3
ATOM      3  C   UNL     1       5.018  -7.134  -0.944  1.00  0.00    -0.025 C 
ATOM      4  C   UNL     1       6.217  -6.545  -0.924  1.00  0.00     0.020 C 
BRANCH   4   5
ATOM      5  C   UNL     1       6.375  -5.104  -0.681  1.00  0.00     0.064 C 
ATOM      6  O   UNL     1       6.960  -4.710   0.362  1.00  0.00    -0.545 OA
ATOM      7  O   UNL     1       5.887  -4.167  -1.584  1.00  0.00    -0.545 OA
ENDBRANCH   4   5
ENDBRANCH   2   3
ENDBRANCH   1   2
BRANCH   1   8
ATOM      8  C   UNL     1       2.757  -8.136   0.149  1.00  0.00     0.000 C 
BRANCH   8   9
ATOM      9  C   UNL     1       2.760  -8.141   1.686  1.00  0.00    -0.000 C 
BRANCH   9  10
ATOM     10  C   UNL     1       3.160  -6.784   2.282  1.00  0.00    -0.003 C 
ATOM     11  C   UNL     1       4.631  -6.775   2.689  1.00  0.00     0.004 C 
ENDBRANCH   9  10
ENDBRANCH   8   9
ENDBRANCH   1   8
TORSDOF 6
ENDMDL
MODEL 9
REMARK VINA RESULT:    -3.259     16.508     17.656
REMARK INTER + INTRA:          -5.046
REMARK INTER:                  -4.339
REMARK INTRA:                  -0.707
REMARK UNBOUND:                -0.643
REMARK SMILES CCCCCCC=CC(=O)[O-]
REMARK SMILES IDX 5 1 6 2 7 3 8 4 9 5 10 6 11 7 4 8 3 9 2 10 1 11
REMARK H PARENT
REMARK Flexibility Score: inf
ROOT
ATOM      1  C   UNL     1       1.943  -8.594   0.810  1.00  0.00     0.004 C 
ENDROOT
BRANCH   1   2
ATOM      2  C   UNL     1       2.983  -9.711   0.633  1.00  0.00     0.027 C 
BRANCH   2   3
ATOM      3  C   UNL     1       4.011  -9.377  -0.413  1.00  0.00    -0.025 C 
ATOM      4  C   UNL     1       4.132  -8.140  -0.905  1.00  0.00     0.020 C 
BRANCH   4   5
ATOM      5  C   UNL     1       5.137  -7.800  -1.922  1.00  0.00     0.064 C 
ATOM      6  O   UNL     1       5.527  -8.682  -2.730  1.00  0.00    -0.545 OA
ATOM      7  O   UNL     1       5.669  -6.518  -2.003  1.00  0.00    -0.545 OA
ENDBRANCH   4   5
ENDBRANCH   2   3
ENDBRANCH   1   2
BRANCH   1   8
ATOM      8  C   UNL     1       1.861  -8.105   2.267  1.00  0.00     0.000 C 
BRANCH   8   9
ATOM      9  C   UNL     1       2.680  -6.827   2.507  1.00  0.00    -0.000 C 
BRANCH   9  10
ATOM     10  C   UNL     1       4.035  -7.108   3.172  1.00  0.00    -0.003 C 
ATOM     11  C   UNL     1       5.187  -6.632   2.292  1.00  0.00     0.004 C 
ENDBRANCH   9  10
ENDBRANCH   8   9
ENDBRANCH   1   8
TORSDOF 6
ENDMDL
