MODEL 1
REMARK VINA RESULT:    -4.992      0.000      0.000
REMARK INTER + INTRA:          -5.283
REMARK INTER:                  -5.283
REMARK INTRA:                   0.000
REMARK UNBOUND:                 0.000
REMARK SMILES Cc1cc(O)c(C)c(C)c1O
REMARK SMILES IDX 1 1 2 2 3 3 4 4 6 5 8 6 10 7 9 8 7 9 11 10 5 12
REMARK H PARENT 11 11 5 13
REMARK Flexibility Score: inf
ROOT
ATOM      1  C   UNL     1      -4.542  -2.731  15.823  1.00  0.00     0.048 C 
ATOM      2  C   UNL     1      -4.864  -3.862  14.886  1.00  0.00    -0.005 A 
ATOM      3  C   UNL     1      -6.081  -4.540  15.003  1.00  0.00     0.053 A 
ATOM      4  C   UNL     1      -6.387  -5.614  14.170  1.00  0.00     0.119 A 
ATOM      5  C   UNL     1      -5.454  -6.044  13.196  1.00  0.00    -0.003 A 
ATOM      6  C   UNL     1      -4.270  -5.282  12.986  1.00  0.00    -0.002 A 
ATOM      7  C   UNL     1      -3.951  -4.234  13.887  1.00  0.00     0.121 A 
ATOM      8  C   UNL     1      -3.344  -5.584  11.829  1.00  0.00     0.049 C 
ATOM      9  C   UNL     1      -5.737  -7.291  12.386  1.00  0.00     0.049 C 
ENDROOT
BRANCH   7  10
ATOM     10  O   UNL     1      -2.730  -3.553  13.822  1.00  0.00    -0.507 OA
ATOM     11  H   UNL     1      -2.634  -2.600  13.495  1.00  0.00     0.293 HD
ENDBRANCH   7  10
BRANCH   4  12
ATOM     12  O   UNL     1      -7.635  -6.222  14.331  1.00  0.00    -0.508 OA
ATOM     13  H   UNL     1      -7.864  -6.836  15.101  1.00  0.00     0.293 HD
ENDBRANCH   4  12
TORSDOF 2
ENDMDL
MODEL 2
REMARK VINA RESULT:    -4.791     10.316     11.475
REMARK INTER + INTRA:          -5.071
REMARK INTER:                  -5.071
REMARK INTRA:                   0.000
REMARK UNBOUND:                 0.000
REMARK SMILES Cc1cc(O)c(C)c(C)c1O
REMARK SMILES IDX 1 1 2 2 3 3 4 4 6 5 8 6 10 7 9 8 7 9 11 10 5 12
REMARK H PARENT 11 11 5 13
REMARK Flexibility Score: inf
ROOT
ATOM      1  C   UNL     1      -6.344  -4.942   2.083  1.00  0.00     0.048 C 
ATOM      2  C   UNL     1      -5.075  -5.585   2.568  1.00  0.00    -0.005 A 
ATOM      3  C   UNL     1      -3.843  -4.971   2.326  1.00  0.00     0.053 A 
ATOM      4  C   UNL     1      -2.651  -5.565   2.735  1.00  0.00     0.119 A 
ATOM      5  C   UNL     1      -2.673  -6.818   3.393  1.00  0.00    -0.003 A 
ATOM      6  C   UNL     1      -3.927  -7.389   3.754  1.00  0.00    -0.002 A 
ATOM      7  C   UNL     1      -5.122  -6.799   3.273  1.00  0.00     0.121 A 
ATOM      8  C   UNL     1      -3.998  -8.621   4.630  1.00  0.00     0.049 C 
ATOM      9  C   UNL     1      -1.372  -7.519   3.714  1.00  0.00     0.049 C 
ENDROOT
BRANCH   7  10
ATOM     10  O   UNL     1      -6.371  -7.400   3.468  1.00  0.00    -0.507 OA
ATOM     11  H   UNL     1      -7.226  -7.072   3.037  1.00  0.00     0.293 HD
ENDBRANCH   7  10
BRANCH   4  12
ATOM     12  O   UNL     1      -1.463  -4.874   2.479  1.00  0.00    -0.508 OA
ATOM     13  H   UNL     1      -1.336  -3.889   2.668  1.00  0.00     0.293 HD
ENDBRANCH   4  12
TORSDOF 2
ENDMDL
MODEL 3
REMARK VINA RESULT:    -4.749      1.534      2.935
REMARK INTER + INTRA:          -5.026
REMARK INTER:                  -5.026
REMARK INTRA:                   0.000
REMARK UNBOUND:                 0.000
REMARK SMILES Cc1cc(O)c(C)c(C)c1O
REMARK SMILES IDX 1 1 2 2 3 3 4 4 6 5 8 6 10 7 9 8 7 9 11 10 5 12
REMARK H PARENT 11 11 5 13
REMARK Flexibility Score: inf
ROOT
ATOM      1  C   UNL     1      -2.007  -3.823  11.964  1.00  0.00     0.048 C 
ATOM      2  C   UNL     1      -3.262  -4.470  12.481  1.00  0.00    -0.005 A 
ATOM      3  C   UNL     1      -3.959  -5.380  11.682  1.00  0.00     0.053 A 
ATOM      4  C   UNL     1      -5.143  -5.965  12.125  1.00  0.00     0.119 A 
ATOM      5  C   UNL     1      -5.667  -5.629  13.397  1.00  0.00    -0.003 A 
ATOM      6  C   UNL     1      -4.900  -4.802  14.265  1.00  0.00    -0.002 A 
ATOM      7  C   UNL     1      -3.733  -4.169  13.769  1.00  0.00     0.121 A 
ATOM      8  C   UNL     1      -5.322  -4.578  15.701  1.00  0.00     0.049 C 
ATOM      9  C   UNL     1      -7.018  -6.165  13.816  1.00  0.00     0.049 C 
ENDROOT
BRANCH   7  10
ATOM     10  O   UNL     1      -3.026  -3.228  14.527  1.00  0.00    -0.507 OA
ATOM     11  H   UNL     1      -2.280  -2.653  14.156  1.00  0.00     0.293 HD
ENDBRANCH   7  10
BRANCH   4  12
ATOM     12  O   UNL     1      -5.766  -6.886  11.279  1.00  0.00    -0.508 OA
ATOM     13  H   UNL     1      -6.113  -7.785  11.586  1.00  0.00     0.293 HD
ENDBRANCH   4  12
TORSDOF 2
ENDMDL
MODEL 4
REMARK VINA RESULT:    -4.745     10.319     11.065
REMARK INTER + INTRA:          -5.022
REMARK INTER:                  -5.022
REMARK INTRA:                   0.000
REMARK UNBOUND:                 0.000
REMARK SMILES Cc1cc(O)c(C)c(C)c1O
REMARK SMILES IDX 1 1 2 2 3 3 4 4 6 5 8 6 10 7 9 8 7 9 11 10 5 12
REMARK H PARENT 11 11 5 13
REMARK Flexibility Score: inf
ROOT
ATOM      1  C   UNL     1      -3.749  -3.661   1.637  1.00  0.00     0.048 C 
ATOM      2  C   UNL     1      -3.785  -4.983   2.354  1.00  0.00    -0.005 A 
ATOM      3  C   UNL     1      -5.008  -5.620   2.582  1.00  0.00     0.053 A 
ATOM      4  C   UNL     1      -5.070  -6.827   3.274  1.00  0.00     0.119 A 
ATOM      5  C   UNL     1      -3.885  -7.420   3.774  1.00  0.00    -0.003 A 
ATOM      6  C   UNL     1      -2.628  -6.843   3.438  1.00  0.00    -0.002 A 
ATOM      7  C   UNL     1      -2.593  -5.584   2.788  1.00  0.00     0.121 A 
ATOM      8  C   UNL     1      -1.332  -7.548   3.778  1.00  0.00     0.049 C 
ATOM      9  C   UNL     1      -3.974  -8.659   4.637  1.00  0.00     0.049 C 
ENDROOT
BRANCH   7  10
ATOM     10  O   UNL     1      -1.391  -4.899   2.571  1.00  0.00    -0.507 OA
ATOM     11  H   UNL     1      -0.505  -5.359   2.405  1.00  0.00     0.293 HD
ENDBRANCH   7  10
BRANCH   4  12
ATOM     12  O   UNL     1      -6.328  -7.415   3.437  1.00  0.00    -0.508 OA
ATOM     13  H   UNL     1      -6.628  -7.869   4.289  1.00  0.00     0.293 HD
ENDBRANCH   4  12
TORSDOF 2
ENDMDL
MODEL 5
REMARK VINA RESULT:    -4.720     13.310     14.248
REMARK INTER + INTRA:          -4.996
REMARK INTER:                  -4.996
REMARK INTRA:                   0.000
REMARK UNBOUND:                 0.000
REMARK SMILES Cc1cc(O)c(C)c(C)c1O
REMARK SMILES IDX 1 1 2 2 3 3 4 4 6 5 8 6 10 7 9 8 7 9 11 10 5 12
REMARK H PARENT 11 11 5 13
REMARK Flexibility Score: inf
ROOT
ATOM      1  C   UNL     1      -1.854   5.935  21.089  1.00  0.00     0.048 C 
ATOM      2  C   UNL     1      -0.599   6.095  20.275  1.00  0.00    -0.005 A 
ATOM      3  C   UNL     1       0.371   5.089  20.284  1.00  0.00     0.053 A 
ATOM      4  C   UNL     1       1.557   5.230  19.567  1.00  0.00     0.119 A 
ATOM      5  C   UNL     1       1.802   6.411  18.826  1.00  0.00    -0.003 A 
ATOM      6  C   UNL     1       0.768   7.383  18.710  1.00  0.00    -0.002 A 
ATOM      7  C   UNL     1      -0.402   7.248  19.499  1.00  0.00     0.121 A 
ATOM      8  C   UNL     1       0.908   8.561  17.771  1.00  0.00     0.049 C 
ATOM      9  C   UNL     1       3.145   6.613  18.160  1.00  0.00     0.049 C 
ENDROOT
BRANCH   7  10
ATOM     10  O   UNL     1      -1.382   8.247  19.541  1.00  0.00    -0.507 OA
ATOM     11  H   UNL     1      -2.055   8.406  18.803  1.00  0.00     0.293 HD
ENDBRANCH   7  10
BRANCH   4  12
ATOM     12  O   UNL     1       2.466   4.168  19.605  1.00  0.00    -0.508 OA
ATOM     13  H   UNL     1       2.236   3.224  19.324  1.00  0.00     0.293 HD
ENDBRANCH   4  12
TORSDOF 2
ENDMDL
MODEL 6
REMARK VINA RESULT:    -4.670     12.874     14.135
REMARK INTER + INTRA:          -4.943
REMARK INTER:                  -4.943
REMARK INTRA:                   0.000
REMARK UNBOUND:                 0.000
REMARK SMILES Cc1cc(O)c(C)c(C)c1O
REMARK SMILES IDX 1 1 2 2 3 3 4 4 6 5 8 6 10 7 9 8 7 9 11 10 5 12
REMARK H PARENT 11 11 5 13
REMARK Flexibility Score: inf
ROOT
ATOM      1  C   UNL     1       0.145   3.863  21.105  1.00  0.00     0.048 C 
ATOM      2  C   UNL     1       0.384   5.106  20.293  1.00  0.00    -0.005 A 
ATOM      3  C   UNL     1      -0.583   6.114  20.258  1.00  0.00     0.053 A 
ATOM      4  C   UNL     1      -0.400   7.258  19.485  1.00  0.00     0.119 A 
ATOM      5  C   UNL     1       0.773   7.408  18.706  1.00  0.00    -0.003 A 
ATOM      6  C   UNL     1       1.816   6.448  18.834  1.00  0.00    -0.002 A 
ATOM      7  C   UNL     1       1.581   5.263  19.576  1.00  0.00     0.121 A 
ATOM      8  C   UNL     1       3.162   6.668  18.179  1.00  0.00     0.049 C 
ATOM      9  C   UNL     1       0.905   8.588  17.768  1.00  0.00     0.049 C 
ENDROOT
BRANCH   7  10
ATOM     10  O   UNL     1       2.512   4.217  19.610  1.00  0.00    -0.507 OA
ATOM     11  H   UNL     1       2.658   3.621  20.414  1.00  0.00     0.293 HD
ENDBRANCH   7  10
BRANCH   4  12
ATOM     12  O   UNL     1      -1.402   8.232  19.524  1.00  0.00    -0.508 OA
ATOM     13  H   UNL     1      -2.382   8.023  19.660  1.00  0.00     0.293 HD
ENDBRANCH   4  12
TORSDOF 2
ENDMDL
MODEL 7
REMARK VINA RESULT:    -4.655     15.593     16.900
REMARK INTER + INTRA:          -4.928
REMARK INTER:                  -4.928
REMARK INTRA:                   0.000
REMARK UNBOUND:                 0.000
REMARK SMILES Cc1cc(O)c(C)c(C)c1O
REMARK SMILES IDX 1 1 2 2 3 3 4 4 6 5 8 6 10 7 9 8 7 9 11 10 5 12
REMARK H PARENT 11 11 5 13
REMARK Flexibility Score: inf
ROOT
ATOM      1  C   UNL     1      -0.656   2.869   0.891  1.00  0.00     0.048 C 
ATOM      2  C   UNL     1      -0.480   4.222   1.523  1.00  0.00    -0.005 A 
ATOM      3  C   UNL     1       0.746   4.885   1.424  1.00  0.00     0.053 A 
ATOM      4  C   UNL     1       0.945   6.123   2.031  1.00  0.00     0.119 A 
ATOM      5  C   UNL     1      -0.099   6.723   2.776  1.00  0.00    -0.003 A 
ATOM      6  C   UNL     1      -1.387   6.115   2.777  1.00  0.00    -0.002 A 
ATOM      7  C   UNL     1      -1.546   4.827   2.207  1.00  0.00     0.121 A 
ATOM      8  C   UNL     1      -2.579   6.818   3.389  1.00  0.00     0.049 C 
ATOM      9  C   UNL     1       0.165   8.000   3.542  1.00  0.00     0.049 C 
ENDROOT
BRANCH   7  10
ATOM     10  O   UNL     1      -2.749   4.118   2.313  1.00  0.00    -0.507 OA
ATOM     11  H   UNL     1      -2.886   3.334   2.938  1.00  0.00     0.293 HD
ENDBRANCH   7  10
BRANCH   4  12
ATOM     12  O   UNL     1       2.190   6.734   1.862  1.00  0.00    -0.508 OA
ATOM     13  H   UNL     1       2.933   6.692   2.547  1.00  0.00     0.293 HD
ENDBRANCH   4  12
TORSDOF 2
ENDMDL
MODEL 8
REMARK VINA RESULT:    -4.648     15.511     16.628
REMARK INTER + INTRA:          -4.920
REMARK INTER:                  -4.920
REMARK INTRA:                   0.000
REMARK UNBOUND:                 0.000
REMARK SMILES Cc1cc(O)c(C)c(C)c1O
REMARK SMILES IDX 1 1 2 2 3 3 4 4 6 5 8 6 10 7 9 8 7 9 11 10 5 12
REMARK H PARENT 11 11 5 13
REMARK Flexibility Score: inf
ROOT
ATOM      1  C   UNL     1       1.911   3.904   0.882  1.00  0.00     0.048 C 
ATOM      2  C   UNL     1       0.777   4.627   1.552  1.00  0.00    -0.005 A 
ATOM      3  C   UNL     1      -0.473   4.013   1.667  1.00  0.00     0.053 A 
ATOM      4  C   UNL     1      -1.549   4.677   2.253  1.00  0.00     0.119 A 
ATOM      5  C   UNL     1      -1.391   6.001   2.728  1.00  0.00    -0.003 A 
ATOM      6  C   UNL     1      -0.093   6.586   2.729  1.00  0.00    -0.002 A 
ATOM      7  C   UNL     1       0.970   5.917   2.072  1.00  0.00     0.121 A 
ATOM      8  C   UNL     1       0.162   7.915   3.407  1.00  0.00     0.049 C 
ATOM      9  C   UNL     1      -2.594   6.762   3.241  1.00  0.00     0.049 C 
ENDROOT
BRANCH   7  10
ATOM     10  O   UNL     1       2.227   6.513   1.909  1.00  0.00    -0.507 OA
ATOM     11  H   UNL     1       2.462   7.433   2.258  1.00  0.00     0.293 HD
ENDBRANCH   7  10
BRANCH   4  12
ATOM     12  O   UNL     1      -2.758   3.984   2.355  1.00  0.00    -0.508 OA
ATOM     13  H   UNL     1      -2.855   2.995   2.168  1.00  0.00     0.293 HD
ENDBRANCH   4  12
TORSDOF 2
ENDMDL
MODEL 9
REMARK VINA RESULT:    -4.583     10.642     11.364
REMARK INTER + INTRA:          -4.851
REMARK INTER:                  -4.851
REMARK INTRA:                   0.000
REMARK UNBOUND:                 0.000
REMARK SMILES Cc1cc(O)c(C)c(C)c1O
REMARK SMILES IDX 1 1 2 2 3 3 4 4 6 5 8 6 10 7 9 8 7 9 11 10 5 12
REMARK H PARENT 11 11 5 13
REMARK Flexibility Score: inf
ROOT
ATOM      1  C   UNL     1      -6.698  -4.204   2.001  1.00  0.00     0.048 C 
ATOM      2  C   UNL     1      -5.561  -5.093   2.423  1.00  0.00    -0.005 A 
ATOM      3  C   UNL     1      -5.821  -6.276   3.119  1.00  0.00     0.053 A 
ATOM      4  C   UNL     1      -4.783  -7.098   3.552  1.00  0.00     0.119 A 
ATOM      5  C   UNL     1      -3.438  -6.732   3.301  1.00  0.00    -0.003 A 
ATOM      6  C   UNL     1      -3.169  -5.597   2.485  1.00  0.00    -0.002 A 
ATOM      7  C   UNL     1      -4.237  -4.743   2.112  1.00  0.00     0.121 A 
ATOM      8  C   UNL     1      -1.762  -5.284   2.026  1.00  0.00     0.049 C 
ATOM      9  C   UNL     1      -2.315  -7.559   3.888  1.00  0.00     0.049 C 
ENDROOT
BRANCH   7  10
ATOM     10  O   UNL     1      -4.014  -3.534   1.442  1.00  0.00    -0.507 OA
ATOM     11  H   UNL     1      -4.075  -2.627   1.884  1.00  0.00     0.293 HD
ENDBRANCH   7  10
BRANCH   4  12
ATOM     12  O   UNL     1      -5.126  -8.278   4.218  1.00  0.00    -0.508 OA
ATOM     13  H   UNL     1      -4.697  -8.579   5.083  1.00  0.00     0.293 HD
ENDBRANCH   4  12
TORSDOF 2
ENDMDL
