MODEL 1
REMARK VINA RESULT:    -4.482      0.000      0.000
REMARK INTER + INTRA:          -7.375
REMARK INTER:                  -6.839
REMARK INTRA:                  -0.536
REMARK UNBOUND:                -0.536
REMARK SMILES CCCCCCCCCCC(=O)[O-]
REMARK SMILES IDX 7 1 8 2 9 3 10 4 11 5 12 6 13 7 6 8 5 9 4 10 3 11 2 12 1 13
REMARK H PARENT
REMARK Flexibility Score: inf
ROOT
ATOM      1  C   UNL     1      -0.699 -35.826  20.910  1.00  0.00     0.000 C 
ENDROOT
BRANCH   1   2
ATOM      2  C   UNL     1      -2.175 -35.804  21.342  1.00  0.00     0.000 C 
BRANCH   2   3
ATOM      3  C   UNL     1      -2.486 -34.957  22.592  1.00  0.00     0.006 C 
BRANCH   3   4
ATOM      4  C   UNL     1      -1.457 -33.845  22.868  1.00  0.00     0.053 C 
BRANCH   4   5
ATOM      5  C   UNL     1      -1.951 -32.843  23.869  1.00  0.00     0.041 C 
ATOM      6  O   UNL     1      -1.428 -32.778  25.013  1.00  0.00    -0.550 OA
ATOM      7  O   UNL     1      -3.017 -32.010  23.555  1.00  0.00    -0.550 OA
ENDBRANCH   4   5
ENDBRANCH   3   4
ENDBRANCH   2   3
ENDBRANCH   1   2
BRANCH   1   8
ATOM      8  C   UNL     1      -0.062 -37.221  21.023  1.00  0.00     0.000 C 
BRANCH   8   9
ATOM      9  C   UNL     1       1.451 -37.201  20.751  1.00  0.00    -0.000 C 
BRANCH   9  10
ATOM     10  C   UNL     1       1.950 -35.818  20.297  1.00  0.00    -0.000 C 
BRANCH  10  11
ATOM     11  C   UNL     1       2.960 -35.897  19.138  1.00  0.00    -0.000 C 
BRANCH  11  12
ATOM     12  C   UNL     1       2.536 -36.802  17.968  1.00  0.00    -0.003 C 
ATOM     13  C   UNL     1       3.568 -37.879  17.638  1.00  0.00     0.004 C 
ENDBRANCH  11  12
ENDBRANCH  10  11
ENDBRANCH   9  10
ENDBRANCH   8   9
ENDBRANCH   1   8
TORSDOF 9
ENDMDL
MODEL 2
REMARK VINA RESULT:    -4.479      1.408      2.100
REMARK INTER + INTRA:          -7.371
REMARK INTER:                  -6.795
REMARK INTRA:                  -0.577
REMARK UNBOUND:                -0.536
REMARK SMILES CCCCCCCCCCC(=O)[O-]
REMARK SMILES IDX 7 1 8 2 9 3 10 4 11 5 12 6 13 7 6 8 5 9 4 10 3 11 2 12 1 13
REMARK H PARENT
REMARK Flexibility Score: inf
ROOT
ATOM      1  C   UNL     1      -2.695 -36.297  20.845  1.00  0.00     0.000 C 
ENDROOT
BRANCH   1   2
ATOM      2  C   UNL     1      -2.842 -35.521  22.165  1.00  0.00     0.000 C 
BRANCH   2   3
ATOM      3  C   UNL     1      -1.716 -34.513  22.469  1.00  0.00     0.006 C 
BRANCH   3   4
ATOM      4  C   UNL     1      -2.206 -33.197  23.100  1.00  0.00     0.053 C 
BRANCH   4   5
ATOM      5  C   UNL     1      -1.367 -32.777  24.271  1.00  0.00     0.041 C 
ATOM      6  O   UNL     1      -0.345 -32.063  24.096  1.00  0.00    -0.550 OA
ATOM      7  O   UNL     1      -1.690 -33.209  25.551  1.00  0.00    -0.550 OA
ENDBRANCH   4   5
ENDBRANCH   3   4
ENDBRANCH   2   3
ENDBRANCH   1   2
BRANCH   1   8
ATOM      8  C   UNL     1      -2.274 -37.761  21.055  1.00  0.00     0.000 C 
BRANCH   8   9
ATOM      9  C   UNL     1      -0.996 -38.122  20.280  1.00  0.00    -0.000 C 
BRANCH   9  10
ATOM     10  C   UNL     1       0.279 -37.910  21.115  1.00  0.00    -0.000 C 
BRANCH  10  11
ATOM     11  C   UNL     1       0.992 -36.584  20.792  1.00  0.00    -0.000 C 
BRANCH  11  12
ATOM     12  C   UNL     1       2.443 -36.730  20.300  1.00  0.00    -0.003 C 
ATOM     13  C   UNL     1       2.781 -35.789  19.145  1.00  0.00     0.004 C 
ENDBRANCH  11  12
ENDBRANCH  10  11
ENDBRANCH   9  10
ENDBRANCH   8   9
ENDBRANCH   1   8
TORSDOF 9
ENDMDL
MODEL 3
REMARK VINA RESULT:    -4.457      3.887      5.961
REMARK INTER + INTRA:          -7.338
REMARK INTER:                  -6.785
REMARK INTRA:                  -0.553
REMARK UNBOUND:                -0.536
REMARK SMILES CCCCCCCCCCC(=O)[O-]
REMARK SMILES IDX 7 1 8 2 9 3 10 4 11 5 12 6 13 7 6 8 5 9 4 10 3 11 2 12 1 13
REMARK H PARENT
REMARK Flexibility Score: inf
ROOT
ATOM      1  C   UNL     1      -0.942 -35.794  21.318  1.00  0.00     0.000 C 
ENDROOT
BRANCH   1   2
ATOM      2  C   UNL     1       0.100 -36.881  21.005  1.00  0.00     0.000 C 
BRANCH   2   3
ATOM      3  C   UNL     1       1.458 -36.365  20.488  1.00  0.00     0.006 C 
BRANCH   3   4
ATOM      4  C   UNL     1       2.386 -35.826  21.592  1.00  0.00     0.053 C 
BRANCH   4   5
ATOM      5  C   UNL     1       3.838 -35.996  21.254  1.00  0.00     0.041 C 
ATOM      6  O   UNL     1       4.725 -35.534  22.018  1.00  0.00    -0.550 OA
ATOM      7  O   UNL     1       4.210 -36.627  20.074  1.00  0.00    -0.550 OA
ENDBRANCH   4   5
ENDBRANCH   3   4
ENDBRANCH   2   3
ENDBRANCH   1   2
BRANCH   1   8
ATOM      8  C   UNL     1      -2.301 -36.058  20.648  1.00  0.00     0.000 C 
BRANCH   8   9
ATOM      9  C   UNL     1      -3.033 -37.266  21.256  1.00  0.00    -0.000 C 
BRANCH   9  10
ATOM     10  C   UNL     1      -3.738 -38.125  20.193  1.00  0.00    -0.000 C 
BRANCH  10  11
ATOM     11  C   UNL     1      -3.230 -37.847  18.766  1.00  0.00    -0.000 C 
BRANCH  11  12
ATOM     12  C   UNL     1      -4.317 -37.434  17.758  1.00  0.00    -0.003 C 
ATOM     13  C   UNL     1      -4.466 -35.919  17.624  1.00  0.00     0.004 C 
ENDBRANCH  11  12
ENDBRANCH  10  11
ENDBRANCH   9  10
ENDBRANCH   8   9
ENDBRANCH   1   8
TORSDOF 9
ENDMDL
MODEL 4
REMARK VINA RESULT:    -4.412      4.349      6.470
REMARK INTER + INTRA:          -7.269
REMARK INTER:                  -6.696
REMARK INTRA:                  -0.572
REMARK UNBOUND:                -0.536
REMARK SMILES CCCCCCCCCCC(=O)[O-]
REMARK SMILES IDX 7 1 8 2 9 3 10 4 11 5 12 6 13 7 6 8 5 9 4 10 3 11 2 12 1 13
REMARK H PARENT
REMARK Flexibility Score: inf
ROOT
ATOM      1  C   UNL     1      -0.158 -35.733  20.972  1.00  0.00     0.000 C 
ENDROOT
BRANCH   1   2
ATOM      2  C   UNL     1       0.582 -37.080  20.900  1.00  0.00     0.000 C 
BRANCH   2   3
ATOM      3  C   UNL     1       2.026 -37.013  20.365  1.00  0.00     0.006 C 
BRANCH   3   4
ATOM      4  C   UNL     1       2.251 -35.924  19.300  1.00  0.00     0.053 C 
BRANCH   4   5
ATOM      5  C   UNL     1       3.099 -36.404  18.159  1.00  0.00     0.041 C 
ATOM      6  O   UNL     1       2.569 -36.982  17.174  1.00  0.00    -0.550 OA
ATOM      7  O   UNL     1       4.479 -36.252  18.205  1.00  0.00    -0.550 OA
ENDBRANCH   4   5
ENDBRANCH   3   4
ENDBRANCH   2   3
ENDBRANCH   1   2
BRANCH   1   8
ATOM      8  C   UNL     1      -1.687 -35.891  21.003  1.00  0.00     0.000 C 
BRANCH   8   9
ATOM      9  C   UNL     1      -2.124 -37.324  21.351  1.00  0.00    -0.000 C 
BRANCH   9  10
ATOM     10  C   UNL     1      -3.346 -37.782  20.536  1.00  0.00    -0.000 C 
BRANCH  10  11
ATOM     11  C   UNL     1      -3.113 -37.708  19.016  1.00  0.00    -0.000 C 
BRANCH  11  12
ATOM     12  C   UNL     1      -4.376 -37.445  18.177  1.00  0.00    -0.003 C 
ATOM     13  C   UNL     1      -4.439 -36.024  17.619  1.00  0.00     0.004 C 
ENDBRANCH  11  12
ENDBRANCH  10  11
ENDBRANCH   9  10
ENDBRANCH   8   9
ENDBRANCH   1   8
TORSDOF 9
ENDMDL
MODEL 5
REMARK VINA RESULT:    -4.404      1.036      1.980
REMARK INTER + INTRA:          -7.256
REMARK INTER:                  -6.693
REMARK INTRA:                  -0.563
REMARK UNBOUND:                -0.536
REMARK SMILES CCCCCCCCCCC(=O)[O-]
REMARK SMILES IDX 7 1 8 2 9 3 10 4 11 5 12 6 13 7 6 8 5 9 4 10 3 11 2 12 1 13
REMARK H PARENT
REMARK Flexibility Score: inf
ROOT
ATOM      1  C   UNL     1      -0.645 -35.807  20.934  1.00  0.00     0.000 C 
ENDROOT
BRANCH   1   2
ATOM      2  C   UNL     1      -2.113 -35.920  21.380  1.00  0.00     0.000 C 
BRANCH   2   3
ATOM      3  C   UNL     1      -2.533 -34.971  22.520  1.00  0.00     0.006 C 
BRANCH   3   4
ATOM      4  C   UNL     1      -1.522 -33.845  22.803  1.00  0.00     0.053 C 
BRANCH   4   5
ATOM      5  C   UNL     1      -2.030 -32.859  23.812  1.00  0.00     0.041 C 
ATOM      6  O   UNL     1      -2.958 -32.062  23.510  1.00  0.00    -0.550 OA
ATOM      7  O   UNL     1      -1.452 -32.790  25.073  1.00  0.00    -0.550 OA
ENDBRANCH   4   5
ENDBRANCH   3   4
ENDBRANCH   2   3
ENDBRANCH   1   2
BRANCH   1   8
ATOM      8  C   UNL     1       0.109 -37.145  21.012  1.00  0.00     0.000 C 
BRANCH   8   9
ATOM      9  C   UNL     1       1.257 -37.234  19.993  1.00  0.00    -0.000 C 
BRANCH   9  10
ATOM     10  C   UNL     1       1.908 -35.867  19.717  1.00  0.00    -0.000 C 
BRANCH  10  11
ATOM     11  C   UNL     1       3.446 -35.931  19.694  1.00  0.00    -0.000 C 
BRANCH  11  12
ATOM     12  C   UNL     1       4.101 -36.284  21.041  1.00  0.00    -0.003 C 
ATOM     13  C   UNL     1       3.558 -35.459  22.207  1.00  0.00     0.004 C 
ENDBRANCH  11  12
ENDBRANCH  10  11
ENDBRANCH   9  10
ENDBRANCH   8   9
ENDBRANCH   1   8
TORSDOF 9
ENDMDL
MODEL 6
REMARK VINA RESULT:    -4.378      1.893      2.880
REMARK INTER + INTRA:          -7.217
REMARK INTER:                  -6.450
REMARK INTRA:                  -0.767
REMARK UNBOUND:                -0.536
REMARK SMILES CCCCCCCCCCC(=O)[O-]
REMARK SMILES IDX 7 1 8 2 9 3 10 4 11 5 12 6 13 7 6 8 5 9 4 10 3 11 2 12 1 13
REMARK H PARENT
REMARK Flexibility Score: inf
ROOT
ATOM      1  C   UNL     1       1.838 -35.989  21.288  1.00  0.00     0.000 C 
ENDROOT
BRANCH   1   2
ATOM      2  C   UNL     1       0.872 -37.030  20.697  1.00  0.00     0.000 C 
BRANCH   2   3
ATOM      3  C   UNL     1      -0.615 -36.827  21.049  1.00  0.00     0.006 C 
BRANCH   3   4
ATOM      4  C   UNL     1      -1.053 -35.352  21.096  1.00  0.00     0.053 C 
BRANCH   4   5
ATOM      5  C   UNL     1      -2.117 -35.102  22.125  1.00  0.00     0.041 C 
ATOM      6  O   UNL     1      -3.118 -35.862  22.199  1.00  0.00    -0.550 OA
ATOM      7  O   UNL     1      -2.023 -34.006  22.973  1.00  0.00    -0.550 OA
ENDBRANCH   4   5
ENDBRANCH   3   4
ENDBRANCH   2   3
ENDBRANCH   1   2
BRANCH   1   8
ATOM      8  C   UNL     1       3.164 -36.605  21.763  1.00  0.00     0.000 C 
BRANCH   8   9
ATOM      9  C   UNL     1       4.355 -36.191  20.882  1.00  0.00    -0.000 C 
BRANCH   9  10
ATOM     10  C   UNL     1       4.924 -37.366  20.069  1.00  0.00    -0.000 C 
BRANCH  10  11
ATOM     11  C   UNL     1       4.980 -37.077  18.558  1.00  0.00    -0.000 C 
BRANCH  11  12
ATOM     12  C   UNL     1       3.810 -36.238  18.014  1.00  0.00    -0.003 C 
ATOM     13  C   UNL     1       2.670 -37.090  17.457  1.00  0.00     0.004 C 
ENDBRANCH  11  12
ENDBRANCH  10  11
ENDBRANCH   9  10
ENDBRANCH   8   9
ENDBRANCH   1   8
TORSDOF 9
ENDMDL
MODEL 7
REMARK VINA RESULT:    -4.303      2.398      4.032
REMARK INTER + INTRA:          -7.102
REMARK INTER:                  -6.011
REMARK INTRA:                  -1.091
REMARK UNBOUND:                -0.536
REMARK SMILES CCCCCCCCCCC(=O)[O-]
REMARK SMILES IDX 7 1 8 2 9 3 10 4 11 5 12 6 13 7 6 8 5 9 4 10 3 11 2 12 1 13
REMARK H PARENT
REMARK Flexibility Score: inf
ROOT
ATOM      1  C   UNL     1       2.003 -36.443  19.064  1.00  0.00     0.000 C 
ENDROOT
BRANCH   1   2
ATOM      2  C   UNL     1       1.293 -37.628  19.741  1.00  0.00     0.000 C 
BRANCH   2   3
ATOM      3  C   UNL     1       0.475 -37.278  21.000  1.00  0.00     0.006 C 
BRANCH   3   4
ATOM      4  C   UNL     1       0.175 -35.776  21.155  1.00  0.00     0.053 C 
BRANCH   4   5
ATOM      5  C   UNL     1      -1.286 -35.500  21.354  1.00  0.00     0.041 C 
ATOM      6  O   UNL     1      -2.142 -36.050  20.612  1.00  0.00    -0.550 OA
ATOM      7  O   UNL     1      -1.699 -34.603  22.331  1.00  0.00    -0.550 OA
ENDBRANCH   4   5
ENDBRANCH   3   4
ENDBRANCH   2   3
ENDBRANCH   1   2
BRANCH   1   8
ATOM      8  C   UNL     1       3.023 -36.884  18.002  1.00  0.00     0.000 C 
BRANCH   8   9
ATOM      9  C   UNL     1       4.475 -36.625  18.438  1.00  0.00    -0.000 C 
BRANCH   9  10
ATOM     10  C   UNL     1       4.932 -37.575  19.559  1.00  0.00    -0.000 C 
BRANCH  10  11
ATOM     11  C   UNL     1       5.333 -36.832  20.846  1.00  0.00    -0.000 C 
BRANCH  11  12
ATOM     12  C   UNL     1       4.286 -36.873  21.973  1.00  0.00    -0.003 C 
ATOM     13  C   UNL     1       3.697 -35.500  22.293  1.00  0.00     0.004 C 
ENDBRANCH  11  12
ENDBRANCH  10  11
ENDBRANCH   9  10
ENDBRANCH   8   9
ENDBRANCH   1   8
TORSDOF 9
ENDMDL
MODEL 8
REMARK VINA RESULT:    -4.040      3.128      4.549
REMARK INTER + INTRA:          -6.701
REMARK INTER:                  -5.735
REMARK INTRA:                  -0.966
REMARK UNBOUND:                -0.536
REMARK SMILES CCCCCCCCCCC(=O)[O-]
REMARK SMILES IDX 7 1 8 2 9 3 10 4 11 5 12 6 13 7 6 8 5 9 4 10 3 11 2 12 1 13
REMARK H PARENT
REMARK Flexibility Score: inf
ROOT
ATOM      1  C   UNL     1       4.655 -35.905  22.840  1.00  0.00     0.000 C 
ENDROOT
BRANCH   1   2
ATOM      2  C   UNL     1       3.395 -35.335  22.167  1.00  0.00     0.000 C 
BRANCH   2   3
ATOM      3  C   UNL     1       2.449 -36.380  21.543  1.00  0.00     0.006 C 
BRANCH   3   4
ATOM      4  C   UNL     1       1.321 -35.775  20.688  1.00  0.00     0.053 C 
BRANCH   4   5
ATOM      5  C   UNL     1      -0.026 -36.336  21.036  1.00  0.00     0.041 C 
ATOM      6  O   UNL     1      -0.167 -37.571  21.237  1.00  0.00    -0.550 OA
ATOM      7  O   UNL     1      -1.135 -35.501  21.097  1.00  0.00    -0.550 OA
ENDBRANCH   4   5
ENDBRANCH   3   4
ENDBRANCH   2   3
ENDBRANCH   1   2
BRANCH   1   8
ATOM      8  C   UNL     1       5.118 -37.233  22.218  1.00  0.00     0.000 C 
BRANCH   8   9
ATOM      9  C   UNL     1       6.075 -37.025  21.032  1.00  0.00    -0.000 C 
BRANCH   9  10
ATOM     10  C   UNL     1       5.659 -37.834  19.790  1.00  0.00    -0.000 C 
BRANCH  10  11
ATOM     11  C   UNL     1       4.796 -37.021  18.809  1.00  0.00    -0.000 C 
BRANCH  11  12
ATOM     12  C   UNL     1       3.589 -37.776  18.225  1.00  0.00    -0.003 C 
ATOM     13  C   UNL     1       2.737 -36.915  17.294  1.00  0.00     0.004 C 
ENDBRANCH  11  12
ENDBRANCH  10  11
ENDBRANCH   9  10
ENDBRANCH   8   9
ENDBRANCH   1   8
TORSDOF 9
ENDMDL
