MODEL 1
REMARK VINA RESULT:    -3.065      0.000      0.000
REMARK INTER + INTRA:          -3.664
REMARK INTER:                  -3.513
REMARK INTRA:                  -0.151
REMARK UNBOUND:                -0.151
REMARK SMILES O=C([O-])C=Cc1ccc(O)cc1
REMARK SMILES IDX 6 1 7 2 12 3 8 4 11 5 9 6 5 7 4 8 2 9 1 10 3 11 10 12
REMARK H PARENT 10 13
REMARK Flexibility Score: inf
ROOT
ATOM      1  C   UNL     1      -8.018   8.775  -8.844  1.00  0.00    -0.025 A 
ATOM      2  C   UNL     1      -9.378   8.965  -8.525  1.00  0.00     0.012 A 
ATOM      3  C   UNL     1      -7.160   8.247  -7.865  1.00  0.00     0.012 A 
ATOM      4  C   UNL     1      -9.865   8.608  -7.263  1.00  0.00     0.047 A 
ATOM      5  C   UNL     1      -7.651   7.890  -6.605  1.00  0.00     0.047 A 
ATOM      6  C   UNL     1      -9.006   8.068  -6.302  1.00  0.00     0.115 A 
ENDROOT
BRANCH   1   7
ATOM      7  C   UNL     1      -7.447   9.147 -10.163  1.00  0.00     0.010 C 
ATOM      8  C   UNL     1      -6.144   9.381 -10.371  1.00  0.00     0.025 C 
BRANCH   8   9
ATOM      9  C   UNL     1      -5.624   9.760 -11.695  1.00  0.00     0.064 C 
ATOM     10  O   UNL     1      -4.383   9.753 -11.899  1.00  0.00    -0.545 OA
ATOM     11  O   UNL     1      -6.483  10.125 -12.725  1.00  0.00    -0.545 OA
ENDBRANCH   8   9
ENDBRANCH   1   7
BRANCH   6  12
ATOM     12  O   UNL     1      -9.506   7.717  -5.051  1.00  0.00    -0.508 OA
ATOM     13  H   UNL     1      -9.234   6.856  -4.593  1.00  0.00     0.293 HD
ENDBRANCH   6  12
TORSDOF 3
ENDMDL
MODEL 2
REMARK VINA RESULT:    -3.031     17.167     18.716
REMARK INTER + INTRA:          -3.625
REMARK INTER:                  -3.487
REMARK INTRA:                  -0.137
REMARK UNBOUND:                -0.151
REMARK SMILES O=C([O-])C=Cc1ccc(O)cc1
REMARK SMILES IDX 6 1 7 2 12 3 8 4 11 5 9 6 5 7 4 8 2 9 1 10 3 11 10 12
REMARK H PARENT 10 13
REMARK Flexibility Score: inf
ROOT
ATOM      1  C   UNL     1       8.122   9.395  -1.142  1.00  0.00    -0.025 A 
ATOM      2  C   UNL     1       9.473   9.234  -1.511  1.00  0.00     0.012 A 
ATOM      3  C   UNL     1       7.201   9.824  -2.113  1.00  0.00     0.012 A 
ATOM      4  C   UNL     1       9.880   9.473  -2.827  1.00  0.00     0.047 A 
ATOM      5  C   UNL     1       7.612  10.061  -3.428  1.00  0.00     0.047 A 
ATOM      6  C   UNL     1       8.953   9.884  -3.789  1.00  0.00     0.115 A 
ENDROOT
BRANCH   1   7
ATOM      7  C   UNL     1       7.639   9.166   0.243  1.00  0.00     0.010 C 
ATOM      8  C   UNL     1       8.089   9.841   1.310  1.00  0.00     0.025 C 
BRANCH   8   9
ATOM      9  C   UNL     1       7.590   9.571   2.668  1.00  0.00     0.064 C 
ATOM     10  O   UNL     1       6.359   9.385   2.851  1.00  0.00    -0.545 OA
ATOM     11  O   UNL     1       8.457   9.515   3.753  1.00  0.00    -0.545 OA
ENDBRANCH   8   9
ENDBRANCH   1   7
BRANCH   6  12
ATOM     12  O   UNL     1       9.374  10.118  -5.096  1.00  0.00    -0.508 OA
ATOM     13  H   UNL     1       9.605  11.049  -5.420  1.00  0.00     0.293 HD
ENDBRANCH   6  12
TORSDOF 3
ENDMDL
MODEL 3
REMARK VINA RESULT:    -3.017     11.897     12.278
REMARK INTER + INTRA:          -3.609
REMARK INTER:                  -3.470
REMARK INTRA:                  -0.138
REMARK UNBOUND:                -0.151
REMARK SMILES O=C([O-])C=Cc1ccc(O)cc1
REMARK SMILES IDX 6 1 7 2 12 3 8 4 11 5 9 6 5 7 4 8 2 9 1 10 3 11 10 12
REMARK H PARENT 10 13
REMARK Flexibility Score: inf
ROOT
ATOM      1  C   UNL     1      -9.815  -1.560 -12.612  1.00  0.00    -0.025 A 
ATOM      2  C   UNL     1      -9.476  -0.670 -13.652  1.00  0.00     0.012 A 
ATOM      3  C   UNL     1     -10.125  -1.034 -11.346  1.00  0.00     0.012 A 
ATOM      4  C   UNL     1      -9.474   0.711 -13.430  1.00  0.00     0.047 A 
ATOM      5  C   UNL     1     -10.123   0.347 -11.128  1.00  0.00     0.047 A 
ATOM      6  C   UNL     1      -9.799   1.224 -12.171  1.00  0.00     0.115 A 
ENDROOT
BRANCH   1   7
ATOM      7  C   UNL     1      -9.822  -3.033 -12.791  1.00  0.00     0.010 C 
ATOM      8  C   UNL     1      -8.711  -3.775 -12.897  1.00  0.00     0.025 C 
BRANCH   8   9
ATOM      9  C   UNL     1      -8.765  -5.233 -13.087  1.00  0.00     0.064 C 
ATOM     10  O   UNL     1      -9.881  -5.814 -13.121  1.00  0.00    -0.545 OA
ATOM     11  O   UNL     1      -7.603  -5.982 -13.231  1.00  0.00    -0.545 OA
ENDBRANCH   8   9
ENDBRANCH   1   7
BRANCH   6  12
ATOM     12  O   UNL     1      -9.793   2.601 -11.965  1.00  0.00    -0.508 OA
ATOM     13  H   UNL     1      -9.545   3.246 -12.705  1.00  0.00     0.293 HD
ENDBRANCH   6  12
TORSDOF 3
ENDMDL
MODEL 4
REMARK VINA RESULT:    -3.002     17.875     18.854
REMARK INTER + INTRA:          -3.592
REMARK INTER:                  -3.456
REMARK INTRA:                  -0.136
REMARK UNBOUND:                -0.151
REMARK SMILES O=C([O-])C=Cc1ccc(O)cc1
REMARK SMILES IDX 6 1 7 2 12 3 8 4 11 5 9 6 5 7 4 8 2 9 1 10 3 11 10 12
REMARK H PARENT 10 13
REMARK Flexibility Score: inf
ROOT
ATOM      1  C   UNL     1       7.840   9.644   1.938  1.00  0.00    -0.025 A 
ATOM      2  C   UNL     1       6.690   9.799   2.739  1.00  0.00     0.012 A 
ATOM      3  C   UNL     1       9.070   9.379   2.565  1.00  0.00     0.012 A 
ATOM      4  C   UNL     1       6.772   9.666   4.129  1.00  0.00     0.047 A 
ATOM      5  C   UNL     1       9.148   9.245   3.954  1.00  0.00     0.047 A 
ATOM      6  C   UNL     1       7.998   9.386   4.740  1.00  0.00     0.115 A 
ENDROOT
BRANCH   1   7
ATOM      7  C   UNL     1       7.811   9.787   0.461  1.00  0.00     0.010 C 
ATOM      8  C   UNL     1       7.924   8.758  -0.389  1.00  0.00     0.025 C 
BRANCH   8   9
ATOM      9  C   UNL     1       7.902   8.949  -1.848  1.00  0.00     0.064 C 
ATOM     10  O   UNL     1       6.850   9.356  -2.405  1.00  0.00    -0.545 OA
ATOM     11  O   UNL     1       9.027   8.689  -2.622  1.00  0.00    -0.545 OA
ENDBRANCH   8   9
ENDBRANCH   1   7
BRANCH   6  12
ATOM     12  O   UNL     1       8.063   9.255   6.125  1.00  0.00    -0.508 OA
ATOM     13  H   UNL     1       7.365   8.735   6.642  1.00  0.00     0.293 HD
ENDBRANCH   6  12
TORSDOF 3
ENDMDL
MODEL 5
REMARK VINA RESULT:    -2.962     15.608     16.391
REMARK INTER + INTRA:          -3.546
REMARK INTER:                  -3.403
REMARK INTRA:                  -0.143
REMARK UNBOUND:                -0.151
REMARK SMILES O=C([O-])C=Cc1ccc(O)cc1
REMARK SMILES IDX 6 1 7 2 12 3 8 4 11 5 9 6 5 7 4 8 2 9 1 10 3 11 10 12
REMARK H PARENT 10 13
REMARK Flexibility Score: inf
ROOT
ATOM      1  C   UNL     1      -7.872  -6.025 -13.011  1.00  0.00    -0.025 A 
ATOM      2  C   UNL     1      -6.788  -5.348 -13.605  1.00  0.00     0.012 A 
ATOM      3  C   UNL     1      -9.009  -5.287 -12.639  1.00  0.00     0.012 A 
ATOM      4  C   UNL     1      -6.858  -3.971 -13.843  1.00  0.00     0.047 A 
ATOM      5  C   UNL     1      -9.076  -3.912 -12.879  1.00  0.00     0.047 A 
ATOM      6  C   UNL     1      -8.000  -3.250 -13.483  1.00  0.00     0.115 A 
ENDROOT
BRANCH   1   7
ATOM      7  C   UNL     1      -7.846  -7.481 -12.726  1.00  0.00     0.010 C 
ATOM      8  C   UNL     1      -8.195  -8.016 -11.548  1.00  0.00     0.025 C 
BRANCH   8   9
ATOM      9  C   UNL     1      -8.141  -9.467 -11.306  1.00  0.00     0.064 C 
ATOM     10  O   UNL     1      -9.211 -10.125 -11.235  1.00  0.00    -0.545 OA
ATOM     11  O   UNL     1      -6.925 -10.125 -11.158  1.00  0.00    -0.545 OA
ENDBRANCH   8   9
ENDBRANCH   1   7
BRANCH   6  12
ATOM     12  O   UNL     1      -8.054  -1.880 -13.727  1.00  0.00    -0.508 OA
ATOM     13  H   UNL     1      -8.439  -1.509 -14.587  1.00  0.00     0.293 HD
ENDBRANCH   6  12
TORSDOF 3
ENDMDL
MODEL 6
REMARK VINA RESULT:    -2.942     16.946     18.670
REMARK INTER + INTRA:          -3.523
REMARK INTER:                  -3.385
REMARK INTRA:                  -0.138
REMARK UNBOUND:                -0.151
REMARK SMILES O=C([O-])C=Cc1ccc(O)cc1
REMARK SMILES IDX 6 1 7 2 12 3 8 4 11 5 9 6 5 7 4 8 2 9 1 10 3 11 10 12
REMARK H PARENT 10 13
REMARK Flexibility Score: inf
ROOT
ATOM      1  C   UNL     1      -9.986  -3.545   3.894  1.00  0.00    -0.025 A 
ATOM      2  C   UNL     1      -9.784  -3.503   5.289  1.00  0.00     0.012 A 
ATOM      3  C   UNL     1     -10.122  -2.334   3.193  1.00  0.00     0.012 A 
ATOM      4  C   UNL     1      -9.696  -2.277   5.955  1.00  0.00     0.047 A 
ATOM      5  C   UNL     1     -10.032  -1.110   3.863  1.00  0.00     0.047 A 
ATOM      6  C   UNL     1      -9.817  -1.078   5.246  1.00  0.00     0.115 A 
ENDROOT
BRANCH   1   7
ATOM      7  C   UNL     1     -10.098  -4.818   3.140  1.00  0.00     0.010 C 
ATOM      8  C   UNL     1      -9.320  -5.886   3.362  1.00  0.00     0.025 C 
BRANCH   8   9
ATOM      9  C   UNL     1      -9.459  -7.126   2.580  1.00  0.00     0.064 C 
ATOM     10  O   UNL     1      -9.294  -8.238   3.146  1.00  0.00    -0.545 OA
ATOM     11  O   UNL     1      -9.774  -7.089   1.227  1.00  0.00    -0.545 OA
ENDBRANCH   8   9
ENDBRANCH   1   7
BRANCH   6  12
ATOM     12  O   UNL     1      -9.727   0.135   5.923  1.00  0.00    -0.508 OA
ATOM     13  H   UNL     1      -8.864   0.664   5.951  1.00  0.00     0.293 HD
ENDBRANCH   6  12
TORSDOF 3
ENDMDL
MODEL 7
REMARK VINA RESULT:    -2.919     13.679     14.038
REMARK INTER + INTRA:          -3.496
REMARK INTER:                  -3.344
REMARK INTRA:                  -0.152
REMARK UNBOUND:                -0.151
REMARK SMILES O=C([O-])C=Cc1ccc(O)cc1
REMARK SMILES IDX 6 1 7 2 12 3 8 4 11 5 9 6 5 7 4 8 2 9 1 10 3 11 10 12
REMARK H PARENT 10 13
REMARK Flexibility Score: inf
ROOT
ATOM      1  C   UNL     1      -8.130  -4.093 -13.267  1.00  0.00    -0.025 A 
ATOM      2  C   UNL     1      -6.945  -4.648 -13.792  1.00  0.00     0.012 A 
ATOM      3  C   UNL     1      -9.055  -4.943 -12.639  1.00  0.00     0.012 A 
ATOM      4  C   UNL     1      -6.688  -6.017 -13.665  1.00  0.00     0.047 A 
ATOM      5  C   UNL     1      -8.794  -6.311 -12.513  1.00  0.00     0.047 A 
ATOM      6  C   UNL     1      -7.608  -6.851 -13.025  1.00  0.00     0.115 A 
ENDROOT
BRANCH   1   7
ATOM      7  C   UNL     1      -8.457  -2.650 -13.385  1.00  0.00     0.010 C 
ATOM      8  C   UNL     1      -9.459  -2.057 -12.722  1.00  0.00     0.025 C 
BRANCH   8   9
ATOM      9  C   UNL     1      -9.756  -0.624 -12.880  1.00  0.00     0.064 C 
ATOM     10  O   UNL     1      -9.811  -0.125 -14.034  1.00  0.00    -0.545 OA
ATOM     11  O   UNL     1      -9.979   0.188 -11.774  1.00  0.00    -0.545 OA
ENDBRANCH   8   9
ENDBRANCH   1   7
BRANCH   6  12
ATOM     12  O   UNL     1      -7.338  -8.212 -12.906  1.00  0.00    -0.508 OA
ATOM     13  H   UNL     1      -7.257  -8.810 -13.719  1.00  0.00     0.293 HD
ENDBRANCH   6  12
TORSDOF 3
ENDMDL
MODEL 8
REMARK VINA RESULT:    -2.875     16.683     19.361
REMARK INTER + INTRA:          -3.446
REMARK INTER:                  -3.309
REMARK INTRA:                  -0.137
REMARK UNBOUND:                -0.151
REMARK SMILES O=C([O-])C=Cc1ccc(O)cc1
REMARK SMILES IDX 6 1 7 2 12 3 8 4 11 5 9 6 5 7 4 8 2 9 1 10 3 11 10 12
REMARK H PARENT 10 13
REMARK Flexibility Score: inf
ROOT
ATOM      1  C   UNL     1      -9.710  -4.661   3.917  1.00  0.00    -0.025 A 
ATOM      2  C   UNL     1     -10.092  -3.960   2.755  1.00  0.00     0.012 A 
ATOM      3  C   UNL     1      -9.338  -3.928   5.057  1.00  0.00     0.012 A 
ATOM      4  C   UNL     1     -10.125  -2.562   2.750  1.00  0.00     0.047 A 
ATOM      5  C   UNL     1      -9.373  -2.530   5.049  1.00  0.00     0.047 A 
ATOM      6  C   UNL     1      -9.768  -1.843   3.895  1.00  0.00     0.115 A 
ENDROOT
BRANCH   1   7
ATOM      7  C   UNL     1      -9.647  -6.142   3.973  1.00  0.00     0.010 C 
ATOM      8  C   UNL     1      -8.626  -6.863   3.489  1.00  0.00     0.025 C 
BRANCH   8   9
ATOM      9  C   UNL     1      -8.612  -8.333   3.555  1.00  0.00     0.064 C 
ATOM     10  O   UNL     1      -9.122  -8.915   4.547  1.00  0.00    -0.545 OA
ATOM     11  O   UNL     1      -8.047  -9.091   2.536  1.00  0.00    -0.545 OA
ENDBRANCH   8   9
ENDBRANCH   1   7
BRANCH   6  12
ATOM     12  O   UNL     1      -9.806  -0.452   3.874  1.00  0.00    -0.508 OA
ATOM     13  H   UNL     1      -9.186   0.087   3.283  1.00  0.00     0.293 HD
ENDBRANCH   6  12
TORSDOF 3
ENDMDL
