MODEL 1
REMARK VINA RESULT:    -3.597      0.000      0.000
REMARK INTER + INTRA:          -3.841
REMARK INTER:                  -3.807
REMARK INTRA:                  -0.034
REMARK UNBOUND:                -0.034
REMARK SMILES CC(C)[C@@H]1CC[C@@H](C)CC1=O
REMARK SMILES IDX 8 1 7 2 6 3 5 4 4 5 10 6 11 7 9 8 2 9 1 10 3 11
REMARK H PARENT
REMARK Flexibility Score: inf
ROOT
ATOM      1  C   UNL     1       5.781  44.956  40.387  1.00  0.00     0.008 C 
ATOM      2  C   UNL     1       5.259  43.809  39.517  1.00  0.00    -0.007 C 
ATOM      3  C   UNL     1       5.509  42.449  40.203  1.00  0.00     0.004 C 
ATOM      4  C   UNL     1       5.008  41.276  39.339  1.00  0.00     0.012 C 
ATOM      5  C   UNL     1       5.668  41.271  37.938  1.00  0.00     0.058 C 
ATOM      6  C   UNL     1       5.464  42.650  37.335  1.00  0.00     0.136 C 
ATOM      7  O   UNL     1       4.875  42.813  36.275  1.00  0.00    -0.299 OA
ATOM      8  C   UNL     1       5.917  43.843  38.126  1.00  0.00     0.079 C 
ENDROOT
BRANCH   5   9
ATOM      9  C   UNL     1       5.148  40.120  37.015  1.00  0.00    -0.007 C 
ATOM     10  C   UNL     1       6.145  39.839  35.875  1.00  0.00     0.008 C 
ATOM     11  C   UNL     1       4.901  38.808  37.781  1.00  0.00     0.008 C 
ENDBRANCH   5   9
TORSDOF 1
ENDMDL
MODEL 2
REMARK VINA RESULT:    -3.173     17.757     18.765
REMARK INTER + INTRA:          -3.392
REMARK INTER:                  -3.217
REMARK INTRA:                  -0.175
REMARK UNBOUND:                -0.034
REMARK SMILES CC(C)[C@@H]1CC[C@@H](C)CC1=O
REMARK SMILES IDX 8 1 7 2 6 3 5 4 4 5 10 6 11 7 9 8 2 9 1 10 3 11
REMARK H PARENT
REMARK Flexibility Score: inf
ROOT
ATOM      1  C   UNL     1      20.673  33.909  37.837  1.00  0.00     0.008 C 
ATOM      2  C   UNL     1      21.058  34.655  39.118  1.00  0.00    -0.007 C 
ATOM      3  C   UNL     1      21.532  36.087  38.792  1.00  0.00     0.004 C 
ATOM      4  C   UNL     1      21.941  36.854  40.064  1.00  0.00     0.012 C 
ATOM      5  C   UNL     1      23.053  36.113  40.848  1.00  0.00     0.058 C 
ATOM      6  C   UNL     1      22.576  34.689  41.078  1.00  0.00     0.136 C 
ATOM      7  O   UNL     1      22.456  34.219  42.201  1.00  0.00    -0.299 OA
ATOM      8  C   UNL     1      22.147  33.885  39.884  1.00  0.00     0.079 C 
ENDROOT
BRANCH   5   9
ATOM      9  C   UNL     1      23.463  36.839  42.172  1.00  0.00    -0.007 C 
ATOM     10  C   UNL     1      24.768  37.634  41.979  1.00  0.00     0.008 C 
ATOM     11  C   UNL     1      22.377  37.801  42.684  1.00  0.00     0.008 C 
ENDBRANCH   5   9
TORSDOF 1
ENDMDL
MODEL 3
REMARK VINA RESULT:    -3.163     18.819     19.371
REMARK INTER + INTRA:          -3.382
REMARK INTER:                  -3.207
REMARK INTRA:                  -0.175
REMARK UNBOUND:                -0.034
REMARK SMILES CC(C)[C@@H]1CC[C@@H](C)CC1=O
REMARK SMILES IDX 8 1 7 2 6 3 5 4 4 5 10 6 11 7 9 8 2 9 1 10 3 11
REMARK H PARENT
REMARK Flexibility Score: inf
ROOT
ATOM      1  C   UNL     1      24.738  38.195  42.602  1.00  0.00     0.008 C 
ATOM      2  C   UNL     1      24.273  36.851  42.033  1.00  0.00    -0.007 C 
ATOM      3  C   UNL     1      22.956  37.019  41.246  1.00  0.00     0.004 C 
ATOM      4  C   UNL     1      22.459  35.678  40.676  1.00  0.00     0.012 C 
ATOM      5  C   UNL     1      22.257  34.620  41.790  1.00  0.00     0.058 C 
ATOM      6  C   UNL     1      23.549  34.545  42.585  1.00  0.00     0.136 C 
ATOM      7  O   UNL     1      24.182  33.504  42.695  1.00  0.00    -0.299 OA
ATOM      8  C   UNL     1      24.102  35.817  43.160  1.00  0.00     0.079 C 
ENDROOT
BRANCH   5   9
ATOM      9  C   UNL     1      21.795  33.229  41.244  1.00  0.00    -0.007 C 
ATOM     10  C   UNL     1      20.282  33.032  41.454  1.00  0.00     0.008 C 
ATOM     11  C   UNL     1      22.108  33.042  39.749  1.00  0.00     0.008 C 
ENDBRANCH   5   9
TORSDOF 1
ENDMDL
MODEL 4
REMARK VINA RESULT:    -3.096     17.455     18.548
REMARK INTER + INTRA:          -3.312
REMARK INTER:                  -3.164
REMARK INTRA:                  -0.148
REMARK UNBOUND:                -0.034
REMARK SMILES CC(C)[C@@H]1CC[C@@H](C)CC1=O
REMARK SMILES IDX 8 1 7 2 6 3 5 4 4 5 10 6 11 7 9 8 2 9 1 10 3 11
REMARK H PARENT
REMARK Flexibility Score: inf
ROOT
ATOM      1  C   UNL     1      20.328  33.766  37.267  1.00  0.00     0.008 C 
ATOM      2  C   UNL     1      20.605  34.363  38.651  1.00  0.00    -0.007 C 
ATOM      3  C   UNL     1      21.457  35.644  38.530  1.00  0.00     0.004 C 
ATOM      4  C   UNL     1      21.763  36.256  39.910  1.00  0.00     0.012 C 
ATOM      5  C   UNL     1      22.484  35.247  40.838  1.00  0.00     0.058 C 
ATOM      6  C   UNL     1      21.651  33.977  40.864  1.00  0.00     0.136 C 
ATOM      7  O   UNL     1      21.196  33.522  41.905  1.00  0.00    -0.299 OA
ATOM      8  C   UNL     1      21.302  33.332  39.554  1.00  0.00     0.079 C 
ENDROOT
BRANCH   5   9
ATOM      9  C   UNL     1      22.771  35.817  42.266  1.00  0.00    -0.007 C 
ATOM     10  C   UNL     1      24.104  35.275  42.815  1.00  0.00     0.008 C 
ATOM     11  C   UNL     1      22.822  37.355  42.294  1.00  0.00     0.008 C 
ENDBRANCH   5   9
TORSDOF 1
ENDMDL
MODEL 5
REMARK VINA RESULT:    -3.076     16.134     17.335
REMARK INTER + INTRA:          -3.290
REMARK INTER:                  -3.129
REMARK INTRA:                  -0.162
REMARK UNBOUND:                -0.034
REMARK SMILES CC(C)[C@@H]1CC[C@@H](C)CC1=O
REMARK SMILES IDX 8 1 7 2 6 3 5 4 4 5 10 6 11 7 9 8 2 9 1 10 3 11
REMARK H PARENT
REMARK Flexibility Score: inf
ROOT
ATOM      1  C   UNL     1      16.318  32.245  41.055  1.00  0.00     0.008 C 
ATOM      2  C   UNL     1      17.638  32.930  40.687  1.00  0.00    -0.007 C 
ATOM      3  C   UNL     1      17.981  32.687  39.202  1.00  0.00     0.004 C 
ATOM      4  C   UNL     1      19.313  33.352  38.810  1.00  0.00     0.012 C 
ATOM      5  C   UNL     1      20.485  32.856  39.694  1.00  0.00     0.058 C 
ATOM      6  C   UNL     1      20.071  33.043  41.144  1.00  0.00     0.136 C 
ATOM      7  O   UNL     1      20.717  33.736  41.917  1.00  0.00    -0.299 OA
ATOM      8  C   UNL     1      18.776  32.432  41.595  1.00  0.00     0.079 C 
ENDROOT
BRANCH   5   9
ATOM      9  C   UNL     1      21.848  33.544  39.356  1.00  0.00    -0.007 C 
ATOM     10  C   UNL     1      22.642  32.715  38.330  1.00  0.00     0.008 C 
ATOM     11  C   UNL     1      21.674  34.969  38.801  1.00  0.00     0.008 C 
ENDBRANCH   5   9
TORSDOF 1
ENDMDL
MODEL 6
REMARK VINA RESULT:    -3.059     17.787     18.885
REMARK INTER + INTRA:          -3.272
REMARK INTER:                  -3.101
REMARK INTRA:                  -0.171
REMARK UNBOUND:                -0.034
REMARK SMILES CC(C)[C@@H]1CC[C@@H](C)CC1=O
REMARK SMILES IDX 8 1 7 2 6 3 5 4 4 5 10 6 11 7 9 8 2 9 1 10 3 11
REMARK H PARENT
REMARK Flexibility Score: inf
ROOT
ATOM      1  C   UNL     1      20.961  33.285  37.190  1.00  0.00     0.008 C 
ATOM      2  C   UNL     1      21.808  34.058  38.205  1.00  0.00    -0.007 C 
ATOM      3  C   UNL     1      22.296  33.123  39.331  1.00  0.00     0.004 C 
ATOM      4  C   UNL     1      23.138  33.881  40.375  1.00  0.00     0.012 C 
ATOM      5  C   UNL     1      22.354  35.064  40.996  1.00  0.00     0.058 C 
ATOM      6  C   UNL     1      21.829  35.912  39.850  1.00  0.00     0.136 C 
ATOM      7  O   UNL     1      22.121  37.094  39.733  1.00  0.00    -0.299 OA
ATOM      8  C   UNL     1      21.010  35.238  38.787  1.00  0.00     0.079 C 
ENDROOT
BRANCH   5   9
ATOM      9  C   UNL     1      23.193  35.887  42.028  1.00  0.00    -0.007 C 
ATOM     10  C   UNL     1      22.550  35.830  43.427  1.00  0.00     0.008 C 
ATOM     11  C   UNL     1      24.647  35.396  42.140  1.00  0.00     0.008 C 
ENDBRANCH   5   9
TORSDOF 1
ENDMDL
MODEL 7
REMARK VINA RESULT:    -2.984     16.615     17.681
REMARK INTER + INTRA:          -3.193
REMARK INTER:                  -3.037
REMARK INTRA:                  -0.155
REMARK UNBOUND:                -0.034
REMARK SMILES CC(C)[C@@H]1CC[C@@H](C)CC1=O
REMARK SMILES IDX 8 1 7 2 6 3 5 4 4 5 10 6 11 7 9 8 2 9 1 10 3 11
REMARK H PARENT
REMARK Flexibility Score: inf
ROOT
ATOM      1  C   UNL     1      16.434  31.963  40.980  1.00  0.00     0.008 C 
ATOM      2  C   UNL     1      17.935  32.044  40.682  1.00  0.00    -0.007 C 
ATOM      3  C   UNL     1      18.756  31.875  41.978  1.00  0.00     0.004 C 
ATOM      4  C   UNL     1      20.269  31.969  41.708  1.00  0.00     0.012 C 
ATOM      5  C   UNL     1      20.650  33.310  41.031  1.00  0.00     0.058 C 
ATOM      6  C   UNL     1      19.764  33.469  39.807  1.00  0.00     0.136 C 
ATOM      7  O   UNL     1      20.230  33.587  38.682  1.00  0.00    -0.299 OA
ATOM      8  C   UNL     1      18.277  33.376  39.992  1.00  0.00     0.079 C 
ENDROOT
BRANCH   5   9
ATOM      9  C   UNL     1      22.174  33.423  40.699  1.00  0.00    -0.007 C 
ATOM     10  C   UNL     1      22.681  34.859  40.929  1.00  0.00     0.008 C 
ATOM     11  C   UNL     1      23.039  32.462  41.535  1.00  0.00     0.008 C 
ENDBRANCH   5   9
TORSDOF 1
ENDMDL
MODEL 8
REMARK VINA RESULT:    -2.962     16.729     17.702
REMARK INTER + INTRA:          -3.169
REMARK INTER:                  -3.014
REMARK INTRA:                  -0.155
REMARK UNBOUND:                -0.034
REMARK SMILES CC(C)[C@@H]1CC[C@@H](C)CC1=O
REMARK SMILES IDX 8 1 7 2 6 3 5 4 4 5 10 6 11 7 9 8 2 9 1 10 3 11
REMARK H PARENT
REMARK Flexibility Score: inf
ROOT
ATOM      1  C   UNL     1      24.244  33.835  40.916  1.00  0.00     0.008 C 
ATOM      2  C   UNL     1      22.734  34.021  40.737  1.00  0.00    -0.007 C 
ATOM      3  C   UNL     1      21.956  32.948  41.528  1.00  0.00     0.004 C 
ATOM      4  C   UNL     1      20.434  33.103  41.351  1.00  0.00     0.012 C 
ATOM      5  C   UNL     1      20.019  33.041  39.860  1.00  0.00     0.058 C 
ATOM      6  C   UNL     1      20.863  34.058  39.111  1.00  0.00     0.136 C 
ATOM      7  O   UNL     1      20.361  34.976  38.477  1.00  0.00    -0.299 OA
ATOM      8  C   UNL     1      22.357  33.976  39.246  1.00  0.00     0.079 C 
ENDROOT
BRANCH   5   9
ATOM      9  C   UNL     1      18.484  33.242  39.637  1.00  0.00    -0.007 C 
ATOM     10  C   UNL     1      17.973  32.340  38.498  1.00  0.00     0.008 C 
ATOM     11  C   UNL     1      17.655  32.948  40.900  1.00  0.00     0.008 C 
ENDBRANCH   5   9
TORSDOF 1
ENDMDL
MODEL 9
REMARK VINA RESULT:    -2.949     18.733     19.447
REMARK INTER + INTRA:          -3.156
REMARK INTER:                  -2.989
REMARK INTRA:                  -0.167
REMARK UNBOUND:                -0.034
REMARK SMILES CC(C)[C@@H]1CC[C@@H](C)CC1=O
REMARK SMILES IDX 8 1 7 2 6 3 5 4 4 5 10 6 11 7 9 8 2 9 1 10 3 11
REMARK H PARENT
REMARK Flexibility Score: inf
ROOT
ATOM      1  C   UNL     1      25.043  34.768  44.176  1.00  0.00     0.008 C 
ATOM      2  C   UNL     1      24.460  34.895  42.765  1.00  0.00    -0.007 C 
ATOM      3  C   UNL     1      23.206  35.794  42.773  1.00  0.00     0.004 C 
ATOM      4  C   UNL     1      22.591  35.924  41.367  1.00  0.00     0.012 C 
ATOM      5  C   UNL     1      22.226  34.542  40.769  1.00  0.00     0.058 C 
ATOM      6  C   UNL     1      23.467  33.669  40.853  1.00  0.00     0.136 C 
ATOM      7  O   UNL     1      23.977  33.172  39.859  1.00  0.00    -0.299 OA
ATOM      8  C   UNL     1      24.129  33.506  42.191  1.00  0.00     0.079 C 
ENDROOT
BRANCH   5   9
ATOM      9  C   UNL     1      21.641  34.631  39.321  1.00  0.00    -0.007 C 
ATOM     10  C   UNL     1      20.308  33.867  39.221  1.00  0.00     0.008 C 
ATOM     11  C   UNL     1      21.407  36.081  38.861  1.00  0.00     0.008 C 
ENDBRANCH   5   9
TORSDOF 1
ENDMDL
