MODEL 1
REMARK VINA RESULT:    -3.074      0.000      0.000
REMARK INTER + INTRA:          -7.205
REMARK INTER:                  -5.769
REMARK INTRA:                  -1.435
REMARK UNBOUND:                -1.435
REMARK SMILES O=C([O-])CCCCCCCCCCCCCCC(=O)[O-]
REMARK SMILES IDX 10 1 9 2 8 3 7 4 6 5 5 6 4 7 2 8 1 9 3 10 11 11 12 12 13 13
REMARK SMILES IDX 14 14 15 15 16 16 17 17 18 18 19 19 20 20
REMARK H PARENT
REMARK Flexibility Score: inf
ROOT
ATOM      1  C   UNL     1      57.539 -14.872   9.106  1.00  0.00     0.000 C 
ENDROOT
BRANCH   1   2
ATOM      2  C   UNL     1      57.731 -16.391   9.025  1.00  0.00     0.000 C 
BRANCH   2   3
ATOM      3  C   UNL     1      56.394 -17.125   9.183  1.00  0.00     0.000 C 
BRANCH   3   4
ATOM      4  C   UNL     1      55.414 -16.305  10.035  1.00  0.00     0.000 C 
BRANCH   4   5
ATOM      5  C   UNL     1      55.072 -16.981  11.375  1.00  0.00     0.000 C 
BRANCH   5   6
ATOM      6  C   UNL     1      55.407 -16.151  12.628  1.00  0.00     0.006 C 
BRANCH   6   7
ATOM      7  C   UNL     1      56.179 -16.947  13.687  1.00  0.00     0.053 C 
BRANCH   7   8
ATOM      8  C   UNL     1      57.643 -16.652  13.599  1.00  0.00     0.041 C 
ATOM      9  O   UNL     1      58.254 -16.170  14.588  1.00  0.00    -0.550 OA
ATOM     10  O   UNL     1      58.343 -16.955  12.437  1.00  0.00    -0.550 OA
ENDBRANCH   7   8
ENDBRANCH   6   7
ENDBRANCH   5   6
ENDBRANCH   4   5
ENDBRANCH   3   4
ENDBRANCH   2   3
ENDBRANCH   1   2
BRANCH   1  11
ATOM     11  C   UNL     1      57.880 -14.202   7.767  1.00  0.00     0.000 C 
BRANCH  11  12
ATOM     12  C   UNL     1      58.257 -15.217   6.675  1.00  0.00     0.000 C 
BRANCH  12  13
ATOM     13  C   UNL     1      57.590 -14.906   5.325  1.00  0.00     0.000 C 
BRANCH  13  14
ATOM     14  C   UNL     1      56.409 -15.845   5.022  1.00  0.00     0.000 C 
BRANCH  14  15
ATOM     15  C   UNL     1      55.319 -15.797   6.108  1.00  0.00     0.000 C 
BRANCH  15  16
ATOM     16  C   UNL     1      53.902 -15.916   5.525  1.00  0.00     0.006 C 
BRANCH  16  17
ATOM     17  C   UNL     1      52.907 -16.535   6.515  1.00  0.00     0.053 C 
BRANCH  17  18
ATOM     18  C   UNL     1      51.677 -15.690   6.620  1.00  0.00     0.041 C 
ATOM     19  O   UNL     1      50.859 -15.876   7.559  1.00  0.00    -0.550 OA
ATOM     20  O   UNL     1      51.456 -14.666   5.707  1.00  0.00    -0.550 OA
ENDBRANCH  17  18
ENDBRANCH  16  17
ENDBRANCH  15  16
ENDBRANCH  14  15
ENDBRANCH  13  14
ENDBRANCH  12  13
ENDBRANCH  11  12
ENDBRANCH   1  11
TORSDOF 15
ENDMDL
MODEL 2
REMARK VINA RESULT:    -2.925     19.687     21.243
REMARK INTER + INTRA:          -6.926
REMARK INTER:                  -5.439
REMARK INTRA:                  -1.487
REMARK UNBOUND:                -1.435
REMARK SMILES O=C([O-])CCCCCCCCCCCCCCC(=O)[O-]
REMARK SMILES IDX 10 1 9 2 8 3 7 4 6 5 5 6 4 7 2 8 1 9 3 10 11 11 12 12 13 13
REMARK SMILES IDX 14 14 15 15 16 16 17 17 18 18 19 19 20 20
REMARK H PARENT
REMARK Flexibility Score: inf
ROOT
ATOM      1  C   UNL     1      57.326  -1.167  21.283  1.00  0.00     0.000 C 
ENDROOT
BRANCH   1   2
ATOM      2  C   UNL     1      58.697  -1.341  21.948  1.00  0.00     0.000 C 
BRANCH   2   3
ATOM      3  C   UNL     1      58.681  -2.504  22.948  1.00  0.00     0.000 C 
BRANCH   3   4
ATOM      4  C   UNL     1      58.019  -2.085  24.269  1.00  0.00     0.000 C 
BRANCH   4   5
ATOM      5  C   UNL     1      58.914  -1.171  25.125  1.00  0.00     0.000 C 
BRANCH   5   6
ATOM      6  C   UNL     1      60.409  -1.538  25.125  1.00  0.00     0.006 C 
BRANCH   6   7
ATOM      7  C   UNL     1      61.329  -0.311  25.075  1.00  0.00     0.053 C 
BRANCH   7   8
ATOM      8  C   UNL     1      62.763  -0.734  25.050  1.00  0.00     0.041 C 
ATOM      9  O   UNL     1      63.065  -1.955  24.985  1.00  0.00    -0.550 OA
ATOM     10  O   UNL     1      63.770   0.224  25.052  1.00  0.00    -0.550 OA
ENDBRANCH   7   8
ENDBRANCH   6   7
ENDBRANCH   5   6
ENDBRANCH   4   5
ENDBRANCH   3   4
ENDBRANCH   2   3
ENDBRANCH   1   2
BRANCH   1  11
ATOM     11  C   UNL     1      56.952   0.319  21.176  1.00  0.00     0.000 C 
BRANCH  11  12
ATOM     12  C   UNL     1      56.963   1.032  22.538  1.00  0.00     0.000 C 
BRANCH  12  13
ATOM     13  C   UNL     1      55.649   0.842  23.314  1.00  0.00     0.000 C 
BRANCH  13  14
ATOM     14  C   UNL     1      54.584   1.884  22.933  1.00  0.00     0.000 C 
BRANCH  14  15
ATOM     15  C   UNL     1      53.159   1.300  22.920  1.00  0.00     0.000 C 
BRANCH  15  16
ATOM     16  C   UNL     1      53.073  -0.024  22.144  1.00  0.00     0.006 C 
BRANCH  16  17
ATOM     17  C   UNL     1      52.763   0.184  20.656  1.00  0.00     0.053 C 
BRANCH  17  18
ATOM     18  C   UNL     1      51.345  -0.189  20.359  1.00  0.00     0.041 C 
ATOM     19  O   UNL     1      50.812   0.162  19.273  1.00  0.00    -0.550 OA
ATOM     20  O   UNL     1      50.625  -0.964  21.260  1.00  0.00    -0.550 OA
ENDBRANCH  17  18
ENDBRANCH  16  17
ENDBRANCH  15  16
ENDBRANCH  14  15
ENDBRANCH  13  14
ENDBRANCH  12  13
ENDBRANCH  11  12
ENDBRANCH   1  11
TORSDOF 15
ENDMDL
MODEL 3
REMARK VINA RESULT:    -2.794     20.280     22.549
REMARK INTER + INTRA:          -6.679
REMARK INTER:                  -4.767
REMARK INTRA:                  -1.912
REMARK UNBOUND:                -1.435
REMARK SMILES O=C([O-])CCCCCCCCCCCCCCC(=O)[O-]
REMARK SMILES IDX 10 1 9 2 8 3 7 4 6 5 5 6 4 7 2 8 1 9 3 10 11 11 12 12 13 13
REMARK SMILES IDX 14 14 15 15 16 16 17 17 18 18 19 19 20 20
REMARK H PARENT
REMARK Flexibility Score: inf
ROOT
ATOM      1  C   UNL     1      53.505   1.015  22.561  1.00  0.00     0.000 C 
ENDROOT
BRANCH   1   2
ATOM      2  C   UNL     1      53.227   1.139  21.058  1.00  0.00     0.000 C 
BRANCH   2   3
ATOM      3  C   UNL     1      52.347   2.359  20.758  1.00  0.00     0.000 C 
BRANCH   3   4
ATOM      4  C   UNL     1      50.857   1.992  20.823  1.00  0.00     0.000 C 
BRANCH   4   5
ATOM      5  C   UNL     1      50.157   2.546  22.076  1.00  0.00     0.000 C 
BRANCH   5   6
ATOM      6  C   UNL     1      49.922   1.519  23.199  1.00  0.00     0.006 C 
BRANCH   6   7
ATOM      7  C   UNL     1      49.875   0.073  22.688  1.00  0.00     0.053 C 
BRANCH   7   8
ATOM      8  C   UNL     1      50.368  -0.869  23.741  1.00  0.00     0.041 C 
ATOM      9  O   UNL     1      50.654  -2.059  23.445  1.00  0.00    -0.550 OA
ATOM     10  O   UNL     1      50.555  -0.419  25.042  1.00  0.00    -0.550 OA
ENDBRANCH   7   8
ENDBRANCH   6   7
ENDBRANCH   5   6
ENDBRANCH   4   5
ENDBRANCH   3   4
ENDBRANCH   2   3
ENDBRANCH   1   2
BRANCH   1  11
ATOM     11  C   UNL     1      54.181   2.284  23.100  1.00  0.00     0.000 C 
BRANCH  11  12
ATOM     12  C   UNL     1      55.596   2.489  22.536  1.00  0.00     0.000 C 
BRANCH  12  13
ATOM     13  C   UNL     1      56.650   2.681  23.640  1.00  0.00     0.000 C 
BRANCH  13  14
ATOM     14  C   UNL     1      56.491   1.670  24.788  1.00  0.00     0.000 C 
BRANCH  14  15
ATOM     15  C   UNL     1      57.573   0.575  24.768  1.00  0.00     0.000 C 
BRANCH  15  16
ATOM     16  C   UNL     1      56.989  -0.825  24.519  1.00  0.00     0.006 C 
BRANCH  16  17
ATOM     17  C   UNL     1      56.440  -0.991  23.097  1.00  0.00     0.053 C 
BRANCH  17  18
ATOM     18  C   UNL     1      57.559  -1.006  22.103  1.00  0.00     0.041 C 
ATOM     19  O   UNL     1      58.502  -1.833  22.223  1.00  0.00    -0.550 OA
ATOM     20  O   UNL     1      57.539  -0.139  21.018  1.00  0.00    -0.550 OA
ENDBRANCH  17  18
ENDBRANCH  16  17
ENDBRANCH  15  16
ENDBRANCH  14  15
ENDBRANCH  13  14
ENDBRANCH  12  13
ENDBRANCH  11  12
ENDBRANCH   1  11
TORSDOF 15
ENDMDL
MODEL 4
REMARK VINA RESULT:    -2.731     20.134     21.903
REMARK INTER + INTRA:          -6.561
REMARK INTER:                  -4.729
REMARK INTRA:                  -1.832
REMARK UNBOUND:                -1.435
REMARK SMILES O=C([O-])CCCCCCCCCCCCCCC(=O)[O-]
REMARK SMILES IDX 10 1 9 2 8 3 7 4 6 5 5 6 4 7 2 8 1 9 3 10 11 11 12 12 13 13
REMARK SMILES IDX 14 14 15 15 16 16 17 17 18 18 19 19 20 20
REMARK H PARENT
REMARK Flexibility Score: inf
ROOT
ATOM      1  C   UNL     1      54.345   0.794  22.302  1.00  0.00     0.000 C 
ENDROOT
BRANCH   1   2
ATOM      2  C   UNL     1      55.140   2.088  22.513  1.00  0.00     0.000 C 
BRANCH   2   3
ATOM      3  C   UNL     1      55.241   2.436  24.004  1.00  0.00     0.000 C 
BRANCH   3   4
ATOM      4  C   UNL     1      55.666   1.212  24.827  1.00  0.00     0.000 C 
BRANCH   4   5
ATOM      5  C   UNL     1      57.189   1.130  25.037  1.00  0.00     0.000 C 
BRANCH   5   6
ATOM      6  C   UNL     1      57.831  -0.208  24.626  1.00  0.00     0.006 C 
BRANCH   6   7
ATOM      7  C   UNL     1      56.936  -1.045  23.703  1.00  0.00     0.053 C 
BRANCH   7   8
ATOM      8  C   UNL     1      57.588  -1.230  22.370  1.00  0.00     0.041 C 
ATOM      9  O   UNL     1      58.111  -2.336  22.067  1.00  0.00    -0.550 OA
ATOM     10  O   UNL     1      57.578  -0.196  21.442  1.00  0.00    -0.550 OA
ENDBRANCH   7   8
ENDBRANCH   6   7
ENDBRANCH   5   6
ENDBRANCH   4   5
ENDBRANCH   3   4
ENDBRANCH   2   3
ENDBRANCH   1   2
BRANCH   1  11
ATOM     11  C   UNL     1      53.412   0.916  21.088  1.00  0.00     0.000 C 
BRANCH  11  12
ATOM     12  C   UNL     1      52.609   2.227  21.086  1.00  0.00     0.000 C 
BRANCH  12  13
ATOM     13  C   UNL     1      51.322   2.129  20.249  1.00  0.00     0.000 C 
BRANCH  13  14
ATOM     14  C   UNL     1      50.071   1.910  21.117  1.00  0.00     0.000 C 
BRANCH  14  15
ATOM     15  C   UNL     1      50.344   2.126  22.617  1.00  0.00     0.000 C 
BRANCH  15  16
ATOM     16  C   UNL     1      49.875   0.941  23.477  1.00  0.00     0.006 C 
BRANCH  16  17
ATOM     17  C   UNL     1      50.987  -0.088  23.720  1.00  0.00     0.053 C 
BRANCH  17  18
ATOM     18  C   UNL     1      50.703  -1.352  22.972  1.00  0.00     0.041 C 
ATOM     19  O   UNL     1      50.911  -1.414  21.731  1.00  0.00    -0.550 OA
ATOM     20  O   UNL     1      50.253  -2.477  23.651  1.00  0.00    -0.550 OA
ENDBRANCH  17  18
ENDBRANCH  16  17
ENDBRANCH  15  16
ENDBRANCH  14  15
ENDBRANCH  13  14
ENDBRANCH  12  13
ENDBRANCH  11  12
ENDBRANCH   1  11
TORSDOF 15
ENDMDL
MODEL 5
REMARK VINA RESULT:    -2.679     18.045     20.788
REMARK INTER + INTRA:          -6.463
REMARK INTER:                  -5.062
REMARK INTRA:                  -1.400
REMARK UNBOUND:                -1.435
REMARK SMILES O=C([O-])CCCCCCCCCCCCCCC(=O)[O-]
REMARK SMILES IDX 10 1 9 2 8 3 7 4 6 5 5 6 4 7 2 8 1 9 3 10 11 11 12 12 13 13
REMARK SMILES IDX 14 14 15 15 16 16 17 17 18 18 19 19 20 20
REMARK H PARENT
REMARK Flexibility Score: inf
ROOT
ATOM      1  C   UNL     1      69.378  -1.534   9.531  1.00  0.00     0.000 C 
ENDROOT
BRANCH   1   2
ATOM      2  C   UNL     1      68.365  -0.991   8.516  1.00  0.00     0.000 C 
BRANCH   2   3
ATOM      3  C   UNL     1      68.996  -0.857   7.124  1.00  0.00     0.000 C 
BRANCH   3   4
ATOM      4  C   UNL     1      69.990  -1.997   6.858  1.00  0.00     0.000 C 
BRANCH   4   5
ATOM      5  C   UNL     1      69.776  -2.672   5.492  1.00  0.00     0.000 C 
BRANCH   5   6
ATOM      6  C   UNL     1      70.124  -4.171   5.445  1.00  0.00     0.006 C 
BRANCH   6   7
ATOM      7  C   UNL     1      69.957  -4.869   6.801  1.00  0.00     0.053 C 
BRANCH   7   8
ATOM      8  C   UNL     1      69.366  -6.231   6.619  1.00  0.00     0.041 C 
ATOM      9  O   UNL     1      69.295  -7.028   7.591  1.00  0.00    -0.550 OA
ATOM     10  O   UNL     1      68.850  -6.604   5.383  1.00  0.00    -0.550 OA
ENDBRANCH   7   8
ENDBRANCH   6   7
ENDBRANCH   5   6
ENDBRANCH   4   5
ENDBRANCH   3   4
ENDBRANCH   2   3
ENDBRANCH   1   2
BRANCH   1  11
ATOM     11  C   UNL     1      68.664  -2.181  10.727  1.00  0.00     0.000 C 
BRANCH  11  12
ATOM     12  C   UNL     1      68.715  -1.308  11.991  1.00  0.00     0.000 C 
BRANCH  12  13
ATOM     13  C   UNL     1      70.125  -0.764  12.276  1.00  0.00     0.000 C 
BRANCH  13  14
ATOM     14  C   UNL     1      70.098   0.638  12.908  1.00  0.00     0.000 C 
BRANCH  14  15
ATOM     15  C   UNL     1      68.958   1.515  12.357  1.00  0.00     0.000 C 
BRANCH  15  16
ATOM     16  C   UNL     1      69.134   1.840  10.865  1.00  0.00     0.006 C 
BRANCH  16  17
ATOM     17  C   UNL     1      67.797   2.066  10.150  1.00  0.00     0.053 C 
BRANCH  17  18
ATOM     18  C   UNL     1      68.024   2.600   8.771  1.00  0.00     0.041 C 
ATOM     19  O   UNL     1      69.173   2.556   8.256  1.00  0.00    -0.550 OA
ATOM     20  O   UNL     1      66.959   3.104   8.034  1.00  0.00    -0.550 OA
ENDBRANCH  17  18
ENDBRANCH  16  17
ENDBRANCH  15  16
ENDBRANCH  14  15
ENDBRANCH  13  14
ENDBRANCH  12  13
ENDBRANCH  11  12
ENDBRANCH   1  11
TORSDOF 15
ENDMDL
MODEL 6
REMARK VINA RESULT:    -2.642     19.919     22.249
REMARK INTER + INTRA:          -6.393
REMARK INTER:                  -4.590
REMARK INTRA:                  -1.803
REMARK UNBOUND:                -1.435
REMARK SMILES O=C([O-])CCCCCCCCCCCCCCC(=O)[O-]
REMARK SMILES IDX 10 1 9 2 8 3 7 4 6 5 5 6 4 7 2 8 1 9 3 10 11 11 12 12 13 13
REMARK SMILES IDX 14 14 15 15 16 16 17 17 18 18 19 19 20 20
REMARK H PARENT
REMARK Flexibility Score: inf
ROOT
ATOM      1  C   UNL     1      54.381   1.796  23.601  1.00  0.00     0.000 C 
ENDROOT
BRANCH   1   2
ATOM      2  C   UNL     1      55.527   2.529  22.895  1.00  0.00     0.000 C 
BRANCH   2   3
ATOM      3  C   UNL     1      56.773   2.595  23.788  1.00  0.00     0.000 C 
BRANCH   3   4
ATOM      4  C   UNL     1      56.677   1.585  24.941  1.00  0.00     0.000 C 
BRANCH   4   5
ATOM      5  C   UNL     1      57.686   0.429  24.811  1.00  0.00     0.000 C 
BRANCH   5   6
ATOM      6  C   UNL     1      57.065  -0.944  24.494  1.00  0.00     0.006 C 
BRANCH   6   7
ATOM      7  C   UNL     1      56.498  -1.031  23.071  1.00  0.00     0.053 C 
BRANCH   7   8
ATOM      8  C   UNL     1      57.604  -0.988  22.064  1.00  0.00     0.041 C 
ATOM      9  O   UNL     1      58.578  -1.780  22.157  1.00  0.00    -0.550 OA
ATOM     10  O   UNL     1      57.535  -0.103  20.995  1.00  0.00    -0.550 OA
ENDBRANCH   7   8
ENDBRANCH   6   7
ENDBRANCH   5   6
ENDBRANCH   4   5
ENDBRANCH   3   4
ENDBRANCH   2   3
ENDBRANCH   1   2
BRANCH   1  11
ATOM     11  C   UNL     1      53.074   2.595  23.502  1.00  0.00     0.000 C 
BRANCH  11  12
ATOM     12  C   UNL     1      52.354   2.726  24.855  1.00  0.00     0.000 C 
BRANCH  12  13
ATOM     13  C   UNL     1      50.981   2.033  24.861  1.00  0.00     0.000 C 
BRANCH  13  14
ATOM     14  C   UNL     1      51.093   0.505  24.993  1.00  0.00     0.000 C 
BRANCH  14  15
ATOM     15  C   UNL     1      50.219  -0.244  23.970  1.00  0.00     0.000 C 
BRANCH  15  16
ATOM     16  C   UNL     1      50.573   0.116  22.518  1.00  0.00     0.006 C 
BRANCH  16  17
ATOM     17  C   UNL     1      51.730  -0.726  21.967  1.00  0.00     0.053 C 
BRANCH  17  18
ATOM     18  C   UNL     1      52.201  -0.174  20.658  1.00  0.00     0.041 C 
ATOM     19  O   UNL     1      53.240   0.536  20.607  1.00  0.00    -0.550 OA
ATOM     20  O   UNL     1      51.520  -0.481  19.487  1.00  0.00    -0.550 OA
ENDBRANCH  17  18
ENDBRANCH  16  17
ENDBRANCH  15  16
ENDBRANCH  14  15
ENDBRANCH  13  14
ENDBRANCH  12  13
ENDBRANCH  11  12
ENDBRANCH   1  11
TORSDOF 15
ENDMDL
MODEL 7
REMARK VINA RESULT:    -2.605     19.954     22.517
REMARK INTER + INTRA:          -6.324
REMARK INTER:                  -4.249
REMARK INTRA:                  -2.075
REMARK UNBOUND:                -1.435
REMARK SMILES O=C([O-])CCCCCCCCCCCCCCC(=O)[O-]
REMARK SMILES IDX 10 1 9 2 8 3 7 4 6 5 5 6 4 7 2 8 1 9 3 10 11 11 12 12 13 13
REMARK SMILES IDX 14 14 15 15 16 16 17 17 18 18 19 19 20 20
REMARK H PARENT
REMARK Flexibility Score: inf
ROOT
ATOM      1  C   UNL     1      53.574  -0.434  21.421  1.00  0.00     0.000 C 
ENDROOT
BRANCH   1   2
ATOM      2  C   UNL     1      52.834   0.312  20.305  1.00  0.00     0.000 C 
BRANCH   2   3
ATOM      3  C   UNL     1      51.418  -0.245  20.114  1.00  0.00     0.000 C 
BRANCH   3   4
ATOM      4  C   UNL     1      50.388   0.591  20.888  1.00  0.00     0.000 C 
BRANCH   4   5
ATOM      5  C   UNL     1      50.778   2.077  20.991  1.00  0.00     0.000 C 
BRANCH   5   6
ATOM      6  C   UNL     1      50.776   2.653  22.418  1.00  0.00     0.006 C 
BRANCH   6   7
ATOM      7  C   UNL     1      49.875   1.868  23.381  1.00  0.00     0.053 C 
BRANCH   7   8
ATOM      8  C   UNL     1      50.699   1.182  24.424  1.00  0.00     0.041 C 
ATOM      9  O   UNL     1      51.664   1.782  24.968  1.00  0.00    -0.550 OA
ATOM     10  O   UNL     1      50.371  -0.105  24.832  1.00  0.00    -0.550 OA
ENDBRANCH   7   8
ENDBRANCH   6   7
ENDBRANCH   5   6
ENDBRANCH   4   5
ENDBRANCH   3   4
ENDBRANCH   2   3
ENDBRANCH   1   2
BRANCH   1  11
ATOM     11  C   UNL     1      53.789   0.474  22.641  1.00  0.00     0.000 C 
BRANCH  11  12
ATOM     12  C   UNL     1      54.361   1.850  22.262  1.00  0.00     0.000 C 
BRANCH  12  13
ATOM     13  C   UNL     1      54.852   2.642  23.486  1.00  0.00     0.000 C 
BRANCH  13  14
ATOM     14  C   UNL     1      56.327   2.356  23.818  1.00  0.00     0.000 C 
BRANCH  14  15
ATOM     15  C   UNL     1      56.495   1.229  24.853  1.00  0.00     0.000 C 
BRANCH  15  16
ATOM     16  C   UNL     1      57.512   0.166  24.406  1.00  0.00     0.006 C 
BRANCH  16  17
ATOM     17  C   UNL     1      56.861  -0.976  23.616  1.00  0.00     0.053 C 
BRANCH  17  18
ATOM     18  C   UNL     1      57.383  -1.006  22.214  1.00  0.00     0.041 C 
ATOM     19  O   UNL     1      57.860  -2.070  21.738  1.00  0.00    -0.550 OA
ATOM     20  O   UNL     1      57.302   0.129  21.416  1.00  0.00    -0.550 OA
ENDBRANCH  17  18
ENDBRANCH  16  17
ENDBRANCH  15  16
ENDBRANCH  14  15
ENDBRANCH  13  14
ENDBRANCH  12  13
ENDBRANCH  11  12
ENDBRANCH   1  11
TORSDOF 15
ENDMDL
MODEL 8
REMARK VINA RESULT:    -2.464     19.490     21.384
REMARK INTER + INTRA:          -6.060
REMARK INTER:                  -5.287
REMARK INTRA:                  -0.774
REMARK UNBOUND:                -1.435
REMARK SMILES O=C([O-])CCCCCCCCCCCCCCC(=O)[O-]
REMARK SMILES IDX 10 1 9 2 8 3 7 4 6 5 5 6 4 7 2 8 1 9 3 10 11 11 12 12 13 13
REMARK SMILES IDX 14 14 15 15 16 16 17 17 18 18 19 19 20 20
REMARK H PARENT
REMARK Flexibility Score: inf
ROOT
ATOM      1  C   UNL     1      54.985   0.074  22.284  1.00  0.00     0.000 C 
ENDROOT
BRANCH   1   2
ATOM      2  C   UNL     1      56.170  -0.754  22.795  1.00  0.00     0.000 C 
BRANCH   2   3
ATOM      3  C   UNL     1      56.909  -0.022  23.922  1.00  0.00     0.000 C 
BRANCH   3   4
ATOM      4  C   UNL     1      57.621  -1.017  24.850  1.00  0.00     0.000 C 
BRANCH   4   5
ATOM      5  C   UNL     1      58.731  -1.812  24.140  1.00  0.00     0.000 C 
BRANCH   5   6
ATOM      6  C   UNL     1      59.972  -2.109  25.002  1.00  0.00     0.006 C 
BRANCH   6   7
ATOM      7  C   UNL     1      60.919  -0.909  25.125  1.00  0.00     0.053 C 
BRANCH   7   8
ATOM      8  C   UNL     1      62.341  -1.347  24.973  1.00  0.00     0.041 C 
ATOM      9  O   UNL     1      63.254  -0.496  24.808  1.00  0.00    -0.550 OA
ATOM     10  O   UNL     1      62.665  -2.696  25.061  1.00  0.00    -0.550 OA
ENDBRANCH   7   8
ENDBRANCH   6   7
ENDBRANCH   5   6
ENDBRANCH   4   5
ENDBRANCH   3   4
ENDBRANCH   2   3
ENDBRANCH   1   2
BRANCH   1  11
ATOM     11  C   UNL     1      55.157   1.558  22.641  1.00  0.00     0.000 C 
BRANCH  11  12
ATOM     12  C   UNL     1      54.009   2.432  22.111  1.00  0.00     0.000 C 
BRANCH  12  13
ATOM     13  C   UNL     1      52.725   2.290  22.947  1.00  0.00     0.000 C 
BRANCH  13  14
ATOM     14  C   UNL     1      51.699   1.349  22.293  1.00  0.00     0.000 C 
BRANCH  14  15
ATOM     15  C   UNL     1      51.042   0.392  23.305  1.00  0.00     0.000 C 
BRANCH  15  16
ATOM     16  C   UNL     1      50.018  -0.547  22.648  1.00  0.00     0.006 C 
BRANCH  16  17
ATOM     17  C   UNL     1      49.875  -0.302  21.141  1.00  0.00     0.053 C 
BRANCH  17  18
ATOM     18  C   UNL     1      50.085  -1.573  20.381  1.00  0.00     0.041 C 
ATOM     19  O   UNL     1      50.409  -1.538  19.164  1.00  0.00    -0.550 OA
ATOM     20  O   UNL     1      49.967  -2.798  21.026  1.00  0.00    -0.550 OA
ENDBRANCH  17  18
ENDBRANCH  16  17
ENDBRANCH  15  16
ENDBRANCH  14  15
ENDBRANCH  13  14
ENDBRANCH  12  13
ENDBRANCH  11  12
ENDBRANCH   1  11
TORSDOF 15
ENDMDL
