MODEL 1
REMARK VINA RESULT:    -5.322      0.000      0.000
REMARK INTER + INTRA:          -6.879
REMARK INTER:                  -6.411
REMARK INTRA:                  -0.467
REMARK UNBOUND:                -0.467
REMARK SMILES O=c1c(O)c(-c2ccc(O)cc2O)oc2cc(O)cc(O)c12
REMARK SMILES IDX 5 1 3 2 2 3 1 4 22 5 20 6 19 7 17 8 16 9 15 10 14 11 6 12
REMARK SMILES IDX 8 13 7 14 9 15 11 16 12 17 10 18 13 20 4 22 21 24 18 26
REMARK H PARENT 10 19 13 21 4 23 21 25 18 27
REMARK Flexibility Score: inf
ROOT
ATOM      1  C   UNL     1      15.614  -7.054   8.991  1.00  0.00     0.184 A 
ATOM      2  C   UNL     1      15.041  -8.337   8.927  1.00  0.00     0.208 A 
ATOM      3  C   UNL     1      14.580  -8.937  10.109  1.00  0.00     0.238 A 
ATOM      4  O   UNL     1      14.120 -10.107  10.053  1.00  0.00    -0.285 OA
ATOM      5  C   UNL     1      14.677  -8.239  11.337  1.00  0.00     0.111 A 
ATOM      6  C   UNL     1      14.205  -8.734  12.590  1.00  0.00     0.134 A 
ATOM      7  C   UNL     1      14.470  -8.014  13.761  1.00  0.00     0.093 A 
ATOM      8  C   UNL     1      15.132  -6.785  13.717  1.00  0.00     0.123 A 
ATOM      9  C   UNL     1      15.543  -6.265  12.493  1.00  0.00     0.094 A 
ATOM     10  C   UNL     1      15.327  -6.977  11.311  1.00  0.00     0.146 A 
ATOM     11  O   UNL     1      15.746  -6.451  10.166  1.00  0.00    -0.451 OA
ENDROOT
BRANCH   1  12
ATOM     12  C   UNL     1      16.098  -6.353   7.779  1.00  0.00     0.063 A 
ATOM     13  C   UNL     1      15.665  -4.949   5.840  1.00  0.00     0.047 A 
ATOM     14  C   UNL     1      15.204  -5.634   6.967  1.00  0.00     0.020 A 
ATOM     15  C   UNL     1      17.026  -4.965   5.513  1.00  0.00     0.119 A 
ATOM     16  C   UNL     1      17.924  -5.667   6.322  1.00  0.00     0.093 A 
ATOM     17  C   UNL     1      17.470  -6.359   7.455  1.00  0.00     0.130 A 
BRANCH  15  18
ATOM     18  O   UNL     1      17.496  -4.287   4.392  1.00  0.00    -0.508 OA
ATOM     19  H   UNL     1      16.863  -3.919   3.691  1.00  0.00     0.293 HD
ENDBRANCH  15  18
BRANCH  17  20
ATOM     20  O   UNL     1      18.378  -7.061   8.250  1.00  0.00    -0.507 OA
ATOM     21  H   UNL     1      19.225  -7.461   7.862  1.00  0.00     0.293 HD
ENDBRANCH  17  20
ENDBRANCH   1  12
BRANCH   2  22
ATOM     22  O   UNL     1      14.967  -9.010   7.704  1.00  0.00    -0.502 OA
ATOM     23  H   UNL     1      15.578  -8.791   6.926  1.00  0.00     0.293 HD
ENDBRANCH   2  22
BRANCH   6  24
ATOM     24  O   UNL     1      13.454  -9.905  12.734  1.00  0.00    -0.507 OA
ATOM     25  H   UNL     1      13.842 -10.832  12.806  1.00  0.00     0.293 HD
ENDBRANCH   6  24
BRANCH   8  26
ATOM     26  O   UNL     1      15.377  -6.067  14.886  1.00  0.00    -0.508 OA
ATOM     27  H   UNL     1      16.285  -6.080  15.335  1.00  0.00     0.293 HD
ENDBRANCH   8  26
TORSDOF 6
ENDMDL
MODEL 2
REMARK VINA RESULT:    -5.314     12.058     15.443
REMARK INTER + INTRA:          -6.868
REMARK INTER:                  -6.763
REMARK INTRA:                  -0.105
REMARK UNBOUND:                -0.467
REMARK SMILES O=c1c(O)c(-c2ccc(O)cc2O)oc2cc(O)cc(O)c12
REMARK SMILES IDX 5 1 3 2 2 3 1 4 22 5 20 6 19 7 17 8 16 9 15 10 14 11 6 12
REMARK SMILES IDX 8 13 7 14 9 15 11 16 12 17 10 18 13 20 4 22 21 24 18 26
REMARK H PARENT 10 19 13 21 4 23 21 25 18 27
REMARK Flexibility Score: inf
ROOT
ATOM      1  C   UNL     1      14.097 -17.127  20.173  1.00  0.00     0.184 A 
ATOM      2  C   UNL     1      15.034 -17.863  20.918  1.00  0.00     0.208 A 
ATOM      3  C   UNL     1      16.298 -17.305  21.165  1.00  0.00     0.238 A 
ATOM      4  O   UNL     1      17.151 -17.992  21.785  1.00  0.00    -0.285 OA
ATOM      5  C   UNL     1      16.603 -16.010  20.681  1.00  0.00     0.111 A 
ATOM      6  C   UNL     1      17.838 -15.330  20.905  1.00  0.00     0.134 A 
ATOM      7  C   UNL     1      18.077 -14.105  20.271  1.00  0.00     0.093 A 
ATOM      8  C   UNL     1      17.101 -13.504  19.473  1.00  0.00     0.123 A 
ATOM      9  C   UNL     1      15.871 -14.131  19.296  1.00  0.00     0.094 A 
ATOM     10  C   UNL     1      15.615 -15.372  19.885  1.00  0.00     0.146 A 
ATOM     11  O   UNL     1      14.433 -15.941  19.681  1.00  0.00    -0.451 OA
ENDROOT
BRANCH   1  12
ATOM     12  C   UNL     1      12.737 -17.645  19.897  1.00  0.00     0.063 A 
ATOM     13  C   UNL     1      11.031 -18.356  18.314  1.00  0.00     0.047 A 
ATOM     14  C   UNL     1      12.304 -17.841  18.574  1.00  0.00     0.020 A 
ATOM     15  C   UNL     1      10.178 -18.692  19.371  1.00  0.00     0.119 A 
ATOM     16  C   UNL     1      10.605 -18.513  20.690  1.00  0.00     0.093 A 
ATOM     17  C   UNL     1      11.880 -17.995  20.961  1.00  0.00     0.130 A 
BRANCH  15  18
ATOM     18  O   UNL     1       8.908 -19.206  19.124  1.00  0.00    -0.508 OA
ATOM     19  H   UNL     1       8.473 -19.872  19.753  1.00  0.00     0.293 HD
ENDBRANCH  15  18
BRANCH  17  20
ATOM     20  O   UNL     1      12.290 -17.815  22.283  1.00  0.00    -0.507 OA
ATOM     21  H   UNL     1      13.060 -18.344  22.677  1.00  0.00     0.293 HD
ENDBRANCH  17  20
ENDBRANCH   1  12
BRANCH   2  22
ATOM     22  O   UNL     1      14.714 -19.145  21.375  1.00  0.00    -0.502 OA
ATOM     23  H   UNL     1      14.195 -19.808  20.813  1.00  0.00     0.293 HD
ENDBRANCH   2  22
BRANCH   6  24
ATOM     24  O   UNL     1      18.842 -15.799  21.758  1.00  0.00    -0.507 OA
ATOM     25  H   UNL     1      19.738 -15.355  21.891  1.00  0.00     0.293 HD
ENDBRANCH   6  24
BRANCH   8  26
ATOM     26  O   UNL     1      17.342 -12.277  18.858  1.00  0.00    -0.508 OA
ATOM     27  H   UNL     1      17.355 -12.184  17.849  1.00  0.00     0.293 HD
ENDBRANCH   8  26
TORSDOF 6
ENDMDL
MODEL 3
REMARK VINA RESULT:    -5.080      9.421     13.802
REMARK INTER + INTRA:          -6.587
REMARK INTER:                  -6.135
REMARK INTRA:                  -0.452
REMARK UNBOUND:                -0.467
REMARK SMILES O=c1c(O)c(-c2ccc(O)cc2O)oc2cc(O)cc(O)c12
REMARK SMILES IDX 5 1 3 2 2 3 1 4 22 5 20 6 19 7 17 8 16 9 15 10 14 11 6 12
REMARK SMILES IDX 8 13 7 14 9 15 11 16 12 17 10 18 13 20 4 22 21 24 18 26
REMARK H PARENT 10 19 13 21 4 23 21 25 18 27
REMARK Flexibility Score: inf
ROOT
ATOM      1  C   UNL     1      17.436 -14.213  20.155  1.00  0.00     0.184 A 
ATOM      2  C   UNL     1      18.785 -14.034  20.511  1.00  0.00     0.208 A 
ATOM      3  C   UNL     1      19.421 -12.827  20.184  1.00  0.00     0.238 A 
ATOM      4  O   UNL     1      20.643 -12.695  20.456  1.00  0.00    -0.285 OA
ATOM      5  C   UNL     1      18.697 -11.805  19.522  1.00  0.00     0.111 A 
ATOM      6  C   UNL     1      19.230 -10.526  19.178  1.00  0.00     0.134 A 
ATOM      7  C   UNL     1      18.462  -9.642  18.411  1.00  0.00     0.093 A 
ATOM      8  C   UNL     1      17.157  -9.964  18.033  1.00  0.00     0.123 A 
ATOM      9  C   UNL     1      16.607 -11.184  18.415  1.00  0.00     0.094 A 
ATOM     10  C   UNL     1      17.361 -12.103  19.148  1.00  0.00     0.146 A 
ATOM     11  O   UNL     1      16.802 -13.261  19.482  1.00  0.00    -0.451 OA
ENDROOT
BRANCH   1  12
ATOM     12  C   UNL     1      16.697 -15.451  20.491  1.00  0.00     0.063 A 
ATOM     13  C   UNL     1      15.670 -16.912  22.145  1.00  0.00     0.047 A 
ATOM     14  C   UNL     1      16.392 -15.758  21.829  1.00  0.00     0.020 A 
ATOM     15  C   UNL     1      15.235 -17.770  21.129  1.00  0.00     0.119 A 
ATOM     16  C   UNL     1      15.523 -17.467  19.795  1.00  0.00     0.093 A 
ATOM     17  C   UNL     1      16.248 -16.312  19.469  1.00  0.00     0.130 A 
BRANCH  15  18
ATOM     18  O   UNL     1      14.515 -18.923  21.432  1.00  0.00    -0.508 OA
ATOM     19  H   UNL     1      13.719 -19.213  20.876  1.00  0.00     0.293 HD
ENDBRANCH  15  18
BRANCH  17  20
ATOM     20  O   UNL     1      16.533 -16.026  18.133  1.00  0.00    -0.507 OA
ATOM     21  H   UNL     1      17.188 -16.585  17.598  1.00  0.00     0.293 HD
ENDBRANCH  17  20
ENDBRANCH   1  12
BRANCH   2  22
ATOM     22  O   UNL     1      19.481 -15.062  21.153  1.00  0.00    -0.502 OA
ATOM     23  H   UNL     1      19.110 -16.000  21.236  1.00  0.00     0.293 HD
ENDBRANCH   2  22
BRANCH   6  24
ATOM     24  O   UNL     1      20.488 -10.070  19.585  1.00  0.00    -0.507 OA
ATOM     25  H   UNL     1      20.830 -10.094  20.533  1.00  0.00     0.293 HD
ENDBRANCH   6  24
BRANCH   8  26
ATOM     26  O   UNL     1      16.394  -9.071  17.282  1.00  0.00    -0.508 OA
ATOM     27  H   UNL     1      15.656  -9.392  16.667  1.00  0.00     0.293 HD
ENDBRANCH   8  26
TORSDOF 6
ENDMDL
MODEL 4
REMARK VINA RESULT:    -5.026      1.672      6.604
REMARK INTER + INTRA:          -6.522
REMARK INTER:                  -6.135
REMARK INTRA:                  -0.386
REMARK UNBOUND:                -0.467
REMARK SMILES O=c1c(O)c(-c2ccc(O)cc2O)oc2cc(O)cc(O)c12
REMARK SMILES IDX 5 1 3 2 2 3 1 4 22 5 20 6 19 7 17 8 16 9 15 10 14 11 6 12
REMARK SMILES IDX 8 13 7 14 9 15 11 16 12 17 10 18 13 20 4 22 21 24 18 26
REMARK H PARENT 10 19 13 21 4 23 21 25 18 27
REMARK Flexibility Score: inf
ROOT
ATOM      1  C   UNL     1      15.162  -6.775   9.680  1.00  0.00     0.184 A 
ATOM      2  C   UNL     1      13.934  -6.627   9.012  1.00  0.00     0.208 A 
ATOM      3  C   UNL     1      13.936  -6.378   7.631  1.00  0.00     0.238 A 
ATOM      4  O   UNL     1      12.836  -6.191   7.049  1.00  0.00    -0.285 OA
ATOM      5  C   UNL     1      15.165  -6.302   6.930  1.00  0.00     0.111 A 
ATOM      6  C   UNL     1      15.284  -6.094   5.523  1.00  0.00     0.134 A 
ATOM      7  C   UNL     1      16.551  -5.908   4.958  1.00  0.00     0.093 A 
ATOM      8  C   UNL     1      17.707  -5.987   5.738  1.00  0.00     0.123 A 
ATOM      9  C   UNL     1      17.604  -6.248   7.102  1.00  0.00     0.094 A 
ATOM     10  C   UNL     1      16.352  -6.402   7.702  1.00  0.00     0.146 A 
ATOM     11  O   UNL     1      16.298  -6.638   9.007  1.00  0.00    -0.451 OA
ENDROOT
BRANCH   1  12
ATOM     12  C   UNL     1      15.232  -7.063  11.132  1.00  0.00     0.063 A 
ATOM     13  C   UNL     1      15.409  -6.284  13.430  1.00  0.00     0.047 A 
ATOM     14  C   UNL     1      15.371  -6.016  12.060  1.00  0.00     0.020 A 
ATOM     15  C   UNL     1      15.299  -7.600  13.894  1.00  0.00     0.119 A 
ATOM     16  C   UNL     1      15.147  -8.647  12.979  1.00  0.00     0.093 A 
ATOM     17  C   UNL     1      15.110  -8.387  11.601  1.00  0.00     0.130 A 
BRANCH  15  18
ATOM     18  O   UNL     1      15.335  -7.879  15.257  1.00  0.00    -0.508 OA
ATOM     19  H   UNL     1      16.045  -7.479  15.861  1.00  0.00     0.293 HD
ENDBRANCH  15  18
BRANCH  17  20
ATOM     20  O   UNL     1      14.965  -9.442  10.699  1.00  0.00    -0.507 OA
ATOM     21  H   UNL     1      15.097 -10.406  10.984  1.00  0.00     0.293 HD
ENDBRANCH  17  20
ENDBRANCH   1  12
BRANCH   2  22
ATOM     22  O   UNL     1      12.735  -6.694   9.727  1.00  0.00    -0.502 OA
ATOM     23  H   UNL     1      11.866  -6.995   9.303  1.00  0.00     0.293 HD
ENDBRANCH   2  22
BRANCH   6  24
ATOM     24  O   UNL     1      14.200  -6.091   4.640  1.00  0.00    -0.507 OA
ATOM     25  H   UNL     1      13.238  -6.224   4.910  1.00  0.00     0.293 HD
ENDBRANCH   6  24
BRANCH   8  26
ATOM     26  O   UNL     1      18.965  -5.815   5.164  1.00  0.00    -0.508 OA
ATOM     27  H   UNL     1      19.783  -6.287   5.531  1.00  0.00     0.293 HD
ENDBRANCH   8  26
TORSDOF 6
ENDMDL
MODEL 5
REMARK VINA RESULT:    -4.936     10.518     13.284
REMARK INTER + INTRA:          -6.414
REMARK INTER:                  -6.133
REMARK INTRA:                  -0.281
REMARK UNBOUND:                -0.467
REMARK SMILES O=c1c(O)c(-c2ccc(O)cc2O)oc2cc(O)cc(O)c12
REMARK SMILES IDX 5 1 3 2 2 3 1 4 22 5 20 6 19 7 17 8 16 9 15 10 14 11 6 12
REMARK SMILES IDX 8 13 7 14 9 15 11 16 12 17 10 18 13 20 4 22 21 24 18 26
REMARK H PARENT 10 19 13 21 4 23 21 25 18 27
REMARK Flexibility Score: inf
ROOT
ATOM      1  C   UNL     1      16.290 -14.255  19.831  1.00  0.00     0.184 A 
ATOM      2  C   UNL     1      16.530 -14.850  21.082  1.00  0.00     0.208 A 
ATOM      3  C   UNL     1      15.882 -16.055  21.399  1.00  0.00     0.238 A 
ATOM      4  O   UNL     1      16.058 -16.553  22.541  1.00  0.00    -0.285 OA
ATOM      5  C   UNL     1      15.019 -16.660  20.453  1.00  0.00     0.111 A 
ATOM      6  C   UNL     1      14.342 -17.901  20.652  1.00  0.00     0.134 A 
ATOM      7  C   UNL     1      13.413 -18.340  19.701  1.00  0.00     0.093 A 
ATOM      8  C   UNL     1      13.186 -17.617  18.528  1.00  0.00     0.123 A 
ATOM      9  C   UNL     1      13.886 -16.436  18.297  1.00  0.00     0.094 A 
ATOM     10  C   UNL     1      14.792 -15.952  19.244  1.00  0.00     0.146 A 
ATOM     11  O   UNL     1      15.429 -14.815  18.990  1.00  0.00    -0.451 OA
ENDROOT
BRANCH   1  12
ATOM     12  C   UNL     1      16.959 -12.998  19.423  1.00  0.00     0.063 A 
ATOM     13  C   UNL     1      16.863 -10.610  18.967  1.00  0.00     0.047 A 
ATOM     14  C   UNL     1      16.227 -11.802  19.324  1.00  0.00     0.020 A 
ATOM     15  C   UNL     1      18.239 -10.594  18.713  1.00  0.00     0.119 A 
ATOM     16  C   UNL     1      18.978 -11.777  18.821  1.00  0.00     0.093 A 
ATOM     17  C   UNL     1      18.347 -12.978  19.178  1.00  0.00     0.130 A 
BRANCH  15  18
ATOM     18  O   UNL     1      18.883  -9.413  18.355  1.00  0.00    -0.508 OA
ATOM     19  H   UNL     1      19.868  -9.266  18.548  1.00  0.00     0.293 HD
ENDBRANCH  15  18
BRANCH  17  20
ATOM     20  O   UNL     1      19.096 -14.152  19.276  1.00  0.00    -0.507 OA
ATOM     21  H   UNL     1      18.777 -14.941  19.827  1.00  0.00     0.293 HD
ENDBRANCH  17  20
ENDBRANCH   1  12
BRANCH   2  22
ATOM     22  O   UNL     1      17.377 -14.227  22.003  1.00  0.00    -0.502 OA
ATOM     23  H   UNL     1      18.384 -14.225  21.900  1.00  0.00     0.293 HD
ENDBRANCH   2  22
BRANCH   6  24
ATOM     24  O   UNL     1      14.564 -18.745  21.744  1.00  0.00    -0.507 OA
ATOM     25  H   UNL     1      14.702 -18.435  22.693  1.00  0.00     0.293 HD
ENDBRANCH   6  24
BRANCH   8  26
ATOM     26  O   UNL     1      12.271 -18.070  17.579  1.00  0.00    -0.508 OA
ATOM     27  H   UNL     1      11.474 -17.510  17.302  1.00  0.00     0.293 HD
ENDBRANCH   8  26
TORSDOF 6
ENDMDL
MODEL 6
REMARK VINA RESULT:    -4.795      3.498      6.931
REMARK INTER + INTRA:          -6.243
REMARK INTER:                  -5.829
REMARK INTRA:                  -0.414
REMARK UNBOUND:                -0.467
REMARK SMILES O=c1c(O)c(-c2ccc(O)cc2O)oc2cc(O)cc(O)c12
REMARK SMILES IDX 5 1 3 2 2 3 1 4 22 5 20 6 19 7 17 8 16 9 15 10 14 11 6 12
REMARK SMILES IDX 8 13 7 14 9 15 11 16 12 17 10 18 13 20 4 22 21 24 18 26
REMARK H PARENT 10 19 13 21 4 23 21 25 18 27
REMARK Flexibility Score: inf
ROOT
ATOM      1  C   UNL     1      14.175 -11.231  11.115  1.00  0.00     0.184 A 
ATOM      2  C   UNL     1      14.216 -10.737   9.799  1.00  0.00     0.208 A 
ATOM      3  C   UNL     1      14.593  -9.401   9.585  1.00  0.00     0.238 A 
ATOM      4  O   UNL     1      14.573  -8.950   8.410  1.00  0.00    -0.285 OA
ATOM      5  C   UNL     1      14.944  -8.583  10.686  1.00  0.00     0.111 A 
ATOM      6  C   UNL     1      15.380  -7.227  10.582  1.00  0.00     0.134 A 
ATOM      7  C   UNL     1      15.577  -6.475  11.745  1.00  0.00     0.093 A 
ATOM      8  C   UNL     1      15.419  -7.047  13.009  1.00  0.00     0.123 A 
ATOM      9  C   UNL     1      15.052  -8.386  13.121  1.00  0.00     0.094 A 
ATOM     10  C   UNL     1      14.811  -9.153  11.979  1.00  0.00     0.146 A 
ATOM     11  O   UNL     1      14.452 -10.422  12.130  1.00  0.00    -0.451 OA
ENDROOT
BRANCH   1  12
ATOM     12  C   UNL     1      13.810 -12.636  11.410  1.00  0.00     0.063 A 
ATOM     13  C   UNL     1      12.150 -14.414  11.480  1.00  0.00     0.047 A 
ATOM     14  C   UNL     1      12.489 -13.082  11.229  1.00  0.00     0.020 A 
ATOM     15  C   UNL     1      13.127 -15.320  11.908  1.00  0.00     0.119 A 
ATOM     16  C   UNL     1      14.446 -14.889  12.080  1.00  0.00     0.093 A 
ATOM     17  C   UNL     1      14.795 -13.553  11.830  1.00  0.00     0.130 A 
BRANCH  15  18
ATOM     18  O   UNL     1      12.800 -16.650  12.162  1.00  0.00    -0.508 OA
ATOM     19  H   UNL     1      13.138 -17.401  11.571  1.00  0.00     0.293 HD
ENDBRANCH  15  18
BRANCH  17  20
ATOM     20  O   UNL     1      16.114 -13.135  12.012  1.00  0.00    -0.507 OA
ATOM     21  H   UNL     1      16.334 -12.217  12.380  1.00  0.00     0.293 HD
ENDBRANCH  17  20
ENDBRANCH   1  12
BRANCH   2  22
ATOM     22  O   UNL     1      13.853 -11.560   8.730  1.00  0.00    -0.502 OA
ATOM     23  H   UNL     1      13.733 -11.207   7.788  1.00  0.00     0.293 HD
ENDBRANCH   2  22
BRANCH   6  24
ATOM     24  O   UNL     1      15.657  -6.588   9.370  1.00  0.00    -0.507 OA
ATOM     25  H   UNL     1      16.556  -6.584   8.913  1.00  0.00     0.293 HD
ENDBRANCH   6  24
BRANCH   8  26
ATOM     26  O   UNL     1      15.633  -6.295  14.163  1.00  0.00    -0.508 OA
ATOM     27  H   UNL     1      15.843  -5.305  14.118  1.00  0.00     0.293 HD
ENDBRANCH   8  26
TORSDOF 6
ENDMDL
MODEL 7
REMARK VINA RESULT:    -4.716     12.461     15.038
REMARK INTER + INTRA:          -6.149
REMARK INTER:                  -5.673
REMARK INTRA:                  -0.475
REMARK UNBOUND:                -0.467
REMARK SMILES O=c1c(O)c(-c2ccc(O)cc2O)oc2cc(O)cc(O)c12
REMARK SMILES IDX 5 1 3 2 2 3 1 4 22 5 20 6 19 7 17 8 16 9 15 10 14 11 6 12
REMARK SMILES IDX 8 13 7 14 9 15 11 16 12 17 10 18 13 20 4 22 21 24 18 26
REMARK H PARENT 10 19 13 21 4 23 21 25 18 27
REMARK Flexibility Score: inf
ROOT
ATOM      1  C   UNL     1      25.081 -12.783  18.026  1.00  0.00     0.184 A 
ATOM      2  C   UNL     1      25.519 -11.908  19.035  1.00  0.00     0.208 A 
ATOM      3  C   UNL     1      25.936 -10.615  18.682  1.00  0.00     0.238 A 
ATOM      4  O   UNL     1      26.378  -9.856  19.583  1.00  0.00    -0.285 OA
ATOM      5  C   UNL     1      25.891 -10.206  17.327  1.00  0.00     0.111 A 
ATOM      6  C   UNL     1      26.252  -8.906  16.861  1.00  0.00     0.134 A 
ATOM      7  C   UNL     1      26.291  -8.653  15.484  1.00  0.00     0.093 A 
ATOM      8  C   UNL     1      25.920  -9.633  14.561  1.00  0.00     0.123 A 
ATOM      9  C   UNL     1      25.510 -10.885  15.009  1.00  0.00     0.094 A 
ATOM     10  C   UNL     1      25.495 -11.180  16.374  1.00  0.00     0.146 A 
ATOM     11  O   UNL     1      25.108 -12.391  16.758  1.00  0.00    -0.451 OA
ENDROOT
BRANCH   1  12
ATOM     12  C   UNL     1      24.605 -14.152  18.331  1.00  0.00     0.063 A 
ATOM     13  C   UNL     1      22.891 -15.643  19.204  1.00  0.00     0.047 A 
ATOM     14  C   UNL     1      23.354 -14.351  18.941  1.00  0.00     0.020 A 
ATOM     15  C   UNL     1      23.667 -16.754  18.852  1.00  0.00     0.119 A 
ATOM     16  C   UNL     1      24.907 -16.566  18.234  1.00  0.00     0.093 A 
ATOM     17  C   UNL     1      25.379 -15.273  17.968  1.00  0.00     0.130 A 
BRANCH  15  18
ATOM     18  O   UNL     1      23.216 -18.046  19.110  1.00  0.00    -0.508 OA
ATOM     19  H   UNL     1      22.384 -18.416  18.665  1.00  0.00     0.293 HD
ENDBRANCH  15  18
BRANCH  17  20
ATOM     20  O   UNL     1      26.622 -15.100  17.356  1.00  0.00    -0.507 OA
ATOM     21  H   UNL     1      27.081 -15.857  16.862  1.00  0.00     0.293 HD
ENDBRANCH  17  20
ENDBRANCH   1  12
BRANCH   2  22
ATOM     22  O   UNL     1      25.565 -12.339  20.364  1.00  0.00    -0.502 OA
ATOM     23  H   UNL     1      26.358 -12.841  20.745  1.00  0.00     0.293 HD
ENDBRANCH   2  22
BRANCH   6  24
ATOM     24  O   UNL     1      26.550  -7.830  17.702  1.00  0.00    -0.507 OA
ATOM     25  H   UNL     1      27.441  -7.678  18.148  1.00  0.00     0.293 HD
ENDBRANCH   6  24
BRANCH   8  26
ATOM     26  O   UNL     1      25.948  -9.367  13.193  1.00  0.00    -0.508 OA
ATOM     27  H   UNL     1      25.928 -10.113  12.508  1.00  0.00     0.293 HD
ENDBRANCH   8  26
TORSDOF 6
ENDMDL
MODEL 8
REMARK VINA RESULT:    -4.560     11.539     15.359
REMARK INTER + INTRA:          -5.960
REMARK INTER:                  -5.501
REMARK INTRA:                  -0.459
REMARK UNBOUND:                -0.467
REMARK SMILES O=c1c(O)c(-c2ccc(O)cc2O)oc2cc(O)cc(O)c12
REMARK SMILES IDX 5 1 3 2 2 3 1 4 22 5 20 6 19 7 17 8 16 9 15 10 14 11 6 12
REMARK SMILES IDX 8 13 7 14 9 15 11 16 12 17 10 18 13 20 4 22 21 24 18 26
REMARK H PARENT 10 19 13 21 4 23 21 25 18 27
REMARK Flexibility Score: inf
ROOT
ATOM      1  C   UNL     1      15.337 -16.267  21.012  1.00  0.00     0.184 A 
ATOM      2  C   UNL     1      16.408 -16.785  21.760  1.00  0.00     0.208 A 
ATOM      3  C   UNL     1      17.655 -16.143  21.700  1.00  0.00     0.238 A 
ATOM      4  O   UNL     1      18.623 -16.644  22.329  1.00  0.00    -0.285 OA
ATOM      5  C   UNL     1      17.810 -14.979  20.908  1.00  0.00     0.111 A 
ATOM      6  C   UNL     1      19.017 -14.225  20.805  1.00  0.00     0.134 A 
ATOM      7  C   UNL     1      19.093 -13.166  19.892  1.00  0.00     0.093 A 
ATOM      8  C   UNL     1      17.985 -12.792  19.128  1.00  0.00     0.123 A 
ATOM      9  C   UNL     1      16.785 -13.485  19.265  1.00  0.00     0.094 A 
ATOM     10  C   UNL     1      16.689 -14.570  20.140  1.00  0.00     0.146 A 
ATOM     11  O   UNL     1      15.529 -15.210  20.232  1.00  0.00    -0.451 OA
ENDROOT
BRANCH   1  12
ATOM     12  C   UNL     1      13.989 -16.880  21.049  1.00  0.00     0.063 A 
ATOM     13  C   UNL     1      11.921 -17.359  22.239  1.00  0.00     0.047 A 
ATOM     14  C   UNL     1      13.204 -16.805  22.213  1.00  0.00     0.020 A 
ATOM     15  C   UNL     1      11.401 -17.987  21.101  1.00  0.00     0.119 A 
ATOM     16  C   UNL     1      12.170 -18.055  19.935  1.00  0.00     0.093 A 
ATOM     17  C   UNL     1      13.459 -17.503  19.900  1.00  0.00     0.130 A 
BRANCH  15  18
ATOM     18  O   UNL     1      10.124 -18.542  21.116  1.00  0.00    -0.508 OA
ATOM     19  H   UNL     1       9.854 -19.267  20.461  1.00  0.00     0.293 HD
ENDBRANCH  15  18
BRANCH  17  20
ATOM     20  O   UNL     1      14.217 -17.585  18.731  1.00  0.00    -0.507 OA
ATOM     21  H   UNL     1      15.200 -17.339  18.717  1.00  0.00     0.293 HD
ENDBRANCH  17  20
ENDBRANCH   1  12
BRANCH   2  22
ATOM     22  O   UNL     1      16.233 -17.942  22.525  1.00  0.00    -0.502 OA
ATOM     23  H   UNL     1      15.726 -18.749  22.181  1.00  0.00     0.293 HD
ENDBRANCH   2  22
BRANCH   6  24
ATOM     24  O   UNL     1      20.151 -14.456  21.589  1.00  0.00    -0.507 OA
ATOM     25  H   UNL     1      20.174 -14.409  22.596  1.00  0.00     0.293 HD
ENDBRANCH   6  24
BRANCH   8  26
ATOM     26  O   UNL     1      18.065 -11.727  18.233  1.00  0.00    -0.508 OA
ATOM     27  H   UNL     1      18.630 -10.909  18.433  1.00  0.00     0.293 HD
ENDBRANCH   8  26
TORSDOF 6
ENDMDL
MODEL 9
REMARK VINA RESULT:    -4.501     10.183     12.474
REMARK INTER + INTRA:          -5.889
REMARK INTER:                  -5.481
REMARK INTRA:                  -0.409
REMARK UNBOUND:                -0.467
REMARK SMILES O=c1c(O)c(-c2ccc(O)cc2O)oc2cc(O)cc(O)c12
REMARK SMILES IDX 5 1 3 2 2 3 1 4 22 5 20 6 19 7 17 8 16 9 15 10 14 11 6 12
REMARK SMILES IDX 8 13 7 14 9 15 11 16 12 17 10 18 13 20 4 22 21 24 18 26
REMARK H PARENT 10 19 13 21 4 23 21 25 18 27
REMARK Flexibility Score: inf
ROOT
ATOM      1  C   UNL     1      16.404 -12.786  19.505  1.00  0.00     0.184 A 
ATOM      2  C   UNL     1      15.085 -12.489  19.888  1.00  0.00     0.208 A 
ATOM      3  C   UNL     1      14.178 -13.543  20.083  1.00  0.00     0.238 A 
ATOM      4  O   UNL     1      12.985 -13.268  20.372  1.00  0.00    -0.285 OA
ATOM      5  C   UNL     1      14.608 -14.882  19.913  1.00  0.00     0.111 A 
ATOM      6  C   UNL     1      13.786 -16.030  20.123  1.00  0.00     0.134 A 
ATOM      7  C   UNL     1      14.278 -17.300  19.800  1.00  0.00     0.093 A 
ATOM      8  C   UNL     1      15.585 -17.470  19.337  1.00  0.00     0.123 A 
ATOM      9  C   UNL     1      16.414 -16.362  19.185  1.00  0.00     0.094 A 
ATOM     10  C   UNL     1      15.940 -15.078  19.463  1.00  0.00     0.146 A 
ATOM     11  O   UNL     1      16.760 -14.047  19.294  1.00  0.00    -0.451 OA
ENDROOT
BRANCH   1  12
ATOM     12  C   UNL     1      17.418 -11.724  19.306  1.00  0.00     0.063 A 
ATOM     13  C   UNL     1      18.249  -9.810  18.055  1.00  0.00     0.047 A 
ATOM     14  C   UNL     1      17.310 -10.829  18.227  1.00  0.00     0.020 A 
ATOM     15  C   UNL     1      19.305  -9.664  18.964  1.00  0.00     0.119 A 
ATOM     16  C   UNL     1      19.413 -10.542  20.046  1.00  0.00     0.093 A 
ATOM     17  C   UNL     1      18.475 -11.569  20.226  1.00  0.00     0.130 A 
BRANCH  15  18
ATOM     18  O   UNL     1      20.247  -8.652  18.802  1.00  0.00    -0.508 OA
ATOM     19  H   UNL     1      21.117  -8.649  19.323  1.00  0.00     0.293 HD
ENDBRANCH  15  18
BRANCH  17  20
ATOM     20  O   UNL     1      18.600 -12.442  21.308  1.00  0.00    -0.507 OA
ATOM     21  H   UNL     1      18.929 -12.123  22.212  1.00  0.00     0.293 HD
ENDBRANCH  17  20
ENDBRANCH   1  12
BRANCH   2  22
ATOM     22  O   UNL     1      14.681 -11.160  20.039  1.00  0.00    -0.502 OA
ATOM     23  H   UNL     1      14.975 -10.588  20.822  1.00  0.00     0.293 HD
ENDBRANCH   2  22
BRANCH   6  24
ATOM     24  O   UNL     1      12.499 -15.979  20.668  1.00  0.00    -0.507 OA
ATOM     25  H   UNL     1      11.678 -15.661  20.177  1.00  0.00     0.293 HD
ENDBRANCH   6  24
BRANCH   8  26
ATOM     26  O   UNL     1      16.072 -18.740  19.033  1.00  0.00    -0.508 OA
ATOM     27  H   UNL     1      16.941 -19.082  19.427  1.00  0.00     0.293 HD
ENDBRANCH   8  26
TORSDOF 6
ENDMDL
