MODEL 1
REMARK VINA RESULT:    -3.670      0.000      0.000
REMARK INTER + INTRA:          -9.008
REMARK INTER:                  -7.104
REMARK INTRA:                  -1.904
REMARK UNBOUND:                -1.904
REMARK SMILES CCCCCCCCCCCCCCCCCC(=O)[O-]
REMARK SMILES IDX 10 1 11 2 12 3 13 4 14 5 15 6 16 7 17 8 18 9 19 10 20 11
REMARK SMILES IDX 9 12 8 13 7 14 6 15 5 16 4 17 3 18 2 19 1 20
REMARK H PARENT
REMARK Flexibility Score: inf
ROOT
ATOM      1  C   UNL     1      -4.577  38.589  22.622  1.00  0.00     0.000 C 
ENDROOT
BRANCH   1   2
ATOM      2  C   UNL     1      -5.698  39.122  21.714  1.00  0.00     0.000 C 
BRANCH   2   3
ATOM      3  C   UNL     1      -5.529  38.694  20.249  1.00  0.00     0.000 C 
BRANCH   3   4
ATOM      4  C   UNL     1      -4.195  37.958  20.045  1.00  0.00     0.000 C 
BRANCH   4   5
ATOM      5  C   UNL     1      -3.951  37.568  18.578  1.00  0.00     0.000 C 
BRANCH   5   6
ATOM      6  C   UNL     1      -2.456  37.454  18.239  1.00  0.00     0.000 C 
BRANCH   6   7
ATOM      7  C   UNL     1      -2.161  36.353  17.203  1.00  0.00     0.006 C 
BRANCH   7   8
ATOM      8  C   UNL     1      -3.314  36.077  16.223  1.00  0.00     0.053 C 
BRANCH   8   9
ATOM      9  C   UNL     1      -3.096  36.740  14.897  1.00  0.00     0.041 C 
ATOM     10  O   UNL     1      -2.099  36.433  14.191  1.00  0.00    -0.550 OA
ATOM     11  O   UNL     1      -4.010  37.676  14.430  1.00  0.00    -0.550 OA
ENDBRANCH   8   9
ENDBRANCH   7   8
ENDBRANCH   6   7
ENDBRANCH   5   6
ENDBRANCH   4   5
ENDBRANCH   3   4
ENDBRANCH   2   3
ENDBRANCH   1   2
BRANCH   1  12
ATOM     12  C   UNL     1      -4.878  38.797  24.117  1.00  0.00     0.000 C 
BRANCH  12  13
ATOM     13  C   UNL     1      -4.805  37.491  24.930  1.00  0.00    -0.000 C 
BRANCH  13  14
ATOM     14  C   UNL     1      -6.123  36.701  25.020  1.00  0.00    -0.000 C 
BRANCH  14  15
ATOM     15  C   UNL     1      -5.975  35.236  24.582  1.00  0.00    -0.000 C 
BRANCH  15  16
ATOM     16  C   UNL     1      -6.047  35.107  23.055  1.00  0.00    -0.000 C 
BRANCH  16  17
ATOM     17  C   UNL     1      -4.640  35.083  22.440  1.00  0.00    -0.000 C 
BRANCH  17  18
ATOM     18  C   UNL     1      -4.660  34.839  20.924  1.00  0.00    -0.000 C 
BRANCH  18  19
ATOM     19  C   UNL     1      -6.063  34.998  20.319  1.00  0.00    -0.003 C 
ATOM     20  C   UNL     1      -6.058  34.675  18.828  1.00  0.00     0.004 C 
ENDBRANCH  18  19
ENDBRANCH  17  18
ENDBRANCH  16  17
ENDBRANCH  15  16
ENDBRANCH  14  15
ENDBRANCH  13  14
ENDBRANCH  12  13
ENDBRANCH   1  12
TORSDOF 16
ENDMDL
MODEL 2
REMARK VINA RESULT:    -3.546      2.861      7.027
REMARK INTER + INTRA:          -8.767
REMARK INTER:                  -7.299
REMARK INTRA:                  -1.468
REMARK UNBOUND:                -1.904
REMARK SMILES CCCCCCCCCCCCCCCCCC(=O)[O-]
REMARK SMILES IDX 10 1 11 2 12 3 13 4 14 5 15 6 16 7 17 8 18 9 19 10 20 11
REMARK SMILES IDX 9 12 8 13 7 14 6 15 5 16 4 17 3 18 2 19 1 20
REMARK H PARENT
REMARK Flexibility Score: inf
ROOT
ATOM      1  C   UNL     1      -5.480  36.984  19.918  1.00  0.00     0.000 C 
ENDROOT
BRANCH   1   2
ATOM      2  C   UNL     1      -5.708  35.742  20.795  1.00  0.00     0.000 C 
BRANCH   2   3
ATOM      3  C   UNL     1      -4.395  35.088  21.251  1.00  0.00     0.000 C 
BRANCH   3   4
ATOM      4  C   UNL     1      -4.353  34.956  22.781  1.00  0.00     0.000 C 
BRANCH   4   5
ATOM      5  C   UNL     1      -5.705  35.272  23.442  1.00  0.00     0.000 C 
BRANCH   5   6
ATOM      6  C   UNL     1      -5.550  36.053  24.757  1.00  0.00     0.000 C 
BRANCH   6   7
ATOM      7  C   UNL     1      -5.124  37.517  24.536  1.00  0.00     0.006 C 
BRANCH   7   8
ATOM      8  C   UNL     1      -5.837  38.216  23.366  1.00  0.00     0.053 C 
BRANCH   8   9
ATOM      9  C   UNL     1      -4.918  39.129  22.613  1.00  0.00     0.041 C 
ATOM     10  O   UNL     1      -3.758  38.747  22.305  1.00  0.00    -0.550 OA
ATOM     11  O   UNL     1      -5.354  40.389  22.227  1.00  0.00    -0.550 OA
ENDBRANCH   8   9
ENDBRANCH   7   8
ENDBRANCH   6   7
ENDBRANCH   5   6
ENDBRANCH   4   5
ENDBRANCH   3   4
ENDBRANCH   2   3
ENDBRANCH   1   2
BRANCH   1  12
ATOM     12  C   UNL     1      -4.492  36.723  18.768  1.00  0.00     0.000 C 
BRANCH  12  13
ATOM     13  C   UNL     1      -3.096  37.319  19.030  1.00  0.00    -0.000 C 
BRANCH  13  14
ATOM     14  C   UNL     1      -2.259  37.605  17.770  1.00  0.00    -0.000 C 
BRANCH  14  15
ATOM     15  C   UNL     1      -1.963  36.342  16.948  1.00  0.00    -0.000 C 
BRANCH  15  16
ATOM     16  C   UNL     1      -1.992  36.643  15.445  1.00  0.00    -0.000 C 
BRANCH  16  17
ATOM     17  C   UNL     1      -3.306  36.160  14.813  1.00  0.00    -0.000 C 
BRANCH  17  18
ATOM     18  C   UNL     1      -3.944  37.212  13.894  1.00  0.00    -0.000 C 
BRANCH  18  19
ATOM     19  C   UNL     1      -3.931  38.620  14.510  1.00  0.00    -0.003 C 
ATOM     20  C   UNL     1      -4.999  39.506  13.877  1.00  0.00     0.004 C 
ENDBRANCH  18  19
ENDBRANCH  17  18
ENDBRANCH  16  17
ENDBRANCH  15  16
ENDBRANCH  14  15
ENDBRANCH  13  14
ENDBRANCH  12  13
ENDBRANCH   1  12
TORSDOF 16
ENDMDL
MODEL 3
REMARK VINA RESULT:    -3.424      1.948      3.726
REMARK INTER + INTRA:          -8.531
REMARK INTER:                  -6.663
REMARK INTRA:                  -1.868
REMARK UNBOUND:                -1.904
REMARK SMILES CCCCCCCCCCCCCCCCCC(=O)[O-]
REMARK SMILES IDX 10 1 11 2 12 3 13 4 14 5 15 6 16 7 17 8 18 9 19 10 20 11
REMARK SMILES IDX 9 12 8 13 7 14 6 15 5 16 4 17 3 18 2 19 1 20
REMARK H PARENT
REMARK Flexibility Score: inf
ROOT
ATOM      1  C   UNL     1      -4.270  35.311  22.058  1.00  0.00     0.000 C 
ENDROOT
BRANCH   1   2
ATOM      2  C   UNL     1      -4.198  35.180  20.528  1.00  0.00     0.000 C 
BRANCH   2   3
ATOM      3  C   UNL     1      -5.478  35.664  19.829  1.00  0.00     0.000 C 
BRANCH   3   4
ATOM      4  C   UNL     1      -5.562  35.110  18.398  1.00  0.00     0.000 C 
BRANCH   4   5
ATOM      5  C   UNL     1      -4.178  34.871  17.771  1.00  0.00     0.000 C 
BRANCH   5   6
ATOM      6  C   UNL     1      -3.920  35.772  16.552  1.00  0.00     0.000 C 
BRANCH   6   7
ATOM      7  C   UNL     1      -3.249  37.107  16.928  1.00  0.00     0.006 C 
BRANCH   7   8
ATOM      8  C   UNL     1      -1.753  36.994  17.266  1.00  0.00     0.053 C 
BRANCH   8   9
ATOM      9  C   UNL     1      -1.448  37.496  18.644  1.00  0.00     0.041 C 
ATOM     10  O   UNL     1      -0.254  37.619  19.024  1.00  0.00    -0.550 OA
ATOM     11  O   UNL     1      -2.483  37.854  19.497  1.00  0.00    -0.550 OA
ENDBRANCH   8   9
ENDBRANCH   7   8
ENDBRANCH   6   7
ENDBRANCH   5   6
ENDBRANCH   4   5
ENDBRANCH   3   4
ENDBRANCH   2   3
ENDBRANCH   1   2
BRANCH   1  12
ATOM     12  C   UNL     1      -5.717  35.383  22.578  1.00  0.00     0.000 C 
BRANCH  12  13
ATOM     13  C   UNL     1      -5.967  34.460  23.785  1.00  0.00    -0.000 C 
BRANCH  13  14
ATOM     14  C   UNL     1      -6.125  35.179  25.137  1.00  0.00    -0.000 C 
BRANCH  14  15
ATOM     15  C   UNL     1      -6.053  36.708  25.014  1.00  0.00    -0.000 C 
BRANCH  15  16
ATOM     16  C   UNL     1      -4.638  37.219  25.313  1.00  0.00    -0.000 C 
BRANCH  16  17
ATOM     17  C   UNL     1      -4.328  38.484  24.498  1.00  0.00    -0.000 C 
BRANCH  17  18
ATOM     18  C   UNL     1      -5.478  38.881  23.561  1.00  0.00    -0.000 C 
BRANCH  18  19
ATOM     19  C   UNL     1      -4.981  39.518  22.253  1.00  0.00    -0.003 C 
ATOM     20  C   UNL     1      -5.468  38.731  21.041  1.00  0.00     0.004 C 
ENDBRANCH  18  19
ENDBRANCH  17  18
ENDBRANCH  16  17
ENDBRANCH  15  16
ENDBRANCH  14  15
ENDBRANCH  13  14
ENDBRANCH  12  13
ENDBRANCH   1  12
TORSDOF 16
ENDMDL
MODEL 4
REMARK VINA RESULT:    -3.406      2.497      6.453
REMARK INTER + INTRA:          -8.495
REMARK INTER:                  -7.275
REMARK INTRA:                  -1.220
REMARK UNBOUND:                -1.904
REMARK SMILES CCCCCCCCCCCCCCCCCC(=O)[O-]
REMARK SMILES IDX 10 1 11 2 12 3 13 4 14 5 15 6 16 7 17 8 18 9 19 10 20 11
REMARK SMILES IDX 9 12 8 13 7 14 6 15 5 16 4 17 3 18 2 19 1 20
REMARK H PARENT
REMARK Flexibility Score: inf
ROOT
ATOM      1  C   UNL     1      -4.824  35.578  21.728  1.00  0.00     0.000 C 
ENDROOT
BRANCH   1   2
ATOM      2  C   UNL     1      -4.987  34.366  22.658  1.00  0.00     0.000 C 
BRANCH   2   3
ATOM      3  C   UNL     1      -6.123  34.546  23.676  1.00  0.00     0.000 C 
BRANCH   3   4
ATOM      4  C   UNL     1      -6.118  35.971  24.254  1.00  0.00     0.000 C 
BRANCH   4   5
ATOM      5  C   UNL     1      -5.057  36.163  25.350  1.00  0.00     0.000 C 
BRANCH   5   6
ATOM      6  C   UNL     1      -4.619  37.630  25.496  1.00  0.00     0.000 C 
BRANCH   6   7
ATOM      7  C   UNL     1      -5.238  38.547  24.425  1.00  0.00     0.006 C 
BRANCH   7   8
ATOM      8  C   UNL     1      -4.225  39.130  23.425  1.00  0.00     0.053 C 
BRANCH   8   9
ATOM      9  C   UNL     1      -4.787  39.211  22.039  1.00  0.00     0.041 C 
ATOM     10  O   UNL     1      -4.180  38.670  21.077  1.00  0.00    -0.550 OA
ATOM     11  O   UNL     1      -5.993  39.860  21.815  1.00  0.00    -0.550 OA
ENDBRANCH   8   9
ENDBRANCH   7   8
ENDBRANCH   6   7
ENDBRANCH   5   6
ENDBRANCH   4   5
ENDBRANCH   3   4
ENDBRANCH   2   3
ENDBRANCH   1   2
BRANCH   1  12
ATOM     12  C   UNL     1      -5.992  35.724  20.736  1.00  0.00     0.000 C 
BRANCH  12  13
ATOM     13  C   UNL     1      -5.836  34.830  19.492  1.00  0.00    -0.000 C 
BRANCH  13  14
ATOM     14  C   UNL     1      -4.625  35.155  18.600  1.00  0.00    -0.000 C 
BRANCH  14  15
ATOM     15  C   UNL     1      -4.242  36.642  18.627  1.00  0.00    -0.000 C 
BRANCH  15  16
ATOM     16  C   UNL     1      -2.746  36.832  18.349  1.00  0.00    -0.000 C 
BRANCH  16  17
ATOM     17  C   UNL     1      -2.517  37.402  16.941  1.00  0.00    -0.000 C 
BRANCH  17  18
ATOM     18  C   UNL     1      -2.157  36.318  15.914  1.00  0.00    -0.000 C 
BRANCH  18  19
ATOM     19  C   UNL     1      -3.112  36.305  14.710  1.00  0.00    -0.003 C 
ATOM     20  C   UNL     1      -3.847  37.636  14.578  1.00  0.00     0.004 C 
ENDBRANCH  18  19
ENDBRANCH  17  18
ENDBRANCH  16  17
ENDBRANCH  15  16
ENDBRANCH  14  15
ENDBRANCH  13  14
ENDBRANCH  12  13
ENDBRANCH   1  12
TORSDOF 16
ENDMDL
MODEL 5
REMARK VINA RESULT:    -3.175      1.270      3.243
REMARK INTER + INTRA:          -8.049
REMARK INTER:                  -6.822
REMARK INTRA:                  -1.227
REMARK UNBOUND:                -1.904
REMARK SMILES CCCCCCCCCCCCCCCCCC(=O)[O-]
REMARK SMILES IDX 10 1 11 2 12 3 13 4 14 5 15 6 16 7 17 8 18 9 19 10 20 11
REMARK SMILES IDX 9 12 8 13 7 14 6 15 5 16 4 17 3 18 2 19 1 20
REMARK H PARENT
REMARK Flexibility Score: inf
ROOT
ATOM      1  C   UNL     1      -4.041  36.029  21.014  1.00  0.00     0.000 C 
ENDROOT
BRANCH   1   2
ATOM      2  C   UNL     1      -3.490  37.195  20.176  1.00  0.00     0.000 C 
BRANCH   2   3
ATOM      3  C   UNL     1      -4.067  37.228  18.753  1.00  0.00     0.000 C 
BRANCH   3   4
ATOM      4  C   UNL     1      -4.396  35.809  18.263  1.00  0.00     0.000 C 
BRANCH   4   5
ATOM      5  C   UNL     1      -3.589  35.408  17.018  1.00  0.00     0.000 C 
BRANCH   5   6
ATOM      6  C   UNL     1      -2.723  36.560  16.481  1.00  0.00     0.000 C 
BRANCH   6   7
ATOM      7  C   UNL     1      -1.966  36.186  15.192  1.00  0.00     0.006 C 
BRANCH   7   8
ATOM      8  C   UNL     1      -2.491  36.880  13.924  1.00  0.00     0.053 C 
BRANCH   8   9
ATOM      9  C   UNL     1      -3.863  37.448  14.119  1.00  0.00     0.041 C 
ATOM     10  O   UNL     1      -4.880  36.746  13.877  1.00  0.00    -0.550 OA
ATOM     11  O   UNL     1      -4.017  38.743  14.596  1.00  0.00    -0.550 OA
ENDBRANCH   8   9
ENDBRANCH   7   8
ENDBRANCH   6   7
ENDBRANCH   5   6
ENDBRANCH   4   5
ENDBRANCH   3   4
ENDBRANCH   2   3
ENDBRANCH   1   2
BRANCH   1  12
ATOM     12  C   UNL     1      -5.574  36.067  21.144  1.00  0.00     0.000 C 
BRANCH  12  13
ATOM     13  C   UNL     1      -6.125  34.956  22.058  1.00  0.00    -0.000 C 
BRANCH  13  14
ATOM     14  C   UNL     1      -5.363  34.759  23.380  1.00  0.00    -0.000 C 
BRANCH  14  15
ATOM     15  C   UNL     1      -5.940  35.591  24.535  1.00  0.00    -0.000 C 
BRANCH  15  16
ATOM     16  C   UNL     1      -5.095  36.847  24.785  1.00  0.00    -0.000 C 
BRANCH  16  17
ATOM     17  C   UNL     1      -5.664  38.052  24.019  1.00  0.00    -0.000 C 
BRANCH  17  18
ATOM     18  C   UNL     1      -4.577  38.859  23.294  1.00  0.00    -0.000 C 
BRANCH  18  19
ATOM     19  C   UNL     1      -5.151  40.053  22.514  1.00  0.00    -0.003 C 
ATOM     20  C   UNL     1      -5.985  39.582  21.326  1.00  0.00     0.004 C 
ENDBRANCH  18  19
ENDBRANCH  17  18
ENDBRANCH  16  17
ENDBRANCH  15  16
ENDBRANCH  14  15
ENDBRANCH  13  14
ENDBRANCH  12  13
ENDBRANCH   1  12
TORSDOF 16
ENDMDL
MODEL 6
REMARK VINA RESULT:    -3.036      0.966      3.243
REMARK INTER + INTRA:          -7.780
REMARK INTER:                  -6.208
REMARK INTRA:                  -1.573
REMARK UNBOUND:                -1.904
REMARK SMILES CCCCCCCCCCCCCCCCCC(=O)[O-]
REMARK SMILES IDX 10 1 11 2 12 3 13 4 14 5 15 6 16 7 17 8 18 9 19 10 20 11
REMARK SMILES IDX 9 12 8 13 7 14 6 15 5 16 4 17 3 18 2 19 1 20
REMARK H PARENT
REMARK Flexibility Score: inf
ROOT
ATOM      1  C   UNL     1      -4.422  34.672  22.777  1.00  0.00     0.000 C 
ENDROOT
BRANCH   1   2
ATOM      2  C   UNL     1      -4.340  34.913  21.261  1.00  0.00     0.000 C 
BRANCH   2   3
ATOM      3  C   UNL     1      -5.684  35.342  20.654  1.00  0.00     0.000 C 
BRANCH   3   4
ATOM      4  C   UNL     1      -5.721  35.048  19.146  1.00  0.00     0.000 C 
BRANCH   4   5
ATOM      5  C   UNL     1      -4.319  34.980  18.520  1.00  0.00     0.000 C 
BRANCH   5   6
ATOM      6  C   UNL     1      -3.893  36.311  17.879  1.00  0.00     0.000 C 
BRANCH   6   7
ATOM      7  C   UNL     1      -2.719  36.151  16.895  1.00  0.00     0.006 C 
BRANCH   7   8
ATOM      8  C   UNL     1      -2.529  37.336  15.933  1.00  0.00     0.053 C 
BRANCH   8   9
ATOM      9  C   UNL     1      -3.452  37.258  14.756  1.00  0.00     0.041 C 
ATOM     10  O   UNL     1      -4.227  38.216  14.495  1.00  0.00    -0.550 OA
ATOM     11  O   UNL     1      -3.436  36.140  13.933  1.00  0.00    -0.550 OA
ENDBRANCH   8   9
ENDBRANCH   7   8
ENDBRANCH   6   7
ENDBRANCH   5   6
ENDBRANCH   4   5
ENDBRANCH   3   4
ENDBRANCH   2   3
ENDBRANCH   1   2
BRANCH   1  12
ATOM     12  C   UNL     1      -5.853  34.822  23.323  1.00  0.00     0.000 C 
BRANCH  12  13
ATOM     13  C   UNL     1      -6.125  36.217  23.915  1.00  0.00    -0.000 C 
BRANCH  13  14
ATOM     14  C   UNL     1      -5.648  36.417  25.365  1.00  0.00    -0.000 C 
BRANCH  14  15
ATOM     15  C   UNL     1      -4.670  37.591  25.519  1.00  0.00    -0.000 C 
BRANCH  15  16
ATOM     16  C   UNL     1      -4.282  38.167  24.151  1.00  0.00    -0.000 C 
BRANCH  16  17
ATOM     17  C   UNL     1      -4.987  39.509  23.901  1.00  0.00    -0.000 C 
BRANCH  17  18
ATOM     18  C   UNL     1      -5.100  39.849  22.407  1.00  0.00    -0.000 C 
BRANCH  18  19
ATOM     19  C   UNL     1      -4.648  38.692  21.502  1.00  0.00    -0.003 C 
ATOM     20  C   UNL     1      -5.544  38.575  20.273  1.00  0.00     0.004 C 
ENDBRANCH  18  19
ENDBRANCH  17  18
ENDBRANCH  16  17
ENDBRANCH  15  16
ENDBRANCH  14  15
ENDBRANCH  13  14
ENDBRANCH  12  13
ENDBRANCH   1  12
TORSDOF 16
ENDMDL
MODEL 7
REMARK VINA RESULT:    -3.030      1.960      3.832
REMARK INTER + INTRA:          -7.769
REMARK INTER:                  -6.314
REMARK INTRA:                  -1.455
REMARK UNBOUND:                -1.904
REMARK SMILES CCCCCCCCCCCCCCCCCC(=O)[O-]
REMARK SMILES IDX 10 1 11 2 12 3 13 4 14 5 15 6 16 7 17 8 18 9 19 10 20 11
REMARK SMILES IDX 9 12 8 13 7 14 6 15 5 16 4 17 3 18 2 19 1 20
REMARK H PARENT
REMARK Flexibility Score: inf
ROOT
ATOM      1  C   UNL     1      -4.125  36.848  20.754  1.00  0.00     0.000 C 
ENDROOT
BRANCH   1   2
ATOM      2  C   UNL     1      -4.194  35.368  20.345  1.00  0.00     0.000 C 
BRANCH   2   3
ATOM      3  C   UNL     1      -5.505  35.010  19.628  1.00  0.00     0.000 C 
BRANCH   3   4
ATOM      4  C   UNL     1      -5.233  34.574  18.179  1.00  0.00     0.000 C 
BRANCH   4   5
ATOM      5  C   UNL     1      -3.838  34.990  17.686  1.00  0.00     0.000 C 
BRANCH   5   6
ATOM      6  C   UNL     1      -3.898  35.994  16.522  1.00  0.00     0.000 C 
BRANCH   6   7
ATOM      7  C   UNL     1      -3.026  37.240  16.763  1.00  0.00     0.006 C 
BRANCH   7   8
ATOM      8  C   UNL     1      -1.561  36.933  17.114  1.00  0.00     0.053 C 
BRANCH   8   9
ATOM      9  C   UNL     1      -1.167  37.510  18.440  1.00  0.00     0.041 C 
ATOM     10  O   UNL     1      -0.045  37.236  18.942  1.00  0.00    -0.550 OA
ATOM     11  O   UNL     1      -2.028  38.372  19.105  1.00  0.00    -0.550 OA
ENDBRANCH   8   9
ENDBRANCH   7   8
ENDBRANCH   6   7
ENDBRANCH   5   6
ENDBRANCH   4   5
ENDBRANCH   3   4
ENDBRANCH   2   3
ENDBRANCH   1   2
BRANCH   1  12
ATOM     12  C   UNL     1      -5.475  37.569  20.595  1.00  0.00     0.000 C 
BRANCH  12  13
ATOM     13  C   UNL     1      -5.367  39.093  20.786  1.00  0.00    -0.000 C 
BRANCH  13  14
ATOM     14  C   UNL     1      -5.364  39.571  22.250  1.00  0.00    -0.000 C 
BRANCH  14  15
ATOM     15  C   UNL     1      -5.664  38.443  23.248  1.00  0.00    -0.000 C 
BRANCH  15  16
ATOM     16  C   UNL     1      -4.471  38.201  24.181  1.00  0.00    -0.000 C 
BRANCH  16  17
ATOM     17  C   UNL     1      -4.831  37.190  25.281  1.00  0.00    -0.000 C 
BRANCH  17  18
ATOM     18  C   UNL     1      -5.964  36.240  24.864  1.00  0.00    -0.000 C 
BRANCH  18  19
ATOM     19  C   UNL     1      -5.542  35.270  23.750  1.00  0.00    -0.003 C 
ATOM     20  C   UNL     1      -6.124  33.879  23.982  1.00  0.00     0.004 C 
ENDBRANCH  18  19
ENDBRANCH  17  18
ENDBRANCH  16  17
ENDBRANCH  15  16
ENDBRANCH  14  15
ENDBRANCH  13  14
ENDBRANCH  12  13
ENDBRANCH   1  12
TORSDOF 16
ENDMDL
MODEL 8
REMARK VINA RESULT:    -2.858      0.954      1.396
REMARK INTER + INTRA:          -7.434
REMARK INTER:                  -6.428
REMARK INTRA:                  -1.006
REMARK UNBOUND:                -1.904
REMARK SMILES CCCCCCCCCCCCCCCCCC(=O)[O-]
REMARK SMILES IDX 10 1 11 2 12 3 13 4 14 5 15 6 16 7 17 8 18 9 19 10 20 11
REMARK SMILES IDX 9 12 8 13 7 14 6 15 5 16 4 17 3 18 2 19 1 20
REMARK H PARENT
REMARK Flexibility Score: inf
ROOT
ATOM      1  C   UNL     1      -4.334  39.222  22.399  1.00  0.00     0.000 C 
ENDROOT
BRANCH   1   2
ATOM      2  C   UNL     1      -5.289  39.273  21.195  1.00  0.00     0.000 C 
BRANCH   2   3
ATOM      3  C   UNL     1      -5.413  37.921  20.477  1.00  0.00     0.000 C 
BRANCH   3   4
ATOM      4  C   UNL     1      -4.522  37.883  19.225  1.00  0.00     0.000 C 
BRANCH   4   5
ATOM      5  C   UNL     1      -3.150  37.243  19.493  1.00  0.00     0.000 C 
BRANCH   5   6
ATOM      6  C   UNL     1      -2.089  37.670  18.465  1.00  0.00     0.000 C 
BRANCH   6   7
ATOM      7  C   UNL     1      -1.897  36.635  17.341  1.00  0.00     0.006 C 
BRANCH   7   8
ATOM      8  C   UNL     1      -3.166  36.339  16.525  1.00  0.00     0.053 C 
BRANCH   8   9
ATOM      9  C   UNL     1      -3.123  36.971  15.168  1.00  0.00     0.041 C 
ATOM     10  O   UNL     1      -2.424  36.461  14.252  1.00  0.00    -0.550 OA
ATOM     11  O   UNL     1      -3.877  38.108  14.907  1.00  0.00    -0.550 OA
ENDBRANCH   8   9
ENDBRANCH   7   8
ENDBRANCH   6   7
ENDBRANCH   5   6
ENDBRANCH   4   5
ENDBRANCH   3   4
ENDBRANCH   2   3
ENDBRANCH   1   2
BRANCH   1  12
ATOM     12  C   UNL     1      -5.073  39.009  23.732  1.00  0.00     0.000 C 
BRANCH  12  13
ATOM     13  C   UNL     1      -4.218  38.274  24.780  1.00  0.00    -0.000 C 
BRANCH  13  14
ATOM     14  C   UNL     1      -4.924  37.112  25.502  1.00  0.00    -0.000 C 
BRANCH  14  15
ATOM     15  C   UNL     1      -6.114  36.549  24.710  1.00  0.00    -0.000 C 
BRANCH  15  16
ATOM     16  C   UNL     1      -6.125  35.016  24.747  1.00  0.00    -0.000 C 
BRANCH  16  17
ATOM     17  C   UNL     1      -5.909  34.432  23.343  1.00  0.00    -0.000 C 
BRANCH  17  18
ATOM     18  C   UNL     1      -5.346  35.463  22.353  1.00  0.00    -0.000 C 
BRANCH  18  19
ATOM     19  C   UNL     1      -4.518  34.814  21.233  1.00  0.00    -0.003 C 
ATOM     20  C   UNL     1      -3.187  34.293  21.767  1.00  0.00     0.004 C 
ENDBRANCH  18  19
ENDBRANCH  17  18
ENDBRANCH  16  17
ENDBRANCH  15  16
ENDBRANCH  14  15
ENDBRANCH  13  14
ENDBRANCH  12  13
ENDBRANCH   1  12
TORSDOF 16
ENDMDL
MODEL 9
REMARK VINA RESULT:    -1.724      1.229      3.711
REMARK INTER + INTRA:          -5.240
REMARK INTER:                  -4.428
REMARK INTRA:                  -0.812
REMARK UNBOUND:                -1.904
REMARK SMILES CCCCCCCCCCCCCCCCCC(=O)[O-]
REMARK SMILES IDX 10 1 11 2 12 3 13 4 14 5 15 6 16 7 17 8 18 9 19 10 20 11
REMARK SMILES IDX 9 12 8 13 7 14 6 15 5 16 4 17 3 18 2 19 1 20
REMARK H PARENT
REMARK Flexibility Score: inf
ROOT
ATOM      1  C   UNL     1      -3.930  35.294  20.598  1.00  0.00     0.000 C 
ENDROOT
BRANCH   1   2
ATOM      2  C   UNL     1      -5.007  35.058  19.526  1.00  0.00     0.000 C 
BRANCH   2   3
ATOM      3  C   UNL     1      -4.416  34.625  18.176  1.00  0.00     0.000 C 
BRANCH   3   4
ATOM      4  C   UNL     1      -4.246  35.834  17.242  1.00  0.00     0.000 C 
BRANCH   4   5
ATOM      5  C   UNL     1      -3.105  36.766  17.679  1.00  0.00     0.000 C 
BRANCH   5   6
ATOM      6  C   UNL     1      -2.070  36.994  16.565  1.00  0.00     0.000 C 
BRANCH   6   7
ATOM      7  C   UNL     1      -2.282  36.067  15.354  1.00  0.00     0.006 C 
BRANCH   7   8
ATOM      8  C   UNL     1      -2.595  36.800  14.039  1.00  0.00     0.053 C 
BRANCH   8   9
ATOM      9  C   UNL     1      -3.941  37.457  14.067  1.00  0.00     0.041 C 
ATOM     10  O   UNL     1      -4.983  36.774  13.878  1.00  0.00    -0.550 OA
ATOM     11  O   UNL     1      -4.047  38.816  14.331  1.00  0.00    -0.550 OA
ENDBRANCH   8   9
ENDBRANCH   7   8
ENDBRANCH   6   7
ENDBRANCH   5   6
ENDBRANCH   4   5
ENDBRANCH   3   4
ENDBRANCH   2   3
ENDBRANCH   1   2
BRANCH   1  12
ATOM     12  C   UNL     1      -4.262  36.482  21.518  1.00  0.00     0.000 C 
BRANCH  12  13
ATOM     13  C   UNL     1      -4.221  37.837  20.787  1.00  0.00    -0.000 C 
BRANCH  13  14
ATOM     14  C   UNL     1      -5.510  38.672  20.884  1.00  0.00    -0.000 C 
BRANCH  14  15
ATOM     15  C   UNL     1      -5.586  39.510  22.169  1.00  0.00    -0.000 C 
BRANCH  15  16
ATOM     16  C   UNL     1      -4.490  39.099  23.160  1.00  0.00    -0.000 C 
BRANCH  16  17
ATOM     17  C   UNL     1      -5.098  38.446  24.410  1.00  0.00    -0.000 C 
BRANCH  17  18
ATOM     18  C   UNL     1      -5.994  37.244  24.075  1.00  0.00    -0.000 C 
BRANCH  18  19
ATOM     19  C   UNL     1      -5.610  35.982  24.863  1.00  0.00    -0.003 C 
ATOM     20  C   UNL     1      -6.125  34.724  24.171  1.00  0.00     0.004 C 
ENDBRANCH  18  19
ENDBRANCH  17  18
ENDBRANCH  16  17
ENDBRANCH  15  16
ENDBRANCH  14  15
ENDBRANCH  13  14
ENDBRANCH  12  13
ENDBRANCH   1  12
TORSDOF 16
ENDMDL
